
  -OEChem-05262214473D

 52 52  0     1  0  0  0  0  0999 V2000
   -1.8248    0.3424    3.9102 C   0  0  0  0  0  0  0  0  0  0  0  0
   -0.8774   -0.2723    3.4345 O   0  0  0  0  0  0  0  0  0  0  0  0
   -2.2566    0.0600    5.3109 C   0  0  0  0  0  0  0  0  0  0  0  0
   -3.0163   -0.7363    5.3643 H   0  0  0  0  0  0  0  0  0  0  0  0
   -1.4254   -0.2876    5.9452 H   0  0  0  0  0  0  0  0  0  0  0  0
   -2.6947    0.9149    5.8505 H   0  0  0  0  0  0  0  0  0  0  0  0
   -2.5745    1.3149    3.2691 N   0  0  0  0  0  0  0  0  0  0  0  0
   -2.3276    1.7409    1.9167 C   0  0  2  0  0  0  0  0  0  0  0  0
   -0.9926    1.1555    1.4755 C   0  0  0  0  0  0  0  0  0  0  0  0
   -0.1206    0.8028    2.2668 O   0  0  0  0  0  0  0  0  0  0  0  0
   -2.3188    3.2577    1.8072 C   0  0  0  0  0  0  0  0  0  0  0  0
   -3.3395    1.7507    3.7809 H   0  0  0  0  0  0  0  0  0  0  0  0
   -3.1317    1.3224    1.3015 H   0  0  0  0  0  0  0  0  0  0  0  0
   -1.5198    3.6949    2.4169 H   0  0  0  0  0  0  0  0  0  0  0  0
   -2.1594    3.5799    0.7729 H   0  0  0  0  0  0  0  0  0  0  0  0
   -3.2690    3.6789    2.1530 H   0  0  0  0  0  0  0  0  0  0  0  0
   -0.8700    1.1124    0.0921 N   0  0  0  0  0  0  0  0  0  0  0  0
    0.3073    0.6116   -0.5716 C   0  0  2  0  0  0  0  0  0  0  0  0
    0.0627    0.7270   -2.0719 C   0  0  0  0  0  0  0  0  0  0  0  0
   -0.9609    1.2136   -2.5475 O   0  0  0  0  0  0  0  0  0  0  0  0
    0.6121   -0.8419   -0.1915 C   0  0  0  0  0  0  0  0  0  0  0  0
    1.0158   -0.9947    1.2547 C   0  0  0  0  0  0  0  0  0  0  0  0
    2.3256   -0.7185    1.6467 C   0  0  0  0  0  0  0  0  0  0  0  0
    0.0783   -1.4120    2.1995 C   0  0  0  0  0  0  0  0  0  0  0  0
    2.6980   -0.8596    2.9835 C   0  0  0  0  0  0  0  0  0  0  0  0
    0.4507   -1.5532    3.5363 C   0  0  0  0  0  0  0  0  0  0  0  0
    1.7606   -1.2769    3.9283 C   0  0  0  0  0  0  0  0  0  0  0  0
   -1.6531    1.4091   -0.4852 H   0  0  0  0  0  0  0  0  0  0  0  0
    1.1316    1.2774   -0.2901 H   0  0  0  0  0  0  0  0  0  0  0  0
    1.4006   -1.2474   -0.8399 H   0  0  0  0  0  0  0  0  0  0  0  0
   -0.2647   -1.4777   -0.3727 H   0  0  0  0  0  0  0  0  0  0  0  0
    3.0627   -0.3926    0.9175 H   0  0  0  0  0  0  0  0  0  0  0  0
   -0.9445   -1.6294    1.9032 H   0  0  0  0  0  0  0  0  0  0  0  0
    3.7182   -0.6455    3.2884 H   0  0  0  0  0  0  0  0  0  0  0  0
   -0.2791   -1.8792    4.2714 H   0  0  0  0  0  0  0  0  0  0  0  0
    2.0510   -1.3881    4.9689 H   0  0  0  0  0  0  0  0  0  0  0  0
    1.1439    0.2680   -2.8114 N   0  0  0  0  0  0  0  0  0  0  0  0
    1.1821    0.2859   -4.2561 C   0  0  2  0  0  0  0  0  0  0  0  0
   -0.1042   -0.3481   -4.7685 C   0  0  0  0  0  0  0  0  0  0  0  0
   -0.7845   -1.1215   -4.0975 O   0  0  0  0  0  0  0  0  0  0  0  0
    2.4011   -0.4527   -4.7865 C   0  0  0  0  0  0  0  0  0  0  0  0
    1.9487   -0.0991   -2.3122 H   0  0  0  0  0  0  0  0  0  0  0  0
    1.2170    1.3383   -4.5585 H   0  0  0  0  0  0  0  0  0  0  0  0
    2.3837   -1.5088   -4.4936 H   0  0  0  0  0  0  0  0  0  0  0  0
    2.4439   -0.4137   -5.8800 H   0  0  0  0  0  0  0  0  0  0  0  0
    3.3244   -0.0138   -4.3933 H   0  0  0  0  0  0  0  0  0  0  0  0
   -0.3803    0.0173   -6.0787 N   0  0  0  0  0  0  0  0  0  0  0  0
   -1.5392   -0.4632   -6.7944 C   0  0  0  0  0  0  0  0  0  0  0  0
    0.2286    0.6784   -6.5519 H   0  0  0  0  0  0  0  0  0  0  0  0
   -1.2740   -1.3718   -7.3548 H   0  0  0  0  0  0  0  0  0  0  0  0
   -2.3418   -0.6950   -6.0788 H   0  0  0  0  0  0  0  0  0  0  0  0
   -1.8847    0.3116   -7.4946 H   0  0  0  0  0  0  0  0  0  0  0  0
 25 27  1  0  0  0  0
 26 27  2  0  0  0  0
 23 25  2  0  0  0  0
 24 26  1  0  0  0  0
 22 23  1  0  0  0  0
 22 24  2  0  0  0  0
 21 22  1  0  0  0  0
  1  3  1  0  0  0  0
  1  7  1  0  0  0  0
  1  2  2  0  0  0  0
 38 39  1  0  0  0  0
 39 47  1  0  0  0  0
 39 40  2  0  0  0  0
  8  9  1  0  0  0  0
  9 17  1  0  0  0  0
  9 10  2  0  0  0  0
 18 19  1  0  0  0  0
 19 37  1  0  0  0  0
 19 20  2  0  0  0  0
 38 41  1  0  0  0  0
  8 11  1  0  0  0  0
 47 48  1  0  0  0  0
 18 21  1  0  0  0  0
 37 38  1  0  0  0  0
  7  8  1  0  0  0  0
 17 18  1  0  0  0  0
 27 36  1  0  0  0  0
 25 34  1  0  0  0  0
 26 35  1  0  0  0  0
 23 32  1  0  0  0  0
 24 33  1  0  0  0  0
  3  4  1  0  0  0  0
  3  5  1  0  0  0  0
  3  6  1  0  0  0  0
 41 44  1  0  0  0  0
 41 45  1  0  0  0  0
 41 46  1  0  0  0  0
 11 14  1  0  0  0  0
 11 15  1  0  0  0  0
 11 16  1  0  0  0  0
 48 50  1  0  0  0  0
 48 51  1  0  0  0  0
 48 52  1  0  0  0  0
 21 30  1  0  0  0  0
 21 31  1  0  0  0  0
 38 43  1  0  0  0  0
  8 13  1  0  0  0  0
 18 29  1  0  0  0  0
 47 49  1  0  0  0  0
  7 12  1  0  0  0  0
 37 42  1  0  0  0  0
 17 28  1  0  0  0  0
M  END
$$$$

  -OEChem-05262214473D

 52 52  0     1  0  0  0  0  0999 V2000
   -1.8248    0.3424    3.9102 C   0  0  0  0  0  0  0  0  0  0  0  0
   -0.8774   -0.2723    3.4345 O   0  0  0  0  0  0  0  0  0  0  0  0
   -2.2566    0.0600    5.3109 C   0  0  0  0  0  0  0  0  0  0  0  0
   -3.0163   -0.7363    5.3643 H   0  0  0  0  0  0  0  0  0  0  0  0
   -1.4254   -0.2876    5.9452 H   0  0  0  0  0  0  0  0  0  0  0  0
   -2.6947    0.9149    5.8505 H   0  0  0  0  0  0  0  0  0  0  0  0
   -2.5745    1.3149    3.2691 N   0  0  0  0  0  0  0  0  0  0  0  0
   -2.3276    1.7409    1.9167 C   0  0  2  0  0  0  0  0  0  0  0  0
   -0.9926    1.1555    1.4755 C   0  0  0  0  0  0  0  0  0  0  0  0
   -0.1206    0.8028    2.2668 O   0  0  0  0  0  0  0  0  0  0  0  0
   -2.3188    3.2577    1.8072 C   0  0  0  0  0  0  0  0  0  0  0  0
   -3.3395    1.7507    3.7809 H   0  0  0  0  0  0  0  0  0  0  0  0
   -3.1317    1.3224    1.3015 H   0  0  0  0  0  0  0  0  0  0  0  0
   -1.5198    3.6949    2.4169 H   0  0  0  0  0  0  0  0  0  0  0  0
   -2.1594    3.5799    0.7729 H   0  0  0  0  0  0  0  0  0  0  0  0
   -3.2690    3.6789    2.1530 H   0  0  0  0  0  0  0  0  0  0  0  0
   -0.8700    1.1124    0.0921 N   0  0  0  0  0  0  0  0  0  0  0  0
    0.3073    0.6116   -0.5716 C   0  0  2  0  0  0  0  0  0  0  0  0
    0.0627    0.7270   -2.0719 C   0  0  0  0  0  0  0  0  0  0  0  0
   -0.8151    1.4398   -2.5539 O   0  0  0  0  0  0  0  0  0  0  0  0
    0.6121   -0.8419   -0.1915 C   0  0  0  0  0  0  0  0  0  0  0  0
    1.0158   -0.9947    1.2547 C   0  0  0  0  0  0  0  0  0  0  0  0
    2.3256   -0.7185    1.6467 C   0  0  0  0  0  0  0  0  0  0  0  0
    0.0783   -1.4120    2.1995 C   0  0  0  0  0  0  0  0  0  0  0  0
    2.6980   -0.8596    2.9835 C   0  0  0  0  0  0  0  0  0  0  0  0
    0.4507   -1.5532    3.5363 C   0  0  0  0  0  0  0  0  0  0  0  0
    1.7606   -1.2769    3.9283 C   0  0  0  0  0  0  0  0  0  0  0  0
   -1.6531    1.4091   -0.4852 H   0  0  0  0  0  0  0  0  0  0  0  0
    1.1316    1.2774   -0.2901 H   0  0  0  0  0  0  0  0  0  0  0  0
    1.4006   -1.2474   -0.8399 H   0  0  0  0  0  0  0  0  0  0  0  0
   -0.2647   -1.4777   -0.3727 H   0  0  0  0  0  0  0  0  0  0  0  0
    3.0627   -0.3926    0.9175 H   0  0  0  0  0  0  0  0  0  0  0  0
   -0.9445   -1.6294    1.9032 H   0  0  0  0  0  0  0  0  0  0  0  0
    3.7182   -0.6455    3.2884 H   0  0  0  0  0  0  0  0  0  0  0  0
   -0.2791   -1.8792    4.2714 H   0  0  0  0  0  0  0  0  0  0  0  0
    2.0510   -1.3881    4.9689 H   0  0  0  0  0  0  0  0  0  0  0  0
    0.9728   -0.0212   -2.8058 N   0  0  0  0  0  0  0  0  0  0  0  0
    0.9783   -0.0699   -4.2502 C   0  0  2  0  0  0  0  0  0  0  0  0
   -0.4394   -0.3743   -4.7159 C   0  0  0  0  0  0  0  0  0  0  0  0
   -1.2770   -0.9217   -4.0019 O   0  0  0  0  0  0  0  0  0  0  0  0
    1.9557   -1.1151   -4.7649 C   0  0  0  0  0  0  0  0  0  0  0  0
    1.6701   -0.5616   -2.3023 H   0  0  0  0  0  0  0  0  0  0  0  0
    1.2720    0.9261   -4.5991 H   0  0  0  0  0  0  0  0  0  0  0  0
    1.6777   -2.1196   -4.4254 H   0  0  0  0  0  0  0  0  0  0  0  0
    1.9797   -1.1310   -5.8595 H   0  0  0  0  0  0  0  0  0  0  0  0
    2.9698   -0.9113   -4.4045 H   0  0  0  0  0  0  0  0  0  0  0  0
   -0.6461   -0.0019   -6.0368 N   0  0  0  0  0  0  0  0  0  0  0  0
   -1.9065   -0.1983   -6.7141 C   0  0  0  0  0  0  0  0  0  0  0  0
    0.0989    0.4631   -6.5473 H   0  0  0  0  0  0  0  0  0  0  0  0
   -1.8952   -1.1656   -7.2376 H   0  0  0  0  0  0  0  0  0  0  0  0
   -2.7236   -0.1896   -5.9777 H   0  0  0  0  0  0  0  0  0  0  0  0
   -2.0611    0.6111   -7.4428 H   0  0  0  0  0  0  0  0  0  0  0  0
 25 27  1  0  0  0  0
 26 27  2  0  0  0  0
 23 25  2  0  0  0  0
 24 26  1  0  0  0  0
 22 23  1  0  0  0  0
 22 24  2  0  0  0  0
 21 22  1  0  0  0  0
  1  3  1  0  0  0  0
  1  7  1  0  0  0  0
  1  2  2  0  0  0  0
 38 39  1  0  0  0  0
 39 47  1  0  0  0  0
 39 40  2  0  0  0  0
  8  9  1  0  0  0  0
  9 17  1  0  0  0  0
  9 10  2  0  0  0  0
 18 19  1  0  0  0  0
 19 37  1  0  0  0  0
 19 20  2  0  0  0  0
 38 41  1  0  0  0  0
  8 11  1  0  0  0  0
 47 48  1  0  0  0  0
 18 21  1  0  0  0  0
 37 38  1  0  0  0  0
  7  8  1  0  0  0  0
 17 18  1  0  0  0  0
 27 36  1  0  0  0  0
 25 34  1  0  0  0  0
 26 35  1  0  0  0  0
 23 32  1  0  0  0  0
 24 33  1  0  0  0  0
  3  4  1  0  0  0  0
  3  5  1  0  0  0  0
  3  6  1  0  0  0  0
 41 44  1  0  0  0  0
 41 45  1  0  0  0  0
 41 46  1  0  0  0  0
 11 14  1  0  0  0  0
 11 15  1  0  0  0  0
 11 16  1  0  0  0  0
 48 50  1  0  0  0  0
 48 51  1  0  0  0  0
 48 52  1  0  0  0  0
 21 30  1  0  0  0  0
 21 31  1  0  0  0  0
 38 43  1  0  0  0  0
  8 13  1  0  0  0  0
 18 29  1  0  0  0  0
 47 49  1  0  0  0  0
  7 12  1  0  0  0  0
 37 42  1  0  0  0  0
 17 28  1  0  0  0  0
M  END
$$$$

  -OEChem-05262214473D

 52 52  0     1  0  0  0  0  0999 V2000
   -1.8248    0.3424    3.9102 C   0  0  0  0  0  0  0  0  0  0  0  0
   -0.8774   -0.2723    3.4345 O   0  0  0  0  0  0  0  0  0  0  0  0
   -2.2566    0.0600    5.3109 C   0  0  0  0  0  0  0  0  0  0  0  0
   -3.0163   -0.7363    5.3643 H   0  0  0  0  0  0  0  0  0  0  0  0
   -1.4254   -0.2876    5.9452 H   0  0  0  0  0  0  0  0  0  0  0  0
   -2.6947    0.9149    5.8505 H   0  0  0  0  0  0  0  0  0  0  0  0
   -2.5745    1.3149    3.2691 N   0  0  0  0  0  0  0  0  0  0  0  0
   -2.3276    1.7409    1.9167 C   0  0  2  0  0  0  0  0  0  0  0  0
   -0.9926    1.1555    1.4755 C   0  0  0  0  0  0  0  0  0  0  0  0
   -0.1206    0.8028    2.2668 O   0  0  0  0  0  0  0  0  0  0  0  0
   -2.3188    3.2577    1.8072 C   0  0  0  0  0  0  0  0  0  0  0  0
   -3.3395    1.7507    3.7809 H   0  0  0  0  0  0  0  0  0  0  0  0
   -3.1317    1.3224    1.3015 H   0  0  0  0  0  0  0  0  0  0  0  0
   -1.5198    3.6949    2.4169 H   0  0  0  0  0  0  0  0  0  0  0  0
   -2.1594    3.5799    0.7729 H   0  0  0  0  0  0  0  0  0  0  0  0
   -3.2690    3.6789    2.1530 H   0  0  0  0  0  0  0  0  0  0  0  0
   -0.8700    1.1124    0.0921 N   0  0  0  0  0  0  0  0  0  0  0  0
    0.3073    0.6116   -0.5716 C   0  0  2  0  0  0  0  0  0  0  0  0
    0.0627    0.7270   -2.0719 C   0  0  0  0  0  0  0  0  0  0  0  0
   -0.6167    1.6208   -2.5724 O   0  0  0  0  0  0  0  0  0  0  0  0
    0.6121   -0.8419   -0.1915 C   0  0  0  0  0  0  0  0  0  0  0  0
    1.0158   -0.9947    1.2547 C   0  0  0  0  0  0  0  0  0  0  0  0
    2.3256   -0.7185    1.6467 C   0  0  0  0  0  0  0  0  0  0  0  0
    0.0783   -1.4120    2.1995 C   0  0  0  0  0  0  0  0  0  0  0  0
    2.6980   -0.8596    2.9835 C   0  0  0  0  0  0  0  0  0  0  0  0
    0.4507   -1.5532    3.5363 C   0  0  0  0  0  0  0  0  0  0  0  0
    1.7606   -1.2769    3.9283 C   0  0  0  0  0  0  0  0  0  0  0  0
   -1.6531    1.4091   -0.4852 H   0  0  0  0  0  0  0  0  0  0  0  0
    1.1316    1.2774   -0.2901 H   0  0  0  0  0  0  0  0  0  0  0  0
    1.4006   -1.2474   -0.8399 H   0  0  0  0  0  0  0  0  0  0  0  0
   -0.2647   -1.4777   -0.3727 H   0  0  0  0  0  0  0  0  0  0  0  0
    3.0627   -0.3926    0.9175 H   0  0  0  0  0  0  0  0  0  0  0  0
   -0.9445   -1.6294    1.9032 H   0  0  0  0  0  0  0  0  0  0  0  0
    3.7182   -0.6455    3.2884 H   0  0  0  0  0  0  0  0  0  0  0  0
   -0.2791   -1.8792    4.2714 H   0  0  0  0  0  0  0  0  0  0  0  0
    2.0510   -1.3881    4.9689 H   0  0  0  0  0  0  0  0  0  0  0  0
    0.7340   -0.2566   -2.7849 N   0  0  0  0  0  0  0  0  0  0  0  0
    0.6909   -0.3614   -4.2258 C   0  0  2  0  0  0  0  0  0  0  0  0
   -0.7688   -0.3119   -4.6574 C   0  0  0  0  0  0  0  0  0  0  0  0
   -1.7000   -0.5992   -3.9081 O   0  0  0  0  0  0  0  0  0  0  0  0
    1.3572   -1.6407   -4.7077 C   0  0  0  0  0  0  0  0  0  0  0  0
    1.2833   -0.9370   -2.2681 H   0  0  0  0  0  0  0  0  0  0  0  0
    1.2194    0.5123   -4.6224 H   0  0  0  0  0  0  0  0  0  0  0  0
    0.8415   -2.5269   -4.3204 H   0  0  0  0  0  0  0  0  0  0  0  0
    1.3490   -1.7048   -5.8008 H   0  0  0  0  0  0  0  0  0  0  0  0
    2.3984   -1.6885   -4.3710 H   0  0  0  0  0  0  0  0  0  0  0  0
   -0.9069    0.0491   -5.9904 N   0  0  0  0  0  0  0  0  0  0  0  0
   -2.1923    0.1545   -6.6404 C   0  0  0  0  0  0  0  0  0  0  0  0
   -0.0812    0.2883   -6.5314 H   0  0  0  0  0  0  0  0  0  0  0  0
   -2.4404   -0.8034   -7.1209 H   0  0  0  0  0  0  0  0  0  0  0  0
   -2.9617    0.4000   -5.8936 H   0  0  0  0  0  0  0  0  0  0  0  0
   -2.1541    0.9474   -7.4018 H   0  0  0  0  0  0  0  0  0  0  0  0
 25 27  1  0  0  0  0
 26 27  2  0  0  0  0
 23 25  2  0  0  0  0
 24 26  1  0  0  0  0
 22 23  1  0  0  0  0
 22 24  2  0  0  0  0
 21 22  1  0  0  0  0
  1  3  1  0  0  0  0
  1  7  1  0  0  0  0
  1  2  2  0  0  0  0
 38 39  1  0  0  0  0
 39 47  1  0  0  0  0
 39 40  2  0  0  0  0
  8  9  1  0  0  0  0
  9 17  1  0  0  0  0
  9 10  2  0  0  0  0
 18 19  1  0  0  0  0
 19 37  1  0  0  0  0
 19 20  2  0  0  0  0
 38 41  1  0  0  0  0
  8 11  1  0  0  0  0
 47 48  1  0  0  0  0
 18 21  1  0  0  0  0
 37 38  1  0  0  0  0
  7  8  1  0  0  0  0
 17 18  1  0  0  0  0
 27 36  1  0  0  0  0
 25 34  1  0  0  0  0
 26 35  1  0  0  0  0
 23 32  1  0  0  0  0
 24 33  1  0  0  0  0
  3  4  1  0  0  0  0
  3  5  1  0  0  0  0
  3  6  1  0  0  0  0
 41 44  1  0  0  0  0
 41 45  1  0  0  0  0
 41 46  1  0  0  0  0
 11 14  1  0  0  0  0
 11 15  1  0  0  0  0
 11 16  1  0  0  0  0
 48 50  1  0  0  0  0
 48 51  1  0  0  0  0
 48 52  1  0  0  0  0
 21 30  1  0  0  0  0
 21 31  1  0  0  0  0
 38 43  1  0  0  0  0
  8 13  1  0  0  0  0
 18 29  1  0  0  0  0
 47 49  1  0  0  0  0
  7 12  1  0  0  0  0
 37 42  1  0  0  0  0
 17 28  1  0  0  0  0
M  END
$$$$

  -OEChem-05262214473D

 52 52  0     1  0  0  0  0  0999 V2000
   -1.8248    0.3424    3.9102 C   0  0  0  0  0  0  0  0  0  0  0  0
   -0.8774   -0.2723    3.4345 O   0  0  0  0  0  0  0  0  0  0  0  0
   -2.2566    0.0600    5.3109 C   0  0  0  0  0  0  0  0  0  0  0  0
   -3.0163   -0.7363    5.3643 H   0  0  0  0  0  0  0  0  0  0  0  0
   -1.4254   -0.2876    5.9452 H   0  0  0  0  0  0  0  0  0  0  0  0
   -2.6947    0.9149    5.8505 H   0  0  0  0  0  0  0  0  0  0  0  0
   -2.5745    1.3149    3.2691 N   0  0  0  0  0  0  0  0  0  0  0  0
   -2.3276    1.7409    1.9167 C   0  0  2  0  0  0  0  0  0  0  0  0
   -0.9926    1.1555    1.4755 C   0  0  0  0  0  0  0  0  0  0  0  0
   -0.1206    0.8028    2.2668 O   0  0  0  0  0  0  0  0  0  0  0  0
   -2.3188    3.2577    1.8072 C   0  0  0  0  0  0  0  0  0  0  0  0
   -3.3395    1.7507    3.7809 H   0  0  0  0  0  0  0  0  0  0  0  0
   -3.1317    1.3224    1.3015 H   0  0  0  0  0  0  0  0  0  0  0  0
   -1.5198    3.6949    2.4169 H   0  0  0  0  0  0  0  0  0  0  0  0
   -2.1594    3.5799    0.7729 H   0  0  0  0  0  0  0  0  0  0  0  0
   -3.2690    3.6789    2.1530 H   0  0  0  0  0  0  0  0  0  0  0  0
   -0.8700    1.1124    0.0921 N   0  0  0  0  0  0  0  0  0  0  0  0
    0.3073    0.6116   -0.5716 C   0  0  2  0  0  0  0  0  0  0  0  0
    0.0627    0.7270   -2.0719 C   0  0  0  0  0  0  0  0  0  0  0  0
   -0.3793    1.7443   -2.6015 O   0  0  0  0  0  0  0  0  0  0  0  0
    0.6121   -0.8419   -0.1915 C   0  0  0  0  0  0  0  0  0  0  0  0
    1.0158   -0.9947    1.2547 C   0  0  0  0  0  0  0  0  0  0  0  0
    2.3256   -0.7185    1.6467 C   0  0  0  0  0  0  0  0  0  0  0  0
    0.0783   -1.4120    2.1995 C   0  0  0  0  0  0  0  0  0  0  0  0
    2.6980   -0.8596    2.9835 C   0  0  0  0  0  0  0  0  0  0  0  0
    0.4507   -1.5532    3.5363 C   0  0  0  0  0  0  0  0  0  0  0  0
    1.7606   -1.2769    3.9283 C   0  0  0  0  0  0  0  0  0  0  0  0
   -1.6531    1.4091   -0.4852 H   0  0  0  0  0  0  0  0  0  0  0  0
    1.1316    1.2774   -0.2901 H   0  0  0  0  0  0  0  0  0  0  0  0
    1.4006   -1.2474   -0.8399 H   0  0  0  0  0  0  0  0  0  0  0  0
   -0.2647   -1.4777   -0.3727 H   0  0  0  0  0  0  0  0  0  0  0  0
    3.0627   -0.3926    0.9175 H   0  0  0  0  0  0  0  0  0  0  0  0
   -0.9445   -1.6294    1.9032 H   0  0  0  0  0  0  0  0  0  0  0  0
    3.7182   -0.6455    3.2884 H   0  0  0  0  0  0  0  0  0  0  0  0
   -0.2791   -1.8792    4.2714 H   0  0  0  0  0  0  0  0  0  0  0  0
    2.0510   -1.3881    4.9689 H   0  0  0  0  0  0  0  0  0  0  0  0
    0.4438   -0.4224   -2.7504 N   0  0  0  0  0  0  0  0  0  0  0  0
    0.3395   -0.5688   -4.1844 C   0  0  2  0  0  0  0  0  0  0  0  0
   -1.0699   -0.1654   -4.5971 C   0  0  0  0  0  0  0  0  0  0  0  0
   -2.0245   -0.1762   -3.8227 O   0  0  0  0  0  0  0  0  0  0  0  0
    0.6463   -1.9935   -4.6189 C   0  0  0  0  0  0  0  0  0  0  0  0
    0.8147   -1.1997   -2.2119 H   0  0  0  0  0  0  0  0  0  0  0  0
    1.0628    0.1250   -4.6266 H   0  0  0  0  0  0  0  0  0  0  0  0
   -0.0680   -2.7031   -4.1857 H   0  0  0  0  0  0  0  0  0  0  0  0
    0.5948   -2.0960   -5.7079 H   0  0  0  0  0  0  0  0  0  0  0  0
    1.6493   -2.2922   -4.2953 H   0  0  0  0  0  0  0  0  0  0  0  0
   -1.1449    0.1666   -5.9425 N   0  0  0  0  0  0  0  0  0  0  0  0
   -2.3771    0.5711   -6.5783 C   0  0  0  0  0  0  0  0  0  0  0  0
   -0.2993    0.1660   -6.5052 H   0  0  0  0  0  0  0  0  0  0  0  0
   -2.8725   -0.3098   -7.0125 H   0  0  0  0  0  0  0  0  0  0  0  0
   -3.0398    1.0337   -5.8321 H   0  0  0  0  0  0  0  0  0  0  0  0
   -2.1575    1.2977   -7.3743 H   0  0  0  0  0  0  0  0  0  0  0  0
 25 27  1  0  0  0  0
 26 27  2  0  0  0  0
 23 25  2  0  0  0  0
 24 26  1  0  0  0  0
 22 23  1  0  0  0  0
 22 24  2  0  0  0  0
 21 22  1  0  0  0  0
  1  3  1  0  0  0  0
  1  7  1  0  0  0  0
  1  2  2  0  0  0  0
 38 39  1  0  0  0  0
 39 47  1  0  0  0  0
 39 40  2  0  0  0  0
  8  9  1  0  0  0  0
  9 17  1  0  0  0  0
  9 10  2  0  0  0  0
 18 19  1  0  0  0  0
 19 37  1  0  0  0  0
 19 20  2  0  0  0  0
 38 41  1  0  0  0  0
  8 11  1  0  0  0  0
 47 48  1  0  0  0  0
 18 21  1  0  0  0  0
 37 38  1  0  0  0  0
  7  8  1  0  0  0  0
 17 18  1  0  0  0  0
 27 36  1  0  0  0  0
 25 34  1  0  0  0  0
 26 35  1  0  0  0  0
 23 32  1  0  0  0  0
 24 33  1  0  0  0  0
  3  4  1  0  0  0  0
  3  5  1  0  0  0  0
  3  6  1  0  0  0  0
 41 44  1  0  0  0  0
 41 45  1  0  0  0  0
 41 46  1  0  0  0  0
 11 14  1  0  0  0  0
 11 15  1  0  0  0  0
 11 16  1  0  0  0  0
 48 50  1  0  0  0  0
 48 51  1  0  0  0  0
 48 52  1  0  0  0  0
 21 30  1  0  0  0  0
 21 31  1  0  0  0  0
 38 43  1  0  0  0  0
  8 13  1  0  0  0  0
 18 29  1  0  0  0  0
 47 49  1  0  0  0  0
  7 12  1  0  0  0  0
 37 42  1  0  0  0  0
 17 28  1  0  0  0  0
M  END
$$$$

  -OEChem-05262214473D

 52 52  0     1  0  0  0  0  0999 V2000
   -1.8248    0.3424    3.9102 C   0  0  0  0  0  0  0  0  0  0  0  0
   -0.8774   -0.2723    3.4345 O   0  0  0  0  0  0  0  0  0  0  0  0
   -2.2566    0.0600    5.3109 C   0  0  0  0  0  0  0  0  0  0  0  0
   -3.0163   -0.7363    5.3643 H   0  0  0  0  0  0  0  0  0  0  0  0
   -1.4254   -0.2876    5.9452 H   0  0  0  0  0  0  0  0  0  0  0  0
   -2.6947    0.9149    5.8505 H   0  0  0  0  0  0  0  0  0  0  0  0
   -2.5745    1.3149    3.2691 N   0  0  0  0  0  0  0  0  0  0  0  0
   -2.3276    1.7409    1.9167 C   0  0  2  0  0  0  0  0  0  0  0  0
   -0.9926    1.1555    1.4755 C   0  0  0  0  0  0  0  0  0  0  0  0
   -0.1206    0.8028    2.2668 O   0  0  0  0  0  0  0  0  0  0  0  0
   -2.3188    3.2577    1.8072 C   0  0  0  0  0  0  0  0  0  0  0  0
   -3.3395    1.7507    3.7809 H   0  0  0  0  0  0  0  0  0  0  0  0
   -3.1317    1.3224    1.3015 H   0  0  0  0  0  0  0  0  0  0  0  0
   -1.5198    3.6949    2.4169 H   0  0  0  0  0  0  0  0  0  0  0  0
   -2.1594    3.5799    0.7729 H   0  0  0  0  0  0  0  0  0  0  0  0
   -3.2690    3.6789    2.1530 H   0  0  0  0  0  0  0  0  0  0  0  0
   -0.8700    1.1124    0.0921 N   0  0  0  0  0  0  0  0  0  0  0  0
    0.3073    0.6116   -0.5716 C   0  0  2  0  0  0  0  0  0  0  0  0
    0.0627    0.7270   -2.0719 C   0  0  0  0  0  0  0  0  0  0  0  0
   -0.1192    1.8020   -2.6395 O   0  0  0  0  0  0  0  0  0  0  0  0
    0.6121   -0.8419   -0.1915 C   0  0  0  0  0  0  0  0  0  0  0  0
    1.0158   -0.9947    1.2547 C   0  0  0  0  0  0  0  0  0  0  0  0
    2.3256   -0.7185    1.6467 C   0  0  0  0  0  0  0  0  0  0  0  0
    0.0783   -1.4120    2.1995 C   0  0  0  0  0  0  0  0  0  0  0  0
    2.6980   -0.8596    2.9835 C   0  0  0  0  0  0  0  0  0  0  0  0
    0.4507   -1.5532    3.5363 C   0  0  0  0  0  0  0  0  0  0  0  0
    1.7606   -1.2769    3.9283 C   0  0  0  0  0  0  0  0  0  0  0  0
   -1.6531    1.4091   -0.4852 H   0  0  0  0  0  0  0  0  0  0  0  0
    1.1316    1.2774   -0.2901 H   0  0  0  0  0  0  0  0  0  0  0  0
    1.4006   -1.2474   -0.8399 H   0  0  0  0  0  0  0  0  0  0  0  0
   -0.2647   -1.4777   -0.3727 H   0  0  0  0  0  0  0  0  0  0  0  0
    3.0627   -0.3926    0.9175 H   0  0  0  0  0  0  0  0  0  0  0  0
   -0.9445   -1.6294    1.9032 H   0  0  0  0  0  0  0  0  0  0  0  0
    3.7182   -0.6455    3.2884 H   0  0  0  0  0  0  0  0  0  0  0  0
   -0.2791   -1.8792    4.2714 H   0  0  0  0  0  0  0  0  0  0  0  0
    2.0510   -1.3881    4.9689 H   0  0  0  0  0  0  0  0  0  0  0  0
    0.1220   -0.5071   -2.7044 N   0  0  0  0  0  0  0  0  0  0  0  0
   -0.0519   -0.6779   -4.1290 C   0  0  2  0  0  0  0  0  0  0  0  0
   -1.3223    0.0553   -4.5389 C   0  0  0  0  0  0  0  0  0  0  0  0
   -2.2286    0.3187   -3.7514 O   0  0  0  0  0  0  0  0  0  0  0  0
   -0.1284   -2.1495   -4.5046 C   0  0  0  0  0  0  0  0  0  0  0  0
    0.2963   -1.3317   -2.1375 H   0  0  0  0  0  0  0  0  0  0  0  0
    0.8128   -0.2093   -4.6115 H   0  0  0  0  0  0  0  0  0  0  0  0
   -0.9887   -2.6359   -4.0304 H   0  0  0  0  0  0  0  0  0  0  0  0
   -0.2315   -2.2779   -5.5872 H   0  0  0  0  0  0  0  0  0  0  0  0
    0.7733   -2.6814   -4.1824 H   0  0  0  0  0  0  0  0  0  0  0  0
   -1.3439    0.3428   -5.8965 N   0  0  0  0  0  0  0  0  0  0  0  0
   -2.4482    1.0231   -6.5319 C   0  0  0  0  0  0  0  0  0  0  0  0
   -0.5406    0.1045   -6.4706 H   0  0  0  0  0  0  0  0  0  0  0  0
   -3.1621    0.2816   -6.9198 H   0  0  0  0  0  0  0  0  0  0  0  0
   -2.9527    1.6683   -5.7975 H   0  0  0  0  0  0  0  0  0  0  0  0
   -2.0710    1.6381   -7.3623 H   0  0  0  0  0  0  0  0  0  0  0  0
 25 27  1  0  0  0  0
 26 27  2  0  0  0  0
 23 25  2  0  0  0  0
 24 26  1  0  0  0  0
 22 23  1  0  0  0  0
 22 24  2  0  0  0  0
 21 22  1  0  0  0  0
  1  3  1  0  0  0  0
  1  7  1  0  0  0  0
  1  2  2  0  0  0  0
 38 39  1  0  0  0  0
 39 47  1  0  0  0  0
 39 40  2  0  0  0  0
  8  9  1  0  0  0  0
  9 17  1  0  0  0  0
  9 10  2  0  0  0  0
 18 19  1  0  0  0  0
 19 37  1  0  0  0  0
 19 20  2  0  0  0  0
 38 41  1  0  0  0  0
  8 11  1  0  0  0  0
 47 48  1  0  0  0  0
 18 21  1  0  0  0  0
 37 38  1  0  0  0  0
  7  8  1  0  0  0  0
 17 18  1  0  0  0  0
 27 36  1  0  0  0  0
 25 34  1  0  0  0  0
 26 35  1  0  0  0  0
 23 32  1  0  0  0  0
 24 33  1  0  0  0  0
  3  4  1  0  0  0  0
  3  5  1  0  0  0  0
  3  6  1  0  0  0  0
 41 44  1  0  0  0  0
 41 45  1  0  0  0  0
 41 46  1  0  0  0  0
 11 14  1  0  0  0  0
 11 15  1  0  0  0  0
 11 16  1  0  0  0  0
 48 50  1  0  0  0  0
 48 51  1  0  0  0  0
 48 52  1  0  0  0  0
 21 30  1  0  0  0  0
 21 31  1  0  0  0  0
 38 43  1  0  0  0  0
  8 13  1  0  0  0  0
 18 29  1  0  0  0  0
 47 49  1  0  0  0  0
  7 12  1  0  0  0  0
 37 42  1  0  0  0  0
 17 28  1  0  0  0  0
M  END
$$$$

  -OEChem-05262214473D

 52 52  0     1  0  0  0  0  0999 V2000
   -1.8248    0.3424    3.9102 C   0  0  0  0  0  0  0  0  0  0  0  0
   -0.8774   -0.2723    3.4345 O   0  0  0  0  0  0  0  0  0  0  0  0
   -2.2566    0.0600    5.3109 C   0  0  0  0  0  0  0  0  0  0  0  0
   -3.0163   -0.7363    5.3643 H   0  0  0  0  0  0  0  0  0  0  0  0
   -1.4254   -0.2876    5.9452 H   0  0  0  0  0  0  0  0  0  0  0  0
   -2.6947    0.9149    5.8505 H   0  0  0  0  0  0  0  0  0  0  0  0
   -2.5745    1.3149    3.2691 N   0  0  0  0  0  0  0  0  0  0  0  0
   -2.3276    1.7409    1.9167 C   0  0  2  0  0  0  0  0  0  0  0  0
   -0.9926    1.1555    1.4755 C   0  0  0  0  0  0  0  0  0  0  0  0
   -0.1206    0.8028    2.2668 O   0  0  0  0  0  0  0  0  0  0  0  0
   -2.3188    3.2577    1.8072 C   0  0  0  0  0  0  0  0  0  0  0  0
   -3.3395    1.7507    3.7809 H   0  0  0  0  0  0  0  0  0  0  0  0
   -3.1317    1.3224    1.3015 H   0  0  0  0  0  0  0  0  0  0  0  0
   -1.5198    3.6949    2.4169 H   0  0  0  0  0  0  0  0  0  0  0  0
   -2.1594    3.5799    0.7729 H   0  0  0  0  0  0  0  0  0  0  0  0
   -3.2690    3.6789    2.1530 H   0  0  0  0  0  0  0  0  0  0  0  0
   -0.8700    1.1124    0.0921 N   0  0  0  0  0  0  0  0  0  0  0  0
    0.3073    0.6116   -0.5716 C   0  0  2  0  0  0  0  0  0  0  0  0
    0.0627    0.7270   -2.0719 C   0  0  0  0  0  0  0  0  0  0  0  0
    0.1461    1.7898   -2.6837 O   0  0  0  0  0  0  0  0  0  0  0  0
    0.6121   -0.8419   -0.1915 C   0  0  0  0  0  0  0  0  0  0  0  0
    1.0158   -0.9947    1.2547 C   0  0  0  0  0  0  0  0  0  0  0  0
    2.3256   -0.7185    1.6467 C   0  0  0  0  0  0  0  0  0  0  0  0
    0.0783   -1.4120    2.1995 C   0  0  0  0  0  0  0  0  0  0  0  0
    2.6980   -0.8596    2.9835 C   0  0  0  0  0  0  0  0  0  0  0  0
    0.4507   -1.5532    3.5363 C   0  0  0  0  0  0  0  0  0  0  0  0
    1.7606   -1.2769    3.9283 C   0  0  0  0  0  0  0  0  0  0  0  0
   -1.6531    1.4091   -0.4852 H   0  0  0  0  0  0  0  0  0  0  0  0
    1.1316    1.2774   -0.2901 H   0  0  0  0  0  0  0  0  0  0  0  0
    1.4006   -1.2474   -0.8399 H   0  0  0  0  0  0  0  0  0  0  0  0
   -0.2647   -1.4777   -0.3727 H   0  0  0  0  0  0  0  0  0  0  0  0
    3.0627   -0.3926    0.9175 H   0  0  0  0  0  0  0  0  0  0  0  0
   -0.9445   -1.6294    1.9032 H   0  0  0  0  0  0  0  0  0  0  0  0
    3.7182   -0.6455    3.2884 H   0  0  0  0  0  0  0  0  0  0  0  0
   -0.2791   -1.8792    4.2714 H   0  0  0  0  0  0  0  0  0  0  0  0
    2.0510   -1.3881    4.9689 H   0  0  0  0  0  0  0  0  0  0  0  0
   -0.2096   -0.5051   -2.6502 N   0  0  0  0  0  0  0  0  0  0  0  0
   -0.4567   -0.6812   -4.0632 C   0  0  2  0  0  0  0  0  0  0  0  0
   -1.5087    0.3352   -4.4870 C   0  0  0  0  0  0  0  0  0  0  0  0
   -2.2983    0.8516   -3.6990 O   0  0  0  0  0  0  0  0  0  0  0  0
   -0.9143   -2.0982   -4.3725 C   0  0  0  0  0  0  0  0  0  0  0  0
   -0.2366   -1.3241   -2.0501 H   0  0  0  0  0  0  0  0  0  0  0  0
    0.4864   -0.4680   -4.5782 H   0  0  0  0  0  0  0  0  0  0  0  0
   -1.8578   -2.3301   -3.8652 H   0  0  0  0  0  0  0  0  0  0  0  0
   -1.0736   -2.2381   -5.4468 H   0  0  0  0  0  0  0  0  0  0  0  0
   -0.1697   -2.8295   -4.0401 H   0  0  0  0  0  0  0  0  0  0  0  0
   -1.4904    0.5656   -5.8555 N   0  0  0  0  0  0  0  0  0  0  0  0
   -2.4009    1.4798   -6.5045 C   0  0  0  0  0  0  0  0  0  0  0  0
   -0.7886    0.1080   -6.4299 H   0  0  0  0  0  0  0  0  0  0  0  0
   -3.2893    0.9304   -6.8492 H   0  0  0  0  0  0  0  0  0  0  0  0
   -2.7062    2.2604   -5.7922 H   0  0  0  0  0  0  0  0  0  0  0  0
   -1.9005    1.9453   -7.3664 H   0  0  0  0  0  0  0  0  0  0  0  0
 25 27  1  0  0  0  0
 26 27  2  0  0  0  0
 23 25  2  0  0  0  0
 24 26  1  0  0  0  0
 22 23  1  0  0  0  0
 22 24  2  0  0  0  0
 21 22  1  0  0  0  0
  1  3  1  0  0  0  0
  1  7  1  0  0  0  0
  1  2  2  0  0  0  0
 38 39  1  0  0  0  0
 39 47  1  0  0  0  0
 39 40  2  0  0  0  0
  8  9  1  0  0  0  0
  9 17  1  0  0  0  0
  9 10  2  0  0  0  0
 18 19  1  0  0  0  0
 19 37  1  0  0  0  0
 19 20  2  0  0  0  0
 38 41  1  0  0  0  0
  8 11  1  0  0  0  0
 47 48  1  0  0  0  0
 18 21  1  0  0  0  0
 37 38  1  0  0  0  0
  7  8  1  0  0  0  0
 17 18  1  0  0  0  0
 27 36  1  0  0  0  0
 25 34  1  0  0  0  0
 26 35  1  0  0  0  0
 23 32  1  0  0  0  0
 24 33  1  0  0  0  0
  3  4  1  0  0  0  0
  3  5  1  0  0  0  0
  3  6  1  0  0  0  0
 41 44  1  0  0  0  0
 41 45  1  0  0  0  0
 41 46  1  0  0  0  0
 11 14  1  0  0  0  0
 11 15  1  0  0  0  0
 11 16  1  0  0  0  0
 48 50  1  0  0  0  0
 48 51  1  0  0  0  0
 48 52  1  0  0  0  0
 21 30  1  0  0  0  0
 21 31  1  0  0  0  0
 38 43  1  0  0  0  0
  8 13  1  0  0  0  0
 18 29  1  0  0  0  0
 47 49  1  0  0  0  0
  7 12  1  0  0  0  0
 37 42  1  0  0  0  0
 17 28  1  0  0  0  0
M  END
$$$$

  -OEChem-05262214473D

 52 52  0     1  0  0  0  0  0999 V2000
   -1.8248    0.3424    3.9102 C   0  0  0  0  0  0  0  0  0  0  0  0
   -0.8774   -0.2723    3.4345 O   0  0  0  0  0  0  0  0  0  0  0  0
   -2.2566    0.0600    5.3109 C   0  0  0  0  0  0  0  0  0  0  0  0
   -3.0163   -0.7363    5.3643 H   0  0  0  0  0  0  0  0  0  0  0  0
   -1.4254   -0.2876    5.9452 H   0  0  0  0  0  0  0  0  0  0  0  0
   -2.6947    0.9149    5.8505 H   0  0  0  0  0  0  0  0  0  0  0  0
   -2.5745    1.3149    3.2691 N   0  0  0  0  0  0  0  0  0  0  0  0
   -2.3276    1.7409    1.9167 C   0  0  2  0  0  0  0  0  0  0  0  0
   -0.9926    1.1555    1.4755 C   0  0  0  0  0  0  0  0  0  0  0  0
   -0.1206    0.8028    2.2668 O   0  0  0  0  0  0  0  0  0  0  0  0
   -2.3188    3.2577    1.8072 C   0  0  0  0  0  0  0  0  0  0  0  0
   -3.3395    1.7507    3.7809 H   0  0  0  0  0  0  0  0  0  0  0  0
   -3.1317    1.3224    1.3015 H   0  0  0  0  0  0  0  0  0  0  0  0
   -1.5198    3.6949    2.4169 H   0  0  0  0  0  0  0  0  0  0  0  0
   -2.1594    3.5799    0.7729 H   0  0  0  0  0  0  0  0  0  0  0  0
   -3.2690    3.6789    2.1530 H   0  0  0  0  0  0  0  0  0  0  0  0
   -0.8700    1.1124    0.0921 N   0  0  0  0  0  0  0  0  0  0  0  0
    0.3073    0.6116   -0.5716 C   0  0  2  0  0  0  0  0  0  0  0  0
    0.0627    0.7270   -2.0719 C   0  0  0  0  0  0  0  0  0  0  0  0
    0.3983    1.7087   -2.7311 O   0  0  0  0  0  0  0  0  0  0  0  0
    0.6121   -0.8419   -0.1915 C   0  0  0  0  0  0  0  0  0  0  0  0
    1.0158   -0.9947    1.2547 C   0  0  0  0  0  0  0  0  0  0  0  0
    2.3256   -0.7185    1.6467 C   0  0  0  0  0  0  0  0  0  0  0  0
    0.0783   -1.4120    2.1995 C   0  0  0  0  0  0  0  0  0  0  0  0
    2.6980   -0.8596    2.9835 C   0  0  0  0  0  0  0  0  0  0  0  0
    0.4507   -1.5532    3.5363 C   0  0  0  0  0  0  0  0  0  0  0  0
    1.7606   -1.2769    3.9283 C   0  0  0  0  0  0  0  0  0  0  0  0
   -1.6531    1.4091   -0.4852 H   0  0  0  0  0  0  0  0  0  0  0  0
    1.1316    1.2774   -0.2901 H   0  0  0  0  0  0  0  0  0  0  0  0
    1.4006   -1.2474   -0.8399 H   0  0  0  0  0  0  0  0  0  0  0  0
   -0.2647   -1.4777   -0.3727 H   0  0  0  0  0  0  0  0  0  0  0  0
    3.0627   -0.3926    0.9175 H   0  0  0  0  0  0  0  0  0  0  0  0
   -0.9445   -1.6294    1.9032 H   0  0  0  0  0  0  0  0  0  0  0  0
    3.7182   -0.6455    3.2884 H   0  0  0  0  0  0  0  0  0  0  0  0
   -0.2791   -1.8792    4.2714 H   0  0  0  0  0  0  0  0  0  0  0  0
    2.0510   -1.3881    4.9689 H   0  0  0  0  0  0  0  0  0  0  0  0
   -0.5283   -0.4164   -2.5914 N   0  0  0  0  0  0  0  0  0  0  0  0
   -0.8473   -0.5786   -3.9917 C   0  0  2  0  0  0  0  0  0  0  0  0
   -1.6164    0.6553   -4.4449 C   0  0  0  0  0  0  0  0  0  0  0  0
   -2.2289    1.3863   -3.6693 O   0  0  0  0  0  0  0  0  0  0  0  0
   -1.6577   -1.8429   -4.2317 C   0  0  0  0  0  0  0  0  0  0  0  0
   -0.7477   -1.1774   -1.9555 H   0  0  0  0  0  0  0  0  0  0  0  0
    0.1059   -0.6333   -4.5289 H   0  0  0  0  0  0  0  0  0  0  0  0
   -2.6163   -1.8065   -3.7013 H   0  0  0  0  0  0  0  0  0  0  0  0
   -1.8741   -1.9793   -5.2964 H   0  0  0  0  0  0  0  0  0  0  0  0
   -1.1155   -2.7264   -3.8780 H   0  0  0  0  0  0  0  0  0  0  0  0
   -1.5743    0.8198   -5.8223 N   0  0  0  0  0  0  0  0  0  0  0  0
   -2.2383    1.9100   -6.4979 C   0  0  0  0  0  0  0  0  0  0  0  0
   -1.0266    0.1762   -6.3859 H   0  0  0  0  0  0  0  0  0  0  0  0
   -3.2455    1.5924   -6.8055 H   0  0  0  0  0  0  0  0  0  0  0  0
   -2.3172    2.7698   -5.8165 H   0  0  0  0  0  0  0  0  0  0  0  0
   -1.6577    2.1985   -7.3866 H   0  0  0  0  0  0  0  0  0  0  0  0
 25 27  1  0  0  0  0
 26 27  2  0  0  0  0
 23 25  2  0  0  0  0
 24 26  1  0  0  0  0
 22 23  1  0  0  0  0
 22 24  2  0  0  0  0
 21 22  1  0  0  0  0
  1  3  1  0  0  0  0
  1  7  1  0  0  0  0
  1  2  2  0  0  0  0
 38 39  1  0  0  0  0
 39 47  1  0  0  0  0
 39 40  2  0  0  0  0
  8  9  1  0  0  0  0
  9 17  1  0  0  0  0
  9 10  2  0  0  0  0
 18 19  1  0  0  0  0
 19 37  1  0  0  0  0
 19 20  2  0  0  0  0
 38 41  1  0  0  0  0
  8 11  1  0  0  0  0
 47 48  1  0  0  0  0
 18 21  1  0  0  0  0
 37 38  1  0  0  0  0
  7  8  1  0  0  0  0
 17 18  1  0  0  0  0
 27 36  1  0  0  0  0
 25 34  1  0  0  0  0
 26 35  1  0  0  0  0
 23 32  1  0  0  0  0
 24 33  1  0  0  0  0
  3  4  1  0  0  0  0
  3  5  1  0  0  0  0
  3  6  1  0  0  0  0
 41 44  1  0  0  0  0
 41 45  1  0  0  0  0
 41 46  1  0  0  0  0
 11 14  1  0  0  0  0
 11 15  1  0  0  0  0
 11 16  1  0  0  0  0
 48 50  1  0  0  0  0
 48 51  1  0  0  0  0
 48 52  1  0  0  0  0
 21 30  1  0  0  0  0
 21 31  1  0  0  0  0
 38 43  1  0  0  0  0
  8 13  1  0  0  0  0
 18 29  1  0  0  0  0
 47 49  1  0  0  0  0
  7 12  1  0  0  0  0
 37 42  1  0  0  0  0
 17 28  1  0  0  0  0
M  END
$$$$

  -OEChem-05262214473D

 52 52  0     1  0  0  0  0  0999 V2000
   -1.8248    0.3424    3.9102 C   0  0  0  0  0  0  0  0  0  0  0  0
   -0.8774   -0.2723    3.4345 O   0  0  0  0  0  0  0  0  0  0  0  0
   -2.2566    0.0600    5.3109 C   0  0  0  0  0  0  0  0  0  0  0  0
   -3.0163   -0.7363    5.3643 H   0  0  0  0  0  0  0  0  0  0  0  0
   -1.4254   -0.2876    5.9452 H   0  0  0  0  0  0  0  0  0  0  0  0
   -2.6947    0.9149    5.8505 H   0  0  0  0  0  0  0  0  0  0  0  0
   -2.5745    1.3149    3.2691 N   0  0  0  0  0  0  0  0  0  0  0  0
   -2.3276    1.7409    1.9167 C   0  0  2  0  0  0  0  0  0  0  0  0
   -0.9926    1.1555    1.4755 C   0  0  0  0  0  0  0  0  0  0  0  0
   -0.1206    0.8028    2.2668 O   0  0  0  0  0  0  0  0  0  0  0  0
   -2.3188    3.2577    1.8072 C   0  0  0  0  0  0  0  0  0  0  0  0
   -3.3395    1.7507    3.7809 H   0  0  0  0  0  0  0  0  0  0  0  0
   -3.1317    1.3224    1.3015 H   0  0  0  0  0  0  0  0  0  0  0  0
   -1.5198    3.6949    2.4169 H   0  0  0  0  0  0  0  0  0  0  0  0
   -2.1594    3.5799    0.7729 H   0  0  0  0  0  0  0  0  0  0  0  0
   -3.2690    3.6789    2.1530 H   0  0  0  0  0  0  0  0  0  0  0  0
   -0.8700    1.1124    0.0921 N   0  0  0  0  0  0  0  0  0  0  0  0
    0.3073    0.6116   -0.5716 C   0  0  2  0  0  0  0  0  0  0  0  0
    0.0627    0.7270   -2.0719 C   0  0  0  0  0  0  0  0  0  0  0  0
    0.6204    1.5641   -2.7784 O   0  0  0  0  0  0  0  0  0  0  0  0
    0.6121   -0.8419   -0.1915 C   0  0  0  0  0  0  0  0  0  0  0  0
    1.0158   -0.9947    1.2547 C   0  0  0  0  0  0  0  0  0  0  0  0
    2.3256   -0.7185    1.6467 C   0  0  0  0  0  0  0  0  0  0  0  0
    0.0783   -1.4120    2.1995 C   0  0  0  0  0  0  0  0  0  0  0  0
    2.6980   -0.8596    2.9835 C   0  0  0  0  0  0  0  0  0  0  0  0
    0.4507   -1.5532    3.5363 C   0  0  0  0  0  0  0  0  0  0  0  0
    1.7606   -1.2769    3.9283 C   0  0  0  0  0  0  0  0  0  0  0  0
   -1.6531    1.4091   -0.4852 H   0  0  0  0  0  0  0  0  0  0  0  0
    1.1316    1.2774   -0.2901 H   0  0  0  0  0  0  0  0  0  0  0  0
    1.4006   -1.2474   -0.8399 H   0  0  0  0  0  0  0  0  0  0  0  0
   -0.2647   -1.4777   -0.3727 H   0  0  0  0  0  0  0  0  0  0  0  0
    3.0627   -0.3926    0.9175 H   0  0  0  0  0  0  0  0  0  0  0  0
   -0.9445   -1.6294    1.9032 H   0  0  0  0  0  0  0  0  0  0  0  0
    3.7182   -0.6455    3.2884 H   0  0  0  0  0  0  0  0  0  0  0  0
   -0.2791   -1.8792    4.2714 H   0  0  0  0  0  0  0  0  0  0  0  0
    2.0510   -1.3881    4.9689 H   0  0  0  0  0  0  0  0  0  0  0  0
   -0.8124   -0.2471   -2.5321 N   0  0  0  0  0  0  0  0  0  0  0  0
   -1.1970   -0.3771   -3.9192 C   0  0  2  0  0  0  0  0  0  0  0  0
   -1.6381    0.9936   -4.4153 C   0  0  0  0  0  0  0  0  0  0  0  0
   -2.0250    1.8863   -3.6641 O   0  0  0  0  0  0  0  0  0  0  0  0
   -2.3080   -1.4011   -4.0917 C   0  0  0  0  0  0  0  0  0  0  0  0
   -1.2022   -0.9016   -1.8602 H   0  0  0  0  0  0  0  0  0  0  0  0
   -0.3028   -0.6940   -4.4669 H   0  0  0  0  0  0  0  0  0  0  0  0
   -3.2123   -1.1007   -3.5499 H   0  0  0  0  0  0  0  0  0  0  0  0
   -2.5785   -1.5192   -5.1462 H   0  0  0  0  0  0  0  0  0  0  0  0
   -1.9997   -2.3793   -3.7071 H   0  0  0  0  0  0  0  0  0  0  0  0
   -1.5900    1.0880   -5.7991 N   0  0  0  0  0  0  0  0  0  0  0  0
   -1.9715    2.2844   -6.5127 C   0  0  0  0  0  0  0  0  0  0  0  0
   -1.2381    0.3046   -6.3415 H   0  0  0  0  0  0  0  0  0  0  0  0
   -3.0338    2.2226   -6.7915 H   0  0  0  0  0  0  0  0  0  0  0  0
   -1.8121    3.1618   -5.8687 H   0  0  0  0  0  0  0  0  0  0  0  0
   -1.3590    2.3803   -7.4213 H   0  0  0  0  0  0  0  0  0  0  0  0
 25 27  1  0  0  0  0
 26 27  2  0  0  0  0
 23 25  2  0  0  0  0
 24 26  1  0  0  0  0
 22 23  1  0  0  0  0
 22 24  2  0  0  0  0
 21 22  1  0  0  0  0
  1  3  1  0  0  0  0
  1  7  1  0  0  0  0
  1  2  2  0  0  0  0
 38 39  1  0  0  0  0
 39 47  1  0  0  0  0
 39 40  2  0  0  0  0
  8  9  1  0  0  0  0
  9 17  1  0  0  0  0
  9 10  2  0  0  0  0
 18 19  1  0  0  0  0
 19 37  1  0  0  0  0
 19 20  2  0  0  0  0
 38 41  1  0  0  0  0
  8 11  1  0  0  0  0
 47 48  1  0  0  0  0
 18 21  1  0  0  0  0
 37 38  1  0  0  0  0
  7  8  1  0  0  0  0
 17 18  1  0  0  0  0
 27 36  1  0  0  0  0
 25 34  1  0  0  0  0
 26 35  1  0  0  0  0
 23 32  1  0  0  0  0
 24 33  1  0  0  0  0
  3  4  1  0  0  0  0
  3  5  1  0  0  0  0
  3  6  1  0  0  0  0
 41 44  1  0  0  0  0
 41 45  1  0  0  0  0
 41 46  1  0  0  0  0
 11 14  1  0  0  0  0
 11 15  1  0  0  0  0
 11 16  1  0  0  0  0
 48 50  1  0  0  0  0
 48 51  1  0  0  0  0
 48 52  1  0  0  0  0
 21 30  1  0  0  0  0
 21 31  1  0  0  0  0
 38 43  1  0  0  0  0
  8 13  1  0  0  0  0
 18 29  1  0  0  0  0
 47 49  1  0  0  0  0
  7 12  1  0  0  0  0
 37 42  1  0  0  0  0
 17 28  1  0  0  0  0
M  END
$$$$

  -OEChem-05262214473D

 52 52  0     1  0  0  0  0  0999 V2000
   -1.8248    0.3424    3.9102 C   0  0  0  0  0  0  0  0  0  0  0  0
   -0.8774   -0.2723    3.4345 O   0  0  0  0  0  0  0  0  0  0  0  0
   -2.2566    0.0600    5.3109 C   0  0  0  0  0  0  0  0  0  0  0  0
   -3.0163   -0.7363    5.3643 H   0  0  0  0  0  0  0  0  0  0  0  0
   -1.4254   -0.2876    5.9452 H   0  0  0  0  0  0  0  0  0  0  0  0
   -2.6947    0.9149    5.8505 H   0  0  0  0  0  0  0  0  0  0  0  0
   -2.5745    1.3149    3.2691 N   0  0  0  0  0  0  0  0  0  0  0  0
   -2.3276    1.7409    1.9167 C   0  0  2  0  0  0  0  0  0  0  0  0
   -0.9926    1.1555    1.4755 C   0  0  0  0  0  0  0  0  0  0  0  0
   -0.1206    0.8028    2.2668 O   0  0  0  0  0  0  0  0  0  0  0  0
   -2.3188    3.2577    1.8072 C   0  0  0  0  0  0  0  0  0  0  0  0
   -3.3395    1.7507    3.7809 H   0  0  0  0  0  0  0  0  0  0  0  0
   -3.1317    1.3224    1.3015 H   0  0  0  0  0  0  0  0  0  0  0  0
   -1.5198    3.6949    2.4169 H   0  0  0  0  0  0  0  0  0  0  0  0
   -2.1594    3.5799    0.7729 H   0  0  0  0  0  0  0  0  0  0  0  0
   -3.2690    3.6789    2.1530 H   0  0  0  0  0  0  0  0  0  0  0  0
   -0.8700    1.1124    0.0921 N   0  0  0  0  0  0  0  0  0  0  0  0
    0.3073    0.6116   -0.5716 C   0  0  2  0  0  0  0  0  0  0  0  0
    0.0627    0.7270   -2.0719 C   0  0  0  0  0  0  0  0  0  0  0  0
    0.7971    1.3659   -2.8224 O   0  0  0  0  0  0  0  0  0  0  0  0
    0.6121   -0.8419   -0.1915 C   0  0  0  0  0  0  0  0  0  0  0  0
    1.0158   -0.9947    1.2547 C   0  0  0  0  0  0  0  0  0  0  0  0
    2.3256   -0.7185    1.6467 C   0  0  0  0  0  0  0  0  0  0  0  0
    0.0783   -1.4120    2.1995 C   0  0  0  0  0  0  0  0  0  0  0  0
    2.6980   -0.8596    2.9835 C   0  0  0  0  0  0  0  0  0  0  0  0
    0.4507   -1.5532    3.5363 C   0  0  0  0  0  0  0  0  0  0  0  0
    1.7606   -1.2769    3.9283 C   0  0  0  0  0  0  0  0  0  0  0  0
   -1.6531    1.4091   -0.4852 H   0  0  0  0  0  0  0  0  0  0  0  0
    1.1316    1.2774   -0.2901 H   0  0  0  0  0  0  0  0  0  0  0  0
    1.4006   -1.2474   -0.8399 H   0  0  0  0  0  0  0  0  0  0  0  0
   -0.2647   -1.4777   -0.3727 H   0  0  0  0  0  0  0  0  0  0  0  0
    3.0627   -0.3926    0.9175 H   0  0  0  0  0  0  0  0  0  0  0  0
   -0.9445   -1.6294    1.9032 H   0  0  0  0  0  0  0  0  0  0  0  0
    3.7182   -0.6455    3.2884 H   0  0  0  0  0  0  0  0  0  0  0  0
   -0.2791   -1.8792    4.2714 H   0  0  0  0  0  0  0  0  0  0  0  0
    2.0510   -1.3881    4.9689 H   0  0  0  0  0  0  0  0  0  0  0  0
   -1.0426   -0.0088   -2.4762 N   0  0  0  0  0  0  0  0  0  0  0  0
   -1.4821   -0.0903   -3.8507 C   0  0  2  0  0  0  0  0  0  0  0  0
   -1.5724    1.3271   -4.4004 C   0  0  0  0  0  0  0  0  0  0  0  0
   -1.7006    2.3176   -3.6838 O   0  0  0  0  0  0  0  0  0  0  0  0
   -2.8209   -0.8029   -3.9621 C   0  0  0  0  0  0  0  0  0  0  0  0
   -1.5691   -0.5154   -1.7707 H   0  0  0  0  0  0  0  0  0  0  0  0
   -0.7118   -0.6460   -4.3965 H   0  0  0  0  0  0  0  0  0  0  0  0
   -3.6052   -0.2609   -3.4213 H   0  0  0  0  0  0  0  0  0  0  0  0
   -3.1387   -0.8891   -5.0064 H   0  0  0  0  0  0  0  0  0  0  0  0
   -2.7619   -1.8116   -3.5392 H   0  0  0  0  0  0  0  0  0  0  0  0
   -1.5363    1.3521   -5.7876 N   0  0  0  0  0  0  0  0  0  0  0  0
   -1.6188    2.5775   -6.5476 C   0  0  0  0  0  0  0  0  0  0  0  0
   -1.4089    0.4843   -6.2999 H   0  0  0  0  0  0  0  0  0  0  0  0
   -2.6685    2.7779   -6.8084 H   0  0  0  0  0  0  0  0  0  0  0  0
   -1.2255    3.4096   -5.9453 H   0  0  0  0  0  0  0  0  0  0  0  0
   -1.0249    2.4785   -7.4682 H   0  0  0  0  0  0  0  0  0  0  0  0
 25 27  1  0  0  0  0
 26 27  2  0  0  0  0
 23 25  2  0  0  0  0
 24 26  1  0  0  0  0
 22 23  1  0  0  0  0
 22 24  2  0  0  0  0
 21 22  1  0  0  0  0
  1  3  1  0  0  0  0
  1  7  1  0  0  0  0
  1  2  2  0  0  0  0
 38 39  1  0  0  0  0
 39 47  1  0  0  0  0
 39 40  2  0  0  0  0
  8  9  1  0  0  0  0
  9 17  1  0  0  0  0
  9 10  2  0  0  0  0
 18 19  1  0  0  0  0
 19 37  1  0  0  0  0
 19 20  2  0  0  0  0
 38 41  1  0  0  0  0
  8 11  1  0  0  0  0
 47 48  1  0  0  0  0
 18 21  1  0  0  0  0
 37 38  1  0  0  0  0
  7  8  1  0  0  0  0
 17 18  1  0  0  0  0
 27 36  1  0  0  0  0
 25 34  1  0  0  0  0
 26 35  1  0  0  0  0
 23 32  1  0  0  0  0
 24 33  1  0  0  0  0
  3  4  1  0  0  0  0
  3  5  1  0  0  0  0
  3  6  1  0  0  0  0
 41 44  1  0  0  0  0
 41 45  1  0  0  0  0
 41 46  1  0  0  0  0
 11 14  1  0  0  0  0
 11 15  1  0  0  0  0
 11 16  1  0  0  0  0
 48 50  1  0  0  0  0
 48 51  1  0  0  0  0
 48 52  1  0  0  0  0
 21 30  1  0  0  0  0
 21 31  1  0  0  0  0
 38 43  1  0  0  0  0
  8 13  1  0  0  0  0
 18 29  1  0  0  0  0
 47 49  1  0  0  0  0
  7 12  1  0  0  0  0
 37 42  1  0  0  0  0
 17 28  1  0  0  0  0
M  END
$$$$

  -OEChem-05262214473D

 52 52  0     1  0  0  0  0  0999 V2000
   -1.8248    0.3424    3.9102 C   0  0  0  0  0  0  0  0  0  0  0  0
   -0.8774   -0.2723    3.4345 O   0  0  0  0  0  0  0  0  0  0  0  0
   -2.2566    0.0600    5.3109 C   0  0  0  0  0  0  0  0  0  0  0  0
   -3.0163   -0.7363    5.3643 H   0  0  0  0  0  0  0  0  0  0  0  0
   -1.4254   -0.2876    5.9452 H   0  0  0  0  0  0  0  0  0  0  0  0
   -2.6947    0.9149    5.8505 H   0  0  0  0  0  0  0  0  0  0  0  0
   -2.5745    1.3149    3.2691 N   0  0  0  0  0  0  0  0  0  0  0  0
   -2.3276    1.7409    1.9167 C   0  0  2  0  0  0  0  0  0  0  0  0
   -0.9926    1.1555    1.4755 C   0  0  0  0  0  0  0  0  0  0  0  0
   -0.1206    0.8028    2.2668 O   0  0  0  0  0  0  0  0  0  0  0  0
   -2.3188    3.2577    1.8072 C   0  0  0  0  0  0  0  0  0  0  0  0
   -3.3395    1.7507    3.7809 H   0  0  0  0  0  0  0  0  0  0  0  0
   -3.1317    1.3224    1.3015 H   0  0  0  0  0  0  0  0  0  0  0  0
   -1.5198    3.6949    2.4169 H   0  0  0  0  0  0  0  0  0  0  0  0
   -2.1594    3.5799    0.7729 H   0  0  0  0  0  0  0  0  0  0  0  0
   -3.2690    3.6789    2.1530 H   0  0  0  0  0  0  0  0  0  0  0  0
   -0.8700    1.1124    0.0921 N   0  0  0  0  0  0  0  0  0  0  0  0
    0.3073    0.6116   -0.5716 C   0  0  2  0  0  0  0  0  0  0  0  0
    0.0627    0.7270   -2.0719 C   0  0  0  0  0  0  0  0  0  0  0  0
    0.9165    1.1276   -2.8602 O   0  0  0  0  0  0  0  0  0  0  0  0
    0.6121   -0.8419   -0.1915 C   0  0  0  0  0  0  0  0  0  0  0  0
    1.0158   -0.9947    1.2547 C   0  0  0  0  0  0  0  0  0  0  0  0
    2.3256   -0.7185    1.6467 C   0  0  0  0  0  0  0  0  0  0  0  0
    0.0783   -1.4120    2.1995 C   0  0  0  0  0  0  0  0  0  0  0  0
    2.6980   -0.8596    2.9835 C   0  0  0  0  0  0  0  0  0  0  0  0
    0.4507   -1.5532    3.5363 C   0  0  0  0  0  0  0  0  0  0  0  0
    1.7606   -1.2769    3.9283 C   0  0  0  0  0  0  0  0  0  0  0  0
   -1.6531    1.4091   -0.4852 H   0  0  0  0  0  0  0  0  0  0  0  0
    1.1316    1.2774   -0.2901 H   0  0  0  0  0  0  0  0  0  0  0  0
    1.4006   -1.2474   -0.8399 H   0  0  0  0  0  0  0  0  0  0  0  0
   -0.2647   -1.4777   -0.3727 H   0  0  0  0  0  0  0  0  0  0  0  0
    3.0627   -0.3926    0.9175 H   0  0  0  0  0  0  0  0  0  0  0  0
   -0.9445   -1.6294    1.9032 H   0  0  0  0  0  0  0  0  0  0  0  0
    3.7182   -0.6455    3.2884 H   0  0  0  0  0  0  0  0  0  0  0  0
   -0.2791   -1.8792    4.2714 H   0  0  0  0  0  0  0  0  0  0  0  0
    2.0510   -1.3881    4.9689 H   0  0  0  0  0  0  0  0  0  0  0  0
   -1.2031    0.2824   -2.4277 N   0  0  0  0  0  0  0  0  0  0  0  0
   -1.6830    0.2621   -3.7908 C   0  0  2  0  0  0  0  0  0  0  0  0
   -1.4236    1.6331   -4.4011 C   0  0  0  0  0  0  0  0  0  0  0  0
   -1.2778    2.6507   -3.7271 O   0  0  0  0  0  0  0  0  0  0  0  0
   -3.1614   -0.0891   -3.8517 C   0  0  0  0  0  0  0  0  0  0  0  0
   -1.8233   -0.0453   -1.6931 H   0  0  0  0  0  0  0  0  0  0  0  0
   -1.0933   -0.4925   -4.3226 H   0  0  0  0  0  0  0  0  0  0  0  0
   -3.7683    0.6558   -3.3242 H   0  0  0  0  0  0  0  0  0  0  0  0
   -3.5167   -0.1320   -4.8866 H   0  0  0  0  0  0  0  0  0  0  0  0
   -3.3504   -1.0622   -3.3857 H   0  0  0  0  0  0  0  0  0  0  0  0
   -1.4170    1.5940   -5.7884 N   0  0  0  0  0  0  0  0  0  0  0  0
   -1.2041    2.7693   -6.6005 C   0  0  0  0  0  0  0  0  0  0  0  0
   -1.5273    0.7032   -6.2637 H   0  0  0  0  0  0  0  0  0  0  0  0
   -2.1745    3.2205   -6.8549 H   0  0  0  0  0  0  0  0  0  0  0  0
   -0.5972    3.4964   -6.0410 H   0  0  0  0  0  0  0  0  0  0  0  0
   -0.6781    2.4862   -7.5242 H   0  0  0  0  0  0  0  0  0  0  0  0
 25 27  1  0  0  0  0
 26 27  2  0  0  0  0
 23 25  2  0  0  0  0
 24 26  1  0  0  0  0
 22 23  1  0  0  0  0
 22 24  2  0  0  0  0
 21 22  1  0  0  0  0
  1  3  1  0  0  0  0
  1  7  1  0  0  0  0
  1  2  2  0  0  0  0
 38 39  1  0  0  0  0
 39 47  1  0  0  0  0
 39 40  2  0  0  0  0
  8  9  1  0  0  0  0
  9 17  1  0  0  0  0
  9 10  2  0  0  0  0
 18 19  1  0  0  0  0
 19 37  1  0  0  0  0
 19 20  2  0  0  0  0
 38 41  1  0  0  0  0
  8 11  1  0  0  0  0
 47 48  1  0  0  0  0
 18 21  1  0  0  0  0
 37 38  1  0  0  0  0
  7  8  1  0  0  0  0
 17 18  1  0  0  0  0
 27 36  1  0  0  0  0
 25 34  1  0  0  0  0
 26 35  1  0  0  0  0
 23 32  1  0  0  0  0
 24 33  1  0  0  0  0
  3  4  1  0  0  0  0
  3  5  1  0  0  0  0
  3  6  1  0  0  0  0
 41 44  1  0  0  0  0
 41 45  1  0  0  0  0
 41 46  1  0  0  0  0
 11 14  1  0  0  0  0
 11 15  1  0  0  0  0
 11 16  1  0  0  0  0
 48 50  1  0  0  0  0
 48 51  1  0  0  0  0
 48 52  1  0  0  0  0
 21 30  1  0  0  0  0
 21 31  1  0  0  0  0
 38 43  1  0  0  0  0
  8 13  1  0  0  0  0
 18 29  1  0  0  0  0
 47 49  1  0  0  0  0
  7 12  1  0  0  0  0
 37 42  1  0  0  0  0
 17 28  1  0  0  0  0
M  END
$$$$

  -OEChem-05262214473D

 52 52  0     1  0  0  0  0  0999 V2000
   -1.8248    0.3424    3.9102 C   0  0  0  0  0  0  0  0  0  0  0  0
   -0.8774   -0.2723    3.4345 O   0  0  0  0  0  0  0  0  0  0  0  0
   -2.2566    0.0600    5.3109 C   0  0  0  0  0  0  0  0  0  0  0  0
   -3.0163   -0.7363    5.3643 H   0  0  0  0  0  0  0  0  0  0  0  0
   -1.4254   -0.2876    5.9452 H   0  0  0  0  0  0  0  0  0  0  0  0
   -2.6947    0.9149    5.8505 H   0  0  0  0  0  0  0  0  0  0  0  0
   -2.5745    1.3149    3.2691 N   0  0  0  0  0  0  0  0  0  0  0  0
   -2.3276    1.7409    1.9167 C   0  0  2  0  0  0  0  0  0  0  0  0
   -0.9926    1.1555    1.4755 C   0  0  0  0  0  0  0  0  0  0  0  0
   -0.1206    0.8028    2.2668 O   0  0  0  0  0  0  0  0  0  0  0  0
   -2.3188    3.2577    1.8072 C   0  0  0  0  0  0  0  0  0  0  0  0
   -3.3395    1.7507    3.7809 H   0  0  0  0  0  0  0  0  0  0  0  0
   -3.1317    1.3224    1.3015 H   0  0  0  0  0  0  0  0  0  0  0  0
   -1.5198    3.6949    2.4169 H   0  0  0  0  0  0  0  0  0  0  0  0
   -2.1594    3.5799    0.7729 H   0  0  0  0  0  0  0  0  0  0  0  0
   -3.2690    3.6789    2.1530 H   0  0  0  0  0  0  0  0  0  0  0  0
   -0.8700    1.1124    0.0921 N   0  0  0  0  0  0  0  0  0  0  0  0
    0.3073    0.6116   -0.5716 C   0  0  2  0  0  0  0  0  0  0  0  0
    0.0627    0.7270   -2.0719 C   0  0  0  0  0  0  0  0  0  0  0  0
    0.9704    0.8655   -2.8892 O   0  0  0  0  0  0  0  0  0  0  0  0
    0.6121   -0.8419   -0.1915 C   0  0  0  0  0  0  0  0  0  0  0  0
    1.0158   -0.9947    1.2547 C   0  0  0  0  0  0  0  0  0  0  0  0
    2.3256   -0.7185    1.6467 C   0  0  0  0  0  0  0  0  0  0  0  0
    0.0783   -1.4120    2.1995 C   0  0  0  0  0  0  0  0  0  0  0  0
    2.6980   -0.8596    2.9835 C   0  0  0  0  0  0  0  0  0  0  0  0
    0.4507   -1.5532    3.5363 C   0  0  0  0  0  0  0  0  0  0  0  0
    1.7606   -1.2769    3.9283 C   0  0  0  0  0  0  0  0  0  0  0  0
   -1.6531    1.4091   -0.4852 H   0  0  0  0  0  0  0  0  0  0  0  0
    1.1316    1.2774   -0.2901 H   0  0  0  0  0  0  0  0  0  0  0  0
    1.4006   -1.2474   -0.8399 H   0  0  0  0  0  0  0  0  0  0  0  0
   -0.2647   -1.4777   -0.3727 H   0  0  0  0  0  0  0  0  0  0  0  0
    3.0627   -0.3926    0.9175 H   0  0  0  0  0  0  0  0  0  0  0  0
   -0.9445   -1.6294    1.9032 H   0  0  0  0  0  0  0  0  0  0  0  0
    3.7182   -0.6455    3.2884 H   0  0  0  0  0  0  0  0  0  0  0  0
   -0.2791   -1.8792    4.2714 H   0  0  0  0  0  0  0  0  0  0  0  0
    2.0510   -1.3881    4.9689 H   0  0  0  0  0  0  0  0  0  0  0  0
   -1.2830    0.6065   -2.3897 N   0  0  0  0  0  0  0  0  0  0  0  0
   -1.7862    0.6562   -3.7437 C   0  0  2  0  0  0  0  0  0  0  0  0
   -1.2020    1.8908   -4.4175 C   0  0  0  0  0  0  0  0  0  0  0  0
   -0.7854    2.8630   -3.7911 O   0  0  0  0  0  0  0  0  0  0  0  0
   -3.3063    0.6917   -3.7681 C   0  0  0  0  0  0  0  0  0  0  0  0
   -1.9476    0.4768   -1.6327 H   0  0  0  0  0  0  0  0  0  0  0  0
   -1.4212   -0.2440   -4.2500 H   0  0  0  0  0  0  0  0  0  0  0  0
   -3.6905    1.5868   -3.2653 H   0  0  0  0  0  0  0  0  0  0  0  0
   -3.6866    0.7006   -4.7949 H   0  0  0  0  0  0  0  0  0  0  0  0
   -3.7248   -0.1820   -3.2569 H   0  0  0  0  0  0  0  0  0  0  0  0
   -1.2402    1.7973   -5.8016 N   0  0  0  0  0  0  0  0  0  0  0  0
   -0.7557    2.8467   -6.6676 C   0  0  0  0  0  0  0  0  0  0  0  0
   -1.5852    0.9462   -6.2356 H   0  0  0  0  0  0  0  0  0  0  0  0
   -1.5855    3.5203   -6.9279 H   0  0  0  0  0  0  0  0  0  0  0  0
    0.0299    3.4162   -6.1494 H   0  0  0  0  0  0  0  0  0  0  0  0
   -0.3422    2.4030   -7.5853 H   0  0  0  0  0  0  0  0  0  0  0  0
 25 27  1  0  0  0  0
 26 27  2  0  0  0  0
 23 25  2  0  0  0  0
 24 26  1  0  0  0  0
 22 23  1  0  0  0  0
 22 24  2  0  0  0  0
 21 22  1  0  0  0  0
  1  3  1  0  0  0  0
  1  7  1  0  0  0  0
  1  2  2  0  0  0  0
 38 39  1  0  0  0  0
 39 47  1  0  0  0  0
 39 40  2  0  0  0  0
  8  9  1  0  0  0  0
  9 17  1  0  0  0  0
  9 10  2  0  0  0  0
 18 19  1  0  0  0  0
 19 37  1  0  0  0  0
 19 20  2  0  0  0  0
 38 41  1  0  0  0  0
  8 11  1  0  0  0  0
 47 48  1  0  0  0  0
 18 21  1  0  0  0  0
 37 38  1  0  0  0  0
  7  8  1  0  0  0  0
 17 18  1  0  0  0  0
 27 36  1  0  0  0  0
 25 34  1  0  0  0  0
 26 35  1  0  0  0  0
 23 32  1  0  0  0  0
 24 33  1  0  0  0  0
  3  4  1  0  0  0  0
  3  5  1  0  0  0  0
  3  6  1  0  0  0  0
 41 44  1  0  0  0  0
 41 45  1  0  0  0  0
 41 46  1  0  0  0  0
 11 14  1  0  0  0  0
 11 15  1  0  0  0  0
 11 16  1  0  0  0  0
 48 50  1  0  0  0  0
 48 51  1  0  0  0  0
 48 52  1  0  0  0  0
 21 30  1  0  0  0  0
 21 31  1  0  0  0  0
 38 43  1  0  0  0  0
  8 13  1  0  0  0  0
 18 29  1  0  0  0  0
 47 49  1  0  0  0  0
  7 12  1  0  0  0  0
 37 42  1  0  0  0  0
 17 28  1  0  0  0  0
M  END
$$$$

  -OEChem-05262214473D

 52 52  0     1  0  0  0  0  0999 V2000
   -1.8248    0.3424    3.9102 C   0  0  0  0  0  0  0  0  0  0  0  0
   -0.8774   -0.2723    3.4345 O   0  0  0  0  0  0  0  0  0  0  0  0
   -2.2566    0.0600    5.3109 C   0  0  0  0  0  0  0  0  0  0  0  0
   -3.0163   -0.7363    5.3643 H   0  0  0  0  0  0  0  0  0  0  0  0
   -1.4254   -0.2876    5.9452 H   0  0  0  0  0  0  0  0  0  0  0  0
   -2.6947    0.9149    5.8505 H   0  0  0  0  0  0  0  0  0  0  0  0
   -2.5745    1.3149    3.2691 N   0  0  0  0  0  0  0  0  0  0  0  0
   -2.3276    1.7409    1.9167 C   0  0  2  0  0  0  0  0  0  0  0  0
   -0.9926    1.1555    1.4755 C   0  0  0  0  0  0  0  0  0  0  0  0
   -0.1206    0.8028    2.2668 O   0  0  0  0  0  0  0  0  0  0  0  0
   -2.3188    3.2577    1.8072 C   0  0  0  0  0  0  0  0  0  0  0  0
   -3.3395    1.7507    3.7809 H   0  0  0  0  0  0  0  0  0  0  0  0
   -3.1317    1.3224    1.3015 H   0  0  0  0  0  0  0  0  0  0  0  0
   -1.5198    3.6949    2.4169 H   0  0  0  0  0  0  0  0  0  0  0  0
   -2.1594    3.5799    0.7729 H   0  0  0  0  0  0  0  0  0  0  0  0
   -3.2690    3.6789    2.1530 H   0  0  0  0  0  0  0  0  0  0  0  0
   -0.8700    1.1124    0.0921 N   0  0  0  0  0  0  0  0  0  0  0  0
    0.3073    0.6116   -0.5716 C   0  0  2  0  0  0  0  0  0  0  0  0
    0.0627    0.7270   -2.0719 C   0  0  0  0  0  0  0  0  0  0  0  0
    0.9551    0.5974   -2.9073 O   0  0  0  0  0  0  0  0  0  0  0  0
    0.6121   -0.8419   -0.1915 C   0  0  0  0  0  0  0  0  0  0  0  0
    1.0158   -0.9947    1.2547 C   0  0  0  0  0  0  0  0  0  0  0  0
    2.3256   -0.7185    1.6467 C   0  0  0  0  0  0  0  0  0  0  0  0
    0.0783   -1.4120    2.1995 C   0  0  0  0  0  0  0  0  0  0  0  0
    2.6980   -0.8596    2.9835 C   0  0  0  0  0  0  0  0  0  0  0  0
    0.4507   -1.5532    3.5363 C   0  0  0  0  0  0  0  0  0  0  0  0
    1.7606   -1.2769    3.9283 C   0  0  0  0  0  0  0  0  0  0  0  0
   -1.6531    1.4091   -0.4852 H   0  0  0  0  0  0  0  0  0  0  0  0
    1.1316    1.2774   -0.2901 H   0  0  0  0  0  0  0  0  0  0  0  0
    1.4006   -1.2474   -0.8399 H   0  0  0  0  0  0  0  0  0  0  0  0
   -0.2647   -1.4777   -0.3727 H   0  0  0  0  0  0  0  0  0  0  0  0
    3.0627   -0.3926    0.9175 H   0  0  0  0  0  0  0  0  0  0  0  0
   -0.9445   -1.6294    1.9032 H   0  0  0  0  0  0  0  0  0  0  0  0
    3.7182   -0.6455    3.2884 H   0  0  0  0  0  0  0  0  0  0  0  0
   -0.2791   -1.8792    4.2714 H   0  0  0  0  0  0  0  0  0  0  0  0
    2.0510   -1.3881    4.9689 H   0  0  0  0  0  0  0  0  0  0  0  0
   -1.2769    0.9415   -2.3650 N   0  0  0  0  0  0  0  0  0  0  0  0
   -1.7845    1.0651   -3.7125 C   0  0  2  0  0  0  0  0  0  0  0  0
   -0.9226    2.0826   -4.4483 C   0  0  0  0  0  0  0  0  0  0  0  0
   -0.2570    2.9400   -3.8713 O   0  0  0  0  0  0  0  0  0  0  0  0
   -3.2458    1.4863   -3.7169 C   0  0  0  0  0  0  0  0  0  0  0  0
   -1.9336    1.0153   -1.5936 H   0  0  0  0  0  0  0  0  0  0  0  0
   -1.6732    0.0825   -4.1838 H   0  0  0  0  0  0  0  0  0  0  0  0
   -3.3770    2.4687   -3.2486 H   0  0  0  0  0  0  0  0  0  0  0  0
   -3.6368    1.5518   -4.7376 H   0  0  0  0  0  0  0  0  0  0  0  0
   -3.8598    0.7689   -3.1618 H   0  0  0  0  0  0  0  0  0  0  0  0
   -1.0178    1.9480   -5.8263 N   0  0  0  0  0  0  0  0  0  0  0  0
   -0.3042    2.8045   -6.7445 C   0  0  0  0  0  0  0  0  0  0  0  0
   -1.5787    1.1969   -6.2174 H   0  0  0  0  0  0  0  0  0  0  0  0
   -0.9417    3.6569   -7.0224 H   0  0  0  0  0  0  0  0  0  0  0  0
    0.6131    3.1744   -6.2631 H   0  0  0  0  0  0  0  0  0  0  0  0
   -0.0402    2.2346   -7.6475 H   0  0  0  0  0  0  0  0  0  0  0  0
 25 27  1  0  0  0  0
 26 27  2  0  0  0  0
 23 25  2  0  0  0  0
 24 26  1  0  0  0  0
 22 23  1  0  0  0  0
 22 24  2  0  0  0  0
 21 22  1  0  0  0  0
  1  3  1  0  0  0  0
  1  7  1  0  0  0  0
  1  2  2  0  0  0  0
 38 39  1  0  0  0  0
 39 47  1  0  0  0  0
 39 40  2  0  0  0  0
  8  9  1  0  0  0  0
  9 17  1  0  0  0  0
  9 10  2  0  0  0  0
 18 19  1  0  0  0  0
 19 37  1  0  0  0  0
 19 20  2  0  0  0  0
 38 41  1  0  0  0  0
  8 11  1  0  0  0  0
 47 48  1  0  0  0  0
 18 21  1  0  0  0  0
 37 38  1  0  0  0  0
  7  8  1  0  0  0  0
 17 18  1  0  0  0  0
 27 36  1  0  0  0  0
 25 34  1  0  0  0  0
 26 35  1  0  0  0  0
 23 32  1  0  0  0  0
 24 33  1  0  0  0  0
  3  4  1  0  0  0  0
  3  5  1  0  0  0  0
  3  6  1  0  0  0  0
 41 44  1  0  0  0  0
 41 45  1  0  0  0  0
 41 46  1  0  0  0  0
 11 14  1  0  0  0  0
 11 15  1  0  0  0  0
 11 16  1  0  0  0  0
 48 50  1  0  0  0  0
 48 51  1  0  0  0  0
 48 52  1  0  0  0  0
 21 30  1  0  0  0  0
 21 31  1  0  0  0  0
 38 43  1  0  0  0  0
  8 13  1  0  0  0  0
 18 29  1  0  0  0  0
 47 49  1  0  0  0  0
  7 12  1  0  0  0  0
 37 42  1  0  0  0  0
 17 28  1  0  0  0  0
M  END
$$$$

  -OEChem-05262214473D

 52 52  0     1  0  0  0  0  0999 V2000
   -1.8248    0.3424    3.9102 C   0  0  0  0  0  0  0  0  0  0  0  0
   -0.8774   -0.2723    3.4345 O   0  0  0  0  0  0  0  0  0  0  0  0
   -2.2566    0.0600    5.3109 C   0  0  0  0  0  0  0  0  0  0  0  0
   -3.0163   -0.7363    5.3643 H   0  0  0  0  0  0  0  0  0  0  0  0
   -1.4254   -0.2876    5.9452 H   0  0  0  0  0  0  0  0  0  0  0  0
   -2.6947    0.9149    5.8505 H   0  0  0  0  0  0  0  0  0  0  0  0
   -2.5745    1.3149    3.2691 N   0  0  0  0  0  0  0  0  0  0  0  0
   -2.3276    1.7409    1.9167 C   0  0  2  0  0  0  0  0  0  0  0  0
   -0.9926    1.1555    1.4755 C   0  0  0  0  0  0  0  0  0  0  0  0
   -0.1206    0.8028    2.2668 O   0  0  0  0  0  0  0  0  0  0  0  0
   -2.3188    3.2577    1.8072 C   0  0  0  0  0  0  0  0  0  0  0  0
   -3.3395    1.7507    3.7809 H   0  0  0  0  0  0  0  0  0  0  0  0
   -3.1317    1.3224    1.3015 H   0  0  0  0  0  0  0  0  0  0  0  0
   -1.5198    3.6949    2.4169 H   0  0  0  0  0  0  0  0  0  0  0  0
   -2.1594    3.5799    0.7729 H   0  0  0  0  0  0  0  0  0  0  0  0
   -3.2690    3.6789    2.1530 H   0  0  0  0  0  0  0  0  0  0  0  0
   -0.8700    1.1124    0.0921 N   0  0  0  0  0  0  0  0  0  0  0  0
    0.3073    0.6116   -0.5716 C   0  0  2  0  0  0  0  0  0  0  0  0
    0.0627    0.7270   -2.0719 C   0  0  0  0  0  0  0  0  0  0  0  0
    0.8716    0.3415   -2.9133 O   0  0  0  0  0  0  0  0  0  0  0  0
    0.6121   -0.8419   -0.1915 C   0  0  0  0  0  0  0  0  0  0  0  0
    1.0158   -0.9947    1.2547 C   0  0  0  0  0  0  0  0  0  0  0  0
    2.3256   -0.7185    1.6467 C   0  0  0  0  0  0  0  0  0  0  0  0
    0.0783   -1.4120    2.1995 C   0  0  0  0  0  0  0  0  0  0  0  0
    2.6980   -0.8596    2.9835 C   0  0  0  0  0  0  0  0  0  0  0  0
    0.4507   -1.5532    3.5363 C   0  0  0  0  0  0  0  0  0  0  0  0
    1.7606   -1.2769    3.9283 C   0  0  0  0  0  0  0  0  0  0  0  0
   -1.6531    1.4091   -0.4852 H   0  0  0  0  0  0  0  0  0  0  0  0
    1.1316    1.2774   -0.2901 H   0  0  0  0  0  0  0  0  0  0  0  0
    1.4006   -1.2474   -0.8399 H   0  0  0  0  0  0  0  0  0  0  0  0
   -0.2647   -1.4777   -0.3727 H   0  0  0  0  0  0  0  0  0  0  0  0
    3.0627   -0.3926    0.9175 H   0  0  0  0  0  0  0  0  0  0  0  0
   -0.9445   -1.6294    1.9032 H   0  0  0  0  0  0  0  0  0  0  0  0
    3.7182   -0.6455    3.2884 H   0  0  0  0  0  0  0  0  0  0  0  0
   -0.2791   -1.8792    4.2714 H   0  0  0  0  0  0  0  0  0  0  0  0
    2.0510   -1.3881    4.9689 H   0  0  0  0  0  0  0  0  0  0  0  0
   -1.1852    1.2646   -2.3551 N   0  0  0  0  0  0  0  0  0  0  0  0
   -1.6781    1.4610   -3.6994 C   0  0  2  0  0  0  0  0  0  0  0  0
   -0.6044    2.1954   -4.4915 C   0  0  0  0  0  0  0  0  0  0  0  0
    0.2715    2.8764   -3.9624 O   0  0  0  0  0  0  0  0  0  0  0  0
   -2.9839    2.2406   -3.7016 C   0  0  0  0  0  0  0  0  0  0  0  0
   -1.7820    1.5335   -1.5784 H   0  0  0  0  0  0  0  0  0  0  0  0
   -1.8322    0.4649   -4.1285 H   0  0  0  0  0  0  0  0  0  0  0  0
   -2.8493    3.2414   -3.2753 H   0  0  0  0  0  0  0  0  0  0  0  0
   -3.3707    2.3638   -4.7185 H   0  0  0  0  0  0  0  0  0  0  0  0
   -3.7461    1.7257   -3.1068 H   0  0  0  0  0  0  0  0  0  0  0  0
   -0.7652    2.0359   -5.8607 N   0  0  0  0  0  0  0  0  0  0  0  0
    0.1196    2.6456   -6.8258 C   0  0  0  0  0  0  0  0  0  0  0  0
   -1.5082    1.4381   -6.2103 H   0  0  0  0  0  0  0  0  0  0  0  0
   -0.2868    3.6208   -7.1319 H   0  0  0  0  0  0  0  0  0  0  0  0
    1.1126    2.7877   -6.3742 H   0  0  0  0  0  0  0  0  0  0  0  0
    0.2075    1.9924   -7.7065 H   0  0  0  0  0  0  0  0  0  0  0  0
 25 27  1  0  0  0  0
 26 27  2  0  0  0  0
 23 25  2  0  0  0  0
 24 26  1  0  0  0  0
 22 23  1  0  0  0  0
 22 24  2  0  0  0  0
 21 22  1  0  0  0  0
  1  3  1  0  0  0  0
  1  7  1  0  0  0  0
  1  2  2  0  0  0  0
 38 39  1  0  0  0  0
 39 47  1  0  0  0  0
 39 40  2  0  0  0  0
  8  9  1  0  0  0  0
  9 17  1  0  0  0  0
  9 10  2  0  0  0  0
 18 19  1  0  0  0  0
 19 37  1  0  0  0  0
 19 20  2  0  0  0  0
 38 41  1  0  0  0  0
  8 11  1  0  0  0  0
 47 48  1  0  0  0  0
 18 21  1  0  0  0  0
 37 38  1  0  0  0  0
  7  8  1  0  0  0  0
 17 18  1  0  0  0  0
 27 36  1  0  0  0  0
 25 34  1  0  0  0  0
 26 35  1  0  0  0  0
 23 32  1  0  0  0  0
 24 33  1  0  0  0  0
  3  4  1  0  0  0  0
  3  5  1  0  0  0  0
  3  6  1  0  0  0  0
 41 44  1  0  0  0  0
 41 45  1  0  0  0  0
 41 46  1  0  0  0  0
 11 14  1  0  0  0  0
 11 15  1  0  0  0  0
 11 16  1  0  0  0  0
 48 50  1  0  0  0  0
 48 51  1  0  0  0  0
 48 52  1  0  0  0  0
 21 30  1  0  0  0  0
 21 31  1  0  0  0  0
 38 43  1  0  0  0  0
  8 13  1  0  0  0  0
 18 29  1  0  0  0  0
 47 49  1  0  0  0  0
  7 12  1  0  0  0  0
 37 42  1  0  0  0  0
 17 28  1  0  0  0  0
M  END
$$$$

  -OEChem-05262214473D

 52 52  0     1  0  0  0  0  0999 V2000
   -1.8248    0.3424    3.9102 C   0  0  0  0  0  0  0  0  0  0  0  0
   -0.8774   -0.2723    3.4345 O   0  0  0  0  0  0  0  0  0  0  0  0
   -2.2566    0.0600    5.3109 C   0  0  0  0  0  0  0  0  0  0  0  0
   -3.0163   -0.7363    5.3643 H   0  0  0  0  0  0  0  0  0  0  0  0
   -1.4254   -0.2876    5.9452 H   0  0  0  0  0  0  0  0  0  0  0  0
   -2.6947    0.9149    5.8505 H   0  0  0  0  0  0  0  0  0  0  0  0
   -2.5745    1.3149    3.2691 N   0  0  0  0  0  0  0  0  0  0  0  0
   -2.3276    1.7409    1.9167 C   0  0  2  0  0  0  0  0  0  0  0  0
   -0.9926    1.1555    1.4755 C   0  0  0  0  0  0  0  0  0  0  0  0
   -0.1206    0.8028    2.2668 O   0  0  0  0  0  0  0  0  0  0  0  0
   -2.3188    3.2577    1.8072 C   0  0  0  0  0  0  0  0  0  0  0  0
   -3.3395    1.7507    3.7809 H   0  0  0  0  0  0  0  0  0  0  0  0
   -3.1317    1.3224    1.3015 H   0  0  0  0  0  0  0  0  0  0  0  0
   -1.5198    3.6949    2.4169 H   0  0  0  0  0  0  0  0  0  0  0  0
   -2.1594    3.5799    0.7729 H   0  0  0  0  0  0  0  0  0  0  0  0
   -3.2690    3.6789    2.1530 H   0  0  0  0  0  0  0  0  0  0  0  0
   -0.8700    1.1124    0.0921 N   0  0  0  0  0  0  0  0  0  0  0  0
    0.3073    0.6116   -0.5716 C   0  0  2  0  0  0  0  0  0  0  0  0
    0.0627    0.7270   -2.0719 C   0  0  0  0  0  0  0  0  0  0  0  0
    0.7258    0.1154   -2.9069 O   0  0  0  0  0  0  0  0  0  0  0  0
    0.6121   -0.8419   -0.1915 C   0  0  0  0  0  0  0  0  0  0  0  0
    1.0158   -0.9947    1.2547 C   0  0  0  0  0  0  0  0  0  0  0  0
    2.3256   -0.7185    1.6467 C   0  0  0  0  0  0  0  0  0  0  0  0
    0.0783   -1.4120    2.1995 C   0  0  0  0  0  0  0  0  0  0  0  0
    2.6980   -0.8596    2.9835 C   0  0  0  0  0  0  0  0  0  0  0  0
    0.4507   -1.5532    3.5363 C   0  0  0  0  0  0  0  0  0  0  0  0
    1.7606   -1.2769    3.9283 C   0  0  0  0  0  0  0  0  0  0  0  0
   -1.6531    1.4091   -0.4852 H   0  0  0  0  0  0  0  0  0  0  0  0
    1.1316    1.2774   -0.2901 H   0  0  0  0  0  0  0  0  0  0  0  0
    1.4006   -1.2474   -0.8399 H   0  0  0  0  0  0  0  0  0  0  0  0
   -0.2647   -1.4777   -0.3727 H   0  0  0  0  0  0  0  0  0  0  0  0
    3.0627   -0.3926    0.9175 H   0  0  0  0  0  0  0  0  0  0  0  0
   -0.9445   -1.6294    1.9032 H   0  0  0  0  0  0  0  0  0  0  0  0
    3.7182   -0.6455    3.2884 H   0  0  0  0  0  0  0  0  0  0  0  0
   -0.2791   -1.8792    4.2714 H   0  0  0  0  0  0  0  0  0  0  0  0
    2.0510   -1.3881    4.9689 H   0  0  0  0  0  0  0  0  0  0  0  0
   -1.0141    1.5537   -2.3608 N   0  0  0  0  0  0  0  0  0  0  0  0
   -1.4743    1.8168   -3.7053 C   0  0  2  0  0  0  0  0  0  0  0  0
   -0.2693    2.2215   -4.5441 C   0  0  0  0  0  0  0  0  0  0  0  0
    0.7640    2.6766   -4.0580 O   0  0  0  0  0  0  0  0  0  0  0  0
   -2.5385    2.9030   -3.7233 C   0  0  0  0  0  0  0  0  0  0  0  0
   -1.5033    1.9961   -1.5883 H   0  0  0  0  0  0  0  0  0  0  0  0
   -1.8873    0.8770   -4.0878 H   0  0  0  0  0  0  0  0  0  0  0  0
   -2.1433    3.8522   -3.3434 H   0  0  0  0  0  0  0  0  0  0  0  0
   -2.9066    3.0811   -4.7390 H   0  0  0  0  0  0  0  0  0  0  0  0
   -3.3915    2.6233   -3.0956 H   0  0  0  0  0  0  0  0  0  0  0  0
   -0.4994    2.0551   -5.9026 N   0  0  0  0  0  0  0  0  0  0  0  0
    0.4870    2.3807   -6.9061 C   0  0  0  0  0  0  0  0  0  0  0  0
   -1.3785    1.6534   -6.2149 H   0  0  0  0  0  0  0  0  0  0  0  0
    0.3344    3.4147   -7.2490 H   0  0  0  0  0  0  0  0  0  0  0  0
    1.4944    2.2823   -6.4753 H   0  0  0  0  0  0  0  0  0  0  0  0
    0.3838    1.6929   -7.7583 H   0  0  0  0  0  0  0  0  0  0  0  0
 25 27  1  0  0  0  0
 26 27  2  0  0  0  0
 23 25  2  0  0  0  0
 24 26  1  0  0  0  0
 22 23  1  0  0  0  0
 22 24  2  0  0  0  0
 21 22  1  0  0  0  0
  1  3  1  0  0  0  0
  1  7  1  0  0  0  0
  1  2  2  0  0  0  0
 38 39  1  0  0  0  0
 39 47  1  0  0  0  0
 39 40  2  0  0  0  0
  8  9  1  0  0  0  0
  9 17  1  0  0  0  0
  9 10  2  0  0  0  0
 18 19  1  0  0  0  0
 19 37  1  0  0  0  0
 19 20  2  0  0  0  0
 38 41  1  0  0  0  0
  8 11  1  0  0  0  0
 47 48  1  0  0  0  0
 18 21  1  0  0  0  0
 37 38  1  0  0  0  0
  7  8  1  0  0  0  0
 17 18  1  0  0  0  0
 27 36  1  0  0  0  0
 25 34  1  0  0  0  0
 26 35  1  0  0  0  0
 23 32  1  0  0  0  0
 24 33  1  0  0  0  0
  3  4  1  0  0  0  0
  3  5  1  0  0  0  0
  3  6  1  0  0  0  0
 41 44  1  0  0  0  0
 41 45  1  0  0  0  0
 41 46  1  0  0  0  0
 11 14  1  0  0  0  0
 11 15  1  0  0  0  0
 11 16  1  0  0  0  0
 48 50  1  0  0  0  0
 48 51  1  0  0  0  0
 48 52  1  0  0  0  0
 21 30  1  0  0  0  0
 21 31  1  0  0  0  0
 38 43  1  0  0  0  0
  8 13  1  0  0  0  0
 18 29  1  0  0  0  0
 47 49  1  0  0  0  0
  7 12  1  0  0  0  0
 37 42  1  0  0  0  0
 17 28  1  0  0  0  0
M  END
$$$$

  -OEChem-05262214473D

 52 52  0     1  0  0  0  0  0999 V2000
   -1.8248    0.3424    3.9102 C   0  0  0  0  0  0  0  0  0  0  0  0
   -0.8774   -0.2723    3.4345 O   0  0  0  0  0  0  0  0  0  0  0  0
   -2.2566    0.0600    5.3109 C   0  0  0  0  0  0  0  0  0  0  0  0
   -3.0163   -0.7363    5.3643 H   0  0  0  0  0  0  0  0  0  0  0  0
   -1.4254   -0.2876    5.9452 H   0  0  0  0  0  0  0  0  0  0  0  0
   -2.6947    0.9149    5.8505 H   0  0  0  0  0  0  0  0  0  0  0  0
   -2.5745    1.3149    3.2691 N   0  0  0  0  0  0  0  0  0  0  0  0
   -2.3276    1.7409    1.9167 C   0  0  2  0  0  0  0  0  0  0  0  0
   -0.9926    1.1555    1.4755 C   0  0  0  0  0  0  0  0  0  0  0  0
   -0.1206    0.8028    2.2668 O   0  0  0  0  0  0  0  0  0  0  0  0
   -2.3188    3.2577    1.8072 C   0  0  0  0  0  0  0  0  0  0  0  0
   -3.3395    1.7507    3.7809 H   0  0  0  0  0  0  0  0  0  0  0  0
   -3.1317    1.3224    1.3015 H   0  0  0  0  0  0  0  0  0  0  0  0
   -1.5198    3.6949    2.4169 H   0  0  0  0  0  0  0  0  0  0  0  0
   -2.1594    3.5799    0.7729 H   0  0  0  0  0  0  0  0  0  0  0  0
   -3.2690    3.6789    2.1530 H   0  0  0  0  0  0  0  0  0  0  0  0
   -0.8700    1.1124    0.0921 N   0  0  0  0  0  0  0  0  0  0  0  0
    0.3073    0.6116   -0.5716 C   0  0  2  0  0  0  0  0  0  0  0  0
    0.0627    0.7270   -2.0719 C   0  0  0  0  0  0  0  0  0  0  0  0
    0.5274   -0.0656   -2.8885 O   0  0  0  0  0  0  0  0  0  0  0  0
    0.6121   -0.8419   -0.1915 C   0  0  0  0  0  0  0  0  0  0  0  0
    1.0158   -0.9947    1.2547 C   0  0  0  0  0  0  0  0  0  0  0  0
    2.3256   -0.7185    1.6467 C   0  0  0  0  0  0  0  0  0  0  0  0
    0.0783   -1.4120    2.1995 C   0  0  0  0  0  0  0  0  0  0  0  0
    2.6980   -0.8596    2.9835 C   0  0  0  0  0  0  0  0  0  0  0  0
    0.4507   -1.5532    3.5363 C   0  0  0  0  0  0  0  0  0  0  0  0
    1.7606   -1.2769    3.9283 C   0  0  0  0  0  0  0  0  0  0  0  0
   -1.6531    1.4091   -0.4852 H   0  0  0  0  0  0  0  0  0  0  0  0
    1.1316    1.2774   -0.2901 H   0  0  0  0  0  0  0  0  0  0  0  0
    1.4006   -1.2474   -0.8399 H   0  0  0  0  0  0  0  0  0  0  0  0
   -0.2647   -1.4777   -0.3727 H   0  0  0  0  0  0  0  0  0  0  0  0
    3.0627   -0.3926    0.9175 H   0  0  0  0  0  0  0  0  0  0  0  0
   -0.9445   -1.6294    1.9032 H   0  0  0  0  0  0  0  0  0  0  0  0
    3.7182   -0.6455    3.2884 H   0  0  0  0  0  0  0  0  0  0  0  0
   -0.2791   -1.8792    4.2714 H   0  0  0  0  0  0  0  0  0  0  0  0
    2.0510   -1.3881    4.9689 H   0  0  0  0  0  0  0  0  0  0  0  0
   -0.7753    1.7892   -2.3816 N   0  0  0  0  0  0  0  0  0  0  0  0
   -1.1869    2.1083   -3.7297 C   0  0  2  0  0  0  0  0  0  0  0  0
    0.0601    2.1592   -4.6026 C   0  0  0  0  0  0  0  0  0  0  0  0
    1.1870    2.3542   -4.1517 O   0  0  0  0  0  0  0  0  0  0  0  0
   -1.9400    3.4286   -3.7804 C   0  0  0  0  0  0  0  0  0  0  0  0
   -1.1165    2.3715   -1.6225 H   0  0  0  0  0  0  0  0  0  0  0  0
   -1.8347    1.2909   -4.0646 H   0  0  0  0  0  0  0  0  0  0  0  0
   -1.3070    4.2595   -3.4484 H   0  0  0  0  0  0  0  0  0  0  0  0
   -2.2759    3.6549   -4.7978 H   0  0  0  0  0  0  0  0  0  0  0  0
   -2.8202    3.4004   -3.1290 H   0  0  0  0  0  0  0  0  0  0  0  0
   -0.2386    2.0041   -5.9490 N   0  0  0  0  0  0  0  0  0  0  0  0
    0.7728    2.0279   -6.9798 C   0  0  0  0  0  0  0  0  0  0  0  0
   -1.1985    1.8282   -6.2308 H   0  0  0  0  0  0  0  0  0  0  0  0
    0.8796    3.0525   -7.3658 H   0  0  0  0  0  0  0  0  0  0  0  0
    1.7324    1.6927   -6.5595 H   0  0  0  0  0  0  0  0  0  0  0  0
    0.4768    1.3565   -7.7993 H   0  0  0  0  0  0  0  0  0  0  0  0
 25 27  1  0  0  0  0
 26 27  2  0  0  0  0
 23 25  2  0  0  0  0
 24 26  1  0  0  0  0
 22 23  1  0  0  0  0
 22 24  2  0  0  0  0
 21 22  1  0  0  0  0
  1  3  1  0  0  0  0
  1  7  1  0  0  0  0
  1  2  2  0  0  0  0
 38 39  1  0  0  0  0
 39 47  1  0  0  0  0
 39 40  2  0  0  0  0
  8  9  1  0  0  0  0
  9 17  1  0  0  0  0
  9 10  2  0  0  0  0
 18 19  1  0  0  0  0
 19 37  1  0  0  0  0
 19 20  2  0  0  0  0
 38 41  1  0  0  0  0
  8 11  1  0  0  0  0
 47 48  1  0  0  0  0
 18 21  1  0  0  0  0
 37 38  1  0  0  0  0
  7  8  1  0  0  0  0
 17 18  1  0  0  0  0
 27 36  1  0  0  0  0
 25 34  1  0  0  0  0
 26 35  1  0  0  0  0
 23 32  1  0  0  0  0
 24 33  1  0  0  0  0
  3  4  1  0  0  0  0
  3  5  1  0  0  0  0
  3  6  1  0  0  0  0
 41 44  1  0  0  0  0
 41 45  1  0  0  0  0
 41 46  1  0  0  0  0
 11 14  1  0  0  0  0
 11 15  1  0  0  0  0
 11 16  1  0  0  0  0
 48 50  1  0  0  0  0
 48 51  1  0  0  0  0
 48 52  1  0  0  0  0
 21 30  1  0  0  0  0
 21 31  1  0  0  0  0
 38 43  1  0  0  0  0
  8 13  1  0  0  0  0
 18 29  1  0  0  0  0
 47 49  1  0  0  0  0
  7 12  1  0  0  0  0
 37 42  1  0  0  0  0
 17 28  1  0  0  0  0
M  END
$$$$

  -OEChem-05262214473D

 52 52  0     1  0  0  0  0  0999 V2000
   -1.8248    0.3424    3.9102 C   0  0  0  0  0  0  0  0  0  0  0  0
   -0.8774   -0.2723    3.4345 O   0  0  0  0  0  0  0  0  0  0  0  0
   -2.2566    0.0600    5.3109 C   0  0  0  0  0  0  0  0  0  0  0  0
   -3.0163   -0.7363    5.3643 H   0  0  0  0  0  0  0  0  0  0  0  0
   -1.4254   -0.2876    5.9452 H   0  0  0  0  0  0  0  0  0  0  0  0
   -2.6947    0.9149    5.8505 H   0  0  0  0  0  0  0  0  0  0  0  0
   -2.5745    1.3149    3.2691 N   0  0  0  0  0  0  0  0  0  0  0  0
   -2.3276    1.7409    1.9167 C   0  0  2  0  0  0  0  0  0  0  0  0
   -0.9926    1.1555    1.4755 C   0  0  0  0  0  0  0  0  0  0  0  0
   -0.1206    0.8028    2.2668 O   0  0  0  0  0  0  0  0  0  0  0  0
   -2.3188    3.2577    1.8072 C   0  0  0  0  0  0  0  0  0  0  0  0
   -3.3395    1.7507    3.7809 H   0  0  0  0  0  0  0  0  0  0  0  0
   -3.1317    1.3224    1.3015 H   0  0  0  0  0  0  0  0  0  0  0  0
   -1.5198    3.6949    2.4169 H   0  0  0  0  0  0  0  0  0  0  0  0
   -2.1594    3.5799    0.7729 H   0  0  0  0  0  0  0  0  0  0  0  0
   -3.2690    3.6789    2.1530 H   0  0  0  0  0  0  0  0  0  0  0  0
   -0.8700    1.1124    0.0921 N   0  0  0  0  0  0  0  0  0  0  0  0
    0.3073    0.6116   -0.5716 C   0  0  2  0  0  0  0  0  0  0  0  0
    0.0627    0.7270   -2.0719 C   0  0  0  0  0  0  0  0  0  0  0  0
    0.2900   -0.1891   -2.8593 O   0  0  0  0  0  0  0  0  0  0  0  0
    0.6121   -0.8419   -0.1915 C   0  0  0  0  0  0  0  0  0  0  0  0
    1.0158   -0.9947    1.2547 C   0  0  0  0  0  0  0  0  0  0  0  0
    2.3256   -0.7185    1.6467 C   0  0  0  0  0  0  0  0  0  0  0  0
    0.0783   -1.4120    2.1995 C   0  0  0  0  0  0  0  0  0  0  0  0
    2.6980   -0.8596    2.9835 C   0  0  0  0  0  0  0  0  0  0  0  0
    0.4507   -1.5532    3.5363 C   0  0  0  0  0  0  0  0  0  0  0  0
    1.7606   -1.2769    3.9283 C   0  0  0  0  0  0  0  0  0  0  0  0
   -1.6531    1.4091   -0.4852 H   0  0  0  0  0  0  0  0  0  0  0  0
    1.1316    1.2774   -0.2901 H   0  0  0  0  0  0  0  0  0  0  0  0
    1.4006   -1.2474   -0.8399 H   0  0  0  0  0  0  0  0  0  0  0  0
   -0.2647   -1.4777   -0.3727 H   0  0  0  0  0  0  0  0  0  0  0  0
    3.0627   -0.3926    0.9175 H   0  0  0  0  0  0  0  0  0  0  0  0
   -0.9445   -1.6294    1.9032 H   0  0  0  0  0  0  0  0  0  0  0  0
    3.7182   -0.6455    3.2884 H   0  0  0  0  0  0  0  0  0  0  0  0
   -0.2791   -1.8792    4.2714 H   0  0  0  0  0  0  0  0  0  0  0  0
    2.0510   -1.3881    4.9689 H   0  0  0  0  0  0  0  0  0  0  0  0
   -0.4851    1.9549   -2.4162 N   0  0  0  0  0  0  0  0  0  0  0  0
   -0.8355    2.3157   -3.7711 C   0  0  2  0  0  0  0  0  0  0  0  0
    0.3612    2.0126   -4.6629 C   0  0  0  0  0  0  0  0  0  0  0  0
    1.5115    1.9312   -4.2372 O   0  0  0  0  0  0  0  0  0  0  0  0
   -1.2292    3.7814   -3.8692 C   0  0  0  0  0  0  0  0  0  0  0  0
   -0.6480    2.6341   -1.6787 H   0  0  0  0  0  0  0  0  0  0  0  0
   -1.6780    1.6781   -4.0603 H   0  0  0  0  0  0  0  0  0  0  0  0
   -0.3976    4.4357   -3.5832 H   0  0  0  0  0  0  0  0  0  0  0  0
   -1.5217    4.0461   -4.8906 H   0  0  0  0  0  0  0  0  0  0  0  0
   -2.0710    4.0041   -3.2048 H   0  0  0  0  0  0  0  0  0  0  0  0
   -0.0006    1.8866   -5.9969 N   0  0  0  0  0  0  0  0  0  0  0  0
    0.9576    1.6114   -7.0419 C   0  0  0  0  0  0  0  0  0  0  0  0
   -0.9804    1.9505   -6.2570 H   0  0  0  0  0  0  0  0  0  0  0  0
    1.3118    2.5588   -7.4742 H   0  0  0  0  0  0  0  0  0  0  0  0
    1.8106    1.0590   -6.6209 H   0  0  0  0  0  0  0  0  0  0  0  0
    0.4802    1.0062   -7.8268 H   0  0  0  0  0  0  0  0  0  0  0  0
 25 27  1  0  0  0  0
 26 27  2  0  0  0  0
 23 25  2  0  0  0  0
 24 26  1  0  0  0  0
 22 23  1  0  0  0  0
 22 24  2  0  0  0  0
 21 22  1  0  0  0  0
  1  3  1  0  0  0  0
  1  7  1  0  0  0  0
  1  2  2  0  0  0  0
 38 39  1  0  0  0  0
 39 47  1  0  0  0  0
 39 40  2  0  0  0  0
  8  9  1  0  0  0  0
  9 17  1  0  0  0  0
  9 10  2  0  0  0  0
 18 19  1  0  0  0  0
 19 37  1  0  0  0  0
 19 20  2  0  0  0  0
 38 41  1  0  0  0  0
  8 11  1  0  0  0  0
 47 48  1  0  0  0  0
 18 21  1  0  0  0  0
 37 38  1  0  0  0  0
  7  8  1  0  0  0  0
 17 18  1  0  0  0  0
 27 36  1  0  0  0  0
 25 34  1  0  0  0  0
 26 35  1  0  0  0  0
 23 32  1  0  0  0  0
 24 33  1  0  0  0  0
  3  4  1  0  0  0  0
  3  5  1  0  0  0  0
  3  6  1  0  0  0  0
 41 44  1  0  0  0  0
 41 45  1  0  0  0  0
 41 46  1  0  0  0  0
 11 14  1  0  0  0  0
 11 15  1  0  0  0  0
 11 16  1  0  0  0  0
 48 50  1  0  0  0  0
 48 51  1  0  0  0  0
 48 52  1  0  0  0  0
 21 30  1  0  0  0  0
 21 31  1  0  0  0  0
 38 43  1  0  0  0  0
  8 13  1  0  0  0  0
 18 29  1  0  0  0  0
 47 49  1  0  0  0  0
  7 12  1  0  0  0  0
 37 42  1  0  0  0  0
 17 28  1  0  0  0  0
M  END
$$$$

  -OEChem-05262214473D

 52 52  0     1  0  0  0  0  0999 V2000
   -1.8248    0.3424    3.9102 C   0  0  0  0  0  0  0  0  0  0  0  0
   -0.8774   -0.2723    3.4345 O   0  0  0  0  0  0  0  0  0  0  0  0
   -2.2566    0.0600    5.3109 C   0  0  0  0  0  0  0  0  0  0  0  0
   -3.0163   -0.7363    5.3643 H   0  0  0  0  0  0  0  0  0  0  0  0
   -1.4254   -0.2876    5.9452 H   0  0  0  0  0  0  0  0  0  0  0  0
   -2.6947    0.9149    5.8505 H   0  0  0  0  0  0  0  0  0  0  0  0
   -2.5745    1.3149    3.2691 N   0  0  0  0  0  0  0  0  0  0  0  0
   -2.3276    1.7409    1.9167 C   0  0  2  0  0  0  0  0  0  0  0  0
   -0.9926    1.1555    1.4755 C   0  0  0  0  0  0  0  0  0  0  0  0
   -0.1206    0.8028    2.2668 O   0  0  0  0  0  0  0  0  0  0  0  0
   -2.3188    3.2577    1.8072 C   0  0  0  0  0  0  0  0  0  0  0  0
   -3.3395    1.7507    3.7809 H   0  0  0  0  0  0  0  0  0  0  0  0
   -3.1317    1.3224    1.3015 H   0  0  0  0  0  0  0  0  0  0  0  0
   -1.5198    3.6949    2.4169 H   0  0  0  0  0  0  0  0  0  0  0  0
   -2.1594    3.5799    0.7729 H   0  0  0  0  0  0  0  0  0  0  0  0
   -3.2690    3.6789    2.1530 H   0  0  0  0  0  0  0  0  0  0  0  0
   -0.8700    1.1124    0.0921 N   0  0  0  0  0  0  0  0  0  0  0  0
    0.3073    0.6116   -0.5716 C   0  0  2  0  0  0  0  0  0  0  0  0
    0.0627    0.7270   -2.0719 C   0  0  0  0  0  0  0  0  0  0  0  0
    0.0299   -0.2468   -2.8213 O   0  0  0  0  0  0  0  0  0  0  0  0
    0.6121   -0.8419   -0.1915 C   0  0  0  0  0  0  0  0  0  0  0  0
    1.0158   -0.9947    1.2547 C   0  0  0  0  0  0  0  0  0  0  0  0
    2.3256   -0.7185    1.6467 C   0  0  0  0  0  0  0  0  0  0  0  0
    0.0783   -1.4120    2.1995 C   0  0  0  0  0  0  0  0  0  0  0  0
    2.6980   -0.8596    2.9835 C   0  0  0  0  0  0  0  0  0  0  0  0
    0.4507   -1.5532    3.5363 C   0  0  0  0  0  0  0  0  0  0  0  0
    1.7606   -1.2769    3.9283 C   0  0  0  0  0  0  0  0  0  0  0  0
   -1.6531    1.4091   -0.4852 H   0  0  0  0  0  0  0  0  0  0  0  0
    1.1316    1.2774   -0.2901 H   0  0  0  0  0  0  0  0  0  0  0  0
    1.4006   -1.2474   -0.8399 H   0  0  0  0  0  0  0  0  0  0  0  0
   -0.2647   -1.4777   -0.3727 H   0  0  0  0  0  0  0  0  0  0  0  0
    3.0627   -0.3926    0.9175 H   0  0  0  0  0  0  0  0  0  0  0  0
   -0.9445   -1.6294    1.9032 H   0  0  0  0  0  0  0  0  0  0  0  0
    3.7182   -0.6455    3.2884 H   0  0  0  0  0  0  0  0  0  0  0  0
   -0.2791   -1.8792    4.2714 H   0  0  0  0  0  0  0  0  0  0  0  0
    2.0510   -1.3881    4.9689 H   0  0  0  0  0  0  0  0  0  0  0  0
   -0.1633    2.0396   -2.4621 N   0  0  0  0  0  0  0  0  0  0  0  0
   -0.4441    2.4248   -3.8265 C   0  0  2  0  0  0  0  0  0  0  0  0
    0.6136    1.7919   -4.7211 C   0  0  0  0  0  0  0  0  0  0  0  0
    1.7156    1.4363   -4.3085 O   0  0  0  0  0  0  0  0  0  0  0  0
   -0.4544    3.9374   -3.9835 C   0  0  0  0  0  0  0  0  0  0  0  0
   -0.1296    2.7662   -1.7531 H   0  0  0  0  0  0  0  0  0  0  0  0
   -1.4280    2.0125   -4.0754 H   0  0  0  0  0  0  0  0  0  0  0  0
    0.5231    4.3685   -3.7384 H   0  0  0  0  0  0  0  0  0  0  0  0
   -0.6954    4.2280   -5.0114 H   0  0  0  0  0  0  0  0  0  0  0  0
   -1.1951    4.3933   -3.3176 H   0  0  0  0  0  0  0  0  0  0  0  0
    0.1984    1.7104   -6.0428 N   0  0  0  0  0  0  0  0  0  0  0  0
    1.0287    1.1593   -7.0883 C   0  0  0  0  0  0  0  0  0  0  0  0
   -0.7391    2.0120   -6.2916 H   0  0  0  0  0  0  0  0  0  0  0  0
    1.6013    1.9675   -7.5668 H   0  0  0  0  0  0  0  0  0  0  0  0
    1.7234    0.4244   -6.6555 H   0  0  0  0  0  0  0  0  0  0  0  0
    0.3937    0.6659   -7.8388 H   0  0  0  0  0  0  0  0  0  0  0  0
 25 27  1  0  0  0  0
 26 27  2  0  0  0  0
 23 25  2  0  0  0  0
 24 26  1  0  0  0  0
 22 23  1  0  0  0  0
 22 24  2  0  0  0  0
 21 22  1  0  0  0  0
  1  3  1  0  0  0  0
  1  7  1  0  0  0  0
  1  2  2  0  0  0  0
 38 39  1  0  0  0  0
 39 47  1  0  0  0  0
 39 40  2  0  0  0  0
  8  9  1  0  0  0  0
  9 17  1  0  0  0  0
  9 10  2  0  0  0  0
 18 19  1  0  0  0  0
 19 37  1  0  0  0  0
 19 20  2  0  0  0  0
 38 41  1  0  0  0  0
  8 11  1  0  0  0  0
 47 48  1  0  0  0  0
 18 21  1  0  0  0  0
 37 38  1  0  0  0  0
  7  8  1  0  0  0  0
 17 18  1  0  0  0  0
 27 36  1  0  0  0  0
 25 34  1  0  0  0  0
 26 35  1  0  0  0  0
 23 32  1  0  0  0  0
 24 33  1  0  0  0  0
  3  4  1  0  0  0  0
  3  5  1  0  0  0  0
  3  6  1  0  0  0  0
 41 44  1  0  0  0  0
 41 45  1  0  0  0  0
 41 46  1  0  0  0  0
 11 14  1  0  0  0  0
 11 15  1  0  0  0  0
 11 16  1  0  0  0  0
 48 50  1  0  0  0  0
 48 51  1  0  0  0  0
 48 52  1  0  0  0  0
 21 30  1  0  0  0  0
 21 31  1  0  0  0  0
 38 43  1  0  0  0  0
  8 13  1  0  0  0  0
 18 29  1  0  0  0  0
 47 49  1  0  0  0  0
  7 12  1  0  0  0  0
 37 42  1  0  0  0  0
 17 28  1  0  0  0  0
M  END
$$$$

  -OEChem-05262214473D

 52 52  0     1  0  0  0  0  0999 V2000
   -1.8248    0.3424    3.9102 C   0  0  0  0  0  0  0  0  0  0  0  0
   -0.8774   -0.2723    3.4345 O   0  0  0  0  0  0  0  0  0  0  0  0
   -2.2566    0.0600    5.3109 C   0  0  0  0  0  0  0  0  0  0  0  0
   -3.0163   -0.7363    5.3643 H   0  0  0  0  0  0  0  0  0  0  0  0
   -1.4254   -0.2876    5.9452 H   0  0  0  0  0  0  0  0  0  0  0  0
   -2.6947    0.9149    5.8505 H   0  0  0  0  0  0  0  0  0  0  0  0
   -2.5745    1.3149    3.2691 N   0  0  0  0  0  0  0  0  0  0  0  0
   -2.3276    1.7409    1.9167 C   0  0  2  0  0  0  0  0  0  0  0  0
   -0.9926    1.1555    1.4755 C   0  0  0  0  0  0  0  0  0  0  0  0
   -0.1206    0.8028    2.2668 O   0  0  0  0  0  0  0  0  0  0  0  0
   -2.3188    3.2577    1.8072 C   0  0  0  0  0  0  0  0  0  0  0  0
   -3.3395    1.7507    3.7809 H   0  0  0  0  0  0  0  0  0  0  0  0
   -3.1317    1.3224    1.3015 H   0  0  0  0  0  0  0  0  0  0  0  0
   -1.5198    3.6949    2.4169 H   0  0  0  0  0  0  0  0  0  0  0  0
   -2.1594    3.5799    0.7729 H   0  0  0  0  0  0  0  0  0  0  0  0
   -3.2690    3.6789    2.1530 H   0  0  0  0  0  0  0  0  0  0  0  0
   -0.8700    1.1124    0.0921 N   0  0  0  0  0  0  0  0  0  0  0  0
    0.3073    0.6116   -0.5716 C   0  0  2  0  0  0  0  0  0  0  0  0
    0.0627    0.7270   -2.0719 C   0  0  0  0  0  0  0  0  0  0  0  0
   -0.2354   -0.2347   -2.7772 O   0  0  0  0  0  0  0  0  0  0  0  0
    0.6121   -0.8419   -0.1915 C   0  0  0  0  0  0  0  0  0  0  0  0
    1.0158   -0.9947    1.2547 C   0  0  0  0  0  0  0  0  0  0  0  0
    2.3256   -0.7185    1.6467 C   0  0  0  0  0  0  0  0  0  0  0  0
    0.0783   -1.4120    2.1995 C   0  0  0  0  0  0  0  0  0  0  0  0
    2.6980   -0.8596    2.9835 C   0  0  0  0  0  0  0  0  0  0  0  0
    0.4507   -1.5532    3.5363 C   0  0  0  0  0  0  0  0  0  0  0  0
    1.7606   -1.2769    3.9283 C   0  0  0  0  0  0  0  0  0  0  0  0
   -1.6531    1.4091   -0.4852 H   0  0  0  0  0  0  0  0  0  0  0  0
    1.1316    1.2774   -0.2901 H   0  0  0  0  0  0  0  0  0  0  0  0
    1.4006   -1.2474   -0.8399 H   0  0  0  0  0  0  0  0  0  0  0  0
   -0.2647   -1.4777   -0.3727 H   0  0  0  0  0  0  0  0  0  0  0  0
    3.0627   -0.3926    0.9175 H   0  0  0  0  0  0  0  0  0  0  0  0
   -0.9445   -1.6294    1.9032 H   0  0  0  0  0  0  0  0  0  0  0  0
    3.7182   -0.6455    3.2884 H   0  0  0  0  0  0  0  0  0  0  0  0
   -0.2791   -1.8792    4.2714 H   0  0  0  0  0  0  0  0  0  0  0  0
    2.0510   -1.3881    4.9689 H   0  0  0  0  0  0  0  0  0  0  0  0
    0.1683    2.0376   -2.5163 N   0  0  0  0  0  0  0  0  0  0  0  0
   -0.0393    2.4282   -3.8923 C   0  0  2  0  0  0  0  0  0  0  0  0
    0.8000    1.5120   -4.7730 C   0  0  0  0  0  0  0  0  0  0  0  0
    1.7853    0.9034   -4.3608 O   0  0  0  0  0  0  0  0  0  0  0  0
    0.3315    3.8860   -4.1156 C   0  0  0  0  0  0  0  0  0  0  0  0
    0.4034    2.7586   -1.8405 H   0  0  0  0  0  0  0  0  0  0  0  0
   -1.1016    2.2712   -4.1087 H   0  0  0  0  0  0  0  0  0  0  0  0
    1.3923    4.0627   -3.9036 H   0  0  0  0  0  0  0  0  0  0  0  0
    0.1467    4.1882   -5.1517 H   0  0  0  0  0  0  0  0  0  0  0  0
   -0.2521    4.5414   -3.4600 H   0  0  0  0  0  0  0  0  0  0  0  0
    0.3449    1.4876   -6.0838 N   0  0  0  0  0  0  0  0  0  0  0  0
    0.9814    0.7026   -7.1157 C   0  0  0  0  0  0  0  0  0  0  0  0
   -0.4910    2.0085   -6.3323 H   0  0  0  0  0  0  0  0  0  0  0  0
    1.7285    1.3187   -7.6374 H   0  0  0  0  0  0  0  0  0  0  0  0
    1.4770   -0.1677   -6.6609 H   0  0  0  0  0  0  0  0  0  0  0  0
    0.2232    0.3586   -7.8347 H   0  0  0  0  0  0  0  0  0  0  0  0
 25 27  1  0  0  0  0
 26 27  2  0  0  0  0
 23 25  2  0  0  0  0
 24 26  1  0  0  0  0
 22 23  1  0  0  0  0
 22 24  2  0  0  0  0
 21 22  1  0  0  0  0
  1  3  1  0  0  0  0
  1  7  1  0  0  0  0
  1  2  2  0  0  0  0
 38 39  1  0  0  0  0
 39 47  1  0  0  0  0
 39 40  2  0  0  0  0
  8  9  1  0  0  0  0
  9 17  1  0  0  0  0
  9 10  2  0  0  0  0
 18 19  1  0  0  0  0
 19 37  1  0  0  0  0
 19 20  2  0  0  0  0
 38 41  1  0  0  0  0
  8 11  1  0  0  0  0
 47 48  1  0  0  0  0
 18 21  1  0  0  0  0
 37 38  1  0  0  0  0
  7  8  1  0  0  0  0
 17 18  1  0  0  0  0
 27 36  1  0  0  0  0
 25 34  1  0  0  0  0
 26 35  1  0  0  0  0
 23 32  1  0  0  0  0
 24 33  1  0  0  0  0
  3  4  1  0  0  0  0
  3  5  1  0  0  0  0
  3  6  1  0  0  0  0
 41 44  1  0  0  0  0
 41 45  1  0  0  0  0
 41 46  1  0  0  0  0
 11 14  1  0  0  0  0
 11 15  1  0  0  0  0
 11 16  1  0  0  0  0
 48 50  1  0  0  0  0
 48 51  1  0  0  0  0
 48 52  1  0  0  0  0
 21 30  1  0  0  0  0
 21 31  1  0  0  0  0
 38 43  1  0  0  0  0
  8 13  1  0  0  0  0
 18 29  1  0  0  0  0
 47 49  1  0  0  0  0
  7 12  1  0  0  0  0
 37 42  1  0  0  0  0
 17 28  1  0  0  0  0
M  END
$$$$

  -OEChem-05262214473D

 52 52  0     1  0  0  0  0  0999 V2000
   -1.8248    0.3424    3.9102 C   0  0  0  0  0  0  0  0  0  0  0  0
   -0.8774   -0.2723    3.4345 O   0  0  0  0  0  0  0  0  0  0  0  0
   -2.2566    0.0600    5.3109 C   0  0  0  0  0  0  0  0  0  0  0  0
   -3.0163   -0.7363    5.3643 H   0  0  0  0  0  0  0  0  0  0  0  0
   -1.4254   -0.2876    5.9452 H   0  0  0  0  0  0  0  0  0  0  0  0
   -2.6947    0.9149    5.8505 H   0  0  0  0  0  0  0  0  0  0  0  0
   -2.5745    1.3149    3.2691 N   0  0  0  0  0  0  0  0  0  0  0  0
   -2.3276    1.7409    1.9167 C   0  0  2  0  0  0  0  0  0  0  0  0
   -0.9926    1.1555    1.4755 C   0  0  0  0  0  0  0  0  0  0  0  0
   -0.1206    0.8028    2.2668 O   0  0  0  0  0  0  0  0  0  0  0  0
   -2.3188    3.2577    1.8072 C   0  0  0  0  0  0  0  0  0  0  0  0
   -3.3395    1.7507    3.7809 H   0  0  0  0  0  0  0  0  0  0  0  0
   -3.1317    1.3224    1.3015 H   0  0  0  0  0  0  0  0  0  0  0  0
   -1.5198    3.6949    2.4169 H   0  0  0  0  0  0  0  0  0  0  0  0
   -2.1594    3.5799    0.7729 H   0  0  0  0  0  0  0  0  0  0  0  0
   -3.2690    3.6789    2.1530 H   0  0  0  0  0  0  0  0  0  0  0  0
   -0.8700    1.1124    0.0921 N   0  0  0  0  0  0  0  0  0  0  0  0
    0.3073    0.6116   -0.5716 C   0  0  2  0  0  0  0  0  0  0  0  0
    0.0627    0.7270   -2.0719 C   0  0  0  0  0  0  0  0  0  0  0  0
   -0.4876   -0.1535   -2.7298 O   0  0  0  0  0  0  0  0  0  0  0  0
    0.6121   -0.8419   -0.1915 C   0  0  0  0  0  0  0  0  0  0  0  0
    1.0158   -0.9947    1.2547 C   0  0  0  0  0  0  0  0  0  0  0  0
    2.3256   -0.7185    1.6467 C   0  0  0  0  0  0  0  0  0  0  0  0
    0.0783   -1.4120    2.1995 C   0  0  0  0  0  0  0  0  0  0  0  0
    2.6980   -0.8596    2.9835 C   0  0  0  0  0  0  0  0  0  0  0  0
    0.4507   -1.5532    3.5363 C   0  0  0  0  0  0  0  0  0  0  0  0
    1.7606   -1.2769    3.9283 C   0  0  0  0  0  0  0  0  0  0  0  0
   -1.6531    1.4091   -0.4852 H   0  0  0  0  0  0  0  0  0  0  0  0
    1.1316    1.2774   -0.2901 H   0  0  0  0  0  0  0  0  0  0  0  0
    1.4006   -1.2474   -0.8399 H   0  0  0  0  0  0  0  0  0  0  0  0
   -0.2647   -1.4777   -0.3727 H   0  0  0  0  0  0  0  0  0  0  0  0
    3.0627   -0.3926    0.9175 H   0  0  0  0  0  0  0  0  0  0  0  0
   -0.9445   -1.6294    1.9032 H   0  0  0  0  0  0  0  0  0  0  0  0
    3.7182   -0.6455    3.2884 H   0  0  0  0  0  0  0  0  0  0  0  0
   -0.2791   -1.8792    4.2714 H   0  0  0  0  0  0  0  0  0  0  0  0
    2.0510   -1.3881    4.9689 H   0  0  0  0  0  0  0  0  0  0  0  0
    0.4870    1.9489   -2.5751 N   0  0  0  0  0  0  0  0  0  0  0  0
    0.3513    2.3256   -3.9638 C   0  0  2  0  0  0  0  0  0  0  0  0
    0.9077    1.1920   -4.8151 C   0  0  0  0  0  0  0  0  0  0  0  0
    1.7158    0.3687   -4.3906 O   0  0  0  0  0  0  0  0  0  0  0  0
    1.0749    3.6308   -4.2564 C   0  0  0  0  0  0  0  0  0  0  0  0
    0.9145    2.6119   -1.9351 H   0  0  0  0  0  0  0  0  0  0  0  0
   -0.7211    2.4365   -4.1581 H   0  0  0  0  0  0  0  0  0  0  0  0
    2.1507    3.5391   -4.0675 H   0  0  0  0  0  0  0  0  0  0  0  0
    0.9472    3.9294   -5.3021 H   0  0  0  0  0  0  0  0  0  0  0  0
    0.6938    4.4384   -3.6221 H   0  0  0  0  0  0  0  0  0  0  0  0
    0.4288    1.2335   -6.1171 N   0  0  0  0  0  0  0  0  0  0  0  0
    0.8188    0.2724   -7.1222 C   0  0  0  0  0  0  0  0  0  0  0  0
   -0.2531    1.9402   -6.3764 H   0  0  0  0  0  0  0  0  0  0  0  0
    1.6848    0.6566   -7.6812 H   0  0  0  0  0  0  0  0  0  0  0  0
    1.0879   -0.6771   -6.6366 H   0  0  0  0  0  0  0  0  0  0  0  0
   -0.0196    0.1055   -7.8145 H   0  0  0  0  0  0  0  0  0  0  0  0
 25 27  1  0  0  0  0
 26 27  2  0  0  0  0
 23 25  2  0  0  0  0
 24 26  1  0  0  0  0
 22 23  1  0  0  0  0
 22 24  2  0  0  0  0
 21 22  1  0  0  0  0
  1  3  1  0  0  0  0
  1  7  1  0  0  0  0
  1  2  2  0  0  0  0
 38 39  1  0  0  0  0
 39 47  1  0  0  0  0
 39 40  2  0  0  0  0
  8  9  1  0  0  0  0
  9 17  1  0  0  0  0
  9 10  2  0  0  0  0
 18 19  1  0  0  0  0
 19 37  1  0  0  0  0
 19 20  2  0  0  0  0
 38 41  1  0  0  0  0
  8 11  1  0  0  0  0
 47 48  1  0  0  0  0
 18 21  1  0  0  0  0
 37 38  1  0  0  0  0
  7  8  1  0  0  0  0
 17 18  1  0  0  0  0
 27 36  1  0  0  0  0
 25 34  1  0  0  0  0
 26 35  1  0  0  0  0
 23 32  1  0  0  0  0
 24 33  1  0  0  0  0
  3  4  1  0  0  0  0
  3  5  1  0  0  0  0
  3  6  1  0  0  0  0
 41 44  1  0  0  0  0
 41 45  1  0  0  0  0
 41 46  1  0  0  0  0
 11 14  1  0  0  0  0
 11 15  1  0  0  0  0
 11 16  1  0  0  0  0
 48 50  1  0  0  0  0
 48 51  1  0  0  0  0
 48 52  1  0  0  0  0
 21 30  1  0  0  0  0
 21 31  1  0  0  0  0
 38 43  1  0  0  0  0
  8 13  1  0  0  0  0
 18 29  1  0  0  0  0
 47 49  1  0  0  0  0
  7 12  1  0  0  0  0
 37 42  1  0  0  0  0
 17 28  1  0  0  0  0
M  END
$$$$

  -OEChem-05262214473D

 52 52  0     1  0  0  0  0  0999 V2000
   -1.8248    0.3424    3.9102 C   0  0  0  0  0  0  0  0  0  0  0  0
   -0.8774   -0.2723    3.4345 O   0  0  0  0  0  0  0  0  0  0  0  0
   -2.2566    0.0600    5.3109 C   0  0  0  0  0  0  0  0  0  0  0  0
   -3.0163   -0.7363    5.3643 H   0  0  0  0  0  0  0  0  0  0  0  0
   -1.4254   -0.2876    5.9452 H   0  0  0  0  0  0  0  0  0  0  0  0
   -2.6947    0.9149    5.8505 H   0  0  0  0  0  0  0  0  0  0  0  0
   -2.5745    1.3149    3.2691 N   0  0  0  0  0  0  0  0  0  0  0  0
   -2.3276    1.7409    1.9167 C   0  0  2  0  0  0  0  0  0  0  0  0
   -0.9926    1.1555    1.4755 C   0  0  0  0  0  0  0  0  0  0  0  0
   -0.1206    0.8028    2.2668 O   0  0  0  0  0  0  0  0  0  0  0  0
   -2.3188    3.2577    1.8072 C   0  0  0  0  0  0  0  0  0  0  0  0
   -3.3395    1.7507    3.7809 H   0  0  0  0  0  0  0  0  0  0  0  0
   -3.1317    1.3224    1.3015 H   0  0  0  0  0  0  0  0  0  0  0  0
   -1.5198    3.6949    2.4169 H   0  0  0  0  0  0  0  0  0  0  0  0
   -2.1594    3.5799    0.7729 H   0  0  0  0  0  0  0  0  0  0  0  0
   -3.2690    3.6789    2.1530 H   0  0  0  0  0  0  0  0  0  0  0  0
   -0.8700    1.1124    0.0921 N   0  0  0  0  0  0  0  0  0  0  0  0
    0.3073    0.6116   -0.5716 C   0  0  2  0  0  0  0  0  0  0  0  0
    0.0627    0.7270   -2.0719 C   0  0  0  0  0  0  0  0  0  0  0  0
   -0.7097   -0.0089   -2.6825 O   0  0  0  0  0  0  0  0  0  0  0  0
    0.6121   -0.8419   -0.1915 C   0  0  0  0  0  0  0  0  0  0  0  0
    1.0158   -0.9947    1.2547 C   0  0  0  0  0  0  0  0  0  0  0  0
    2.3256   -0.7185    1.6467 C   0  0  0  0  0  0  0  0  0  0  0  0
    0.0783   -1.4120    2.1995 C   0  0  0  0  0  0  0  0  0  0  0  0
    2.6980   -0.8596    2.9835 C   0  0  0  0  0  0  0  0  0  0  0  0
    0.4507   -1.5532    3.5363 C   0  0  0  0  0  0  0  0  0  0  0  0
    1.7606   -1.2769    3.9283 C   0  0  0  0  0  0  0  0  0  0  0  0
   -1.6531    1.4091   -0.4852 H   0  0  0  0  0  0  0  0  0  0  0  0
    1.1316    1.2774   -0.2901 H   0  0  0  0  0  0  0  0  0  0  0  0
    1.4006   -1.2474   -0.8399 H   0  0  0  0  0  0  0  0  0  0  0  0
   -0.2647   -1.4777   -0.3727 H   0  0  0  0  0  0  0  0  0  0  0  0
    3.0627   -0.3926    0.9175 H   0  0  0  0  0  0  0  0  0  0  0  0
   -0.9445   -1.6294    1.9032 H   0  0  0  0  0  0  0  0  0  0  0  0
    3.7182   -0.6455    3.2884 H   0  0  0  0  0  0  0  0  0  0  0  0
   -0.2791   -1.8792    4.2714 H   0  0  0  0  0  0  0  0  0  0  0  0
    2.0510   -1.3881    4.9689 H   0  0  0  0  0  0  0  0  0  0  0  0
    0.7711    1.7797   -2.6344 N   0  0  0  0  0  0  0  0  0  0  0  0
    0.7010    2.1240   -4.0363 C   0  0  2  0  0  0  0  0  0  0  0  0
    0.9295    0.8537   -4.8447 C   0  0  0  0  0  0  0  0  0  0  0  0
    1.5120   -0.1314   -4.3958 O   0  0  0  0  0  0  0  0  0  0  0  0
    1.7252    3.1890   -4.3964 C   0  0  0  0  0  0  0  0  0  0  0  0
    1.3689    2.3360   -2.0304 H   0  0  0  0  0  0  0  0  0  0  0  0
   -0.3124    2.4972   -4.2200 H   0  0  0  0  0  0  0  0  0  0  0  0
    2.7467    2.8333   -4.2190 H   0  0  0  0  0  0  0  0  0  0  0  0
    1.6516    3.4693   -5.4523 H   0  0  0  0  0  0  0  0  0  0  0  0
    1.5779    4.0912   -3.7930 H   0  0  0  0  0  0  0  0  0  0  0  0
    0.4445    0.9652   -6.1403 N   0  0  0  0  0  0  0  0  0  0  0  0
    0.5520   -0.1020   -7.1075 C   0  0  0  0  0  0  0  0  0  0  0  0
   -0.0415    1.8119   -6.4207 H   0  0  0  0  0  0  0  0  0  0  0  0
    1.4730    0.0265   -7.6951 H   0  0  0  0  0  0  0  0  0  0  0  0
    0.5829   -1.0691   -6.5844 H   0  0  0  0  0  0  0  0  0  0  0  0
   -0.3183   -0.0764   -7.7798 H   0  0  0  0  0  0  0  0  0  0  0  0
 25 27  1  0  0  0  0
 26 27  2  0  0  0  0
 23 25  2  0  0  0  0
 24 26  1  0  0  0  0
 22 23  1  0  0  0  0
 22 24  2  0  0  0  0
 21 22  1  0  0  0  0
  1  3  1  0  0  0  0
  1  7  1  0  0  0  0
  1  2  2  0  0  0  0
 38 39  1  0  0  0  0
 39 47  1  0  0  0  0
 39 40  2  0  0  0  0
  8  9  1  0  0  0  0
  9 17  1  0  0  0  0
  9 10  2  0  0  0  0
 18 19  1  0  0  0  0
 19 37  1  0  0  0  0
 19 20  2  0  0  0  0
 38 41  1  0  0  0  0
  8 11  1  0  0  0  0
 47 48  1  0  0  0  0
 18 21  1  0  0  0  0
 37 38  1  0  0  0  0
  7  8  1  0  0  0  0
 17 18  1  0  0  0  0
 27 36  1  0  0  0  0
 25 34  1  0  0  0  0
 26 35  1  0  0  0  0
 23 32  1  0  0  0  0
 24 33  1  0  0  0  0
  3  4  1  0  0  0  0
  3  5  1  0  0  0  0
  3  6  1  0  0  0  0
 41 44  1  0  0  0  0
 41 45  1  0  0  0  0
 41 46  1  0  0  0  0
 11 14  1  0  0  0  0
 11 15  1  0  0  0  0
 11 16  1  0  0  0  0
 48 50  1  0  0  0  0
 48 51  1  0  0  0  0
 48 52  1  0  0  0  0
 21 30  1  0  0  0  0
 21 31  1  0  0  0  0
 38 43  1  0  0  0  0
  8 13  1  0  0  0  0
 18 29  1  0  0  0  0
 47 49  1  0  0  0  0
  7 12  1  0  0  0  0
 37 42  1  0  0  0  0
 17 28  1  0  0  0  0
M  END
$$$$

  -OEChem-05262214473D

 52 52  0     1  0  0  0  0  0999 V2000
   -1.8248    0.3424    3.9102 C   0  0  0  0  0  0  0  0  0  0  0  0
   -0.8774   -0.2723    3.4345 O   0  0  0  0  0  0  0  0  0  0  0  0
   -2.2566    0.0600    5.3109 C   0  0  0  0  0  0  0  0  0  0  0  0
   -3.0163   -0.7363    5.3643 H   0  0  0  0  0  0  0  0  0  0  0  0
   -1.4254   -0.2876    5.9452 H   0  0  0  0  0  0  0  0  0  0  0  0
   -2.6947    0.9149    5.8505 H   0  0  0  0  0  0  0  0  0  0  0  0
   -2.5745    1.3149    3.2691 N   0  0  0  0  0  0  0  0  0  0  0  0
   -2.3276    1.7409    1.9167 C   0  0  2  0  0  0  0  0  0  0  0  0
   -0.9926    1.1555    1.4755 C   0  0  0  0  0  0  0  0  0  0  0  0
   -0.1206    0.8028    2.2668 O   0  0  0  0  0  0  0  0  0  0  0  0
   -2.3188    3.2577    1.8072 C   0  0  0  0  0  0  0  0  0  0  0  0
   -3.3395    1.7507    3.7809 H   0  0  0  0  0  0  0  0  0  0  0  0
   -3.1317    1.3224    1.3015 H   0  0  0  0  0  0  0  0  0  0  0  0
   -1.5198    3.6949    2.4169 H   0  0  0  0  0  0  0  0  0  0  0  0
   -2.1594    3.5799    0.7729 H   0  0  0  0  0  0  0  0  0  0  0  0
   -3.2690    3.6789    2.1530 H   0  0  0  0  0  0  0  0  0  0  0  0
   -0.8700    1.1124    0.0921 N   0  0  0  0  0  0  0  0  0  0  0  0
    0.3073    0.6116   -0.5716 C   0  0  2  0  0  0  0  0  0  0  0  0
    0.0627    0.7270   -2.0719 C   0  0  0  0  0  0  0  0  0  0  0  0
   -0.8864    0.1893   -2.6384 O   0  0  0  0  0  0  0  0  0  0  0  0
    0.6121   -0.8419   -0.1915 C   0  0  0  0  0  0  0  0  0  0  0  0
    1.0158   -0.9947    1.2547 C   0  0  0  0  0  0  0  0  0  0  0  0
    2.3256   -0.7185    1.6467 C   0  0  0  0  0  0  0  0  0  0  0  0
    0.0783   -1.4120    2.1995 C   0  0  0  0  0  0  0  0  0  0  0  0
    2.6980   -0.8596    2.9835 C   0  0  0  0  0  0  0  0  0  0  0  0
    0.4507   -1.5532    3.5363 C   0  0  0  0  0  0  0  0  0  0  0  0
    1.7606   -1.2769    3.9283 C   0  0  0  0  0  0  0  0  0  0  0  0
   -1.6531    1.4091   -0.4852 H   0  0  0  0  0  0  0  0  0  0  0  0
    1.1316    1.2774   -0.2901 H   0  0  0  0  0  0  0  0  0  0  0  0
    1.4006   -1.2474   -0.8399 H   0  0  0  0  0  0  0  0  0  0  0  0
   -0.2647   -1.4777   -0.3727 H   0  0  0  0  0  0  0  0  0  0  0  0
    3.0627   -0.3926    0.9175 H   0  0  0  0  0  0  0  0  0  0  0  0
   -0.9445   -1.6294    1.9032 H   0  0  0  0  0  0  0  0  0  0  0  0
    3.7182   -0.6455    3.2884 H   0  0  0  0  0  0  0  0  0  0  0  0
   -0.2791   -1.8792    4.2714 H   0  0  0  0  0  0  0  0  0  0  0  0
    2.0510   -1.3881    4.9689 H   0  0  0  0  0  0  0  0  0  0  0  0
    1.0013    1.5413   -2.6903 N   0  0  0  0  0  0  0  0  0  0  0  0
    0.9861    1.8373   -4.1048 C   0  0  2  0  0  0  0  0  0  0  0  0
    0.8637    0.5201   -4.8596 C   0  0  0  0  0  0  0  0  0  0  0  0
    1.1876   -0.5626   -4.3761 O   0  0  0  0  0  0  0  0  0  0  0  0
    2.2381    2.5908   -4.5260 C   0  0  0  0  0  0  0  0  0  0  0  0
    1.7358    1.9499   -2.1199 H   0  0  0  0  0  0  0  0  0  0  0  0
    0.0966    2.4492   -4.2904 H   0  0  0  0  0  0  0  0  0  0  0  0
    3.1396    1.9935   -4.3476 H   0  0  0  0  0  0  0  0  0  0  0  0
    2.2119    2.8393   -5.5921 H   0  0  0  0  0  0  0  0  0  0  0  0
    2.3402    3.5235   -3.9609 H   0  0  0  0  0  0  0  0  0  0  0  0
    0.3908    0.7011   -6.1518 N   0  0  0  0  0  0  0  0  0  0  0  0
    0.1993   -0.3951   -7.0726 C   0  0  0  0  0  0  0  0  0  0  0  0
    0.1293    1.6322   -6.4624 H   0  0  0  0  0  0  0  0  0  0  0  0
    1.1077   -0.5288   -7.6783 H   0  0  0  0  0  0  0  0  0  0  0  0
   -0.0038   -1.3169   -6.5078 H   0  0  0  0  0  0  0  0  0  0  0  0
   -0.6524   -0.1745   -7.7329 H   0  0  0  0  0  0  0  0  0  0  0  0
 25 27  1  0  0  0  0
 26 27  2  0  0  0  0
 23 25  2  0  0  0  0
 24 26  1  0  0  0  0
 22 23  1  0  0  0  0
 22 24  2  0  0  0  0
 21 22  1  0  0  0  0
  1  3  1  0  0  0  0
  1  7  1  0  0  0  0
  1  2  2  0  0  0  0
 38 39  1  0  0  0  0
 39 47  1  0  0  0  0
 39 40  2  0  0  0  0
  8  9  1  0  0  0  0
  9 17  1  0  0  0  0
  9 10  2  0  0  0  0
 18 19  1  0  0  0  0
 19 37  1  0  0  0  0
 19 20  2  0  0  0  0
 38 41  1  0  0  0  0
  8 11  1  0  0  0  0
 47 48  1  0  0  0  0
 18 21  1  0  0  0  0
 37 38  1  0  0  0  0
  7  8  1  0  0  0  0
 17 18  1  0  0  0  0
 27 36  1  0  0  0  0
 25 34  1  0  0  0  0
 26 35  1  0  0  0  0
 23 32  1  0  0  0  0
 24 33  1  0  0  0  0
  3  4  1  0  0  0  0
  3  5  1  0  0  0  0
  3  6  1  0  0  0  0
 41 44  1  0  0  0  0
 41 45  1  0  0  0  0
 41 46  1  0  0  0  0
 11 14  1  0  0  0  0
 11 15  1  0  0  0  0
 11 16  1  0  0  0  0
 48 50  1  0  0  0  0
 48 51  1  0  0  0  0
 48 52  1  0  0  0  0
 21 30  1  0  0  0  0
 21 31  1  0  0  0  0
 38 43  1  0  0  0  0
  8 13  1  0  0  0  0
 18 29  1  0  0  0  0
 47 49  1  0  0  0  0
  7 12  1  0  0  0  0
 37 42  1  0  0  0  0
 17 28  1  0  0  0  0
M  END
$$$$

  -OEChem-05262214473D

 52 52  0     1  0  0  0  0  0999 V2000
   -1.8248    0.3424    3.9102 C   0  0  0  0  0  0  0  0  0  0  0  0
   -0.8774   -0.2723    3.4345 O   0  0  0  0  0  0  0  0  0  0  0  0
   -2.2566    0.0600    5.3109 C   0  0  0  0  0  0  0  0  0  0  0  0
   -3.0163   -0.7363    5.3643 H   0  0  0  0  0  0  0  0  0  0  0  0
   -1.4254   -0.2876    5.9452 H   0  0  0  0  0  0  0  0  0  0  0  0
   -2.6947    0.9149    5.8505 H   0  0  0  0  0  0  0  0  0  0  0  0
   -2.5745    1.3149    3.2691 N   0  0  0  0  0  0  0  0  0  0  0  0
   -2.3276    1.7409    1.9167 C   0  0  2  0  0  0  0  0  0  0  0  0
   -0.9926    1.1555    1.4755 C   0  0  0  0  0  0  0  0  0  0  0  0
   -0.1206    0.8028    2.2668 O   0  0  0  0  0  0  0  0  0  0  0  0
   -2.3188    3.2577    1.8072 C   0  0  0  0  0  0  0  0  0  0  0  0
   -3.3395    1.7507    3.7809 H   0  0  0  0  0  0  0  0  0  0  0  0
   -3.1317    1.3224    1.3015 H   0  0  0  0  0  0  0  0  0  0  0  0
   -1.5198    3.6949    2.4169 H   0  0  0  0  0  0  0  0  0  0  0  0
   -2.1594    3.5799    0.7729 H   0  0  0  0  0  0  0  0  0  0  0  0
   -3.2690    3.6789    2.1530 H   0  0  0  0  0  0  0  0  0  0  0  0
   -0.8700    1.1124    0.0921 N   0  0  0  0  0  0  0  0  0  0  0  0
    0.3073    0.6116   -0.5716 C   0  0  2  0  0  0  0  0  0  0  0  0
    0.0627    0.7270   -2.0719 C   0  0  0  0  0  0  0  0  0  0  0  0
   -1.0058    0.4275   -2.6006 O   0  0  0  0  0  0  0  0  0  0  0  0
    0.6121   -0.8419   -0.1915 C   0  0  0  0  0  0  0  0  0  0  0  0
    1.0158   -0.9947    1.2547 C   0  0  0  0  0  0  0  0  0  0  0  0
    2.3256   -0.7185    1.6467 C   0  0  0  0  0  0  0  0  0  0  0  0
    0.0783   -1.4120    2.1995 C   0  0  0  0  0  0  0  0  0  0  0  0
    2.6980   -0.8596    2.9835 C   0  0  0  0  0  0  0  0  0  0  0  0
    0.4507   -1.5532    3.5363 C   0  0  0  0  0  0  0  0  0  0  0  0
    1.7606   -1.2769    3.9283 C   0  0  0  0  0  0  0  0  0  0  0  0
   -1.6531    1.4091   -0.4852 H   0  0  0  0  0  0  0  0  0  0  0  0
    1.1316    1.2774   -0.2901 H   0  0  0  0  0  0  0  0  0  0  0  0
    1.4006   -1.2474   -0.8399 H   0  0  0  0  0  0  0  0  0  0  0  0
   -0.2647   -1.4777   -0.3727 H   0  0  0  0  0  0  0  0  0  0  0  0
    3.0627   -0.3926    0.9175 H   0  0  0  0  0  0  0  0  0  0  0  0
   -0.9445   -1.6294    1.9032 H   0  0  0  0  0  0  0  0  0  0  0  0
    3.7182   -0.6455    3.2884 H   0  0  0  0  0  0  0  0  0  0  0  0
   -0.2791   -1.8792    4.2714 H   0  0  0  0  0  0  0  0  0  0  0  0
    2.0510   -1.3881    4.9689 H   0  0  0  0  0  0  0  0  0  0  0  0
    1.1618    1.2502   -2.7388 N   0  0  0  0  0  0  0  0  0  0  0  0
    1.1870    1.4848   -4.1647 C   0  0  2  0  0  0  0  0  0  0  0  0
    0.7149    0.2141   -4.8589 C   0  0  0  0  0  0  0  0  0  0  0  0
    0.7648   -0.8958   -4.3328 O   0  0  0  0  0  0  0  0  0  0  0  0
    2.5786    1.8770   -4.6364 C   0  0  0  0  0  0  0  0  0  0  0  0
    1.9900    1.4797   -2.1975 H   0  0  0  0  0  0  0  0  0  0  0  0
    0.4780    2.2957   -4.3644 H   0  0  0  0  0  0  0  0  0  0  0  0
    3.3028    1.0768   -4.4447 H   0  0  0  0  0  0  0  0  0  0  0  0
    2.5898    2.0821   -5.7119 H   0  0  0  0  0  0  0  0  0  0  0  0
    2.9286    2.7741   -4.1144 H   0  0  0  0  0  0  0  0  0  0  0  0
    0.2715    0.4592   -6.1510 N   0  0  0  0  0  0  0  0  0  0  0  0
   -0.2154   -0.5869   -7.0197 C   0  0  0  0  0  0  0  0  0  0  0  0
    0.2477    1.4133   -6.4985 H   0  0  0  0  0  0  0  0  0  0  0  0
    0.6137   -0.9715   -7.6317 H   0  0  0  0  0  0  0  0  0  0  0  0
   -0.6320   -1.4037   -6.4120 H   0  0  0  0  0  0  0  0  0  0  0  0
   -0.9992   -0.1822   -7.6769 H   0  0  0  0  0  0  0  0  0  0  0  0
 25 27  1  0  0  0  0
 26 27  2  0  0  0  0
 23 25  2  0  0  0  0
 24 26  1  0  0  0  0
 22 23  1  0  0  0  0
 22 24  2  0  0  0  0
 21 22  1  0  0  0  0
  1  3  1  0  0  0  0
  1  7  1  0  0  0  0
  1  2  2  0  0  0  0
 38 39  1  0  0  0  0
 39 47  1  0  0  0  0
 39 40  2  0  0  0  0
  8  9  1  0  0  0  0
  9 17  1  0  0  0  0
  9 10  2  0  0  0  0
 18 19  1  0  0  0  0
 19 37  1  0  0  0  0
 19 20  2  0  0  0  0
 38 41  1  0  0  0  0
  8 11  1  0  0  0  0
 47 48  1  0  0  0  0
 18 21  1  0  0  0  0
 37 38  1  0  0  0  0
  7  8  1  0  0  0  0
 17 18  1  0  0  0  0
 27 36  1  0  0  0  0
 25 34  1  0  0  0  0
 26 35  1  0  0  0  0
 23 32  1  0  0  0  0
 24 33  1  0  0  0  0
  3  4  1  0  0  0  0
  3  5  1  0  0  0  0
  3  6  1  0  0  0  0
 41 44  1  0  0  0  0
 41 45  1  0  0  0  0
 41 46  1  0  0  0  0
 11 14  1  0  0  0  0
 11 15  1  0  0  0  0
 11 16  1  0  0  0  0
 48 50  1  0  0  0  0
 48 51  1  0  0  0  0
 48 52  1  0  0  0  0
 21 30  1  0  0  0  0
 21 31  1  0  0  0  0
 38 43  1  0  0  0  0
  8 13  1  0  0  0  0
 18 29  1  0  0  0  0
 47 49  1  0  0  0  0
  7 12  1  0  0  0  0
 37 42  1  0  0  0  0
 17 28  1  0  0  0  0
M  END
$$$$

  -OEChem-05262214473D

 52 52  0     1  0  0  0  0  0999 V2000
   -1.8248    0.3424    3.9102 C   0  0  0  0  0  0  0  0  0  0  0  0
   -0.8774   -0.2723    3.4345 O   0  0  0  0  0  0  0  0  0  0  0  0
   -2.2566    0.0600    5.3109 C   0  0  0  0  0  0  0  0  0  0  0  0
   -3.0163   -0.7363    5.3643 H   0  0  0  0  0  0  0  0  0  0  0  0
   -1.4254   -0.2876    5.9452 H   0  0  0  0  0  0  0  0  0  0  0  0
   -2.6947    0.9149    5.8505 H   0  0  0  0  0  0  0  0  0  0  0  0
   -2.5745    1.3149    3.2691 N   0  0  0  0  0  0  0  0  0  0  0  0
   -2.3276    1.7409    1.9167 C   0  0  2  0  0  0  0  0  0  0  0  0
   -0.9926    1.1555    1.4755 C   0  0  0  0  0  0  0  0  0  0  0  0
   -0.1206    0.8028    2.2668 O   0  0  0  0  0  0  0  0  0  0  0  0
   -2.3188    3.2577    1.8072 C   0  0  0  0  0  0  0  0  0  0  0  0
   -3.3395    1.7507    3.7809 H   0  0  0  0  0  0  0  0  0  0  0  0
   -3.1317    1.3224    1.3015 H   0  0  0  0  0  0  0  0  0  0  0  0
   -1.5198    3.6949    2.4169 H   0  0  0  0  0  0  0  0  0  0  0  0
   -2.1594    3.5799    0.7729 H   0  0  0  0  0  0  0  0  0  0  0  0
   -3.2690    3.6789    2.1530 H   0  0  0  0  0  0  0  0  0  0  0  0
   -0.8700    1.1124    0.0921 N   0  0  0  0  0  0  0  0  0  0  0  0
    0.3073    0.6116   -0.5716 C   0  0  2  0  0  0  0  0  0  0  0  0
    0.0627    0.7270   -2.0719 C   0  0  0  0  0  0  0  0  0  0  0  0
   -1.0597    0.6897   -2.5717 O   0  0  0  0  0  0  0  0  0  0  0  0
    0.6121   -0.8419   -0.1915 C   0  0  0  0  0  0  0  0  0  0  0  0
    1.0158   -0.9947    1.2547 C   0  0  0  0  0  0  0  0  0  0  0  0
    2.3256   -0.7185    1.6467 C   0  0  0  0  0  0  0  0  0  0  0  0
    0.0783   -1.4120    2.1995 C   0  0  0  0  0  0  0  0  0  0  0  0
    2.6980   -0.8596    2.9835 C   0  0  0  0  0  0  0  0  0  0  0  0
    0.4507   -1.5532    3.5363 C   0  0  0  0  0  0  0  0  0  0  0  0
    1.7606   -1.2769    3.9283 C   0  0  0  0  0  0  0  0  0  0  0  0
   -1.6531    1.4091   -0.4852 H   0  0  0  0  0  0  0  0  0  0  0  0
    1.1316    1.2774   -0.2901 H   0  0  0  0  0  0  0  0  0  0  0  0
    1.4006   -1.2474   -0.8399 H   0  0  0  0  0  0  0  0  0  0  0  0
   -0.2647   -1.4777   -0.3727 H   0  0  0  0  0  0  0  0  0  0  0  0
    3.0627   -0.3926    0.9175 H   0  0  0  0  0  0  0  0  0  0  0  0
   -0.9445   -1.6294    1.9032 H   0  0  0  0  0  0  0  0  0  0  0  0
    3.7182   -0.6455    3.2884 H   0  0  0  0  0  0  0  0  0  0  0  0
   -0.2791   -1.8792    4.2714 H   0  0  0  0  0  0  0  0  0  0  0  0
    2.0510   -1.3881    4.9689 H   0  0  0  0  0  0  0  0  0  0  0  0
    1.2417    0.9261   -2.7768 N   0  0  0  0  0  0  0  0  0  0  0  0
    1.2902    1.0907   -4.2118 C   0  0  2  0  0  0  0  0  0  0  0  0
    0.4933   -0.0436   -4.8425 C   0  0  0  0  0  0  0  0  0  0  0  0
    0.2724   -1.1081   -4.2688 O   0  0  0  0  0  0  0  0  0  0  0  0
    2.7235    1.0962   -4.7200 C   0  0  0  0  0  0  0  0  0  0  0  0
    2.1144    0.9576   -2.2579 H   0  0  0  0  0  0  0  0  0  0  0  0
    0.8060    2.0472   -4.4369 H   0  0  0  0  0  0  0  0  0  0  0  0
    3.2249    0.1458   -4.5035 H   0  0  0  0  0  0  0  0  0  0  0  0
    2.7597    1.2496   -5.8036 H   0  0  0  0  0  0  0  0  0  0  0  0
    3.3031    1.8939   -4.2431 H   0  0  0  0  0  0  0  0  0  0  0  0
    0.0947    0.2559   -6.1377 N   0  0  0  0  0  0  0  0  0  0  0  0
   -0.6638   -0.6643   -6.9525 C   0  0  0  0  0  0  0  0  0  0  0  0
    0.3056    1.1703   -6.5266 H   0  0  0  0  0  0  0  0  0  0  0  0
    0.0247   -1.2713   -7.5588 H   0  0  0  0  0  0  0  0  0  0  0  0
   -1.2591   -1.3235   -6.3036 H   0  0  0  0  0  0  0  0  0  0  0  0
   -1.3351   -0.0991   -7.6158 H   0  0  0  0  0  0  0  0  0  0  0  0
 25 27  1  0  0  0  0
 26 27  2  0  0  0  0
 23 25  2  0  0  0  0
 24 26  1  0  0  0  0
 22 23  1  0  0  0  0
 22 24  2  0  0  0  0
 21 22  1  0  0  0  0
  1  3  1  0  0  0  0
  1  7  1  0  0  0  0
  1  2  2  0  0  0  0
 38 39  1  0  0  0  0
 39 47  1  0  0  0  0
 39 40  2  0  0  0  0
  8  9  1  0  0  0  0
  9 17  1  0  0  0  0
  9 10  2  0  0  0  0
 18 19  1  0  0  0  0
 19 37  1  0  0  0  0
 19 20  2  0  0  0  0
 38 41  1  0  0  0  0
  8 11  1  0  0  0  0
 47 48  1  0  0  0  0
 18 21  1  0  0  0  0
 37 38  1  0  0  0  0
  7  8  1  0  0  0  0
 17 18  1  0  0  0  0
 27 36  1  0  0  0  0
 25 34  1  0  0  0  0
 26 35  1  0  0  0  0
 23 32  1  0  0  0  0
 24 33  1  0  0  0  0
  3  4  1  0  0  0  0
  3  5  1  0  0  0  0
  3  6  1  0  0  0  0
 41 44  1  0  0  0  0
 41 45  1  0  0  0  0
 41 46  1  0  0  0  0
 11 14  1  0  0  0  0
 11 15  1  0  0  0  0
 11 16  1  0  0  0  0
 48 50  1  0  0  0  0
 48 51  1  0  0  0  0
 48 52  1  0  0  0  0
 21 30  1  0  0  0  0
 21 31  1  0  0  0  0
 38 43  1  0  0  0  0
  8 13  1  0  0  0  0
 18 29  1  0  0  0  0
 47 49  1  0  0  0  0
  7 12  1  0  0  0  0
 37 42  1  0  0  0  0
 17 28  1  0  0  0  0
M  END
$$$$

  -OEChem-05262214473D

 52 52  0     1  0  0  0  0  0999 V2000
   -1.8248    0.3424    3.9102 C   0  0  0  0  0  0  0  0  0  0  0  0
   -0.8774   -0.2723    3.4345 O   0  0  0  0  0  0  0  0  0  0  0  0
   -2.2566    0.0600    5.3109 C   0  0  0  0  0  0  0  0  0  0  0  0
   -3.0163   -0.7363    5.3643 H   0  0  0  0  0  0  0  0  0  0  0  0
   -1.4254   -0.2876    5.9452 H   0  0  0  0  0  0  0  0  0  0  0  0
   -2.6947    0.9149    5.8505 H   0  0  0  0  0  0  0  0  0  0  0  0
   -2.5745    1.3149    3.2691 N   0  0  0  0  0  0  0  0  0  0  0  0
   -2.3276    1.7409    1.9167 C   0  0  2  0  0  0  0  0  0  0  0  0
   -0.9926    1.1555    1.4755 C   0  0  0  0  0  0  0  0  0  0  0  0
   -0.1206    0.8028    2.2668 O   0  0  0  0  0  0  0  0  0  0  0  0
   -2.3188    3.2577    1.8072 C   0  0  0  0  0  0  0  0  0  0  0  0
   -3.3395    1.7507    3.7809 H   0  0  0  0  0  0  0  0  0  0  0  0
   -3.1317    1.3224    1.3015 H   0  0  0  0  0  0  0  0  0  0  0  0
   -1.5198    3.6949    2.4169 H   0  0  0  0  0  0  0  0  0  0  0  0
   -2.1594    3.5799    0.7729 H   0  0  0  0  0  0  0  0  0  0  0  0
   -3.2690    3.6789    2.1530 H   0  0  0  0  0  0  0  0  0  0  0  0
   -0.8700    1.1124    0.0921 N   0  0  0  0  0  0  0  0  0  0  0  0
    0.3073    0.6116   -0.5716 C   0  0  2  0  0  0  0  0  0  0  0  0
    0.0627    0.7270   -2.0719 C   0  0  0  0  0  0  0  0  0  0  0  0
   -1.0444    0.9578   -2.5536 O   0  0  0  0  0  0  0  0  0  0  0  0
    0.6121   -0.8419   -0.1915 C   0  0  0  0  0  0  0  0  0  0  0  0
    1.0158   -0.9947    1.2547 C   0  0  0  0  0  0  0  0  0  0  0  0
    2.3256   -0.7185    1.6467 C   0  0  0  0  0  0  0  0  0  0  0  0
    0.0783   -1.4120    2.1995 C   0  0  0  0  0  0  0  0  0  0  0  0
    2.6980   -0.8596    2.9835 C   0  0  0  0  0  0  0  0  0  0  0  0
    0.4507   -1.5532    3.5363 C   0  0  0  0  0  0  0  0  0  0  0  0
    1.7606   -1.2769    3.9283 C   0  0  0  0  0  0  0  0  0  0  0  0
   -1.6531    1.4091   -0.4852 H   0  0  0  0  0  0  0  0  0  0  0  0
    1.1316    1.2774   -0.2901 H   0  0  0  0  0  0  0  0  0  0  0  0
    1.4006   -1.2474   -0.8399 H   0  0  0  0  0  0  0  0  0  0  0  0
   -0.2647   -1.4777   -0.3727 H   0  0  0  0  0  0  0  0  0  0  0  0
    3.0627   -0.3926    0.9175 H   0  0  0  0  0  0  0  0  0  0  0  0
   -0.9445   -1.6294    1.9032 H   0  0  0  0  0  0  0  0  0  0  0  0
    3.7182   -0.6455    3.2884 H   0  0  0  0  0  0  0  0  0  0  0  0
   -0.2791   -1.8792    4.2714 H   0  0  0  0  0  0  0  0  0  0  0  0
    2.0510   -1.3881    4.9689 H   0  0  0  0  0  0  0  0  0  0  0  0
    1.2356    0.5910   -2.8015 N   0  0  0  0  0  0  0  0  0  0  0  0
    1.2885    0.6818   -4.2430 C   0  0  2  0  0  0  0  0  0  0  0  0
    0.2139   -0.2354   -4.8117 C   0  0  0  0  0  0  0  0  0  0  0  0
   -0.2561   -1.1850   -4.1886 O   0  0  0  0  0  0  0  0  0  0  0  0
    2.6629    0.3016   -4.7713 C   0  0  0  0  0  0  0  0  0  0  0  0
    2.1003    0.4191   -2.2970 H   0  0  0  0  0  0  0  0  0  0  0  0
    1.0580    1.7206   -4.5031 H   0  0  0  0  0  0  0  0  0  0  0  0
    2.9115   -0.7361   -4.5202 H   0  0  0  0  0  0  0  0  0  0  0  0
    2.7099    0.3983   -5.8610 H   0  0  0  0  0  0  0  0  0  0  0  0
    3.4381    0.9430   -4.3382 H   0  0  0  0  0  0  0  0  0  0  0  0
   -0.1277    0.1052   -6.1131 N   0  0  0  0  0  0  0  0  0  0  0  0
   -1.1153   -0.6221   -6.8757 C   0  0  0  0  0  0  0  0  0  0  0  0
    0.2991    0.9196   -6.5448 H   0  0  0  0  0  0  0  0  0  0  0  0
   -0.6191   -1.4078   -7.4643 H   0  0  0  0  0  0  0  0  0  0  0  0
   -1.8423   -1.0817   -6.1900 H   0  0  0  0  0  0  0  0  0  0  0  0
   -1.6371    0.0694   -7.5536 H   0  0  0  0  0  0  0  0  0  0  0  0
 25 27  1  0  0  0  0
 26 27  2  0  0  0  0
 23 25  2  0  0  0  0
 24 26  1  0  0  0  0
 22 23  1  0  0  0  0
 22 24  2  0  0  0  0
 21 22  1  0  0  0  0
  1  3  1  0  0  0  0
  1  7  1  0  0  0  0
  1  2  2  0  0  0  0
 38 39  1  0  0  0  0
 39 47  1  0  0  0  0
 39 40  2  0  0  0  0
  8  9  1  0  0  0  0
  9 17  1  0  0  0  0
  9 10  2  0  0  0  0
 18 19  1  0  0  0  0
 19 37  1  0  0  0  0
 19 20  2  0  0  0  0
 38 41  1  0  0  0  0
  8 11  1  0  0  0  0
 47 48  1  0  0  0  0
 18 21  1  0  0  0  0
 37 38  1  0  0  0  0
  7  8  1  0  0  0  0
 17 18  1  0  0  0  0
 27 36  1  0  0  0  0
 25 34  1  0  0  0  0
 26 35  1  0  0  0  0
 23 32  1  0  0  0  0
 24 33  1  0  0  0  0
  3  4  1  0  0  0  0
  3  5  1  0  0  0  0
  3  6  1  0  0  0  0
 41 44  1  0  0  0  0
 41 45  1  0  0  0  0
 41 46  1  0  0  0  0
 11 14  1  0  0  0  0
 11 15  1  0  0  0  0
 11 16  1  0  0  0  0
 48 50  1  0  0  0  0
 48 51  1  0  0  0  0
 48 52  1  0  0  0  0
 21 30  1  0  0  0  0
 21 31  1  0  0  0  0
 38 43  1  0  0  0  0
  8 13  1  0  0  0  0
 18 29  1  0  0  0  0
 47 49  1  0  0  0  0
  7 12  1  0  0  0  0
 37 42  1  0  0  0  0
 17 28  1  0  0  0  0
M  END
$$$$

  -OEChem-05262214473D

 52 52  0     1  0  0  0  0  0999 V2000
   -1.8248    0.3424    3.9102 C   0  0  0  0  0  0  0  0  0  0  0  0
   -0.8774   -0.2723    3.4345 O   0  0  0  0  0  0  0  0  0  0  0  0
   -2.2566    0.0600    5.3109 C   0  0  0  0  0  0  0  0  0  0  0  0
   -3.0163   -0.7363    5.3643 H   0  0  0  0  0  0  0  0  0  0  0  0
   -1.4254   -0.2876    5.9452 H   0  0  0  0  0  0  0  0  0  0  0  0
   -2.6947    0.9149    5.8505 H   0  0  0  0  0  0  0  0  0  0  0  0
   -2.5745    1.3149    3.2691 N   0  0  0  0  0  0  0  0  0  0  0  0
   -2.3276    1.7409    1.9167 C   0  0  2  0  0  0  0  0  0  0  0  0
   -0.9926    1.1555    1.4755 C   0  0  0  0  0  0  0  0  0  0  0  0
   -0.1206    0.8028    2.2668 O   0  0  0  0  0  0  0  0  0  0  0  0
   -2.3188    3.2577    1.8072 C   0  0  0  0  0  0  0  0  0  0  0  0
   -3.3395    1.7507    3.7809 H   0  0  0  0  0  0  0  0  0  0  0  0
   -3.1317    1.3224    1.3015 H   0  0  0  0  0  0  0  0  0  0  0  0
   -1.5198    3.6949    2.4169 H   0  0  0  0  0  0  0  0  0  0  0  0
   -2.1594    3.5799    0.7729 H   0  0  0  0  0  0  0  0  0  0  0  0
   -3.2690    3.6789    2.1530 H   0  0  0  0  0  0  0  0  0  0  0  0
   -0.8700    1.1124    0.0921 N   0  0  0  0  0  0  0  0  0  0  0  0
    0.3073    0.6116   -0.5716 C   0  0  2  0  0  0  0  0  0  0  0  0
    0.2323    1.0640   -2.0255 C   0  0  0  0  0  0  0  0  0  0  0  0
   -0.6776    1.7660   -2.4617 O   0  0  0  0  0  0  0  0  0  0  0  0
    0.4104   -0.9159   -0.4934 C   0  0  0  0  0  0  0  0  0  0  0  0
    0.6442   -1.4140    0.9119 C   0  0  0  0  0  0  0  0  0  0  0  0
    1.9292   -1.3956    1.4543 C   0  0  0  0  0  0  0  0  0  0  0  0
   -0.4254   -1.8926    1.6686 C   0  0  0  0  0  0  0  0  0  0  0  0
    2.1445   -1.8558    2.7534 C   0  0  0  0  0  0  0  0  0  0  0  0
   -0.2101   -2.3529    2.9676 C   0  0  0  0  0  0  0  0  0  0  0  0
    1.0749   -2.3344    3.5100 C   0  0  0  0  0  0  0  0  0  0  0  0
   -1.6531    1.4091   -0.4852 H   0  0  0  0  0  0  0  0  0  0  0  0
    1.1663    1.0933   -0.0897 H   0  0  0  0  0  0  0  0  0  0  0  0
    1.2122   -1.2773   -1.1516 H   0  0  0  0  0  0  0  0  0  0  0  0
   -0.5074   -1.3823   -0.8752 H   0  0  0  0  0  0  0  0  0  0  0  0
    2.7685   -1.0242    0.8722 H   0  0  0  0  0  0  0  0  0  0  0  0
   -1.4300   -1.9106    1.2543 H   0  0  0  0  0  0  0  0  0  0  0  0
    3.1453   -1.8424    3.1751 H   0  0  0  0  0  0  0  0  0  0  0  0
   -1.0429   -2.7264    3.5560 H   0  0  0  0  0  0  0  0  0  0  0  0
    1.2430   -2.6940    4.5210 H   0  0  0  0  0  0  0  0  0  0  0  0
    1.3269    0.6318   -2.7613 N   0  0  0  0  0  0  0  0  0  0  0  0
    1.5151    0.9419   -4.1603 C   0  0  2  0  0  0  0  0  0  0  0  0
    0.2265    0.5981   -4.8957 C   0  0  0  0  0  0  0  0  0  0  0  0
   -0.5997   -0.2026   -4.4629 O   0  0  0  0  0  0  0  0  0  0  0  0
    2.6939    0.1776   -4.7427 C   0  0  0  0  0  0  0  0  0  0  0  0
    2.0311    0.0692   -2.2930 H   0  0  0  0  0  0  0  0  0  0  0  0
    1.6959    2.0204   -4.2237 H   0  0  0  0  0  0  0  0  0  0  0  0
    2.5310   -0.9050   -4.6880 H   0  0  0  0  0  0  0  0  0  0  0  0
    2.8528    0.4351   -5.7951 H   0  0  0  0  0  0  0  0  0  0  0  0
    3.6144    0.4033   -4.1936 H   0  0  0  0  0  0  0  0  0  0  0  0
    0.1282    1.2580   -6.1127 N   0  0  0  0  0  0  0  0  0  0  0  0
   -0.9966    1.0886   -7.0028 C   0  0  0  0  0  0  0  0  0  0  0  0
    0.8512    1.9183   -6.3829 H   0  0  0  0  0  0  0  0  0  0  0  0
   -0.7763    0.2885   -7.7247 H   0  0  0  0  0  0  0  0  0  0  0  0
   -1.8890    0.8198   -6.4186 H   0  0  0  0  0  0  0  0  0  0  0  0
   -1.1814    2.0289   -7.5428 H   0  0  0  0  0  0  0  0  0  0  0  0
 25 27  1  0  0  0  0
 26 27  2  0  0  0  0
 23 25  2  0  0  0  0
 24 26  1  0  0  0  0
 22 23  1  0  0  0  0
 22 24  2  0  0  0  0
 21 22  1  0  0  0  0
  1  3  1  0  0  0  0
  1  7  1  0  0  0  0
  1  2  2  0  0  0  0
 38 39  1  0  0  0  0
 39 47  1  0  0  0  0
 39 40  2  0  0  0  0
  8  9  1  0  0  0  0
  9 17  1  0  0  0  0
  9 10  2  0  0  0  0
 18 19  1  0  0  0  0
 19 37  1  0  0  0  0
 19 20  2  0  0  0  0
 38 41  1  0  0  0  0
  8 11  1  0  0  0  0
 47 48  1  0  0  0  0
 18 21  1  0  0  0  0
 37 38  1  0  0  0  0
  7  8  1  0  0  0  0
 17 18  1  0  0  0  0
 27 36  1  0  0  0  0
 25 34  1  0  0  0  0
 26 35  1  0  0  0  0
 23 32  1  0  0  0  0
 24 33  1  0  0  0  0
  3  4  1  0  0  0  0
  3  5  1  0  0  0  0
  3  6  1  0  0  0  0
 41 44  1  0  0  0  0
 41 45  1  0  0  0  0
 41 46  1  0  0  0  0
 11 14  1  0  0  0  0
 11 15  1  0  0  0  0
 11 16  1  0  0  0  0
 48 50  1  0  0  0  0
 48 51  1  0  0  0  0
 48 52  1  0  0  0  0
 21 30  1  0  0  0  0
 21 31  1  0  0  0  0
 38 43  1  0  0  0  0
  8 13  1  0  0  0  0
 18 29  1  0  0  0  0
 47 49  1  0  0  0  0
  7 12  1  0  0  0  0
 37 42  1  0  0  0  0
 17 28  1  0  0  0  0
M  END
$$$$

  -OEChem-05262214473D

 52 52  0     1  0  0  0  0  0999 V2000
   -1.8248    0.3424    3.9102 C   0  0  0  0  0  0  0  0  0  0  0  0
   -0.8774   -0.2723    3.4345 O   0  0  0  0  0  0  0  0  0  0  0  0
   -2.2566    0.0600    5.3109 C   0  0  0  0  0  0  0  0  0  0  0  0
   -3.0163   -0.7363    5.3643 H   0  0  0  0  0  0  0  0  0  0  0  0
   -1.4254   -0.2876    5.9452 H   0  0  0  0  0  0  0  0  0  0  0  0
   -2.6947    0.9149    5.8505 H   0  0  0  0  0  0  0  0  0  0  0  0
   -2.5745    1.3149    3.2691 N   0  0  0  0  0  0  0  0  0  0  0  0
   -2.3276    1.7409    1.9167 C   0  0  2  0  0  0  0  0  0  0  0  0
   -0.9926    1.1555    1.4755 C   0  0  0  0  0  0  0  0  0  0  0  0
   -0.1206    0.8028    2.2668 O   0  0  0  0  0  0  0  0  0  0  0  0
   -2.3188    3.2577    1.8072 C   0  0  0  0  0  0  0  0  0  0  0  0
   -3.3395    1.7507    3.7809 H   0  0  0  0  0  0  0  0  0  0  0  0
   -3.1317    1.3224    1.3015 H   0  0  0  0  0  0  0  0  0  0  0  0
   -1.5198    3.6949    2.4169 H   0  0  0  0  0  0  0  0  0  0  0  0
   -2.1594    3.5799    0.7729 H   0  0  0  0  0  0  0  0  0  0  0  0
   -3.2690    3.6789    2.1530 H   0  0  0  0  0  0  0  0  0  0  0  0
   -0.8700    1.1124    0.0921 N   0  0  0  0  0  0  0  0  0  0  0  0
    0.3073    0.6116   -0.5716 C   0  0  2  0  0  0  0  0  0  0  0  0
    0.2323    1.0640   -2.0255 C   0  0  0  0  0  0  0  0  0  0  0  0
   -0.5080    1.9679   -2.4077 O   0  0  0  0  0  0  0  0  0  0  0  0
    0.4104   -0.9159   -0.4934 C   0  0  0  0  0  0  0  0  0  0  0  0
    0.6442   -1.4140    0.9119 C   0  0  0  0  0  0  0  0  0  0  0  0
    1.9292   -1.3956    1.4543 C   0  0  0  0  0  0  0  0  0  0  0  0
   -0.4254   -1.8926    1.6686 C   0  0  0  0  0  0  0  0  0  0  0  0
    2.1445   -1.8558    2.7534 C   0  0  0  0  0  0  0  0  0  0  0  0
   -0.2101   -2.3529    2.9676 C   0  0  0  0  0  0  0  0  0  0  0  0
    1.0749   -2.3344    3.5100 C   0  0  0  0  0  0  0  0  0  0  0  0
   -1.6531    1.4091   -0.4852 H   0  0  0  0  0  0  0  0  0  0  0  0
    1.1663    1.0933   -0.0897 H   0  0  0  0  0  0  0  0  0  0  0  0
    1.2122   -1.2773   -1.1516 H   0  0  0  0  0  0  0  0  0  0  0  0
   -0.5074   -1.3823   -0.8752 H   0  0  0  0  0  0  0  0  0  0  0  0
    2.7685   -1.0242    0.8722 H   0  0  0  0  0  0  0  0  0  0  0  0
   -1.4300   -1.9106    1.2543 H   0  0  0  0  0  0  0  0  0  0  0  0
    3.1453   -1.8424    3.1751 H   0  0  0  0  0  0  0  0  0  0  0  0
   -1.0429   -2.7264    3.5560 H   0  0  0  0  0  0  0  0  0  0  0  0
    1.2430   -2.6940    4.5210 H   0  0  0  0  0  0  0  0  0  0  0  0
    1.1255    0.3722   -2.8317 N   0  0  0  0  0  0  0  0  0  0  0  0
    1.2740    0.6217   -4.2475 C   0  0  2  0  0  0  0  0  0  0  0  0
   -0.1131    0.6051   -4.8760 C   0  0  0  0  0  0  0  0  0  0  0  0
   -1.0745    0.0349   -4.3645 O   0  0  0  0  0  0  0  0  0  0  0  0
    2.1788   -0.4121   -4.8996 C   0  0  0  0  0  0  0  0  0  0  0  0
    1.7039   -0.3456   -2.4052 H   0  0  0  0  0  0  0  0  0  0  0  0
    1.7093    1.6219   -4.3484 H   0  0  0  0  0  0  0  0  0  0  0  0
    1.7590   -1.4206   -4.8086 H   0  0  0  0  0  0  0  0  0  0  0  0
    2.3132   -0.2052   -5.9665 H   0  0  0  0  0  0  0  0  0  0  0  0
    3.1666   -0.4193   -4.4265 H   0  0  0  0  0  0  0  0  0  0  0  0
   -0.1409    1.2650   -6.0966 N   0  0  0  0  0  0  0  0  0  0  0  0
   -1.3390    1.3764   -6.8955 C   0  0  0  0  0  0  0  0  0  0  0  0
    0.6990    1.7251   -6.4352 H   0  0  0  0  0  0  0  0  0  0  0  0
   -1.3799    0.5444   -7.6139 H   0  0  0  0  0  0  0  0  0  0  0  0
   -2.2215    1.3384   -6.2400 H   0  0  0  0  0  0  0  0  0  0  0  0
   -1.3283    2.3315   -7.4411 H   0  0  0  0  0  0  0  0  0  0  0  0
 25 27  1  0  0  0  0
 26 27  2  0  0  0  0
 23 25  2  0  0  0  0
 24 26  1  0  0  0  0
 22 23  1  0  0  0  0
 22 24  2  0  0  0  0
 21 22  1  0  0  0  0
  1  3  1  0  0  0  0
  1  7  1  0  0  0  0
  1  2  2  0  0  0  0
 38 39  1  0  0  0  0
 39 47  1  0  0  0  0
 39 40  2  0  0  0  0
  8  9  1  0  0  0  0
  9 17  1  0  0  0  0
  9 10  2  0  0  0  0
 18 19  1  0  0  0  0
 19 37  1  0  0  0  0
 19 20  2  0  0  0  0
 38 41  1  0  0  0  0
  8 11  1  0  0  0  0
 47 48  1  0  0  0  0
 18 21  1  0  0  0  0
 37 38  1  0  0  0  0
  7  8  1  0  0  0  0
 17 18  1  0  0  0  0
 27 36  1  0  0  0  0
 25 34  1  0  0  0  0
 26 35  1  0  0  0  0
 23 32  1  0  0  0  0
 24 33  1  0  0  0  0
  3  4  1  0  0  0  0
  3  5  1  0  0  0  0
  3  6  1  0  0  0  0
 41 44  1  0  0  0  0
 41 45  1  0  0  0  0
 41 46  1  0  0  0  0
 11 14  1  0  0  0  0
 11 15  1  0  0  0  0
 11 16  1  0  0  0  0
 48 50  1  0  0  0  0
 48 51  1  0  0  0  0
 48 52  1  0  0  0  0
 21 30  1  0  0  0  0
 21 31  1  0  0  0  0
 38 43  1  0  0  0  0
  8 13  1  0  0  0  0
 18 29  1  0  0  0  0
 47 49  1  0  0  0  0
  7 12  1  0  0  0  0
 37 42  1  0  0  0  0
 17 28  1  0  0  0  0
M  END
$$$$

  -OEChem-05262214473D

 52 52  0     1  0  0  0  0  0999 V2000
   -1.8248    0.3424    3.9102 C   0  0  0  0  0  0  0  0  0  0  0  0
   -0.8774   -0.2723    3.4345 O   0  0  0  0  0  0  0  0  0  0  0  0
   -2.2566    0.0600    5.3109 C   0  0  0  0  0  0  0  0  0  0  0  0
   -3.0163   -0.7363    5.3643 H   0  0  0  0  0  0  0  0  0  0  0  0
   -1.4254   -0.2876    5.9452 H   0  0  0  0  0  0  0  0  0  0  0  0
   -2.6947    0.9149    5.8505 H   0  0  0  0  0  0  0  0  0  0  0  0
   -2.5745    1.3149    3.2691 N   0  0  0  0  0  0  0  0  0  0  0  0
   -2.3276    1.7409    1.9167 C   0  0  2  0  0  0  0  0  0  0  0  0
   -0.9926    1.1555    1.4755 C   0  0  0  0  0  0  0  0  0  0  0  0
   -0.1206    0.8028    2.2668 O   0  0  0  0  0  0  0  0  0  0  0  0
   -2.3188    3.2577    1.8072 C   0  0  0  0  0  0  0  0  0  0  0  0
   -3.3395    1.7507    3.7809 H   0  0  0  0  0  0  0  0  0  0  0  0
   -3.1317    1.3224    1.3015 H   0  0  0  0  0  0  0  0  0  0  0  0
   -1.5198    3.6949    2.4169 H   0  0  0  0  0  0  0  0  0  0  0  0
   -2.1594    3.5799    0.7729 H   0  0  0  0  0  0  0  0  0  0  0  0
   -3.2690    3.6789    2.1530 H   0  0  0  0  0  0  0  0  0  0  0  0
   -0.8700    1.1124    0.0921 N   0  0  0  0  0  0  0  0  0  0  0  0
    0.3073    0.6116   -0.5716 C   0  0  2  0  0  0  0  0  0  0  0  0
    0.2323    1.0640   -2.0255 C   0  0  0  0  0  0  0  0  0  0  0  0
   -0.2901    2.1217   -2.3710 O   0  0  0  0  0  0  0  0  0  0  0  0
    0.4104   -0.9159   -0.4934 C   0  0  0  0  0  0  0  0  0  0  0  0
    0.6442   -1.4140    0.9119 C   0  0  0  0  0  0  0  0  0  0  0  0
    1.9292   -1.3956    1.4543 C   0  0  0  0  0  0  0  0  0  0  0  0
   -0.4254   -1.8926    1.6686 C   0  0  0  0  0  0  0  0  0  0  0  0
    2.1445   -1.8558    2.7534 C   0  0  0  0  0  0  0  0  0  0  0  0
   -0.2101   -2.3529    2.9676 C   0  0  0  0  0  0  0  0  0  0  0  0
    1.0749   -2.3344    3.5100 C   0  0  0  0  0  0  0  0  0  0  0  0
   -1.6531    1.4091   -0.4852 H   0  0  0  0  0  0  0  0  0  0  0  0
    1.1663    1.0933   -0.0897 H   0  0  0  0  0  0  0  0  0  0  0  0
    1.2122   -1.2773   -1.1516 H   0  0  0  0  0  0  0  0  0  0  0  0
   -0.5074   -1.3823   -0.8752 H   0  0  0  0  0  0  0  0  0  0  0  0
    2.7685   -1.0242    0.8722 H   0  0  0  0  0  0  0  0  0  0  0  0
   -1.4300   -1.9106    1.2543 H   0  0  0  0  0  0  0  0  0  0  0  0
    3.1453   -1.8424    3.1751 H   0  0  0  0  0  0  0  0  0  0  0  0
   -1.0429   -2.7264    3.5560 H   0  0  0  0  0  0  0  0  0  0  0  0
    1.2430   -2.6940    4.5210 H   0  0  0  0  0  0  0  0  0  0  0  0
    0.8615    0.1703   -2.8809 N   0  0  0  0  0  0  0  0  0  0  0  0
    0.9555    0.3710   -4.3091 C   0  0  2  0  0  0  0  0  0  0  0  0
   -0.4379    0.6959   -4.8310 C   0  0  0  0  0  0  0  0  0  0  0  0
   -1.4670    0.3829   -4.2359 O   0  0  0  0  0  0  0  0  0  0  0  0
    1.5236   -0.8566   -5.0041 C   0  0  0  0  0  0  0  0  0  0  0  0
    1.2769   -0.6670   -2.4831 H   0  0  0  0  0  0  0  0  0  0  0  0
    1.6144    1.2321   -4.4648 H   0  0  0  0  0  0  0  0  0  0  0  0
    0.8769   -1.7296   -4.8592 H   0  0  0  0  0  0  0  0  0  0  0  0
    1.6208   -0.6926   -6.0824 H   0  0  0  0  0  0  0  0  0  0  0  0
    2.5132   -1.1064   -4.6066 H   0  0  0  0  0  0  0  0  0  0  0  0
   -0.3980    1.3385   -6.0605 N   0  0  0  0  0  0  0  0  0  0  0  0
   -1.5905    1.7402   -6.7693 C   0  0  0  0  0  0  0  0  0  0  0  0
    0.5002    1.5755   -6.4715 H   0  0  0  0  0  0  0  0  0  0  0  0
   -1.8913    0.9420   -7.4638 H   0  0  0  0  0  0  0  0  0  0  0  0
   -2.4010    1.9237   -6.0486 H   0  0  0  0  0  0  0  0  0  0  0  0
   -1.3876    2.6613   -7.3354 H   0  0  0  0  0  0  0  0  0  0  0  0
 25 27  1  0  0  0  0
 26 27  2  0  0  0  0
 23 25  2  0  0  0  0
 24 26  1  0  0  0  0
 22 23  1  0  0  0  0
 22 24  2  0  0  0  0
 21 22  1  0  0  0  0
  1  3  1  0  0  0  0
  1  7  1  0  0  0  0
  1  2  2  0  0  0  0
 38 39  1  0  0  0  0
 39 47  1  0  0  0  0
 39 40  2  0  0  0  0
  8  9  1  0  0  0  0
  9 17  1  0  0  0  0
  9 10  2  0  0  0  0
 18 19  1  0  0  0  0
 19 37  1  0  0  0  0
 19 20  2  0  0  0  0
 38 41  1  0  0  0  0
  8 11  1  0  0  0  0
 47 48  1  0  0  0  0
 18 21  1  0  0  0  0
 37 38  1  0  0  0  0
  7  8  1  0  0  0  0
 17 18  1  0  0  0  0
 27 36  1  0  0  0  0
 25 34  1  0  0  0  0
 26 35  1  0  0  0  0
 23 32  1  0  0  0  0
 24 33  1  0  0  0  0
  3  4  1  0  0  0  0
  3  5  1  0  0  0  0
  3  6  1  0  0  0  0
 41 44  1  0  0  0  0
 41 45  1  0  0  0  0
 41 46  1  0  0  0  0
 11 14  1  0  0  0  0
 11 15  1  0  0  0  0
 11 16  1  0  0  0  0
 48 50  1  0  0  0  0
 48 51  1  0  0  0  0
 48 52  1  0  0  0  0
 21 30  1  0  0  0  0
 21 31  1  0  0  0  0
 38 43  1  0  0  0  0
  8 13  1  0  0  0  0
 18 29  1  0  0  0  0
 47 49  1  0  0  0  0
  7 12  1  0  0  0  0
 37 42  1  0  0  0  0
 17 28  1  0  0  0  0
M  END
$$$$

  -OEChem-05262214473D

 52 52  0     1  0  0  0  0  0999 V2000
   -1.8248    0.3424    3.9102 C   0  0  0  0  0  0  0  0  0  0  0  0
   -0.8774   -0.2723    3.4345 O   0  0  0  0  0  0  0  0  0  0  0  0
   -2.2566    0.0600    5.3109 C   0  0  0  0  0  0  0  0  0  0  0  0
   -3.0163   -0.7363    5.3643 H   0  0  0  0  0  0  0  0  0  0  0  0
   -1.4254   -0.2876    5.9452 H   0  0  0  0  0  0  0  0  0  0  0  0
   -2.6947    0.9149    5.8505 H   0  0  0  0  0  0  0  0  0  0  0  0
   -2.5745    1.3149    3.2691 N   0  0  0  0  0  0  0  0  0  0  0  0
   -2.3276    1.7409    1.9167 C   0  0  2  0  0  0  0  0  0  0  0  0
   -0.9926    1.1555    1.4755 C   0  0  0  0  0  0  0  0  0  0  0  0
   -0.1206    0.8028    2.2668 O   0  0  0  0  0  0  0  0  0  0  0  0
   -2.3188    3.2577    1.8072 C   0  0  0  0  0  0  0  0  0  0  0  0
   -3.3395    1.7507    3.7809 H   0  0  0  0  0  0  0  0  0  0  0  0
   -3.1317    1.3224    1.3015 H   0  0  0  0  0  0  0  0  0  0  0  0
   -1.5198    3.6949    2.4169 H   0  0  0  0  0  0  0  0  0  0  0  0
   -2.1594    3.5799    0.7729 H   0  0  0  0  0  0  0  0  0  0  0  0
   -3.2690    3.6789    2.1530 H   0  0  0  0  0  0  0  0  0  0  0  0
   -0.8700    1.1124    0.0921 N   0  0  0  0  0  0  0  0  0  0  0  0
    0.3073    0.6116   -0.5716 C   0  0  2  0  0  0  0  0  0  0  0  0
    0.2323    1.0640   -2.0255 C   0  0  0  0  0  0  0  0  0  0  0  0
   -0.0389    2.2169   -2.3544 O   0  0  0  0  0  0  0  0  0  0  0  0
    0.4104   -0.9159   -0.4934 C   0  0  0  0  0  0  0  0  0  0  0  0
    0.6442   -1.4140    0.9119 C   0  0  0  0  0  0  0  0  0  0  0  0
    1.9292   -1.3956    1.4543 C   0  0  0  0  0  0  0  0  0  0  0  0
   -0.4254   -1.8926    1.6686 C   0  0  0  0  0  0  0  0  0  0  0  0
    2.1445   -1.8558    2.7534 C   0  0  0  0  0  0  0  0  0  0  0  0
   -0.2101   -2.3529    2.9676 C   0  0  0  0  0  0  0  0  0  0  0  0
    1.0749   -2.3344    3.5100 C   0  0  0  0  0  0  0  0  0  0  0  0
   -1.6531    1.4091   -0.4852 H   0  0  0  0  0  0  0  0  0  0  0  0
    1.1663    1.0933   -0.0897 H   0  0  0  0  0  0  0  0  0  0  0  0
    1.2122   -1.2773   -1.1516 H   0  0  0  0  0  0  0  0  0  0  0  0
   -0.5074   -1.3823   -0.8752 H   0  0  0  0  0  0  0  0  0  0  0  0
    2.7685   -1.0242    0.8722 H   0  0  0  0  0  0  0  0  0  0  0  0
   -1.4300   -1.9106    1.2543 H   0  0  0  0  0  0  0  0  0  0  0  0
    3.1453   -1.8424    3.1751 H   0  0  0  0  0  0  0  0  0  0  0  0
   -1.0429   -2.7264    3.5560 H   0  0  0  0  0  0  0  0  0  0  0  0
    1.2430   -2.6940    4.5210 H   0  0  0  0  0  0  0  0  0  0  0  0
    0.5529    0.0398   -2.9056 N   0  0  0  0  0  0  0  0  0  0  0  0
    0.5811    0.2065   -4.3409 C   0  0  2  0  0  0  0  0  0  0  0  0
   -0.7258    0.8644   -4.7637 C   0  0  0  0  0  0  0  0  0  0  0  0
   -1.7503    0.8175   -4.0861 O   0  0  0  0  0  0  0  0  0  0  0  0
    0.7731   -1.1255   -5.0491 C   0  0  0  0  0  0  0  0  0  0  0  0
    0.7791   -0.8730   -2.5215 H   0  0  0  0  0  0  0  0  0  0  0  0
    1.4176    0.8774   -4.5650 H   0  0  0  0  0  0  0  0  0  0  0  0
   -0.0554   -1.8110   -4.8364 H   0  0  0  0  0  0  0  0  0  0  0  0
    0.8228   -0.9940   -6.1350 H   0  0  0  0  0  0  0  0  0  0  0  0
    1.6987   -1.6111   -4.7216 H   0  0  0  0  0  0  0  0  0  0  0  0
   -0.6253    1.4733   -6.0068 N   0  0  0  0  0  0  0  0  0  0  0  0
   -1.7339    2.1553   -6.6328 C   0  0  0  0  0  0  0  0  0  0  0  0
    0.2685    1.4796   -6.4893 H   0  0  0  0  0  0  0  0  0  0  0  0
   -2.2756    1.4541   -7.2846 H   0  0  0  0  0  0  0  0  0  0  0  0
   -2.4151    2.5358   -5.8574 H   0  0  0  0  0  0  0  0  0  0  0  0
   -1.3554    2.9959   -7.2330 H   0  0  0  0  0  0  0  0  0  0  0  0
 25 27  1  0  0  0  0
 26 27  2  0  0  0  0
 23 25  2  0  0  0  0
 24 26  1  0  0  0  0
 22 23  1  0  0  0  0
 22 24  2  0  0  0  0
 21 22  1  0  0  0  0
  1  3  1  0  0  0  0
  1  7  1  0  0  0  0
  1  2  2  0  0  0  0
 38 39  1  0  0  0  0
 39 47  1  0  0  0  0
 39 40  2  0  0  0  0
  8  9  1  0  0  0  0
  9 17  1  0  0  0  0
  9 10  2  0  0  0  0
 18 19  1  0  0  0  0
 19 37  1  0  0  0  0
 19 20  2  0  0  0  0
 38 41  1  0  0  0  0
  8 11  1  0  0  0  0
 47 48  1  0  0  0  0
 18 21  1  0  0  0  0
 37 38  1  0  0  0  0
  7  8  1  0  0  0  0
 17 18  1  0  0  0  0
 27 36  1  0  0  0  0
 25 34  1  0  0  0  0
 26 35  1  0  0  0  0
 23 32  1  0  0  0  0
 24 33  1  0  0  0  0
  3  4  1  0  0  0  0
  3  5  1  0  0  0  0
  3  6  1  0  0  0  0
 41 44  1  0  0  0  0
 41 45  1  0  0  0  0
 41 46  1  0  0  0  0
 11 14  1  0  0  0  0
 11 15  1  0  0  0  0
 11 16  1  0  0  0  0
 48 50  1  0  0  0  0
 48 51  1  0  0  0  0
 48 52  1  0  0  0  0
 21 30  1  0  0  0  0
 21 31  1  0  0  0  0
 38 43  1  0  0  0  0
  8 13  1  0  0  0  0
 18 29  1  0  0  0  0
 47 49  1  0  0  0  0
  7 12  1  0  0  0  0
 37 42  1  0  0  0  0
 17 28  1  0  0  0  0
M  END
$$$$

  -OEChem-05262214473D

 52 52  0     1  0  0  0  0  0999 V2000
   -1.8248    0.3424    3.9102 C   0  0  0  0  0  0  0  0  0  0  0  0
   -0.8774   -0.2723    3.4345 O   0  0  0  0  0  0  0  0  0  0  0  0
   -2.2566    0.0600    5.3109 C   0  0  0  0  0  0  0  0  0  0  0  0
   -3.0163   -0.7363    5.3643 H   0  0  0  0  0  0  0  0  0  0  0  0
   -1.4254   -0.2876    5.9452 H   0  0  0  0  0  0  0  0  0  0  0  0
   -2.6947    0.9149    5.8505 H   0  0  0  0  0  0  0  0  0  0  0  0
   -2.5745    1.3149    3.2691 N   0  0  0  0  0  0  0  0  0  0  0  0
   -2.3276    1.7409    1.9167 C   0  0  2  0  0  0  0  0  0  0  0  0
   -0.9926    1.1555    1.4755 C   0  0  0  0  0  0  0  0  0  0  0  0
   -0.1206    0.8028    2.2668 O   0  0  0  0  0  0  0  0  0  0  0  0
   -2.3188    3.2577    1.8072 C   0  0  0  0  0  0  0  0  0  0  0  0
   -3.3395    1.7507    3.7809 H   0  0  0  0  0  0  0  0  0  0  0  0
   -3.1317    1.3224    1.3015 H   0  0  0  0  0  0  0  0  0  0  0  0
   -1.5198    3.6949    2.4169 H   0  0  0  0  0  0  0  0  0  0  0  0
   -2.1594    3.5799    0.7729 H   0  0  0  0  0  0  0  0  0  0  0  0
   -3.2690    3.6789    2.1530 H   0  0  0  0  0  0  0  0  0  0  0  0
   -0.8700    1.1124    0.0921 N   0  0  0  0  0  0  0  0  0  0  0  0
    0.3073    0.6116   -0.5716 C   0  0  2  0  0  0  0  0  0  0  0  0
    0.2323    1.0640   -2.0255 C   0  0  0  0  0  0  0  0  0  0  0  0
    0.2285    2.2472   -2.3587 O   0  0  0  0  0  0  0  0  0  0  0  0
    0.4104   -0.9159   -0.4934 C   0  0  0  0  0  0  0  0  0  0  0  0
    0.6442   -1.4140    0.9119 C   0  0  0  0  0  0  0  0  0  0  0  0
    1.9292   -1.3956    1.4543 C   0  0  0  0  0  0  0  0  0  0  0  0
   -0.4254   -1.8926    1.6686 C   0  0  0  0  0  0  0  0  0  0  0  0
    2.1445   -1.8558    2.7534 C   0  0  0  0  0  0  0  0  0  0  0  0
   -0.2101   -2.3529    2.9676 C   0  0  0  0  0  0  0  0  0  0  0  0
    1.0749   -2.3344    3.5100 C   0  0  0  0  0  0  0  0  0  0  0  0
   -1.6531    1.4091   -0.4852 H   0  0  0  0  0  0  0  0  0  0  0  0
    1.1663    1.0933   -0.0897 H   0  0  0  0  0  0  0  0  0  0  0  0
    1.2122   -1.2773   -1.1516 H   0  0  0  0  0  0  0  0  0  0  0  0
   -0.5074   -1.3823   -0.8752 H   0  0  0  0  0  0  0  0  0  0  0  0
    2.7685   -1.0242    0.8722 H   0  0  0  0  0  0  0  0  0  0  0  0
   -1.4300   -1.9106    1.2543 H   0  0  0  0  0  0  0  0  0  0  0  0
    3.1453   -1.8424    3.1751 H   0  0  0  0  0  0  0  0  0  0  0  0
   -1.0429   -2.7264    3.5560 H   0  0  0  0  0  0  0  0  0  0  0  0
    1.2430   -2.6940    4.5210 H   0  0  0  0  0  0  0  0  0  0  0  0
    0.2207   -0.0104   -2.9041 N   0  0  0  0  0  0  0  0  0  0  0  0
    0.1765    0.1397   -4.3408 C   0  0  2  0  0  0  0  0  0  0  0  0
   -0.9571    1.0991   -4.6787 C   0  0  0  0  0  0  0  0  0  0  0  0
   -1.9052    1.3091   -3.9251 O   0  0  0  0  0  0  0  0  0  0  0  0
   -0.0217   -1.2006   -5.0314 C   0  0  0  0  0  0  0  0  0  0  0  0
    0.2445   -0.9496   -2.5178 H   0  0  0  0  0  0  0  0  0  0  0  0
    1.1322    0.5822   -4.6421 H   0  0  0  0  0  0  0  0  0  0  0  0
   -0.9742   -1.6592   -4.7418 H   0  0  0  0  0  0  0  0  0  0  0  0
   -0.0264   -1.0888   -6.1207 H   0  0  0  0  0  0  0  0  0  0  0  0
    0.7784   -1.8990   -4.7637 H   0  0  0  0  0  0  0  0  0  0  0  0
   -0.8075    1.6604   -5.9392 N   0  0  0  0  0  0  0  0  0  0  0  0
   -1.7595    2.5934   -6.4951 C   0  0  0  0  0  0  0  0  0  0  0  0
    0.0196    1.4439   -6.4876 H   0  0  0  0  0  0  0  0  0  0  0  0
   -2.5066    2.0460   -7.0885 H   0  0  0  0  0  0  0  0  0  0  0  0
   -2.2630    3.1330   -5.6795 H   0  0  0  0  0  0  0  0  0  0  0  0
   -1.2339    3.3124   -7.1407 H   0  0  0  0  0  0  0  0  0  0  0  0
 25 27  1  0  0  0  0
 26 27  2  0  0  0  0
 23 25  2  0  0  0  0
 24 26  1  0  0  0  0
 22 23  1  0  0  0  0
 22 24  2  0  0  0  0
 21 22  1  0  0  0  0
  1  3  1  0  0  0  0
  1  7  1  0  0  0  0
  1  2  2  0  0  0  0
 38 39  1  0  0  0  0
 39 47  1  0  0  0  0
 39 40  2  0  0  0  0
  8  9  1  0  0  0  0
  9 17  1  0  0  0  0
  9 10  2  0  0  0  0
 18 19  1  0  0  0  0
 19 37  1  0  0  0  0
 19 20  2  0  0  0  0
 38 41  1  0  0  0  0
  8 11  1  0  0  0  0
 47 48  1  0  0  0  0
 18 21  1  0  0  0  0
 37 38  1  0  0  0  0
  7  8  1  0  0  0  0
 17 18  1  0  0  0  0
 27 36  1  0  0  0  0
 25 34  1  0  0  0  0
 26 35  1  0  0  0  0
 23 32  1  0  0  0  0
 24 33  1  0  0  0  0
  3  4  1  0  0  0  0
  3  5  1  0  0  0  0
  3  6  1  0  0  0  0
 41 44  1  0  0  0  0
 41 45  1  0  0  0  0
 41 46  1  0  0  0  0
 11 14  1  0  0  0  0
 11 15  1  0  0  0  0
 11 16  1  0  0  0  0
 48 50  1  0  0  0  0
 48 51  1  0  0  0  0
 48 52  1  0  0  0  0
 21 30  1  0  0  0  0
 21 31  1  0  0  0  0
 38 43  1  0  0  0  0
  8 13  1  0  0  0  0
 18 29  1  0  0  0  0
 47 49  1  0  0  0  0
  7 12  1  0  0  0  0
 37 42  1  0  0  0  0
 17 28  1  0  0  0  0
M  END
$$$$

  -OEChem-05262214473D

 52 52  0     1  0  0  0  0  0999 V2000
   -1.8248    0.3424    3.9102 C   0  0  0  0  0  0  0  0  0  0  0  0
   -0.8774   -0.2723    3.4345 O   0  0  0  0  0  0  0  0  0  0  0  0
   -2.2566    0.0600    5.3109 C   0  0  0  0  0  0  0  0  0  0  0  0
   -3.0163   -0.7363    5.3643 H   0  0  0  0  0  0  0  0  0  0  0  0
   -1.4254   -0.2876    5.9452 H   0  0  0  0  0  0  0  0  0  0  0  0
   -2.6947    0.9149    5.8505 H   0  0  0  0  0  0  0  0  0  0  0  0
   -2.5745    1.3149    3.2691 N   0  0  0  0  0  0  0  0  0  0  0  0
   -2.3276    1.7409    1.9167 C   0  0  2  0  0  0  0  0  0  0  0  0
   -0.9926    1.1555    1.4755 C   0  0  0  0  0  0  0  0  0  0  0  0
   -0.1206    0.8028    2.2668 O   0  0  0  0  0  0  0  0  0  0  0  0
   -2.3188    3.2577    1.8072 C   0  0  0  0  0  0  0  0  0  0  0  0
   -3.3395    1.7507    3.7809 H   0  0  0  0  0  0  0  0  0  0  0  0
   -3.1317    1.3224    1.3015 H   0  0  0  0  0  0  0  0  0  0  0  0
   -1.5198    3.6949    2.4169 H   0  0  0  0  0  0  0  0  0  0  0  0
   -2.1594    3.5799    0.7729 H   0  0  0  0  0  0  0  0  0  0  0  0
   -3.2690    3.6789    2.1530 H   0  0  0  0  0  0  0  0  0  0  0  0
   -0.8700    1.1124    0.0921 N   0  0  0  0  0  0  0  0  0  0  0  0
    0.3073    0.6116   -0.5716 C   0  0  2  0  0  0  0  0  0  0  0  0
    0.2323    1.0640   -2.0255 C   0  0  0  0  0  0  0  0  0  0  0  0
    0.4939    2.2103   -2.3839 O   0  0  0  0  0  0  0  0  0  0  0  0
    0.4104   -0.9159   -0.4934 C   0  0  0  0  0  0  0  0  0  0  0  0
    0.6442   -1.4140    0.9119 C   0  0  0  0  0  0  0  0  0  0  0  0
    1.9292   -1.3956    1.4543 C   0  0  0  0  0  0  0  0  0  0  0  0
   -0.4254   -1.8926    1.6686 C   0  0  0  0  0  0  0  0  0  0  0  0
    2.1445   -1.8558    2.7534 C   0  0  0  0  0  0  0  0  0  0  0  0
   -0.2101   -2.3529    2.9676 C   0  0  0  0  0  0  0  0  0  0  0  0
    1.0749   -2.3344    3.5100 C   0  0  0  0  0  0  0  0  0  0  0  0
   -1.6531    1.4091   -0.4852 H   0  0  0  0  0  0  0  0  0  0  0  0
    1.1663    1.0933   -0.0897 H   0  0  0  0  0  0  0  0  0  0  0  0
    1.2122   -1.2773   -1.1516 H   0  0  0  0  0  0  0  0  0  0  0  0
   -0.5074   -1.3823   -0.8752 H   0  0  0  0  0  0  0  0  0  0  0  0
    2.7685   -1.0242    0.8722 H   0  0  0  0  0  0  0  0  0  0  0  0
   -1.4300   -1.9106    1.2543 H   0  0  0  0  0  0  0  0  0  0  0  0
    3.1453   -1.8424    3.1751 H   0  0  0  0  0  0  0  0  0  0  0  0
   -1.0429   -2.7264    3.5560 H   0  0  0  0  0  0  0  0  0  0  0  0
    1.2430   -2.6940    4.5210 H   0  0  0  0  0  0  0  0  0  0  0  0
   -0.1125    0.0231   -2.8764 N   0  0  0  0  0  0  0  0  0  0  0  0
   -0.2309    0.1751   -4.3088 C   0  0  2  0  0  0  0  0  0  0  0  0
   -1.1160    1.3840   -4.5819 C   0  0  0  0  0  0  0  0  0  0  0  0
   -1.9212    1.8243   -3.7640 O   0  0  0  0  0  0  0  0  0  0  0  0
   -0.8066   -1.0767   -4.9523 C   0  0  0  0  0  0  0  0  0  0  0  0
   -0.2905   -0.8915   -2.4721 H   0  0  0  0  0  0  0  0  0  0  0  0
    0.7778    0.3665   -4.6909 H   0  0  0  0  0  0  0  0  0  0  0  0
   -1.8170   -1.2846   -4.5817 H   0  0  0  0  0  0  0  0  0  0  0  0
   -0.8690   -0.9706   -6.0404 H   0  0  0  0  0  0  0  0  0  0  0  0
   -0.1847   -1.9505   -4.7300 H   0  0  0  0  0  0  0  0  0  0  0  0
   -0.9321    1.8869   -5.8623 N   0  0  0  0  0  0  0  0  0  0  0  0
   -1.6655    3.0247   -6.3658 C   0  0  0  0  0  0  0  0  0  0  0  0
   -0.2294    1.4709   -6.4664 H   0  0  0  0  0  0  0  0  0  0  0  0
   -2.5686    2.6772   -6.8889 H   0  0  0  0  0  0  0  0  0  0  0  0
   -1.9551    3.6746   -5.5268 H   0  0  0  0  0  0  0  0  0  0  0  0
   -1.0313    3.5893   -7.0650 H   0  0  0  0  0  0  0  0  0  0  0  0
 25 27  1  0  0  0  0
 26 27  2  0  0  0  0
 23 25  2  0  0  0  0
 24 26  1  0  0  0  0
 22 23  1  0  0  0  0
 22 24  2  0  0  0  0
 21 22  1  0  0  0  0
  1  3  1  0  0  0  0
  1  7  1  0  0  0  0
  1  2  2  0  0  0  0
 38 39  1  0  0  0  0
 39 47  1  0  0  0  0
 39 40  2  0  0  0  0
  8  9  1  0  0  0  0
  9 17  1  0  0  0  0
  9 10  2  0  0  0  0
 18 19  1  0  0  0  0
 19 37  1  0  0  0  0
 19 20  2  0  0  0  0
 38 41  1  0  0  0  0
  8 11  1  0  0  0  0
 47 48  1  0  0  0  0
 18 21  1  0  0  0  0
 37 38  1  0  0  0  0
  7  8  1  0  0  0  0
 17 18  1  0  0  0  0
 27 36  1  0  0  0  0
 25 34  1  0  0  0  0
 26 35  1  0  0  0  0
 23 32  1  0  0  0  0
 24 33  1  0  0  0  0
  3  4  1  0  0  0  0
  3  5  1  0  0  0  0
  3  6  1  0  0  0  0
 41 44  1  0  0  0  0
 41 45  1  0  0  0  0
 41 46  1  0  0  0  0
 11 14  1  0  0  0  0
 11 15  1  0  0  0  0
 11 16  1  0  0  0  0
 48 50  1  0  0  0  0
 48 51  1  0  0  0  0
 48 52  1  0  0  0  0
 21 30  1  0  0  0  0
 21 31  1  0  0  0  0
 38 43  1  0  0  0  0
  8 13  1  0  0  0  0
 18 29  1  0  0  0  0
 47 49  1  0  0  0  0
  7 12  1  0  0  0  0
 37 42  1  0  0  0  0
 17 28  1  0  0  0  0
M  END
$$$$

  -OEChem-05262214473D

 52 52  0     1  0  0  0  0  0999 V2000
   -1.8248    0.3424    3.9102 C   0  0  0  0  0  0  0  0  0  0  0  0
   -0.8774   -0.2723    3.4345 O   0  0  0  0  0  0  0  0  0  0  0  0
   -2.2566    0.0600    5.3109 C   0  0  0  0  0  0  0  0  0  0  0  0
   -3.0163   -0.7363    5.3643 H   0  0  0  0  0  0  0  0  0  0  0  0
   -1.4254   -0.2876    5.9452 H   0  0  0  0  0  0  0  0  0  0  0  0
   -2.6947    0.9149    5.8505 H   0  0  0  0  0  0  0  0  0  0  0  0
   -2.5745    1.3149    3.2691 N   0  0  0  0  0  0  0  0  0  0  0  0
   -2.3276    1.7409    1.9167 C   0  0  2  0  0  0  0  0  0  0  0  0
   -0.9926    1.1555    1.4755 C   0  0  0  0  0  0  0  0  0  0  0  0
   -0.1206    0.8028    2.2668 O   0  0  0  0  0  0  0  0  0  0  0  0
   -2.3188    3.2577    1.8072 C   0  0  0  0  0  0  0  0  0  0  0  0
   -3.3395    1.7507    3.7809 H   0  0  0  0  0  0  0  0  0  0  0  0
   -3.1317    1.3224    1.3015 H   0  0  0  0  0  0  0  0  0  0  0  0
   -1.5198    3.6949    2.4169 H   0  0  0  0  0  0  0  0  0  0  0  0
   -2.1594    3.5799    0.7729 H   0  0  0  0  0  0  0  0  0  0  0  0
   -3.2690    3.6789    2.1530 H   0  0  0  0  0  0  0  0  0  0  0  0
   -0.8700    1.1124    0.0921 N   0  0  0  0  0  0  0  0  0  0  0  0
    0.3073    0.6116   -0.5716 C   0  0  2  0  0  0  0  0  0  0  0  0
    0.2323    1.0640   -2.0255 C   0  0  0  0  0  0  0  0  0  0  0  0
    0.7393    2.1089   -2.4282 O   0  0  0  0  0  0  0  0  0  0  0  0
    0.4104   -0.9159   -0.4934 C   0  0  0  0  0  0  0  0  0  0  0  0
    0.6442   -1.4140    0.9119 C   0  0  0  0  0  0  0  0  0  0  0  0
    1.9292   -1.3956    1.4543 C   0  0  0  0  0  0  0  0  0  0  0  0
   -0.4254   -1.8926    1.6686 C   0  0  0  0  0  0  0  0  0  0  0  0
    2.1445   -1.8558    2.7534 C   0  0  0  0  0  0  0  0  0  0  0  0
   -0.2101   -2.3529    2.9676 C   0  0  0  0  0  0  0  0  0  0  0  0
    1.0749   -2.3344    3.5100 C   0  0  0  0  0  0  0  0  0  0  0  0
   -1.6531    1.4091   -0.4852 H   0  0  0  0  0  0  0  0  0  0  0  0
    1.1663    1.0933   -0.0897 H   0  0  0  0  0  0  0  0  0  0  0  0
    1.2122   -1.2773   -1.1516 H   0  0  0  0  0  0  0  0  0  0  0  0
   -0.5074   -1.3823   -0.8752 H   0  0  0  0  0  0  0  0  0  0  0  0
    2.7685   -1.0242    0.8722 H   0  0  0  0  0  0  0  0  0  0  0  0
   -1.4300   -1.9106    1.2543 H   0  0  0  0  0  0  0  0  0  0  0  0
    3.1453   -1.8424    3.1751 H   0  0  0  0  0  0  0  0  0  0  0  0
   -1.0429   -2.7264    3.5560 H   0  0  0  0  0  0  0  0  0  0  0  0
    1.2430   -2.6940    4.5210 H   0  0  0  0  0  0  0  0  0  0  0  0
   -0.4239    0.1381   -2.8246 N   0  0  0  0  0  0  0  0  0  0  0  0
   -0.6131    0.3102   -4.2470 C   0  0  2  0  0  0  0  0  0  0  0  0
   -1.1919    1.6996   -4.4798 C   0  0  0  0  0  0  0  0  0  0  0  0
   -1.7970    2.3279   -3.6137 O   0  0  0  0  0  0  0  0  0  0  0  0
   -1.5281   -0.7623   -4.8173 C   0  0  0  0  0  0  0  0  0  0  0  0
   -0.7895   -0.7028   -2.3876 H   0  0  0  0  0  0  0  0  0  0  0  0
    0.3784    0.2450   -4.7081 H   0  0  0  0  0  0  0  0  0  0  0  0
   -2.5263   -0.7127   -4.3671 H   0  0  0  0  0  0  0  0  0  0  0  0
   -1.6476   -0.6475   -5.8997 H   0  0  0  0  0  0  0  0  0  0  0  0
   -1.1252   -1.7621   -4.6228 H   0  0  0  0  0  0  0  0  0  0  0  0
   -0.9907    2.1374   -5.7813 N   0  0  0  0  0  0  0  0  0  0  0  0
   -1.4583    3.4197   -6.2536 C   0  0  0  0  0  0  0  0  0  0  0  0
   -0.4617    1.5587   -6.4270 H   0  0  0  0  0  0  0  0  0  0  0  0
   -2.4573    3.3048   -6.6994 H   0  0  0  0  0  0  0  0  0  0  0  0
   -1.5122    4.1236   -5.4100 H   0  0  0  0  0  0  0  0  0  0  0  0
   -0.7614    3.8078   -7.0110 H   0  0  0  0  0  0  0  0  0  0  0  0
 25 27  1  0  0  0  0
 26 27  2  0  0  0  0
 23 25  2  0  0  0  0
 24 26  1  0  0  0  0
 22 23  1  0  0  0  0
 22 24  2  0  0  0  0
 21 22  1  0  0  0  0
  1  3  1  0  0  0  0
  1  7  1  0  0  0  0
  1  2  2  0  0  0  0
 38 39  1  0  0  0  0
 39 47  1  0  0  0  0
 39 40  2  0  0  0  0
  8  9  1  0  0  0  0
  9 17  1  0  0  0  0
  9 10  2  0  0  0  0
 18 19  1  0  0  0  0
 19 37  1  0  0  0  0
 19 20  2  0  0  0  0
 38 41  1  0  0  0  0
  8 11  1  0  0  0  0
 47 48  1  0  0  0  0
 18 21  1  0  0  0  0
 37 38  1  0  0  0  0
  7  8  1  0  0  0  0
 17 18  1  0  0  0  0
 27 36  1  0  0  0  0
 25 34  1  0  0  0  0
 26 35  1  0  0  0  0
 23 32  1  0  0  0  0
 24 33  1  0  0  0  0
  3  4  1  0  0  0  0
  3  5  1  0  0  0  0
  3  6  1  0  0  0  0
 41 44  1  0  0  0  0
 41 45  1  0  0  0  0
 41 46  1  0  0  0  0
 11 14  1  0  0  0  0
 11 15  1  0  0  0  0
 11 16  1  0  0  0  0
 48 50  1  0  0  0  0
 48 51  1  0  0  0  0
 48 52  1  0  0  0  0
 21 30  1  0  0  0  0
 21 31  1  0  0  0  0
 38 43  1  0  0  0  0
  8 13  1  0  0  0  0
 18 29  1  0  0  0  0
 47 49  1  0  0  0  0
  7 12  1  0  0  0  0
 37 42  1  0  0  0  0
 17 28  1  0  0  0  0
M  END
$$$$

  -OEChem-05262214473D

 52 52  0     1  0  0  0  0  0999 V2000
   -1.8248    0.3424    3.9102 C   0  0  0  0  0  0  0  0  0  0  0  0
   -0.8774   -0.2723    3.4345 O   0  0  0  0  0  0  0  0  0  0  0  0
   -2.2566    0.0600    5.3109 C   0  0  0  0  0  0  0  0  0  0  0  0
   -3.0163   -0.7363    5.3643 H   0  0  0  0  0  0  0  0  0  0  0  0
   -1.4254   -0.2876    5.9452 H   0  0  0  0  0  0  0  0  0  0  0  0
   -2.6947    0.9149    5.8505 H   0  0  0  0  0  0  0  0  0  0  0  0
   -2.5745    1.3149    3.2691 N   0  0  0  0  0  0  0  0  0  0  0  0
   -2.3276    1.7409    1.9167 C   0  0  2  0  0  0  0  0  0  0  0  0
   -0.9926    1.1555    1.4755 C   0  0  0  0  0  0  0  0  0  0  0  0
   -0.1206    0.8028    2.2668 O   0  0  0  0  0  0  0  0  0  0  0  0
   -2.3188    3.2577    1.8072 C   0  0  0  0  0  0  0  0  0  0  0  0
   -3.3395    1.7507    3.7809 H   0  0  0  0  0  0  0  0  0  0  0  0
   -3.1317    1.3224    1.3015 H   0  0  0  0  0  0  0  0  0  0  0  0
   -1.5198    3.6949    2.4169 H   0  0  0  0  0  0  0  0  0  0  0  0
   -2.1594    3.5799    0.7729 H   0  0  0  0  0  0  0  0  0  0  0  0
   -3.2690    3.6789    2.1530 H   0  0  0  0  0  0  0  0  0  0  0  0
   -0.8700    1.1124    0.0921 N   0  0  0  0  0  0  0  0  0  0  0  0
    0.3073    0.6116   -0.5716 C   0  0  2  0  0  0  0  0  0  0  0  0
    0.2323    1.0640   -2.0255 C   0  0  0  0  0  0  0  0  0  0  0  0
    0.9479    1.9497   -2.4884 O   0  0  0  0  0  0  0  0  0  0  0  0
    0.4104   -0.9159   -0.4934 C   0  0  0  0  0  0  0  0  0  0  0  0
    0.6442   -1.4140    0.9119 C   0  0  0  0  0  0  0  0  0  0  0  0
    1.9292   -1.3956    1.4543 C   0  0  0  0  0  0  0  0  0  0  0  0
   -0.4254   -1.8926    1.6686 C   0  0  0  0  0  0  0  0  0  0  0  0
    2.1445   -1.8558    2.7534 C   0  0  0  0  0  0  0  0  0  0  0  0
   -0.2101   -2.3529    2.9676 C   0  0  0  0  0  0  0  0  0  0  0  0
    1.0749   -2.3344    3.5100 C   0  0  0  0  0  0  0  0  0  0  0  0
   -1.6531    1.4091   -0.4852 H   0  0  0  0  0  0  0  0  0  0  0  0
    1.1663    1.0933   -0.0897 H   0  0  0  0  0  0  0  0  0  0  0  0
    1.2122   -1.2773   -1.1516 H   0  0  0  0  0  0  0  0  0  0  0  0
   -0.5074   -1.3823   -0.8752 H   0  0  0  0  0  0  0  0  0  0  0  0
    2.7685   -1.0242    0.8722 H   0  0  0  0  0  0  0  0  0  0  0  0
   -1.4300   -1.9106    1.2543 H   0  0  0  0  0  0  0  0  0  0  0  0
    3.1453   -1.8424    3.1751 H   0  0  0  0  0  0  0  0  0  0  0  0
   -1.0429   -2.7264    3.5560 H   0  0  0  0  0  0  0  0  0  0  0  0
    1.2430   -2.6940    4.5210 H   0  0  0  0  0  0  0  0  0  0  0  0
   -0.6923    0.3267   -2.7520 N   0  0  0  0  0  0  0  0  0  0  0  0
   -0.9443    0.5358   -4.1597 C   0  0  2  0  0  0  0  0  0  0  0  0
   -1.1793    2.0245   -4.3793 C   0  0  0  0  0  0  0  0  0  0  0  0
   -1.5412    2.7856   -3.4844 O   0  0  0  0  0  0  0  0  0  0  0  0
   -2.1371   -0.2788   -4.6354 C   0  0  0  0  0  0  0  0  0  0  0  0
   -1.2184   -0.3963   -2.2701 H   0  0  0  0  0  0  0  0  0  0  0  0
   -0.0386    0.2260   -4.6925 H   0  0  0  0  0  0  0  0  0  0  0  0
   -3.0538    0.0175   -4.1127 H   0  0  0  0  0  0  0  0  0  0  0  0
   -2.3091   -0.1413   -5.7080 H   0  0  0  0  0  0  0  0  0  0  0  0
   -1.9789   -1.3466   -4.4495 H   0  0  0  0  0  0  0  0  0  0  0  0
   -0.9792    2.3949   -5.7018 N   0  0  0  0  0  0  0  0  0  0  0  0
   -1.1521    3.7515   -6.1661 C   0  0  0  0  0  0  0  0  0  0  0  0
   -0.6614    1.7013   -6.3724 H   0  0  0  0  0  0  0  0  0  0  0  0
   -2.1804    3.8859   -6.5328 H   0  0  0  0  0  0  0  0  0  0  0  0
   -0.9646    4.4495   -5.3368 H   0  0  0  0  0  0  0  0  0  0  0  0
   -0.4426    3.9528   -6.9823 H   0  0  0  0  0  0  0  0  0  0  0  0
 25 27  1  0  0  0  0
 26 27  2  0  0  0  0
 23 25  2  0  0  0  0
 24 26  1  0  0  0  0
 22 23  1  0  0  0  0
 22 24  2  0  0  0  0
 21 22  1  0  0  0  0
  1  3  1  0  0  0  0
  1  7  1  0  0  0  0
  1  2  2  0  0  0  0
 38 39  1  0  0  0  0
 39 47  1  0  0  0  0
 39 40  2  0  0  0  0
  8  9  1  0  0  0  0
  9 17  1  0  0  0  0
  9 10  2  0  0  0  0
 18 19  1  0  0  0  0
 19 37  1  0  0  0  0
 19 20  2  0  0  0  0
 38 41  1  0  0  0  0
  8 11  1  0  0  0  0
 47 48  1  0  0  0  0
 18 21  1  0  0  0  0
 37 38  1  0  0  0  0
  7  8  1  0  0  0  0
 17 18  1  0  0  0  0
 27 36  1  0  0  0  0
 25 34  1  0  0  0  0
 26 35  1  0  0  0  0
 23 32  1  0  0  0  0
 24 33  1  0  0  0  0
  3  4  1  0  0  0  0
  3  5  1  0  0  0  0
  3  6  1  0  0  0  0
 41 44  1  0  0  0  0
 41 45  1  0  0  0  0
 41 46  1  0  0  0  0
 11 14  1  0  0  0  0
 11 15  1  0  0  0  0
 11 16  1  0  0  0  0
 48 50  1  0  0  0  0
 48 51  1  0  0  0  0
 48 52  1  0  0  0  0
 21 30  1  0  0  0  0
 21 31  1  0  0  0  0
 38 43  1  0  0  0  0
  8 13  1  0  0  0  0
 18 29  1  0  0  0  0
 47 49  1  0  0  0  0
  7 12  1  0  0  0  0
 37 42  1  0  0  0  0
 17 28  1  0  0  0  0
M  END
$$$$

  -OEChem-05262214473D

 52 52  0     1  0  0  0  0  0999 V2000
   -1.8248    0.3424    3.9102 C   0  0  0  0  0  0  0  0  0  0  0  0
   -0.8774   -0.2723    3.4345 O   0  0  0  0  0  0  0  0  0  0  0  0
   -2.2566    0.0600    5.3109 C   0  0  0  0  0  0  0  0  0  0  0  0
   -3.0163   -0.7363    5.3643 H   0  0  0  0  0  0  0  0  0  0  0  0
   -1.4254   -0.2876    5.9452 H   0  0  0  0  0  0  0  0  0  0  0  0
   -2.6947    0.9149    5.8505 H   0  0  0  0  0  0  0  0  0  0  0  0
   -2.5745    1.3149    3.2691 N   0  0  0  0  0  0  0  0  0  0  0  0
   -2.3276    1.7409    1.9167 C   0  0  2  0  0  0  0  0  0  0  0  0
   -0.9926    1.1555    1.4755 C   0  0  0  0  0  0  0  0  0  0  0  0
   -0.1206    0.8028    2.2668 O   0  0  0  0  0  0  0  0  0  0  0  0
   -2.3188    3.2577    1.8072 C   0  0  0  0  0  0  0  0  0  0  0  0
   -3.3395    1.7507    3.7809 H   0  0  0  0  0  0  0  0  0  0  0  0
   -3.1317    1.3224    1.3015 H   0  0  0  0  0  0  0  0  0  0  0  0
   -1.5198    3.6949    2.4169 H   0  0  0  0  0  0  0  0  0  0  0  0
   -2.1594    3.5799    0.7729 H   0  0  0  0  0  0  0  0  0  0  0  0
   -3.2690    3.6789    2.1530 H   0  0  0  0  0  0  0  0  0  0  0  0
   -0.8700    1.1124    0.0921 N   0  0  0  0  0  0  0  0  0  0  0  0
    0.3073    0.6116   -0.5716 C   0  0  2  0  0  0  0  0  0  0  0  0
    0.2323    1.0640   -2.0255 C   0  0  0  0  0  0  0  0  0  0  0  0
    1.1054    1.7438   -2.5607 O   0  0  0  0  0  0  0  0  0  0  0  0
    0.4104   -0.9159   -0.4934 C   0  0  0  0  0  0  0  0  0  0  0  0
    0.6442   -1.4140    0.9119 C   0  0  0  0  0  0  0  0  0  0  0  0
    1.9292   -1.3956    1.4543 C   0  0  0  0  0  0  0  0  0  0  0  0
   -0.4254   -1.8926    1.6686 C   0  0  0  0  0  0  0  0  0  0  0  0
    2.1445   -1.8558    2.7534 C   0  0  0  0  0  0  0  0  0  0  0  0
   -0.2101   -2.3529    2.9676 C   0  0  0  0  0  0  0  0  0  0  0  0
    1.0749   -2.3344    3.5100 C   0  0  0  0  0  0  0  0  0  0  0  0
   -1.6531    1.4091   -0.4852 H   0  0  0  0  0  0  0  0  0  0  0  0
    1.1663    1.0933   -0.0897 H   0  0  0  0  0  0  0  0  0  0  0  0
    1.2122   -1.2773   -1.1516 H   0  0  0  0  0  0  0  0  0  0  0  0
   -0.5074   -1.3823   -0.8752 H   0  0  0  0  0  0  0  0  0  0  0  0
    2.7685   -1.0242    0.8722 H   0  0  0  0  0  0  0  0  0  0  0  0
   -1.4300   -1.9106    1.2543 H   0  0  0  0  0  0  0  0  0  0  0  0
    3.1453   -1.8424    3.1751 H   0  0  0  0  0  0  0  0  0  0  0  0
   -1.0429   -2.7264    3.5560 H   0  0  0  0  0  0  0  0  0  0  0  0
    1.2430   -2.6940    4.5210 H   0  0  0  0  0  0  0  0  0  0  0  0
   -0.8995    0.5760   -2.6637 N   0  0  0  0  0  0  0  0  0  0  0  0
   -1.2017    0.8366   -4.0528 C   0  0  2  0  0  0  0  0  0  0  0  0
   -1.0793    2.3365   -4.2874 C   0  0  0  0  0  0  0  0  0  0  0  0
   -1.1712    3.1662   -3.3851 O   0  0  0  0  0  0  0  0  0  0  0  0
   -2.5920    0.3409   -4.4191 C   0  0  0  0  0  0  0  0  0  0  0  0
   -1.5480    0.0071   -2.1276 H   0  0  0  0  0  0  0  0  0  0  0  0
   -0.4450    0.3108   -4.6452 H   0  0  0  0  0  0  0  0  0  0  0  0
   -3.3636    0.8563   -3.8357 H   0  0  0  0  0  0  0  0  0  0  0  0
   -2.8084    0.5133   -5.4785 H   0  0  0  0  0  0  0  0  0  0  0  0
   -2.6876   -0.7323   -4.2217 H   0  0  0  0  0  0  0  0  0  0  0  0
   -0.8984    2.6418   -5.6291 N   0  0  0  0  0  0  0  0  0  0  0  0
   -0.7677    3.9976   -6.1094 C   0  0  0  0  0  0  0  0  0  0  0  0
   -0.8149    1.8891   -6.3060 H   0  0  0  0  0  0  0  0  0  0  0  0
   -1.7567    4.3810   -6.4006 H   0  0  0  0  0  0  0  0  0  0  0  0
   -0.3496    4.6301   -5.3124 H   0  0  0  0  0  0  0  0  0  0  0  0
   -0.0967    4.0146   -6.9809 H   0  0  0  0  0  0  0  0  0  0  0  0
 25 27  1  0  0  0  0
 26 27  2  0  0  0  0
 23 25  2  0  0  0  0
 24 26  1  0  0  0  0
 22 23  1  0  0  0  0
 22 24  2  0  0  0  0
 21 22  1  0  0  0  0
  1  3  1  0  0  0  0
  1  7  1  0  0  0  0
  1  2  2  0  0  0  0
 38 39  1  0  0  0  0
 39 47  1  0  0  0  0
 39 40  2  0  0  0  0
  8  9  1  0  0  0  0
  9 17  1  0  0  0  0
  9 10  2  0  0  0  0
 18 19  1  0  0  0  0
 19 37  1  0  0  0  0
 19 20  2  0  0  0  0
 38 41  1  0  0  0  0
  8 11  1  0  0  0  0
 47 48  1  0  0  0  0
 18 21  1  0  0  0  0
 37 38  1  0  0  0  0
  7  8  1  0  0  0  0
 17 18  1  0  0  0  0
 27 36  1  0  0  0  0
 25 34  1  0  0  0  0
 26 35  1  0  0  0  0
 23 32  1  0  0  0  0
 24 33  1  0  0  0  0
  3  4  1  0  0  0  0
  3  5  1  0  0  0  0
  3  6  1  0  0  0  0
 41 44  1  0  0  0  0
 41 45  1  0  0  0  0
 41 46  1  0  0  0  0
 11 14  1  0  0  0  0
 11 15  1  0  0  0  0
 11 16  1  0  0  0  0
 48 50  1  0  0  0  0
 48 51  1  0  0  0  0
 48 52  1  0  0  0  0
 21 30  1  0  0  0  0
 21 31  1  0  0  0  0
 38 43  1  0  0  0  0
  8 13  1  0  0  0  0
 18 29  1  0  0  0  0
 47 49  1  0  0  0  0
  7 12  1  0  0  0  0
 37 42  1  0  0  0  0
 17 28  1  0  0  0  0
M  END
$$$$

  -OEChem-05262214473D

 52 52  0     1  0  0  0  0  0999 V2000
   -1.8248    0.3424    3.9102 C   0  0  0  0  0  0  0  0  0  0  0  0
   -0.8774   -0.2723    3.4345 O   0  0  0  0  0  0  0  0  0  0  0  0
   -2.2566    0.0600    5.3109 C   0  0  0  0  0  0  0  0  0  0  0  0
   -3.0163   -0.7363    5.3643 H   0  0  0  0  0  0  0  0  0  0  0  0
   -1.4254   -0.2876    5.9452 H   0  0  0  0  0  0  0  0  0  0  0  0
   -2.6947    0.9149    5.8505 H   0  0  0  0  0  0  0  0  0  0  0  0
   -2.5745    1.3149    3.2691 N   0  0  0  0  0  0  0  0  0  0  0  0
   -2.3276    1.7409    1.9167 C   0  0  2  0  0  0  0  0  0  0  0  0
   -0.9926    1.1555    1.4755 C   0  0  0  0  0  0  0  0  0  0  0  0
   -0.1206    0.8028    2.2668 O   0  0  0  0  0  0  0  0  0  0  0  0
   -2.3188    3.2577    1.8072 C   0  0  0  0  0  0  0  0  0  0  0  0
   -3.3395    1.7507    3.7809 H   0  0  0  0  0  0  0  0  0  0  0  0
   -3.1317    1.3224    1.3015 H   0  0  0  0  0  0  0  0  0  0  0  0
   -1.5198    3.6949    2.4169 H   0  0  0  0  0  0  0  0  0  0  0  0
   -2.1594    3.5799    0.7729 H   0  0  0  0  0  0  0  0  0  0  0  0
   -3.2690    3.6789    2.1530 H   0  0  0  0  0  0  0  0  0  0  0  0
   -0.8700    1.1124    0.0921 N   0  0  0  0  0  0  0  0  0  0  0  0
    0.3073    0.6116   -0.5716 C   0  0  2  0  0  0  0  0  0  0  0  0
    0.2323    1.0640   -2.0255 C   0  0  0  0  0  0  0  0  0  0  0  0
    1.2012    1.5051   -2.6399 O   0  0  0  0  0  0  0  0  0  0  0  0
    0.4104   -0.9159   -0.4934 C   0  0  0  0  0  0  0  0  0  0  0  0
    0.6442   -1.4140    0.9119 C   0  0  0  0  0  0  0  0  0  0  0  0
    1.9292   -1.3956    1.4543 C   0  0  0  0  0  0  0  0  0  0  0  0
   -0.4254   -1.8926    1.6686 C   0  0  0  0  0  0  0  0  0  0  0  0
    2.1445   -1.8558    2.7534 C   0  0  0  0  0  0  0  0  0  0  0  0
   -0.2101   -2.3529    2.9676 C   0  0  0  0  0  0  0  0  0  0  0  0
    1.0749   -2.3344    3.5100 C   0  0  0  0  0  0  0  0  0  0  0  0
   -1.6531    1.4091   -0.4852 H   0  0  0  0  0  0  0  0  0  0  0  0
    1.1663    1.0933   -0.0897 H   0  0  0  0  0  0  0  0  0  0  0  0
    1.2122   -1.2773   -1.1516 H   0  0  0  0  0  0  0  0  0  0  0  0
   -0.5074   -1.3823   -0.8752 H   0  0  0  0  0  0  0  0  0  0  0  0
    2.7685   -1.0242    0.8722 H   0  0  0  0  0  0  0  0  0  0  0  0
   -1.4300   -1.9106    1.2543 H   0  0  0  0  0  0  0  0  0  0  0  0
    3.1453   -1.8424    3.1751 H   0  0  0  0  0  0  0  0  0  0  0  0
   -1.0429   -2.7264    3.5560 H   0  0  0  0  0  0  0  0  0  0  0  0
    1.2430   -2.6940    4.5210 H   0  0  0  0  0  0  0  0  0  0  0  0
   -1.0313    0.8691   -2.5657 N   0  0  0  0  0  0  0  0  0  0  0  0
   -1.3679    1.1921   -3.9336 C   0  0  2  0  0  0  0  0  0  0  0  0
   -0.8986    2.6143   -4.2103 C   0  0  0  0  0  0  0  0  0  0  0  0
   -0.7123    3.4438   -3.3224 O   0  0  0  0  0  0  0  0  0  0  0  0
   -2.8618    1.0544   -4.1831 C   0  0  0  0  0  0  0  0  0  0  0  0
   -1.7559    0.4799   -1.9697 H   0  0  0  0  0  0  0  0  0  0  0  0
   -0.8129    0.4936   -4.5693 H   0  0  0  0  0  0  0  0  0  0  0  0
   -3.4344    1.7466   -3.5550 H   0  0  0  0  0  0  0  0  0  0  0  0
   -3.1114    1.2717   -5.2269 H   0  0  0  0  0  0  0  0  0  0  0  0
   -3.2030    0.0389   -3.9551 H   0  0  0  0  0  0  0  0  0  0  0  0
   -0.7539    2.8613   -5.5683 N   0  0  0  0  0  0  0  0  0  0  0  0
   -0.3312    4.1411   -6.0872 C   0  0  0  0  0  0  0  0  0  0  0  0
   -0.9116    2.1092   -6.2325 H   0  0  0  0  0  0  0  0  0  0  0  0
   -1.2151    4.7563   -6.3118 H   0  0  0  0  0  0  0  0  0  0  0  0
    0.2909    4.6530   -5.3383 H   0  0  0  0  0  0  0  0  0  0  0  0
    0.2527    3.9890   -7.0069 H   0  0  0  0  0  0  0  0  0  0  0  0
 25 27  1  0  0  0  0
 26 27  2  0  0  0  0
 23 25  2  0  0  0  0
 24 26  1  0  0  0  0
 22 23  1  0  0  0  0
 22 24  2  0  0  0  0
 21 22  1  0  0  0  0
  1  3  1  0  0  0  0
  1  7  1  0  0  0  0
  1  2  2  0  0  0  0
 38 39  1  0  0  0  0
 39 47  1  0  0  0  0
 39 40  2  0  0  0  0
  8  9  1  0  0  0  0
  9 17  1  0  0  0  0
  9 10  2  0  0  0  0
 18 19  1  0  0  0  0
 19 37  1  0  0  0  0
 19 20  2  0  0  0  0
 38 41  1  0  0  0  0
  8 11  1  0  0  0  0
 47 48  1  0  0  0  0
 18 21  1  0  0  0  0
 37 38  1  0  0  0  0
  7  8  1  0  0  0  0
 17 18  1  0  0  0  0
 27 36  1  0  0  0  0
 25 34  1  0  0  0  0
 26 35  1  0  0  0  0
 23 32  1  0  0  0  0
 24 33  1  0  0  0  0
  3  4  1  0  0  0  0
  3  5  1  0  0  0  0
  3  6  1  0  0  0  0
 41 44  1  0  0  0  0
 41 45  1  0  0  0  0
 41 46  1  0  0  0  0
 11 14  1  0  0  0  0
 11 15  1  0  0  0  0
 11 16  1  0  0  0  0
 48 50  1  0  0  0  0
 48 51  1  0  0  0  0
 48 52  1  0  0  0  0
 21 30  1  0  0  0  0
 21 31  1  0  0  0  0
 38 43  1  0  0  0  0
  8 13  1  0  0  0  0
 18 29  1  0  0  0  0
 47 49  1  0  0  0  0
  7 12  1  0  0  0  0
 37 42  1  0  0  0  0
 17 28  1  0  0  0  0
M  END
$$$$

  -OEChem-05262214473D

 52 52  0     1  0  0  0  0  0999 V2000
   -1.8248    0.3424    3.9102 C   0  0  0  0  0  0  0  0  0  0  0  0
   -0.8774   -0.2723    3.4345 O   0  0  0  0  0  0  0  0  0  0  0  0
   -2.2566    0.0600    5.3109 C   0  0  0  0  0  0  0  0  0  0  0  0
   -3.0163   -0.7363    5.3643 H   0  0  0  0  0  0  0  0  0  0  0  0
   -1.4254   -0.2876    5.9452 H   0  0  0  0  0  0  0  0  0  0  0  0
   -2.6947    0.9149    5.8505 H   0  0  0  0  0  0  0  0  0  0  0  0
   -2.5745    1.3149    3.2691 N   0  0  0  0  0  0  0  0  0  0  0  0
   -2.3276    1.7409    1.9167 C   0  0  2  0  0  0  0  0  0  0  0  0
   -0.9926    1.1555    1.4755 C   0  0  0  0  0  0  0  0  0  0  0  0
   -0.1206    0.8028    2.2668 O   0  0  0  0  0  0  0  0  0  0  0  0
   -2.3188    3.2577    1.8072 C   0  0  0  0  0  0  0  0  0  0  0  0
   -3.3395    1.7507    3.7809 H   0  0  0  0  0  0  0  0  0  0  0  0
   -3.1317    1.3224    1.3015 H   0  0  0  0  0  0  0  0  0  0  0  0
   -1.5198    3.6949    2.4169 H   0  0  0  0  0  0  0  0  0  0  0  0
   -2.1594    3.5799    0.7729 H   0  0  0  0  0  0  0  0  0  0  0  0
   -3.2690    3.6789    2.1530 H   0  0  0  0  0  0  0  0  0  0  0  0
   -0.8700    1.1124    0.0921 N   0  0  0  0  0  0  0  0  0  0  0  0
    0.3073    0.6116   -0.5716 C   0  0  2  0  0  0  0  0  0  0  0  0
    0.2323    1.0640   -2.0255 C   0  0  0  0  0  0  0  0  0  0  0  0
    1.2288    1.2498   -2.7207 O   0  0  0  0  0  0  0  0  0  0  0  0
    0.4104   -0.9159   -0.4934 C   0  0  0  0  0  0  0  0  0  0  0  0
    0.6442   -1.4140    0.9119 C   0  0  0  0  0  0  0  0  0  0  0  0
    1.9292   -1.3956    1.4543 C   0  0  0  0  0  0  0  0  0  0  0  0
   -0.4254   -1.8926    1.6686 C   0  0  0  0  0  0  0  0  0  0  0  0
    2.1445   -1.8558    2.7534 C   0  0  0  0  0  0  0  0  0  0  0  0
   -0.2101   -2.3529    2.9676 C   0  0  0  0  0  0  0  0  0  0  0  0
    1.0749   -2.3344    3.5100 C   0  0  0  0  0  0  0  0  0  0  0  0
   -1.6531    1.4091   -0.4852 H   0  0  0  0  0  0  0  0  0  0  0  0
    1.1663    1.0933   -0.0897 H   0  0  0  0  0  0  0  0  0  0  0  0
    1.2122   -1.2773   -1.1516 H   0  0  0  0  0  0  0  0  0  0  0  0
   -0.5074   -1.3823   -0.8752 H   0  0  0  0  0  0  0  0  0  0  0  0
    2.7685   -1.0242    0.8722 H   0  0  0  0  0  0  0  0  0  0  0  0
   -1.4300   -1.9106    1.2543 H   0  0  0  0  0  0  0  0  0  0  0  0
    3.1453   -1.8424    3.1751 H   0  0  0  0  0  0  0  0  0  0  0  0
   -1.0429   -2.7264    3.5560 H   0  0  0  0  0  0  0  0  0  0  0  0
    1.2430   -2.6940    4.5210 H   0  0  0  0  0  0  0  0  0  0  0  0
   -1.0787    1.1860   -2.4647 N   0  0  0  0  0  0  0  0  0  0  0  0
   -1.4316    1.5780   -3.8103 C   0  0  2  0  0  0  0  0  0  0  0  0
   -0.6496    2.8391   -4.1532 C   0  0  0  0  0  0  0  0  0  0  0  0
   -0.1957    3.5995   -3.3006 O   0  0  0  0  0  0  0  0  0  0  0  0
   -2.9281    1.8133   -3.9435 C   0  0  0  0  0  0  0  0  0  0  0  0
   -1.8278    0.9900   -1.8073 H   0  0  0  0  0  0  0  0  0  0  0  0
   -1.1174    0.7619   -4.4701 H   0  0  0  0  0  0  0  0  0  0  0  0
   -3.2616    2.6275   -3.2898 H   0  0  0  0  0  0  0  0  0  0  0  0
   -3.1976    2.0824   -4.9702 H   0  0  0  0  0  0  0  0  0  0  0  0
   -3.4901    0.9144   -3.6679 H   0  0  0  0  0  0  0  0  0  0  0  0
   -0.5554    3.0383   -5.5234 N   0  0  0  0  0  0  0  0  0  0  0  0
    0.1274    4.1723   -6.1012 C   0  0  0  0  0  0  0  0  0  0  0  0
   -0.9452    2.3466   -6.1569 H   0  0  0  0  0  0  0  0  0  0  0  0
   -0.5924    4.9862   -6.2724 H   0  0  0  0  0  0  0  0  0  0  0  0
    0.9133    4.5167   -5.4128 H   0  0  0  0  0  0  0  0  0  0  0  0
    0.5820    3.8776   -7.0586 H   0  0  0  0  0  0  0  0  0  0  0  0
 25 27  1  0  0  0  0
 26 27  2  0  0  0  0
 23 25  2  0  0  0  0
 24 26  1  0  0  0  0
 22 23  1  0  0  0  0
 22 24  2  0  0  0  0
 21 22  1  0  0  0  0
  1  3  1  0  0  0  0
  1  7  1  0  0  0  0
  1  2  2  0  0  0  0
 38 39  1  0  0  0  0
 39 47  1  0  0  0  0
 39 40  2  0  0  0  0
  8  9  1  0  0  0  0
  9 17  1  0  0  0  0
  9 10  2  0  0  0  0
 18 19  1  0  0  0  0
 19 37  1  0  0  0  0
 19 20  2  0  0  0  0
 38 41  1  0  0  0  0
  8 11  1  0  0  0  0
 47 48  1  0  0  0  0
 18 21  1  0  0  0  0
 37 38  1  0  0  0  0
  7  8  1  0  0  0  0
 17 18  1  0  0  0  0
 27 36  1  0  0  0  0
 25 34  1  0  0  0  0
 26 35  1  0  0  0  0
 23 32  1  0  0  0  0
 24 33  1  0  0  0  0
  3  4  1  0  0  0  0
  3  5  1  0  0  0  0
  3  6  1  0  0  0  0
 41 44  1  0  0  0  0
 41 45  1  0  0  0  0
 41 46  1  0  0  0  0
 11 14  1  0  0  0  0
 11 15  1  0  0  0  0
 11 16  1  0  0  0  0
 48 50  1  0  0  0  0
 48 51  1  0  0  0  0
 48 52  1  0  0  0  0
 21 30  1  0  0  0  0
 21 31  1  0  0  0  0
 38 43  1  0  0  0  0
  8 13  1  0  0  0  0
 18 29  1  0  0  0  0
 47 49  1  0  0  0  0
  7 12  1  0  0  0  0
 37 42  1  0  0  0  0
 17 28  1  0  0  0  0
M  END
$$$$

  -OEChem-05262214473D

 52 52  0     1  0  0  0  0  0999 V2000
   -1.8248    0.3424    3.9102 C   0  0  0  0  0  0  0  0  0  0  0  0
   -0.8774   -0.2723    3.4345 O   0  0  0  0  0  0  0  0  0  0  0  0
   -2.2566    0.0600    5.3109 C   0  0  0  0  0  0  0  0  0  0  0  0
   -3.0163   -0.7363    5.3643 H   0  0  0  0  0  0  0  0  0  0  0  0
   -1.4254   -0.2876    5.9452 H   0  0  0  0  0  0  0  0  0  0  0  0
   -2.6947    0.9149    5.8505 H   0  0  0  0  0  0  0  0  0  0  0  0
   -2.5745    1.3149    3.2691 N   0  0  0  0  0  0  0  0  0  0  0  0
   -2.3276    1.7409    1.9167 C   0  0  2  0  0  0  0  0  0  0  0  0
   -0.9926    1.1555    1.4755 C   0  0  0  0  0  0  0  0  0  0  0  0
   -0.1206    0.8028    2.2668 O   0  0  0  0  0  0  0  0  0  0  0  0
   -2.3188    3.2577    1.8072 C   0  0  0  0  0  0  0  0  0  0  0  0
   -3.3395    1.7507    3.7809 H   0  0  0  0  0  0  0  0  0  0  0  0
   -3.1317    1.3224    1.3015 H   0  0  0  0  0  0  0  0  0  0  0  0
   -1.5198    3.6949    2.4169 H   0  0  0  0  0  0  0  0  0  0  0  0
   -2.1594    3.5799    0.7729 H   0  0  0  0  0  0  0  0  0  0  0  0
   -3.2690    3.6789    2.1530 H   0  0  0  0  0  0  0  0  0  0  0  0
   -0.8700    1.1124    0.0921 N   0  0  0  0  0  0  0  0  0  0  0  0
    0.3073    0.6116   -0.5716 C   0  0  2  0  0  0  0  0  0  0  0  0
    0.2323    1.0640   -2.0255 C   0  0  0  0  0  0  0  0  0  0  0  0
    1.1862    0.9954   -2.7977 O   0  0  0  0  0  0  0  0  0  0  0  0
    0.4104   -0.9159   -0.4934 C   0  0  0  0  0  0  0  0  0  0  0  0
    0.6442   -1.4140    0.9119 C   0  0  0  0  0  0  0  0  0  0  0  0
    1.9292   -1.3956    1.4543 C   0  0  0  0  0  0  0  0  0  0  0  0
   -0.4254   -1.8926    1.6686 C   0  0  0  0  0  0  0  0  0  0  0  0
    2.1445   -1.8558    2.7534 C   0  0  0  0  0  0  0  0  0  0  0  0
   -0.2101   -2.3529    2.9676 C   0  0  0  0  0  0  0  0  0  0  0  0
    1.0749   -2.3344    3.5100 C   0  0  0  0  0  0  0  0  0  0  0  0
   -1.6531    1.4091   -0.4852 H   0  0  0  0  0  0  0  0  0  0  0  0
    1.1663    1.0933   -0.0897 H   0  0  0  0  0  0  0  0  0  0  0  0
    1.2122   -1.2773   -1.1516 H   0  0  0  0  0  0  0  0  0  0  0  0
   -0.5074   -1.3823   -0.8752 H   0  0  0  0  0  0  0  0  0  0  0  0
    2.7685   -1.0242    0.8722 H   0  0  0  0  0  0  0  0  0  0  0  0
   -1.4300   -1.9106    1.2543 H   0  0  0  0  0  0  0  0  0  0  0  0
    3.1453   -1.8424    3.1751 H   0  0  0  0  0  0  0  0  0  0  0  0
   -1.0429   -2.7264    3.5560 H   0  0  0  0  0  0  0  0  0  0  0  0
    1.2430   -2.6940    4.5210 H   0  0  0  0  0  0  0  0  0  0  0  0
   -1.0385    1.5051   -2.3675 N   0  0  0  0  0  0  0  0  0  0  0  0
   -1.3884    1.9680   -3.6911 C   0  0  2  0  0  0  0  0  0  0  0  0
   -0.3492    2.9954   -4.1200 C   0  0  0  0  0  0  0  0  0  0  0  0
    0.3435    3.6226   -3.3213 O   0  0  0  0  0  0  0  0  0  0  0  0
   -2.7865    2.5657   -3.7167 C   0  0  0  0  0  0  0  0  0  0  0  0
   -1.7589    1.5025   -1.6514 H   0  0  0  0  0  0  0  0  0  0  0  0
   -1.3376    1.0976   -4.3543 H   0  0  0  0  0  0  0  0  0  0  0  0
   -2.8568    3.4391   -3.0581 H   0  0  0  0  0  0  0  0  0  0  0  0
   -3.0611    2.8899   -4.7260 H   0  0  0  0  0  0  0  0  0  0  0  0
   -3.5292    1.8346   -3.3795 H   0  0  0  0  0  0  0  0  0  0  0  0
   -0.3166    3.1610   -5.4976 N   0  0  0  0  0  0  0  0  0  0  0  0
    0.5771    4.0890   -6.1503 C   0  0  0  0  0  0  0  0  0  0  0  0
   -0.9131    2.5852   -6.0843 H   0  0  0  0  0  0  0  0  0  0  0  0
    0.0688    5.0552   -6.2851 H   0  0  0  0  0  0  0  0  0  0  0  0
    1.4750    4.2305   -5.5309 H   0  0  0  0  0  0  0  0  0  0  0  0
    0.8685    3.6881   -7.1323 H   0  0  0  0  0  0  0  0  0  0  0  0
 25 27  1  0  0  0  0
 26 27  2  0  0  0  0
 23 25  2  0  0  0  0
 24 26  1  0  0  0  0
 22 23  1  0  0  0  0
 22 24  2  0  0  0  0
 21 22  1  0  0  0  0
  1  3  1  0  0  0  0
  1  7  1  0  0  0  0
  1  2  2  0  0  0  0
 38 39  1  0  0  0  0
 39 47  1  0  0  0  0
 39 40  2  0  0  0  0
  8  9  1  0  0  0  0
  9 17  1  0  0  0  0
  9 10  2  0  0  0  0
 18 19  1  0  0  0  0
 19 37  1  0  0  0  0
 19 20  2  0  0  0  0
 38 41  1  0  0  0  0
  8 11  1  0  0  0  0
 47 48  1  0  0  0  0
 18 21  1  0  0  0  0
 37 38  1  0  0  0  0
  7  8  1  0  0  0  0
 17 18  1  0  0  0  0
 27 36  1  0  0  0  0
 25 34  1  0  0  0  0
 26 35  1  0  0  0  0
 23 32  1  0  0  0  0
 24 33  1  0  0  0  0
  3  4  1  0  0  0  0
  3  5  1  0  0  0  0
  3  6  1  0  0  0  0
 41 44  1  0  0  0  0
 41 45  1  0  0  0  0
 41 46  1  0  0  0  0
 11 14  1  0  0  0  0
 11 15  1  0  0  0  0
 11 16  1  0  0  0  0
 48 50  1  0  0  0  0
 48 51  1  0  0  0  0
 48 52  1  0  0  0  0
 21 30  1  0  0  0  0
 21 31  1  0  0  0  0
 38 43  1  0  0  0  0
  8 13  1  0  0  0  0
 18 29  1  0  0  0  0
 47 49  1  0  0  0  0
  7 12  1  0  0  0  0
 37 42  1  0  0  0  0
 17 28  1  0  0  0  0
M  END
$$$$

  -OEChem-05262214473D

 52 52  0     1  0  0  0  0  0999 V2000
   -1.8248    0.3424    3.9102 C   0  0  0  0  0  0  0  0  0  0  0  0
   -0.8774   -0.2723    3.4345 O   0  0  0  0  0  0  0  0  0  0  0  0
   -2.2566    0.0600    5.3109 C   0  0  0  0  0  0  0  0  0  0  0  0
   -3.0163   -0.7363    5.3643 H   0  0  0  0  0  0  0  0  0  0  0  0
   -1.4254   -0.2876    5.9452 H   0  0  0  0  0  0  0  0  0  0  0  0
   -2.6947    0.9149    5.8505 H   0  0  0  0  0  0  0  0  0  0  0  0
   -2.5745    1.3149    3.2691 N   0  0  0  0  0  0  0  0  0  0  0  0
   -2.3276    1.7409    1.9167 C   0  0  2  0  0  0  0  0  0  0  0  0
   -0.9926    1.1555    1.4755 C   0  0  0  0  0  0  0  0  0  0  0  0
   -0.1206    0.8028    2.2668 O   0  0  0  0  0  0  0  0  0  0  0  0
   -2.3188    3.2577    1.8072 C   0  0  0  0  0  0  0  0  0  0  0  0
   -3.3395    1.7507    3.7809 H   0  0  0  0  0  0  0  0  0  0  0  0
   -3.1317    1.3224    1.3015 H   0  0  0  0  0  0  0  0  0  0  0  0
   -1.5198    3.6949    2.4169 H   0  0  0  0  0  0  0  0  0  0  0  0
   -2.1594    3.5799    0.7729 H   0  0  0  0  0  0  0  0  0  0  0  0
   -3.2690    3.6789    2.1530 H   0  0  0  0  0  0  0  0  0  0  0  0
   -0.8700    1.1124    0.0921 N   0  0  0  0  0  0  0  0  0  0  0  0
    0.3073    0.6116   -0.5716 C   0  0  2  0  0  0  0  0  0  0  0  0
    0.2323    1.0640   -2.0255 C   0  0  0  0  0  0  0  0  0  0  0  0
    1.0763    0.7592   -2.8655 O   0  0  0  0  0  0  0  0  0  0  0  0
    0.4104   -0.9159   -0.4934 C   0  0  0  0  0  0  0  0  0  0  0  0
    0.6442   -1.4140    0.9119 C   0  0  0  0  0  0  0  0  0  0  0  0
    1.9292   -1.3956    1.4543 C   0  0  0  0  0  0  0  0  0  0  0  0
   -0.4254   -1.8926    1.6686 C   0  0  0  0  0  0  0  0  0  0  0  0
    2.1445   -1.8558    2.7534 C   0  0  0  0  0  0  0  0  0  0  0  0
   -0.2101   -2.3529    2.9676 C   0  0  0  0  0  0  0  0  0  0  0  0
    1.0749   -2.3344    3.5100 C   0  0  0  0  0  0  0  0  0  0  0  0
   -1.6531    1.4091   -0.4852 H   0  0  0  0  0  0  0  0  0  0  0  0
    1.1663    1.0933   -0.0897 H   0  0  0  0  0  0  0  0  0  0  0  0
    1.2122   -1.2773   -1.1516 H   0  0  0  0  0  0  0  0  0  0  0  0
   -0.5074   -1.3823   -0.8752 H   0  0  0  0  0  0  0  0  0  0  0  0
    2.7685   -1.0242    0.8722 H   0  0  0  0  0  0  0  0  0  0  0  0
   -1.4300   -1.9106    1.2543 H   0  0  0  0  0  0  0  0  0  0  0  0
    3.1453   -1.8424    3.1751 H   0  0  0  0  0  0  0  0  0  0  0  0
   -1.0429   -2.7264    3.5560 H   0  0  0  0  0  0  0  0  0  0  0  0
    1.2430   -2.6940    4.5210 H   0  0  0  0  0  0  0  0  0  0  0  0
   -0.9135    1.8047   -2.2807 N   0  0  0  0  0  0  0  0  0  0  0  0
   -1.2412    2.3356   -3.5843 C   0  0  2  0  0  0  0  0  0  0  0  0
   -0.0179    3.0728   -4.1131 C   0  0  0  0  0  0  0  0  0  0  0  0
    0.8683    3.5116   -3.3829 O   0  0  0  0  0  0  0  0  0  0  0  0
   -2.4466    3.2605   -3.5181 C   0  0  0  0  0  0  0  0  0  0  0  0
   -1.5539    1.9825   -1.5126 H   0  0  0  0  0  0  0  0  0  0  0  0
   -1.4585    1.4776   -4.2298 H   0  0  0  0  0  0  0  0  0  0  0  0
   -2.2477    4.1262   -2.8758 H   0  0  0  0  0  0  0  0  0  0  0  0
   -2.7111    3.6393   -4.5108 H   0  0  0  0  0  0  0  0  0  0  0  0
   -3.3177    2.7368   -3.1097 H   0  0  0  0  0  0  0  0  0  0  0  0
   -0.0536    3.2208   -5.4925 N   0  0  0  0  0  0  0  0  0  0  0  0
    0.9871    3.8970   -6.2313 C   0  0  0  0  0  0  0  0  0  0  0  0
   -0.8177    2.8086   -6.0197 H   0  0  0  0  0  0  0  0  0  0  0  0
    0.7235    4.9584   -6.3490 H   0  0  0  0  0  0  0  0  0  0  0  0
    1.9379    3.8139   -5.6844 H   0  0  0  0  0  0  0  0  0  0  0  0
    1.0929    3.4334   -7.2232 H   0  0  0  0  0  0  0  0  0  0  0  0
 25 27  1  0  0  0  0
 26 27  2  0  0  0  0
 23 25  2  0  0  0  0
 24 26  1  0  0  0  0
 22 23  1  0  0  0  0
 22 24  2  0  0  0  0
 21 22  1  0  0  0  0
  1  3  1  0  0  0  0
  1  7  1  0  0  0  0
  1  2  2  0  0  0  0
 38 39  1  0  0  0  0
 39 47  1  0  0  0  0
 39 40  2  0  0  0  0
  8  9  1  0  0  0  0
  9 17  1  0  0  0  0
  9 10  2  0  0  0  0
 18 19  1  0  0  0  0
 19 37  1  0  0  0  0
 19 20  2  0  0  0  0
 38 41  1  0  0  0  0
  8 11  1  0  0  0  0
 47 48  1  0  0  0  0
 18 21  1  0  0  0  0
 37 38  1  0  0  0  0
  7  8  1  0  0  0  0
 17 18  1  0  0  0  0
 27 36  1  0  0  0  0
 25 34  1  0  0  0  0
 26 35  1  0  0  0  0
 23 32  1  0  0  0  0
 24 33  1  0  0  0  0
  3  4  1  0  0  0  0
  3  5  1  0  0  0  0
  3  6  1  0  0  0  0
 41 44  1  0  0  0  0
 41 45  1  0  0  0  0
 41 46  1  0  0  0  0
 11 14  1  0  0  0  0
 11 15  1  0  0  0  0
 11 16  1  0  0  0  0
 48 50  1  0  0  0  0
 48 51  1  0  0  0  0
 48 52  1  0  0  0  0
 21 30  1  0  0  0  0
 21 31  1  0  0  0  0
 38 43  1  0  0  0  0
  8 13  1  0  0  0  0
 18 29  1  0  0  0  0
 47 49  1  0  0  0  0
  7 12  1  0  0  0  0
 37 42  1  0  0  0  0
 17 28  1  0  0  0  0
M  END
$$$$

  -OEChem-05262214473D

 52 52  0     1  0  0  0  0  0999 V2000
   -1.8248    0.3424    3.9102 C   0  0  0  0  0  0  0  0  0  0  0  0
   -0.8774   -0.2723    3.4345 O   0  0  0  0  0  0  0  0  0  0  0  0
   -2.2566    0.0600    5.3109 C   0  0  0  0  0  0  0  0  0  0  0  0
   -3.0163   -0.7363    5.3643 H   0  0  0  0  0  0  0  0  0  0  0  0
   -1.4254   -0.2876    5.9452 H   0  0  0  0  0  0  0  0  0  0  0  0
   -2.6947    0.9149    5.8505 H   0  0  0  0  0  0  0  0  0  0  0  0
   -2.5745    1.3149    3.2691 N   0  0  0  0  0  0  0  0  0  0  0  0
   -2.3276    1.7409    1.9167 C   0  0  2  0  0  0  0  0  0  0  0  0
   -0.9926    1.1555    1.4755 C   0  0  0  0  0  0  0  0  0  0  0  0
   -0.1206    0.8028    2.2668 O   0  0  0  0  0  0  0  0  0  0  0  0
   -2.3188    3.2577    1.8072 C   0  0  0  0  0  0  0  0  0  0  0  0
   -3.3395    1.7507    3.7809 H   0  0  0  0  0  0  0  0  0  0  0  0
   -3.1317    1.3224    1.3015 H   0  0  0  0  0  0  0  0  0  0  0  0
   -1.5198    3.6949    2.4169 H   0  0  0  0  0  0  0  0  0  0  0  0
   -2.1594    3.5799    0.7729 H   0  0  0  0  0  0  0  0  0  0  0  0
   -3.2690    3.6789    2.1530 H   0  0  0  0  0  0  0  0  0  0  0  0
   -0.8700    1.1124    0.0921 N   0  0  0  0  0  0  0  0  0  0  0  0
    0.3073    0.6116   -0.5716 C   0  0  2  0  0  0  0  0  0  0  0  0
    0.2323    1.0640   -2.0255 C   0  0  0  0  0  0  0  0  0  0  0  0
    0.9066    0.5574   -2.9196 O   0  0  0  0  0  0  0  0  0  0  0  0
    0.4104   -0.9159   -0.4934 C   0  0  0  0  0  0  0  0  0  0  0  0
    0.6442   -1.4140    0.9119 C   0  0  0  0  0  0  0  0  0  0  0  0
    1.9292   -1.3956    1.4543 C   0  0  0  0  0  0  0  0  0  0  0  0
   -0.4254   -1.8926    1.6686 C   0  0  0  0  0  0  0  0  0  0  0  0
    2.1445   -1.8558    2.7534 C   0  0  0  0  0  0  0  0  0  0  0  0
   -0.2101   -2.3529    2.9676 C   0  0  0  0  0  0  0  0  0  0  0  0
    1.0749   -2.3344    3.5100 C   0  0  0  0  0  0  0  0  0  0  0  0
   -1.6531    1.4091   -0.4852 H   0  0  0  0  0  0  0  0  0  0  0  0
    1.1663    1.0933   -0.0897 H   0  0  0  0  0  0  0  0  0  0  0  0
    1.2122   -1.2773   -1.1516 H   0  0  0  0  0  0  0  0  0  0  0  0
   -0.5074   -1.3823   -0.8752 H   0  0  0  0  0  0  0  0  0  0  0  0
    2.7685   -1.0242    0.8722 H   0  0  0  0  0  0  0  0  0  0  0  0
   -1.4300   -1.9106    1.2543 H   0  0  0  0  0  0  0  0  0  0  0  0
    3.1453   -1.8424    3.1751 H   0  0  0  0  0  0  0  0  0  0  0  0
   -1.0429   -2.7264    3.5560 H   0  0  0  0  0  0  0  0  0  0  0  0
    1.2430   -2.6940    4.5210 H   0  0  0  0  0  0  0  0  0  0  0  0
   -0.7121    2.0642   -2.2103 N   0  0  0  0  0  0  0  0  0  0  0  0
   -1.0001    2.6557   -3.4972 C   0  0  2  0  0  0  0  0  0  0  0  0
    0.3217    3.0658   -4.1328 C   0  0  0  0  0  0  0  0  0  0  0  0
    1.3432    3.2740   -3.4813 O   0  0  0  0  0  0  0  0  0  0  0  0
   -1.9315    3.8502   -3.3612 C   0  0  0  0  0  0  0  0  0  0  0  0
   -1.2267    2.3973   -1.4004 H   0  0  0  0  0  0  0  0  0  0  0  0
   -1.4720    1.8761   -4.1051 H   0  0  0  0  0  0  0  0  0  0  0  0
   -1.4758    4.6418   -2.7552 H   0  0  0  0  0  0  0  0  0  0  0  0
   -2.1715    4.2796   -4.3394 H   0  0  0  0  0  0  0  0  0  0  0  0
   -2.8700    3.5595   -2.8768 H   0  0  0  0  0  0  0  0  0  0  0  0
    0.2156    3.2138   -5.5086 N   0  0  0  0  0  0  0  0  0  0  0  0
    1.3295    3.6092   -6.3385 C   0  0  0  0  0  0  0  0  0  0  0  0
   -0.6655    3.0017   -5.9675 H   0  0  0  0  0  0  0  0  0  0  0  0
    1.3271    4.7025   -6.4598 H   0  0  0  0  0  0  0  0  0  0  0  0
    2.2705    3.2952   -5.8630 H   0  0  0  0  0  0  0  0  0  0  0  0
    1.2397    3.1308   -7.3249 H   0  0  0  0  0  0  0  0  0  0  0  0
 25 27  1  0  0  0  0
 26 27  2  0  0  0  0
 23 25  2  0  0  0  0
 24 26  1  0  0  0  0
 22 23  1  0  0  0  0
 22 24  2  0  0  0  0
 21 22  1  0  0  0  0
  1  3  1  0  0  0  0
  1  7  1  0  0  0  0
  1  2  2  0  0  0  0
 38 39  1  0  0  0  0
 39 47  1  0  0  0  0
 39 40  2  0  0  0  0
  8  9  1  0  0  0  0
  9 17  1  0  0  0  0
  9 10  2  0  0  0  0
 18 19  1  0  0  0  0
 19 37  1  0  0  0  0
 19 20  2  0  0  0  0
 38 41  1  0  0  0  0
  8 11  1  0  0  0  0
 47 48  1  0  0  0  0
 18 21  1  0  0  0  0
 37 38  1  0  0  0  0
  7  8  1  0  0  0  0
 17 18  1  0  0  0  0
 27 36  1  0  0  0  0
 25 34  1  0  0  0  0
 26 35  1  0  0  0  0
 23 32  1  0  0  0  0
 24 33  1  0  0  0  0
  3  4  1  0  0  0  0
  3  5  1  0  0  0  0
  3  6  1  0  0  0  0
 41 44  1  0  0  0  0
 41 45  1  0  0  0  0
 41 46  1  0  0  0  0
 11 14  1  0  0  0  0
 11 15  1  0  0  0  0
 11 16  1  0  0  0  0
 48 50  1  0  0  0  0
 48 51  1  0  0  0  0
 48 52  1  0  0  0  0
 21 30  1  0  0  0  0
 21 31  1  0  0  0  0
 38 43  1  0  0  0  0
  8 13  1  0  0  0  0
 18 29  1  0  0  0  0
 47 49  1  0  0  0  0
  7 12  1  0  0  0  0
 37 42  1  0  0  0  0
 17 28  1  0  0  0  0
M  END
$$$$

  -OEChem-05262214473D

 52 52  0     1  0  0  0  0  0999 V2000
   -1.8248    0.3424    3.9102 C   0  0  0  0  0  0  0  0  0  0  0  0
   -0.8774   -0.2723    3.4345 O   0  0  0  0  0  0  0  0  0  0  0  0
   -2.2566    0.0600    5.3109 C   0  0  0  0  0  0  0  0  0  0  0  0
   -3.0163   -0.7363    5.3643 H   0  0  0  0  0  0  0  0  0  0  0  0
   -1.4254   -0.2876    5.9452 H   0  0  0  0  0  0  0  0  0  0  0  0
   -2.6947    0.9149    5.8505 H   0  0  0  0  0  0  0  0  0  0  0  0
   -2.5745    1.3149    3.2691 N   0  0  0  0  0  0  0  0  0  0  0  0
   -2.3276    1.7409    1.9167 C   0  0  2  0  0  0  0  0  0  0  0  0
   -0.9926    1.1555    1.4755 C   0  0  0  0  0  0  0  0  0  0  0  0
   -0.1206    0.8028    2.2668 O   0  0  0  0  0  0  0  0  0  0  0  0
   -2.3188    3.2577    1.8072 C   0  0  0  0  0  0  0  0  0  0  0  0
   -3.3395    1.7507    3.7809 H   0  0  0  0  0  0  0  0  0  0  0  0
   -3.1317    1.3224    1.3015 H   0  0  0  0  0  0  0  0  0  0  0  0
   -1.5198    3.6949    2.4169 H   0  0  0  0  0  0  0  0  0  0  0  0
   -2.1594    3.5799    0.7729 H   0  0  0  0  0  0  0  0  0  0  0  0
   -3.2690    3.6789    2.1530 H   0  0  0  0  0  0  0  0  0  0  0  0
   -0.8700    1.1124    0.0921 N   0  0  0  0  0  0  0  0  0  0  0  0
    0.3073    0.6116   -0.5716 C   0  0  2  0  0  0  0  0  0  0  0  0
    0.2323    1.0640   -2.0255 C   0  0  0  0  0  0  0  0  0  0  0  0
    0.6888    0.4035   -2.9562 O   0  0  0  0  0  0  0  0  0  0  0  0
    0.4104   -0.9159   -0.4934 C   0  0  0  0  0  0  0  0  0  0  0  0
    0.6442   -1.4140    0.9119 C   0  0  0  0  0  0  0  0  0  0  0  0
    1.9292   -1.3956    1.4543 C   0  0  0  0  0  0  0  0  0  0  0  0
   -0.4254   -1.8926    1.6686 C   0  0  0  0  0  0  0  0  0  0  0  0
    2.1445   -1.8558    2.7534 C   0  0  0  0  0  0  0  0  0  0  0  0
   -0.2101   -2.3529    2.9676 C   0  0  0  0  0  0  0  0  0  0  0  0
    1.0749   -2.3344    3.5100 C   0  0  0  0  0  0  0  0  0  0  0  0
   -1.6531    1.4091   -0.4852 H   0  0  0  0  0  0  0  0  0  0  0  0
    1.1663    1.0933   -0.0897 H   0  0  0  0  0  0  0  0  0  0  0  0
    1.2122   -1.2773   -1.1516 H   0  0  0  0  0  0  0  0  0  0  0  0
   -0.5074   -1.3823   -0.8752 H   0  0  0  0  0  0  0  0  0  0  0  0
    2.7685   -1.0242    0.8722 H   0  0  0  0  0  0  0  0  0  0  0  0
   -1.4300   -1.9106    1.2543 H   0  0  0  0  0  0  0  0  0  0  0  0
    3.1453   -1.8424    3.1751 H   0  0  0  0  0  0  0  0  0  0  0  0
   -1.0429   -2.7264    3.5560 H   0  0  0  0  0  0  0  0  0  0  0  0
    1.2430   -2.6940    4.5210 H   0  0  0  0  0  0  0  0  0  0  0  0
   -0.4481    2.2662   -2.1611 N   0  0  0  0  0  0  0  0  0  0  0  0
   -0.6816    2.9065   -3.4356 C   0  0  2  0  0  0  0  0  0  0  0  0
    0.6466    2.9749   -4.1778 C   0  0  0  0  0  0  0  0  0  0  0  0
    1.7357    2.9260   -3.6099 O   0  0  0  0  0  0  0  0  0  0  0  0
   -1.2764    4.2946   -3.2567 C   0  0  0  0  0  0  0  0  0  0  0  0
   -0.7997    2.7187   -1.3224 H   0  0  0  0  0  0  0  0  0  0  0  0
   -1.3771    2.2659   -3.9887 H   0  0  0  0  0  0  0  0  0  0  0  0
   -0.5937    4.9508   -2.7046 H   0  0  0  0  0  0  0  0  0  0  0  0
   -1.4791    4.7670   -4.2235 H   0  0  0  0  0  0  0  0  0  0  0  0
   -2.2166    4.2466   -2.6967 H   0  0  0  0  0  0  0  0  0  0  0  0
    0.4726    3.1403   -5.5447 N   0  0  0  0  0  0  0  0  0  0  0  0
    1.5810    3.2454   -6.4647 C   0  0  0  0  0  0  0  0  0  0  0  0
   -0.4667    3.1514   -5.9312 H   0  0  0  0  0  0  0  0  0  0  0  0
    1.8385    4.3049   -6.6099 H   0  0  0  0  0  0  0  0  0  0  0  0
    2.4499    2.7099   -6.0544 H   0  0  0  0  0  0  0  0  0  0  0  0
    1.2991    2.8010   -7.4306 H   0  0  0  0  0  0  0  0  0  0  0  0
 25 27  1  0  0  0  0
 26 27  2  0  0  0  0
 23 25  2  0  0  0  0
 24 26  1  0  0  0  0
 22 23  1  0  0  0  0
 22 24  2  0  0  0  0
 21 22  1  0  0  0  0
  1  3  1  0  0  0  0
  1  7  1  0  0  0  0
  1  2  2  0  0  0  0
 38 39  1  0  0  0  0
 39 47  1  0  0  0  0
 39 40  2  0  0  0  0
  8  9  1  0  0  0  0
  9 17  1  0  0  0  0
  9 10  2  0  0  0  0
 18 19  1  0  0  0  0
 19 37  1  0  0  0  0
 19 20  2  0  0  0  0
 38 41  1  0  0  0  0
  8 11  1  0  0  0  0
 47 48  1  0  0  0  0
 18 21  1  0  0  0  0
 37 38  1  0  0  0  0
  7  8  1  0  0  0  0
 17 18  1  0  0  0  0
 27 36  1  0  0  0  0
 25 34  1  0  0  0  0
 26 35  1  0  0  0  0
 23 32  1  0  0  0  0
 24 33  1  0  0  0  0
  3  4  1  0  0  0  0
  3  5  1  0  0  0  0
  3  6  1  0  0  0  0
 41 44  1  0  0  0  0
 41 45  1  0  0  0  0
 41 46  1  0  0  0  0
 11 14  1  0  0  0  0
 11 15  1  0  0  0  0
 11 16  1  0  0  0  0
 48 50  1  0  0  0  0
 48 51  1  0  0  0  0
 48 52  1  0  0  0  0
 21 30  1  0  0  0  0
 21 31  1  0  0  0  0
 38 43  1  0  0  0  0
  8 13  1  0  0  0  0
 18 29  1  0  0  0  0
 47 49  1  0  0  0  0
  7 12  1  0  0  0  0
 37 42  1  0  0  0  0
 17 28  1  0  0  0  0
M  END
$$$$

  -OEChem-05262214473D

 52 52  0     1  0  0  0  0  0999 V2000
   -1.8248    0.3424    3.9102 C   0  0  0  0  0  0  0  0  0  0  0  0
   -0.8774   -0.2723    3.4345 O   0  0  0  0  0  0  0  0  0  0  0  0
   -2.2566    0.0600    5.3109 C   0  0  0  0  0  0  0  0  0  0  0  0
   -3.0163   -0.7363    5.3643 H   0  0  0  0  0  0  0  0  0  0  0  0
   -1.4254   -0.2876    5.9452 H   0  0  0  0  0  0  0  0  0  0  0  0
   -2.6947    0.9149    5.8505 H   0  0  0  0  0  0  0  0  0  0  0  0
   -2.5745    1.3149    3.2691 N   0  0  0  0  0  0  0  0  0  0  0  0
   -2.3276    1.7409    1.9167 C   0  0  2  0  0  0  0  0  0  0  0  0
   -0.9926    1.1555    1.4755 C   0  0  0  0  0  0  0  0  0  0  0  0
   -0.1206    0.8028    2.2668 O   0  0  0  0  0  0  0  0  0  0  0  0
   -2.3188    3.2577    1.8072 C   0  0  0  0  0  0  0  0  0  0  0  0
   -3.3395    1.7507    3.7809 H   0  0  0  0  0  0  0  0  0  0  0  0
   -3.1317    1.3224    1.3015 H   0  0  0  0  0  0  0  0  0  0  0  0
   -1.5198    3.6949    2.4169 H   0  0  0  0  0  0  0  0  0  0  0  0
   -2.1594    3.5799    0.7729 H   0  0  0  0  0  0  0  0  0  0  0  0
   -3.2690    3.6789    2.1530 H   0  0  0  0  0  0  0  0  0  0  0  0
   -0.8700    1.1124    0.0921 N   0  0  0  0  0  0  0  0  0  0  0  0
    0.3073    0.6116   -0.5716 C   0  0  2  0  0  0  0  0  0  0  0  0
    0.2323    1.0640   -2.0255 C   0  0  0  0  0  0  0  0  0  0  0  0
    0.4376    0.3083   -2.9729 O   0  0  0  0  0  0  0  0  0  0  0  0
    0.4104   -0.9159   -0.4934 C   0  0  0  0  0  0  0  0  0  0  0  0
    0.6442   -1.4140    0.9119 C   0  0  0  0  0  0  0  0  0  0  0  0
    1.9292   -1.3956    1.4543 C   0  0  0  0  0  0  0  0  0  0  0  0
   -0.4254   -1.8926    1.6686 C   0  0  0  0  0  0  0  0  0  0  0  0
    2.1445   -1.8558    2.7534 C   0  0  0  0  0  0  0  0  0  0  0  0
   -0.2101   -2.3529    2.9676 C   0  0  0  0  0  0  0  0  0  0  0  0
    1.0749   -2.3344    3.5100 C   0  0  0  0  0  0  0  0  0  0  0  0
   -1.6531    1.4091   -0.4852 H   0  0  0  0  0  0  0  0  0  0  0  0
    1.1663    1.0933   -0.0897 H   0  0  0  0  0  0  0  0  0  0  0  0
    1.2122   -1.2773   -1.1516 H   0  0  0  0  0  0  0  0  0  0  0  0
   -0.5074   -1.3823   -0.8752 H   0  0  0  0  0  0  0  0  0  0  0  0
    2.7685   -1.0242    0.8722 H   0  0  0  0  0  0  0  0  0  0  0  0
   -1.4300   -1.9106    1.2543 H   0  0  0  0  0  0  0  0  0  0  0  0
    3.1453   -1.8424    3.1751 H   0  0  0  0  0  0  0  0  0  0  0  0
   -1.0429   -2.7264    3.5560 H   0  0  0  0  0  0  0  0  0  0  0  0
    1.2430   -2.6940    4.5210 H   0  0  0  0  0  0  0  0  0  0  0  0
   -0.1395    2.3967   -2.1364 N   0  0  0  0  0  0  0  0  0  0  0  0
   -0.3072    3.0709   -3.4037 C   0  0  2  0  0  0  0  0  0  0  0  0
    0.9344    2.8064   -4.2451 C   0  0  0  0  0  0  0  0  0  0  0  0
    2.0190    2.4914   -3.7597 O   0  0  0  0  0  0  0  0  0  0  0  0
   -0.5258    4.5636   -3.2117 C   0  0  0  0  0  0  0  0  0  0  0  0
   -0.3019    2.9247   -1.2840 H   0  0  0  0  0  0  0  0  0  0  0  0
   -1.1803    2.6206   -3.8885 H   0  0  0  0  0  0  0  0  0  0  0  0
    0.3386    5.0322   -2.7274 H   0  0  0  0  0  0  0  0  0  0  0  0
   -0.6811    5.0684   -4.1709 H   0  0  0  0  0  0  0  0  0  0  0  0
   -1.4020    4.7513   -2.5817 H   0  0  0  0  0  0  0  0  0  0  0  0
    0.6999    3.0055   -5.5984 N   0  0  0  0  0  0  0  0  0  0  0  0
    1.7245    2.8303   -6.6013 C   0  0  0  0  0  0  0  0  0  0  0  0
   -0.2350    3.2473   -5.9133 H   0  0  0  0  0  0  0  0  0  0  0  0
    2.2228    3.7928   -6.7891 H   0  0  0  0  0  0  0  0  0  0  0  0
    2.4641    2.0978   -6.2456 H   0  0  0  0  0  0  0  0  0  0  0  0
    1.2669    2.4664   -7.5331 H   0  0  0  0  0  0  0  0  0  0  0  0
 25 27  1  0  0  0  0
 26 27  2  0  0  0  0
 23 25  2  0  0  0  0
 24 26  1  0  0  0  0
 22 23  1  0  0  0  0
 22 24  2  0  0  0  0
 21 22  1  0  0  0  0
  1  3  1  0  0  0  0
  1  7  1  0  0  0  0
  1  2  2  0  0  0  0
 38 39  1  0  0  0  0
 39 47  1  0  0  0  0
 39 40  2  0  0  0  0
  8  9  1  0  0  0  0
  9 17  1  0  0  0  0
  9 10  2  0  0  0  0
 18 19  1  0  0  0  0
 19 37  1  0  0  0  0
 19 20  2  0  0  0  0
 38 41  1  0  0  0  0
  8 11  1  0  0  0  0
 47 48  1  0  0  0  0
 18 21  1  0  0  0  0
 37 38  1  0  0  0  0
  7  8  1  0  0  0  0
 17 18  1  0  0  0  0
 27 36  1  0  0  0  0
 25 34  1  0  0  0  0
 26 35  1  0  0  0  0
 23 32  1  0  0  0  0
 24 33  1  0  0  0  0
  3  4  1  0  0  0  0
  3  5  1  0  0  0  0
  3  6  1  0  0  0  0
 41 44  1  0  0  0  0
 41 45  1  0  0  0  0
 41 46  1  0  0  0  0
 11 14  1  0  0  0  0
 11 15  1  0  0  0  0
 11 16  1  0  0  0  0
 48 50  1  0  0  0  0
 48 51  1  0  0  0  0
 48 52  1  0  0  0  0
 21 30  1  0  0  0  0
 21 31  1  0  0  0  0
 38 43  1  0  0  0  0
  8 13  1  0  0  0  0
 18 29  1  0  0  0  0
 47 49  1  0  0  0  0
  7 12  1  0  0  0  0
 37 42  1  0  0  0  0
 17 28  1  0  0  0  0
M  END
$$$$

  -OEChem-05262214473D

 52 52  0     1  0  0  0  0  0999 V2000
   -1.8248    0.3424    3.9102 C   0  0  0  0  0  0  0  0  0  0  0  0
   -0.8774   -0.2723    3.4345 O   0  0  0  0  0  0  0  0  0  0  0  0
   -2.2566    0.0600    5.3109 C   0  0  0  0  0  0  0  0  0  0  0  0
   -3.0163   -0.7363    5.3643 H   0  0  0  0  0  0  0  0  0  0  0  0
   -1.4254   -0.2876    5.9452 H   0  0  0  0  0  0  0  0  0  0  0  0
   -2.6947    0.9149    5.8505 H   0  0  0  0  0  0  0  0  0  0  0  0
   -2.5745    1.3149    3.2691 N   0  0  0  0  0  0  0  0  0  0  0  0
   -2.3276    1.7409    1.9167 C   0  0  2  0  0  0  0  0  0  0  0  0
   -0.9926    1.1555    1.4755 C   0  0  0  0  0  0  0  0  0  0  0  0
   -0.1206    0.8028    2.2668 O   0  0  0  0  0  0  0  0  0  0  0  0
   -2.3188    3.2577    1.8072 C   0  0  0  0  0  0  0  0  0  0  0  0
   -3.3395    1.7507    3.7809 H   0  0  0  0  0  0  0  0  0  0  0  0
   -3.1317    1.3224    1.3015 H   0  0  0  0  0  0  0  0  0  0  0  0
   -1.5198    3.6949    2.4169 H   0  0  0  0  0  0  0  0  0  0  0  0
   -2.1594    3.5799    0.7729 H   0  0  0  0  0  0  0  0  0  0  0  0
   -3.2690    3.6789    2.1530 H   0  0  0  0  0  0  0  0  0  0  0  0
   -0.8700    1.1124    0.0921 N   0  0  0  0  0  0  0  0  0  0  0  0
    0.3073    0.6116   -0.5716 C   0  0  2  0  0  0  0  0  0  0  0  0
    0.2323    1.0640   -2.0255 C   0  0  0  0  0  0  0  0  0  0  0  0
    0.1702    0.2780   -2.9685 O   0  0  0  0  0  0  0  0  0  0  0  0
    0.4104   -0.9159   -0.4934 C   0  0  0  0  0  0  0  0  0  0  0  0
    0.6442   -1.4140    0.9119 C   0  0  0  0  0  0  0  0  0  0  0  0
    1.9292   -1.3956    1.4543 C   0  0  0  0  0  0  0  0  0  0  0  0
   -0.4254   -1.8926    1.6686 C   0  0  0  0  0  0  0  0  0  0  0  0
    2.1445   -1.8558    2.7534 C   0  0  0  0  0  0  0  0  0  0  0  0
   -0.2101   -2.3529    2.9676 C   0  0  0  0  0  0  0  0  0  0  0  0
    1.0749   -2.3344    3.5100 C   0  0  0  0  0  0  0  0  0  0  0  0
   -1.6531    1.4091   -0.4852 H   0  0  0  0  0  0  0  0  0  0  0  0
    1.1663    1.0933   -0.0897 H   0  0  0  0  0  0  0  0  0  0  0  0
    1.2122   -1.2773   -1.1516 H   0  0  0  0  0  0  0  0  0  0  0  0
   -0.5074   -1.3823   -0.8752 H   0  0  0  0  0  0  0  0  0  0  0  0
    2.7685   -1.0242    0.8722 H   0  0  0  0  0  0  0  0  0  0  0  0
   -1.4300   -1.9106    1.2543 H   0  0  0  0  0  0  0  0  0  0  0  0
    3.1453   -1.8424    3.1751 H   0  0  0  0  0  0  0  0  0  0  0  0
   -1.0429   -2.7264    3.5560 H   0  0  0  0  0  0  0  0  0  0  0  0
    1.2430   -2.6940    4.5210 H   0  0  0  0  0  0  0  0  0  0  0  0
    0.1927    2.4469   -2.1380 N   0  0  0  0  0  0  0  0  0  0  0  0
    0.0974    3.1377   -3.4038 C   0  0  2  0  0  0  0  0  0  0  0  0
    1.1657    2.5717   -4.3301 C   0  0  0  0  0  0  0  0  0  0  0  0
    2.1739    1.9998   -3.9207 O   0  0  0  0  0  0  0  0  0  0  0  0
    0.2690    4.6386   -3.2294 C   0  0  0  0  0  0  0  0  0  0  0  0
    0.2327    3.0013   -1.2878 H   0  0  0  0  0  0  0  0  0  0  0  0
   -0.8949    2.9158   -3.8113 H   0  0  0  0  0  0  0  0  0  0  0  0
    1.2575    4.8804   -2.8220 H   0  0  0  0  0  0  0  0  0  0  0  0
    0.1681    5.1633   -4.1852 H   0  0  0  0  0  0  0  0  0  0  0  0
   -0.4818    5.0392   -2.5396 H   0  0  0  0  0  0  0  0  0  0  0  0
    0.8821    2.8184   -5.6661 N   0  0  0  0  0  0  0  0  0  0  0  0
    1.7501    2.3922   -6.7389 C   0  0  0  0  0  0  0  0  0  0  0  0
    0.0138    3.2830   -5.9150 H   0  0  0  0  0  0  0  0  0  0  0  0
    2.4538    3.2009   -6.9852 H   0  0  0  0  0  0  0  0  0  0  0  0
    2.3120    1.5006   -6.4236 H   0  0  0  0  0  0  0  0  0  0  0  0
    1.1454    2.1499   -7.6253 H   0  0  0  0  0  0  0  0  0  0  0  0
 25 27  1  0  0  0  0
 26 27  2  0  0  0  0
 23 25  2  0  0  0  0
 24 26  1  0  0  0  0
 22 23  1  0  0  0  0
 22 24  2  0  0  0  0
 21 22  1  0  0  0  0
  1  3  1  0  0  0  0
  1  7  1  0  0  0  0
  1  2  2  0  0  0  0
 38 39  1  0  0  0  0
 39 47  1  0  0  0  0
 39 40  2  0  0  0  0
  8  9  1  0  0  0  0
  9 17  1  0  0  0  0
  9 10  2  0  0  0  0
 18 19  1  0  0  0  0
 19 37  1  0  0  0  0
 19 20  2  0  0  0  0
 38 41  1  0  0  0  0
  8 11  1  0  0  0  0
 47 48  1  0  0  0  0
 18 21  1  0  0  0  0
 37 38  1  0  0  0  0
  7  8  1  0  0  0  0
 17 18  1  0  0  0  0
 27 36  1  0  0  0  0
 25 34  1  0  0  0  0
 26 35  1  0  0  0  0
 23 32  1  0  0  0  0
 24 33  1  0  0  0  0
  3  4  1  0  0  0  0
  3  5  1  0  0  0  0
  3  6  1  0  0  0  0
 41 44  1  0  0  0  0
 41 45  1  0  0  0  0
 41 46  1  0  0  0  0
 11 14  1  0  0  0  0
 11 15  1  0  0  0  0
 11 16  1  0  0  0  0
 48 50  1  0  0  0  0
 48 51  1  0  0  0  0
 48 52  1  0  0  0  0
 21 30  1  0  0  0  0
 21 31  1  0  0  0  0
 38 43  1  0  0  0  0
  8 13  1  0  0  0  0
 18 29  1  0  0  0  0
 47 49  1  0  0  0  0
  7 12  1  0  0  0  0
 37 42  1  0  0  0  0
 17 28  1  0  0  0  0
M  END
$$$$

  -OEChem-05262214473D

 52 52  0     1  0  0  0  0  0999 V2000
   -1.8248    0.3424    3.9102 C   0  0  0  0  0  0  0  0  0  0  0  0
   -0.8774   -0.2723    3.4345 O   0  0  0  0  0  0  0  0  0  0  0  0
   -2.2566    0.0600    5.3109 C   0  0  0  0  0  0  0  0  0  0  0  0
   -3.0163   -0.7363    5.3643 H   0  0  0  0  0  0  0  0  0  0  0  0
   -1.4254   -0.2876    5.9452 H   0  0  0  0  0  0  0  0  0  0  0  0
   -2.6947    0.9149    5.8505 H   0  0  0  0  0  0  0  0  0  0  0  0
   -2.5745    1.3149    3.2691 N   0  0  0  0  0  0  0  0  0  0  0  0
   -2.3276    1.7409    1.9167 C   0  0  2  0  0  0  0  0  0  0  0  0
   -0.9926    1.1555    1.4755 C   0  0  0  0  0  0  0  0  0  0  0  0
   -0.1206    0.8028    2.2668 O   0  0  0  0  0  0  0  0  0  0  0  0
   -2.3188    3.2577    1.8072 C   0  0  0  0  0  0  0  0  0  0  0  0
   -3.3395    1.7507    3.7809 H   0  0  0  0  0  0  0  0  0  0  0  0
   -3.1317    1.3224    1.3015 H   0  0  0  0  0  0  0  0  0  0  0  0
   -1.5198    3.6949    2.4169 H   0  0  0  0  0  0  0  0  0  0  0  0
   -2.1594    3.5799    0.7729 H   0  0  0  0  0  0  0  0  0  0  0  0
   -3.2690    3.6789    2.1530 H   0  0  0  0  0  0  0  0  0  0  0  0
   -0.8700    1.1124    0.0921 N   0  0  0  0  0  0  0  0  0  0  0  0
    0.3073    0.6116   -0.5716 C   0  0  2  0  0  0  0  0  0  0  0  0
    0.2323    1.0640   -2.0255 C   0  0  0  0  0  0  0  0  0  0  0  0
   -0.0953    0.3149   -2.9433 O   0  0  0  0  0  0  0  0  0  0  0  0
    0.4104   -0.9159   -0.4934 C   0  0  0  0  0  0  0  0  0  0  0  0
    0.6442   -1.4140    0.9119 C   0  0  0  0  0  0  0  0  0  0  0  0
    1.9292   -1.3956    1.4543 C   0  0  0  0  0  0  0  0  0  0  0  0
   -0.4254   -1.8926    1.6686 C   0  0  0  0  0  0  0  0  0  0  0  0
    2.1445   -1.8558    2.7534 C   0  0  0  0  0  0  0  0  0  0  0  0
   -0.2101   -2.3529    2.9676 C   0  0  0  0  0  0  0  0  0  0  0  0
    1.0749   -2.3344    3.5100 C   0  0  0  0  0  0  0  0  0  0  0  0
   -1.6531    1.4091   -0.4852 H   0  0  0  0  0  0  0  0  0  0  0  0
    1.1663    1.0933   -0.0897 H   0  0  0  0  0  0  0  0  0  0  0  0
    1.2122   -1.2773   -1.1516 H   0  0  0  0  0  0  0  0  0  0  0  0
   -0.5074   -1.3823   -0.8752 H   0  0  0  0  0  0  0  0  0  0  0  0
    2.7685   -1.0242    0.8722 H   0  0  0  0  0  0  0  0  0  0  0  0
   -1.4300   -1.9106    1.2543 H   0  0  0  0  0  0  0  0  0  0  0  0
    3.1453   -1.8424    3.1751 H   0  0  0  0  0  0  0  0  0  0  0  0
   -1.0429   -2.7264    3.5560 H   0  0  0  0  0  0  0  0  0  0  0  0
    1.2430   -2.6940    4.5210 H   0  0  0  0  0  0  0  0  0  0  0  0
    0.5259    2.4133   -2.1656 N   0  0  0  0  0  0  0  0  0  0  0  0
    0.5047    3.1023   -3.4359 C   0  0  2  0  0  0  0  0  0  0  0  0
    1.3247    2.2869   -4.4269 C   0  0  0  0  0  0  0  0  0  0  0  0
    2.1898    1.4846   -4.0818 O   0  0  0  0  0  0  0  0  0  0  0  0
    1.0539    4.5148   -3.3084 C   0  0  0  0  0  0  0  0  0  0  0  0
    0.7678    2.9432   -1.3334 H   0  0  0  0  0  0  0  0  0  0  0  0
   -0.5405    3.1315   -3.7625 H   0  0  0  0  0  0  0  0  0  0  0  0
    2.1003    4.5058   -2.9821 H   0  0  0  0  0  0  0  0  0  0  0  0
    1.0107    5.0451   -4.2655 H   0  0  0  0  0  0  0  0  0  0  0  0
    0.4814    5.0907   -2.5733 H   0  0  0  0  0  0  0  0  0  0  0  0
    1.0067    2.5919   -5.7430 N   0  0  0  0  0  0  0  0  0  0  0  0
    1.6561    1.9609   -6.8682 C   0  0  0  0  0  0  0  0  0  0  0  0
    0.2629    3.2560   -5.9363 H   0  0  0  0  0  0  0  0  0  0  0  0
    2.5158    2.5697   -7.1848 H   0  0  0  0  0  0  0  0  0  0  0  0
    2.0040    0.9591   -6.5762 H   0  0  0  0  0  0  0  0  0  0  0  0
    0.9428    1.8730   -7.7010 H   0  0  0  0  0  0  0  0  0  0  0  0
 25 27  1  0  0  0  0
 26 27  2  0  0  0  0
 23 25  2  0  0  0  0
 24 26  1  0  0  0  0
 22 23  1  0  0  0  0
 22 24  2  0  0  0  0
 21 22  1  0  0  0  0
  1  3  1  0  0  0  0
  1  7  1  0  0  0  0
  1  2  2  0  0  0  0
 38 39  1  0  0  0  0
 39 47  1  0  0  0  0
 39 40  2  0  0  0  0
  8  9  1  0  0  0  0
  9 17  1  0  0  0  0
  9 10  2  0  0  0  0
 18 19  1  0  0  0  0
 19 37  1  0  0  0  0
 19 20  2  0  0  0  0
 38 41  1  0  0  0  0
  8 11  1  0  0  0  0
 47 48  1  0  0  0  0
 18 21  1  0  0  0  0
 37 38  1  0  0  0  0
  7  8  1  0  0  0  0
 17 18  1  0  0  0  0
 27 36  1  0  0  0  0
 25 34  1  0  0  0  0
 26 35  1  0  0  0  0
 23 32  1  0  0  0  0
 24 33  1  0  0  0  0
  3  4  1  0  0  0  0
  3  5  1  0  0  0  0
  3  6  1  0  0  0  0
 41 44  1  0  0  0  0
 41 45  1  0  0  0  0
 41 46  1  0  0  0  0
 11 14  1  0  0  0  0
 11 15  1  0  0  0  0
 11 16  1  0  0  0  0
 48 50  1  0  0  0  0
 48 51  1  0  0  0  0
 48 52  1  0  0  0  0
 21 30  1  0  0  0  0
 21 31  1  0  0  0  0
 38 43  1  0  0  0  0
  8 13  1  0  0  0  0
 18 29  1  0  0  0  0
 47 49  1  0  0  0  0
  7 12  1  0  0  0  0
 37 42  1  0  0  0  0
 17 28  1  0  0  0  0
M  END
$$$$

  -OEChem-05262214473D

 52 52  0     1  0  0  0  0  0999 V2000
   -1.8248    0.3424    3.9102 C   0  0  0  0  0  0  0  0  0  0  0  0
   -0.8774   -0.2723    3.4345 O   0  0  0  0  0  0  0  0  0  0  0  0
   -2.2566    0.0600    5.3109 C   0  0  0  0  0  0  0  0  0  0  0  0
   -3.0163   -0.7363    5.3643 H   0  0  0  0  0  0  0  0  0  0  0  0
   -1.4254   -0.2876    5.9452 H   0  0  0  0  0  0  0  0  0  0  0  0
   -2.6947    0.9149    5.8505 H   0  0  0  0  0  0  0  0  0  0  0  0
   -2.5745    1.3149    3.2691 N   0  0  0  0  0  0  0  0  0  0  0  0
   -2.3276    1.7409    1.9167 C   0  0  2  0  0  0  0  0  0  0  0  0
   -0.9926    1.1555    1.4755 C   0  0  0  0  0  0  0  0  0  0  0  0
   -0.1206    0.8028    2.2668 O   0  0  0  0  0  0  0  0  0  0  0  0
   -2.3188    3.2577    1.8072 C   0  0  0  0  0  0  0  0  0  0  0  0
   -3.3395    1.7507    3.7809 H   0  0  0  0  0  0  0  0  0  0  0  0
   -3.1317    1.3224    1.3015 H   0  0  0  0  0  0  0  0  0  0  0  0
   -1.5198    3.6949    2.4169 H   0  0  0  0  0  0  0  0  0  0  0  0
   -2.1594    3.5799    0.7729 H   0  0  0  0  0  0  0  0  0  0  0  0
   -3.2690    3.6789    2.1530 H   0  0  0  0  0  0  0  0  0  0  0  0
   -0.8700    1.1124    0.0921 N   0  0  0  0  0  0  0  0  0  0  0  0
    0.3073    0.6116   -0.5716 C   0  0  2  0  0  0  0  0  0  0  0  0
    0.2323    1.0640   -2.0255 C   0  0  0  0  0  0  0  0  0  0  0  0
   -0.3406    0.4163   -2.8991 O   0  0  0  0  0  0  0  0  0  0  0  0
    0.4104   -0.9159   -0.4934 C   0  0  0  0  0  0  0  0  0  0  0  0
    0.6442   -1.4140    0.9119 C   0  0  0  0  0  0  0  0  0  0  0  0
    1.9292   -1.3956    1.4543 C   0  0  0  0  0  0  0  0  0  0  0  0
   -0.4254   -1.8926    1.6686 C   0  0  0  0  0  0  0  0  0  0  0  0
    2.1445   -1.8558    2.7534 C   0  0  0  0  0  0  0  0  0  0  0  0
   -0.2101   -2.3529    2.9676 C   0  0  0  0  0  0  0  0  0  0  0  0
    1.0749   -2.3344    3.5100 C   0  0  0  0  0  0  0  0  0  0  0  0
   -1.6531    1.4091   -0.4852 H   0  0  0  0  0  0  0  0  0  0  0  0
    1.1663    1.0933   -0.0897 H   0  0  0  0  0  0  0  0  0  0  0  0
    1.2122   -1.2773   -1.1516 H   0  0  0  0  0  0  0  0  0  0  0  0
   -0.5074   -1.3823   -0.8752 H   0  0  0  0  0  0  0  0  0  0  0  0
    2.7685   -1.0242    0.8722 H   0  0  0  0  0  0  0  0  0  0  0  0
   -1.4300   -1.9106    1.2543 H   0  0  0  0  0  0  0  0  0  0  0  0
    3.1453   -1.8424    3.1751 H   0  0  0  0  0  0  0  0  0  0  0  0
   -1.0429   -2.7264    3.5560 H   0  0  0  0  0  0  0  0  0  0  0  0
    1.2430   -2.6940    4.5210 H   0  0  0  0  0  0  0  0  0  0  0  0
    0.8373    2.2984   -2.2174 N   0  0  0  0  0  0  0  0  0  0  0  0
    0.8870    2.9673   -3.4976 C   0  0  2  0  0  0  0  0  0  0  0  0
    1.4005    1.9712   -4.5290 C   0  0  0  0  0  0  0  0  0  0  0  0
    2.0657    0.9810   -4.2321 O   0  0  0  0  0  0  0  0  0  0  0  0
    1.7754    4.2004   -3.4435 C   0  0  0  0  0  0  0  0  0  0  0  0
    1.2667    2.7546   -1.4179 H   0  0  0  0  0  0  0  0  0  0  0  0
   -0.1411    3.2530   -3.7453 H   0  0  0  0  0  0  0  0  0  0  0  0
    2.8096    3.9339   -3.1967 H   0  0  0  0  0  0  0  0  0  0  0  0
    1.7893    4.7219   -4.4062 H   0  0  0  0  0  0  0  0  0  0  0  0
    1.4219    4.9022   -2.6805 H   0  0  0  0  0  0  0  0  0  0  0  0
    1.0653    2.3413   -5.8240 N   0  0  0  0  0  0  0  0  0  0  0  0
    1.4489    1.5659   -6.9805 C   0  0  0  0  0  0  0  0  0  0  0  0
    0.4952    3.1682   -5.9756 H   0  0  0  0  0  0  0  0  0  0  0  0
    2.4046    1.9421   -7.3743 H   0  0  0  0  0  0  0  0  0  0  0  0
    1.5611    0.5101   -6.6930 H   0  0  0  0  0  0  0  0  0  0  0  0
    0.6729    1.6545   -7.7550 H   0  0  0  0  0  0  0  0  0  0  0  0
 25 27  1  0  0  0  0
 26 27  2  0  0  0  0
 23 25  2  0  0  0  0
 24 26  1  0  0  0  0
 22 23  1  0  0  0  0
 22 24  2  0  0  0  0
 21 22  1  0  0  0  0
  1  3  1  0  0  0  0
  1  7  1  0  0  0  0
  1  2  2  0  0  0  0
 38 39  1  0  0  0  0
 39 47  1  0  0  0  0
 39 40  2  0  0  0  0
  8  9  1  0  0  0  0
  9 17  1  0  0  0  0
  9 10  2  0  0  0  0
 18 19  1  0  0  0  0
 19 37  1  0  0  0  0
 19 20  2  0  0  0  0
 38 41  1  0  0  0  0
  8 11  1  0  0  0  0
 47 48  1  0  0  0  0
 18 21  1  0  0  0  0
 37 38  1  0  0  0  0
  7  8  1  0  0  0  0
 17 18  1  0  0  0  0
 27 36  1  0  0  0  0
 25 34  1  0  0  0  0
 26 35  1  0  0  0  0
 23 32  1  0  0  0  0
 24 33  1  0  0  0  0
  3  4  1  0  0  0  0
  3  5  1  0  0  0  0
  3  6  1  0  0  0  0
 41 44  1  0  0  0  0
 41 45  1  0  0  0  0
 41 46  1  0  0  0  0
 11 14  1  0  0  0  0
 11 15  1  0  0  0  0
 11 16  1  0  0  0  0
 48 50  1  0  0  0  0
 48 51  1  0  0  0  0
 48 52  1  0  0  0  0
 21 30  1  0  0  0  0
 21 31  1  0  0  0  0
 38 43  1  0  0  0  0
  8 13  1  0  0  0  0
 18 29  1  0  0  0  0
 47 49  1  0  0  0  0
  7 12  1  0  0  0  0
 37 42  1  0  0  0  0
 17 28  1  0  0  0  0
M  END
$$$$

  -OEChem-05262214473D

 52 52  0     1  0  0  0  0  0999 V2000
   -1.8248    0.3424    3.9102 C   0  0  0  0  0  0  0  0  0  0  0  0
   -0.8774   -0.2723    3.4345 O   0  0  0  0  0  0  0  0  0  0  0  0
   -2.2566    0.0600    5.3109 C   0  0  0  0  0  0  0  0  0  0  0  0
   -3.0163   -0.7363    5.3643 H   0  0  0  0  0  0  0  0  0  0  0  0
   -1.4254   -0.2876    5.9452 H   0  0  0  0  0  0  0  0  0  0  0  0
   -2.6947    0.9149    5.8505 H   0  0  0  0  0  0  0  0  0  0  0  0
   -2.5745    1.3149    3.2691 N   0  0  0  0  0  0  0  0  0  0  0  0
   -2.3276    1.7409    1.9167 C   0  0  2  0  0  0  0  0  0  0  0  0
   -0.9926    1.1555    1.4755 C   0  0  0  0  0  0  0  0  0  0  0  0
   -0.1206    0.8028    2.2668 O   0  0  0  0  0  0  0  0  0  0  0  0
   -2.3188    3.2577    1.8072 C   0  0  0  0  0  0  0  0  0  0  0  0
   -3.3395    1.7507    3.7809 H   0  0  0  0  0  0  0  0  0  0  0  0
   -3.1317    1.3224    1.3015 H   0  0  0  0  0  0  0  0  0  0  0  0
   -1.5198    3.6949    2.4169 H   0  0  0  0  0  0  0  0  0  0  0  0
   -2.1594    3.5799    0.7729 H   0  0  0  0  0  0  0  0  0  0  0  0
   -3.2690    3.6789    2.1530 H   0  0  0  0  0  0  0  0  0  0  0  0
   -0.8700    1.1124    0.0921 N   0  0  0  0  0  0  0  0  0  0  0  0
    0.3073    0.6116   -0.5716 C   0  0  2  0  0  0  0  0  0  0  0  0
    0.2323    1.0640   -2.0255 C   0  0  0  0  0  0  0  0  0  0  0  0
   -0.5492    0.5755   -2.8388 O   0  0  0  0  0  0  0  0  0  0  0  0
    0.4104   -0.9159   -0.4934 C   0  0  0  0  0  0  0  0  0  0  0  0
    0.6442   -1.4140    0.9119 C   0  0  0  0  0  0  0  0  0  0  0  0
    1.9292   -1.3956    1.4543 C   0  0  0  0  0  0  0  0  0  0  0  0
   -0.4254   -1.8926    1.6686 C   0  0  0  0  0  0  0  0  0  0  0  0
    2.1445   -1.8558    2.7534 C   0  0  0  0  0  0  0  0  0  0  0  0
   -0.2101   -2.3529    2.9676 C   0  0  0  0  0  0  0  0  0  0  0  0
    1.0749   -2.3344    3.5100 C   0  0  0  0  0  0  0  0  0  0  0  0
   -1.6531    1.4091   -0.4852 H   0  0  0  0  0  0  0  0  0  0  0  0
    1.1663    1.0933   -0.0897 H   0  0  0  0  0  0  0  0  0  0  0  0
    1.2122   -1.2773   -1.1516 H   0  0  0  0  0  0  0  0  0  0  0  0
   -0.5074   -1.3823   -0.8752 H   0  0  0  0  0  0  0  0  0  0  0  0
    2.7685   -1.0242    0.8722 H   0  0  0  0  0  0  0  0  0  0  0  0
   -1.4300   -1.9106    1.2543 H   0  0  0  0  0  0  0  0  0  0  0  0
    3.1453   -1.8424    3.1751 H   0  0  0  0  0  0  0  0  0  0  0  0
   -1.0429   -2.7264    3.5560 H   0  0  0  0  0  0  0  0  0  0  0  0
    1.2430   -2.6940    4.5210 H   0  0  0  0  0  0  0  0  0  0  0  0
    1.1057    2.1098   -2.2900 N   0  0  0  0  0  0  0  0  0  0  0  0
    1.2181    2.7416   -3.5849 C   0  0  2  0  0  0  0  0  0  0  0  0
    1.3880    1.6464   -4.6295 C   0  0  0  0  0  0  0  0  0  0  0  0
    1.8099    0.5233   -4.3614 O   0  0  0  0  0  0  0  0  0  0  0  0
    2.3843    3.7168   -3.6254 C   0  0  0  0  0  0  0  0  0  0  0  0
    1.6956    2.4481   -1.5354 H   0  0  0  0  0  0  0  0  0  0  0  0
    0.2759    3.2720   -3.7609 H   0  0  0  0  0  0  0  0  0  0  0  0
    3.3371    3.2036   -3.4511 H   0  0  0  0  0  0  0  0  0  0  0  0
    2.4508    4.2158   -4.5979 H   0  0  0  0  0  0  0  0  0  0  0  0
    2.2755    4.4867   -2.8539 H   0  0  0  0  0  0  0  0  0  0  0  0
    1.0538    2.0839   -5.9035 N   0  0  0  0  0  0  0  0  0  0  0  0
    1.1426    1.2340   -7.0679 C   0  0  0  0  0  0  0  0  0  0  0  0
    0.6949    3.0256   -6.0303 H   0  0  0  0  0  0  0  0  0  0  0  0
    2.1276    1.3610   -7.5409 H   0  0  0  0  0  0  0  0  0  0  0  0
    1.0135    0.1842   -6.7662 H   0  0  0  0  0  0  0  0  0  0  0  0
    0.3541    1.5095   -7.7837 H   0  0  0  0  0  0  0  0  0  0  0  0
 25 27  1  0  0  0  0
 26 27  2  0  0  0  0
 23 25  2  0  0  0  0
 24 26  1  0  0  0  0
 22 23  1  0  0  0  0
 22 24  2  0  0  0  0
 21 22  1  0  0  0  0
  1  3  1  0  0  0  0
  1  7  1  0  0  0  0
  1  2  2  0  0  0  0
 38 39  1  0  0  0  0
 39 47  1  0  0  0  0
 39 40  2  0  0  0  0
  8  9  1  0  0  0  0
  9 17  1  0  0  0  0
  9 10  2  0  0  0  0
 18 19  1  0  0  0  0
 19 37  1  0  0  0  0
 19 20  2  0  0  0  0
 38 41  1  0  0  0  0
  8 11  1  0  0  0  0
 47 48  1  0  0  0  0
 18 21  1  0  0  0  0
 37 38  1  0  0  0  0
  7  8  1  0  0  0  0
 17 18  1  0  0  0  0
 27 36  1  0  0  0  0
 25 34  1  0  0  0  0
 26 35  1  0  0  0  0
 23 32  1  0  0  0  0
 24 33  1  0  0  0  0
  3  4  1  0  0  0  0
  3  5  1  0  0  0  0
  3  6  1  0  0  0  0
 41 44  1  0  0  0  0
 41 45  1  0  0  0  0
 41 46  1  0  0  0  0
 11 14  1  0  0  0  0
 11 15  1  0  0  0  0
 11 16  1  0  0  0  0
 48 50  1  0  0  0  0
 48 51  1  0  0  0  0
 48 52  1  0  0  0  0
 21 30  1  0  0  0  0
 21 31  1  0  0  0  0
 38 43  1  0  0  0  0
  8 13  1  0  0  0  0
 18 29  1  0  0  0  0
 47 49  1  0  0  0  0
  7 12  1  0  0  0  0
 37 42  1  0  0  0  0
 17 28  1  0  0  0  0
M  END
$$$$

  -OEChem-05262214473D

 52 52  0     1  0  0  0  0  0999 V2000
   -1.8248    0.3424    3.9102 C   0  0  0  0  0  0  0  0  0  0  0  0
   -0.8774   -0.2723    3.4345 O   0  0  0  0  0  0  0  0  0  0  0  0
   -2.2566    0.0600    5.3109 C   0  0  0  0  0  0  0  0  0  0  0  0
   -3.0163   -0.7363    5.3643 H   0  0  0  0  0  0  0  0  0  0  0  0
   -1.4254   -0.2876    5.9452 H   0  0  0  0  0  0  0  0  0  0  0  0
   -2.6947    0.9149    5.8505 H   0  0  0  0  0  0  0  0  0  0  0  0
   -2.5745    1.3149    3.2691 N   0  0  0  0  0  0  0  0  0  0  0  0
   -2.3276    1.7409    1.9167 C   0  0  2  0  0  0  0  0  0  0  0  0
   -0.9926    1.1555    1.4755 C   0  0  0  0  0  0  0  0  0  0  0  0
   -0.1206    0.8028    2.2668 O   0  0  0  0  0  0  0  0  0  0  0  0
   -2.3188    3.2577    1.8072 C   0  0  0  0  0  0  0  0  0  0  0  0
   -3.3395    1.7507    3.7809 H   0  0  0  0  0  0  0  0  0  0  0  0
   -3.1317    1.3224    1.3015 H   0  0  0  0  0  0  0  0  0  0  0  0
   -1.5198    3.6949    2.4169 H   0  0  0  0  0  0  0  0  0  0  0  0
   -2.1594    3.5799    0.7729 H   0  0  0  0  0  0  0  0  0  0  0  0
   -3.2690    3.6789    2.1530 H   0  0  0  0  0  0  0  0  0  0  0  0
   -0.8700    1.1124    0.0921 N   0  0  0  0  0  0  0  0  0  0  0  0
    0.3073    0.6116   -0.5716 C   0  0  2  0  0  0  0  0  0  0  0  0
    0.2323    1.0640   -2.0255 C   0  0  0  0  0  0  0  0  0  0  0  0
   -0.7068    0.7814   -2.7666 O   0  0  0  0  0  0  0  0  0  0  0  0
    0.4104   -0.9159   -0.4934 C   0  0  0  0  0  0  0  0  0  0  0  0
    0.6442   -1.4140    0.9119 C   0  0  0  0  0  0  0  0  0  0  0  0
    1.9292   -1.3956    1.4543 C   0  0  0  0  0  0  0  0  0  0  0  0
   -0.4254   -1.8926    1.6686 C   0  0  0  0  0  0  0  0  0  0  0  0
    2.1445   -1.8558    2.7534 C   0  0  0  0  0  0  0  0  0  0  0  0
   -0.2101   -2.3529    2.9676 C   0  0  0  0  0  0  0  0  0  0  0  0
    1.0749   -2.3344    3.5100 C   0  0  0  0  0  0  0  0  0  0  0  0
   -1.6531    1.4091   -0.4852 H   0  0  0  0  0  0  0  0  0  0  0  0
    1.1663    1.0933   -0.0897 H   0  0  0  0  0  0  0  0  0  0  0  0
    1.2122   -1.2773   -1.1516 H   0  0  0  0  0  0  0  0  0  0  0  0
   -0.5074   -1.3823   -0.8752 H   0  0  0  0  0  0  0  0  0  0  0  0
    2.7685   -1.0242    0.8722 H   0  0  0  0  0  0  0  0  0  0  0  0
   -1.4300   -1.9106    1.2543 H   0  0  0  0  0  0  0  0  0  0  0  0
    3.1453   -1.8424    3.1751 H   0  0  0  0  0  0  0  0  0  0  0  0
   -1.0429   -2.7264    3.5560 H   0  0  0  0  0  0  0  0  0  0  0  0
    1.2430   -2.6940    4.5210 H   0  0  0  0  0  0  0  0  0  0  0  0
    1.3129    1.8604   -2.3783 N   0  0  0  0  0  0  0  0  0  0  0  0
    1.4756    2.4408   -3.6918 C   0  0  2  0  0  0  0  0  0  0  0  0
    1.2880    1.3344   -4.7214 C   0  0  0  0  0  0  0  0  0  0  0  0
    1.4399    0.1427   -4.4607 O   0  0  0  0  0  0  0  0  0  0  0  0
    2.8392    3.0972   -3.8417 C   0  0  0  0  0  0  0  0  0  0  0  0
    2.0252    2.0446   -1.6780 H   0  0  0  0  0  0  0  0  0  0  0  0
    0.6823    3.1872   -3.8083 H   0  0  0  0  0  0  0  0  0  0  0  0
    3.6468    2.3648   -3.7281 H   0  0  0  0  0  0  0  0  0  0  0  0
    2.9500    3.5612   -4.8273 H   0  0  0  0  0  0  0  0  0  0  0  0
    2.9843    3.8724   -3.0816 H   0  0  0  0  0  0  0  0  0  0  0  0
    0.9730    1.8370   -5.9761 N   0  0  0  0  0  0  0  0  0  0  0  0
    0.7582    0.9880   -7.1246 C   0  0  0  0  0  0  0  0  0  0  0  0
    0.8483    2.8378   -6.0966 H   0  0  0  0  0  0  0  0  0  0  0  0
    1.7039    0.8659   -7.6730 H   0  0  0  0  0  0  0  0  0  0  0  0
    0.3985    0.0036   -6.7906 H   0  0  0  0  0  0  0  0  0  0  0  0
    0.0082    1.4477   -7.7851 H   0  0  0  0  0  0  0  0  0  0  0  0
 25 27  1  0  0  0  0
 26 27  2  0  0  0  0
 23 25  2  0  0  0  0
 24 26  1  0  0  0  0
 22 23  1  0  0  0  0
 22 24  2  0  0  0  0
 21 22  1  0  0  0  0
  1  3  1  0  0  0  0
  1  7  1  0  0  0  0
  1  2  2  0  0  0  0
 38 39  1  0  0  0  0
 39 47  1  0  0  0  0
 39 40  2  0  0  0  0
  8  9  1  0  0  0  0
  9 17  1  0  0  0  0
  9 10  2  0  0  0  0
 18 19  1  0  0  0  0
 19 37  1  0  0  0  0
 19 20  2  0  0  0  0
 38 41  1  0  0  0  0
  8 11  1  0  0  0  0
 47 48  1  0  0  0  0
 18 21  1  0  0  0  0
 37 38  1  0  0  0  0
  7  8  1  0  0  0  0
 17 18  1  0  0  0  0
 27 36  1  0  0  0  0
 25 34  1  0  0  0  0
 26 35  1  0  0  0  0
 23 32  1  0  0  0  0
 24 33  1  0  0  0  0
  3  4  1  0  0  0  0
  3  5  1  0  0  0  0
  3  6  1  0  0  0  0
 41 44  1  0  0  0  0
 41 45  1  0  0  0  0
 41 46  1  0  0  0  0
 11 14  1  0  0  0  0
 11 15  1  0  0  0  0
 11 16  1  0  0  0  0
 48 50  1  0  0  0  0
 48 51  1  0  0  0  0
 48 52  1  0  0  0  0
 21 30  1  0  0  0  0
 21 31  1  0  0  0  0
 38 43  1  0  0  0  0
  8 13  1  0  0  0  0
 18 29  1  0  0  0  0
 47 49  1  0  0  0  0
  7 12  1  0  0  0  0
 37 42  1  0  0  0  0
 17 28  1  0  0  0  0
M  END
$$$$

  -OEChem-05262214473D

 52 52  0     1  0  0  0  0  0999 V2000
   -1.8248    0.3424    3.9102 C   0  0  0  0  0  0  0  0  0  0  0  0
   -0.8774   -0.2723    3.4345 O   0  0  0  0  0  0  0  0  0  0  0  0
   -2.2566    0.0600    5.3109 C   0  0  0  0  0  0  0  0  0  0  0  0
   -3.0163   -0.7363    5.3643 H   0  0  0  0  0  0  0  0  0  0  0  0
   -1.4254   -0.2876    5.9452 H   0  0  0  0  0  0  0  0  0  0  0  0
   -2.6947    0.9149    5.8505 H   0  0  0  0  0  0  0  0  0  0  0  0
   -2.5745    1.3149    3.2691 N   0  0  0  0  0  0  0  0  0  0  0  0
   -2.3276    1.7409    1.9167 C   0  0  2  0  0  0  0  0  0  0  0  0
   -0.9926    1.1555    1.4755 C   0  0  0  0  0  0  0  0  0  0  0  0
   -0.1206    0.8028    2.2668 O   0  0  0  0  0  0  0  0  0  0  0  0
   -2.3188    3.2577    1.8072 C   0  0  0  0  0  0  0  0  0  0  0  0
   -3.3395    1.7507    3.7809 H   0  0  0  0  0  0  0  0  0  0  0  0
   -3.1317    1.3224    1.3015 H   0  0  0  0  0  0  0  0  0  0  0  0
   -1.5198    3.6949    2.4169 H   0  0  0  0  0  0  0  0  0  0  0  0
   -2.1594    3.5799    0.7729 H   0  0  0  0  0  0  0  0  0  0  0  0
   -3.2690    3.6789    2.1530 H   0  0  0  0  0  0  0  0  0  0  0  0
   -0.8700    1.1124    0.0921 N   0  0  0  0  0  0  0  0  0  0  0  0
    0.3073    0.6116   -0.5716 C   0  0  2  0  0  0  0  0  0  0  0  0
    0.2323    1.0640   -2.0255 C   0  0  0  0  0  0  0  0  0  0  0  0
   -0.8026    1.0202   -2.6873 O   0  0  0  0  0  0  0  0  0  0  0  0
    0.4104   -0.9159   -0.4934 C   0  0  0  0  0  0  0  0  0  0  0  0
    0.6442   -1.4140    0.9119 C   0  0  0  0  0  0  0  0  0  0  0  0
    1.9292   -1.3956    1.4543 C   0  0  0  0  0  0  0  0  0  0  0  0
   -0.4254   -1.8926    1.6686 C   0  0  0  0  0  0  0  0  0  0  0  0
    2.1445   -1.8558    2.7534 C   0  0  0  0  0  0  0  0  0  0  0  0
   -0.2101   -2.3529    2.9676 C   0  0  0  0  0  0  0  0  0  0  0  0
    1.0749   -2.3344    3.5100 C   0  0  0  0  0  0  0  0  0  0  0  0
   -1.6531    1.4091   -0.4852 H   0  0  0  0  0  0  0  0  0  0  0  0
    1.1663    1.0933   -0.0897 H   0  0  0  0  0  0  0  0  0  0  0  0
    1.2122   -1.2773   -1.1516 H   0  0  0  0  0  0  0  0  0  0  0  0
   -0.5074   -1.3823   -0.8752 H   0  0  0  0  0  0  0  0  0  0  0  0
    2.7685   -1.0242    0.8722 H   0  0  0  0  0  0  0  0  0  0  0  0
   -1.4300   -1.9106    1.2543 H   0  0  0  0  0  0  0  0  0  0  0  0
    3.1453   -1.8424    3.1751 H   0  0  0  0  0  0  0  0  0  0  0  0
   -1.0429   -2.7264    3.5560 H   0  0  0  0  0  0  0  0  0  0  0  0
    1.2430   -2.6940    4.5210 H   0  0  0  0  0  0  0  0  0  0  0  0
    1.4447    1.5673   -2.4763 N   0  0  0  0  0  0  0  0  0  0  0  0
    1.6418    2.0854   -3.8110 C   0  0  2  0  0  0  0  0  0  0  0  0
    1.1073    1.0565   -4.7985 C   0  0  0  0  0  0  0  0  0  0  0  0
    0.9810   -0.1349   -4.5234 O   0  0  0  0  0  0  0  0  0  0  0  0
    3.1090    2.3836   -4.0777 C   0  0  0  0  0  0  0  0  0  0  0  0
    2.2331    1.5718   -1.8358 H   0  0  0  0  0  0  0  0  0  0  0  0
    1.0502    3.0044   -3.8842 H   0  0  0  0  0  0  0  0  0  0  0  0
    3.7177    1.4746   -4.0088 H   0  0  0  0  0  0  0  0  0  0  0  0
    3.2531    2.8027   -5.0790 H   0  0  0  0  0  0  0  0  0  0  0  0
    3.4997    3.1013   -3.3482 H   0  0  0  0  0  0  0  0  0  0  0  0
    0.8285    1.6175   -6.0370 N   0  0  0  0  0  0  0  0  0  0  0  0
    0.3218    0.8445   -7.1468 C   0  0  0  0  0  0  0  0  0  0  0  0
    0.9451    2.6177   -6.1701 H   0  0  0  0  0  0  0  0  0  0  0  0
    1.1623    0.4906   -7.7619 H   0  0  0  0  0  0  0  0  0  0  0  0
   -0.2420   -0.0193   -6.7647 H   0  0  0  0  0  0  0  0  0  0  0  0
   -0.3413    1.4733   -7.7591 H   0  0  0  0  0  0  0  0  0  0  0  0
 25 27  1  0  0  0  0
 26 27  2  0  0  0  0
 23 25  2  0  0  0  0
 24 26  1  0  0  0  0
 22 23  1  0  0  0  0
 22 24  2  0  0  0  0
 21 22  1  0  0  0  0
  1  3  1  0  0  0  0
  1  7  1  0  0  0  0
  1  2  2  0  0  0  0
 38 39  1  0  0  0  0
 39 47  1  0  0  0  0
 39 40  2  0  0  0  0
  8  9  1  0  0  0  0
  9 17  1  0  0  0  0
  9 10  2  0  0  0  0
 18 19  1  0  0  0  0
 19 37  1  0  0  0  0
 19 20  2  0  0  0  0
 38 41  1  0  0  0  0
  8 11  1  0  0  0  0
 47 48  1  0  0  0  0
 18 21  1  0  0  0  0
 37 38  1  0  0  0  0
  7  8  1  0  0  0  0
 17 18  1  0  0  0  0
 27 36  1  0  0  0  0
 25 34  1  0  0  0  0
 26 35  1  0  0  0  0
 23 32  1  0  0  0  0
 24 33  1  0  0  0  0
  3  4  1  0  0  0  0
  3  5  1  0  0  0  0
  3  6  1  0  0  0  0
 41 44  1  0  0  0  0
 41 45  1  0  0  0  0
 41 46  1  0  0  0  0
 11 14  1  0  0  0  0
 11 15  1  0  0  0  0
 11 16  1  0  0  0  0
 48 50  1  0  0  0  0
 48 51  1  0  0  0  0
 48 52  1  0  0  0  0
 21 30  1  0  0  0  0
 21 31  1  0  0  0  0
 38 43  1  0  0  0  0
  8 13  1  0  0  0  0
 18 29  1  0  0  0  0
 47 49  1  0  0  0  0
  7 12  1  0  0  0  0
 37 42  1  0  0  0  0
 17 28  1  0  0  0  0
M  END
$$$$

  -OEChem-05262214473D

 52 52  0     1  0  0  0  0  0999 V2000
   -1.8248    0.3424    3.9102 C   0  0  0  0  0  0  0  0  0  0  0  0
   -0.8774   -0.2723    3.4345 O   0  0  0  0  0  0  0  0  0  0  0  0
   -2.2566    0.0600    5.3109 C   0  0  0  0  0  0  0  0  0  0  0  0
   -3.0163   -0.7363    5.3643 H   0  0  0  0  0  0  0  0  0  0  0  0
   -1.4254   -0.2876    5.9452 H   0  0  0  0  0  0  0  0  0  0  0  0
   -2.6947    0.9149    5.8505 H   0  0  0  0  0  0  0  0  0  0  0  0
   -2.5745    1.3149    3.2691 N   0  0  0  0  0  0  0  0  0  0  0  0
   -2.3276    1.7409    1.9167 C   0  0  2  0  0  0  0  0  0  0  0  0
   -0.9926    1.1555    1.4755 C   0  0  0  0  0  0  0  0  0  0  0  0
   -0.1206    0.8028    2.2668 O   0  0  0  0  0  0  0  0  0  0  0  0
   -2.3188    3.2577    1.8072 C   0  0  0  0  0  0  0  0  0  0  0  0
   -3.3395    1.7507    3.7809 H   0  0  0  0  0  0  0  0  0  0  0  0
   -3.1317    1.3224    1.3015 H   0  0  0  0  0  0  0  0  0  0  0  0
   -1.5198    3.6949    2.4169 H   0  0  0  0  0  0  0  0  0  0  0  0
   -2.1594    3.5799    0.7729 H   0  0  0  0  0  0  0  0  0  0  0  0
   -3.2690    3.6789    2.1530 H   0  0  0  0  0  0  0  0  0  0  0  0
   -0.8700    1.1124    0.0921 N   0  0  0  0  0  0  0  0  0  0  0  0
    0.3073    0.6116   -0.5716 C   0  0  2  0  0  0  0  0  0  0  0  0
    0.2323    1.0640   -2.0255 C   0  0  0  0  0  0  0  0  0  0  0  0
   -0.8301    1.2754   -2.6065 O   0  0  0  0  0  0  0  0  0  0  0  0
    0.4104   -0.9159   -0.4934 C   0  0  0  0  0  0  0  0  0  0  0  0
    0.6442   -1.4140    0.9119 C   0  0  0  0  0  0  0  0  0  0  0  0
    1.9292   -1.3956    1.4543 C   0  0  0  0  0  0  0  0  0  0  0  0
   -0.4254   -1.8926    1.6686 C   0  0  0  0  0  0  0  0  0  0  0  0
    2.1445   -1.8558    2.7534 C   0  0  0  0  0  0  0  0  0  0  0  0
   -0.2101   -2.3529    2.9676 C   0  0  0  0  0  0  0  0  0  0  0  0
    1.0749   -2.3344    3.5100 C   0  0  0  0  0  0  0  0  0  0  0  0
   -1.6531    1.4091   -0.4852 H   0  0  0  0  0  0  0  0  0  0  0  0
    1.1663    1.0933   -0.0897 H   0  0  0  0  0  0  0  0  0  0  0  0
    1.2122   -1.2773   -1.1516 H   0  0  0  0  0  0  0  0  0  0  0  0
   -0.5074   -1.3823   -0.8752 H   0  0  0  0  0  0  0  0  0  0  0  0
    2.7685   -1.0242    0.8722 H   0  0  0  0  0  0  0  0  0  0  0  0
   -1.4300   -1.9106    1.2543 H   0  0  0  0  0  0  0  0  0  0  0  0
    3.1453   -1.8424    3.1751 H   0  0  0  0  0  0  0  0  0  0  0  0
   -1.0429   -2.7264    3.5560 H   0  0  0  0  0  0  0  0  0  0  0  0
    1.2430   -2.6940    4.5210 H   0  0  0  0  0  0  0  0  0  0  0  0
    1.4921    1.2504   -2.5773 N   0  0  0  0  0  0  0  0  0  0  0  0
    1.7055    1.6995   -3.9344 C   0  0  2  0  0  0  0  0  0  0  0  0
    0.8583    0.8317   -4.8556 C   0  0  0  0  0  0  0  0  0  0  0  0
    0.4643   -0.2905   -4.5452 O   0  0  0  0  0  0  0  0  0  0  0  0
    3.1754    1.6248   -4.3172 C   0  0  0  0  0  0  0  0  0  0  0  0
    2.3050    1.0617   -1.9983 H   0  0  0  0  0  0  0  0  0  0  0  0
    1.3547    2.7361   -3.9834 H   0  0  0  0  0  0  0  0  0  0  0  0
    3.5448    0.5937   -4.2740 H   0  0  0  0  0  0  0  0  0  0  0  0
    3.3393    1.9921   -5.3357 H   0  0  0  0  0  0  0  0  0  0  0  0
    3.7868    2.2257   -3.6354 H   0  0  0  0  0  0  0  0  0  0  0  0
    0.6300    1.4404   -6.0818 N   0  0  0  0  0  0  0  0  0  0  0  0
   -0.1369    0.8133   -7.1328 C   0  0  0  0  0  0  0  0  0  0  0  0
    0.9786    2.3803   -6.2457 H   0  0  0  0  0  0  0  0  0  0  0  0
    0.5396    0.2606   -7.8013 H   0  0  0  0  0  0  0  0  0  0  0  0
   -0.8643    0.1170   -6.6902 H   0  0  0  0  0  0  0  0  0  0  0  0
   -0.6705    1.5847   -7.7074 H   0  0  0  0  0  0  0  0  0  0  0  0
 25 27  1  0  0  0  0
 26 27  2  0  0  0  0
 23 25  2  0  0  0  0
 24 26  1  0  0  0  0
 22 23  1  0  0  0  0
 22 24  2  0  0  0  0
 21 22  1  0  0  0  0
  1  3  1  0  0  0  0
  1  7  1  0  0  0  0
  1  2  2  0  0  0  0
 38 39  1  0  0  0  0
 39 47  1  0  0  0  0
 39 40  2  0  0  0  0
  8  9  1  0  0  0  0
  9 17  1  0  0  0  0
  9 10  2  0  0  0  0
 18 19  1  0  0  0  0
 19 37  1  0  0  0  0
 19 20  2  0  0  0  0
 38 41  1  0  0  0  0
  8 11  1  0  0  0  0
 47 48  1  0  0  0  0
 18 21  1  0  0  0  0
 37 38  1  0  0  0  0
  7  8  1  0  0  0  0
 17 18  1  0  0  0  0
 27 36  1  0  0  0  0
 25 34  1  0  0  0  0
 26 35  1  0  0  0  0
 23 32  1  0  0  0  0
 24 33  1  0  0  0  0
  3  4  1  0  0  0  0
  3  5  1  0  0  0  0
  3  6  1  0  0  0  0
 41 44  1  0  0  0  0
 41 45  1  0  0  0  0
 41 46  1  0  0  0  0
 11 14  1  0  0  0  0
 11 15  1  0  0  0  0
 11 16  1  0  0  0  0
 48 50  1  0  0  0  0
 48 51  1  0  0  0  0
 48 52  1  0  0  0  0
 21 30  1  0  0  0  0
 21 31  1  0  0  0  0
 38 43  1  0  0  0  0
  8 13  1  0  0  0  0
 18 29  1  0  0  0  0
 47 49  1  0  0  0  0
  7 12  1  0  0  0  0
 37 42  1  0  0  0  0
 17 28  1  0  0  0  0
M  END
$$$$

  -OEChem-05262214473D

 52 52  0     1  0  0  0  0  0999 V2000
   -1.8248    0.3424    3.9102 C   0  0  0  0  0  0  0  0  0  0  0  0
   -0.8774   -0.2723    3.4345 O   0  0  0  0  0  0  0  0  0  0  0  0
   -2.2566    0.0600    5.3109 C   0  0  0  0  0  0  0  0  0  0  0  0
   -3.0163   -0.7363    5.3643 H   0  0  0  0  0  0  0  0  0  0  0  0
   -1.4254   -0.2876    5.9452 H   0  0  0  0  0  0  0  0  0  0  0  0
   -2.6947    0.9149    5.8505 H   0  0  0  0  0  0  0  0  0  0  0  0
   -2.5745    1.3149    3.2691 N   0  0  0  0  0  0  0  0  0  0  0  0
   -2.3276    1.7409    1.9167 C   0  0  2  0  0  0  0  0  0  0  0  0
   -0.9926    1.1555    1.4755 C   0  0  0  0  0  0  0  0  0  0  0  0
   -0.1206    0.8028    2.2668 O   0  0  0  0  0  0  0  0  0  0  0  0
   -2.3188    3.2577    1.8072 C   0  0  0  0  0  0  0  0  0  0  0  0
   -3.3395    1.7507    3.7809 H   0  0  0  0  0  0  0  0  0  0  0  0
   -3.1317    1.3224    1.3015 H   0  0  0  0  0  0  0  0  0  0  0  0
   -1.5198    3.6949    2.4169 H   0  0  0  0  0  0  0  0  0  0  0  0
   -2.1594    3.5799    0.7729 H   0  0  0  0  0  0  0  0  0  0  0  0
   -3.2690    3.6789    2.1530 H   0  0  0  0  0  0  0  0  0  0  0  0
   -0.8700    1.1124    0.0921 N   0  0  0  0  0  0  0  0  0  0  0  0
    0.3073    0.6116   -0.5716 C   0  0  2  0  0  0  0  0  0  0  0  0
    0.2323    1.0640   -2.0255 C   0  0  0  0  0  0  0  0  0  0  0  0
   -0.7875    1.5298   -2.5295 O   0  0  0  0  0  0  0  0  0  0  0  0
    0.4104   -0.9159   -0.4934 C   0  0  0  0  0  0  0  0  0  0  0  0
    0.6442   -1.4140    0.9119 C   0  0  0  0  0  0  0  0  0  0  0  0
    1.9292   -1.3956    1.4543 C   0  0  0  0  0  0  0  0  0  0  0  0
   -0.4254   -1.8926    1.6686 C   0  0  0  0  0  0  0  0  0  0  0  0
    2.1445   -1.8558    2.7534 C   0  0  0  0  0  0  0  0  0  0  0  0
   -0.2101   -2.3529    2.9676 C   0  0  0  0  0  0  0  0  0  0  0  0
    1.0749   -2.3344    3.5100 C   0  0  0  0  0  0  0  0  0  0  0  0
   -1.6531    1.4091   -0.4852 H   0  0  0  0  0  0  0  0  0  0  0  0
    1.1663    1.0933   -0.0897 H   0  0  0  0  0  0  0  0  0  0  0  0
    1.2122   -1.2773   -1.1516 H   0  0  0  0  0  0  0  0  0  0  0  0
   -0.5074   -1.3823   -0.8752 H   0  0  0  0  0  0  0  0  0  0  0  0
    2.7685   -1.0242    0.8722 H   0  0  0  0  0  0  0  0  0  0  0  0
   -1.4300   -1.9106    1.2543 H   0  0  0  0  0  0  0  0  0  0  0  0
    3.1453   -1.8424    3.1751 H   0  0  0  0  0  0  0  0  0  0  0  0
   -1.0429   -2.7264    3.5560 H   0  0  0  0  0  0  0  0  0  0  0  0
    1.2430   -2.6940    4.5210 H   0  0  0  0  0  0  0  0  0  0  0  0
    1.4519    0.9313   -2.6746 N   0  0  0  0  0  0  0  0  0  0  0  0
    1.6623    1.3094   -4.0535 C   0  0  2  0  0  0  0  0  0  0  0  0
    0.5579    0.6754   -4.8888 C   0  0  0  0  0  0  0  0  0  0  0  0
   -0.0748   -0.3136   -4.5245 O   0  0  0  0  0  0  0  0  0  0  0  0
    3.0338    0.8723   -4.5441 C   0  0  0  0  0  0  0  0  0  0  0  0
    2.2361    0.5492   -2.1542 H   0  0  0  0  0  0  0  0  0  0  0  0
    1.5749    2.4005   -4.0992 H   0  0  0  0  0  0  0  0  0  0  0  0
    3.1401   -0.2180   -4.5057 H   0  0  0  0  0  0  0  0  0  0  0  0
    3.2028    1.1845   -5.5799 H   0  0  0  0  0  0  0  0  0  0  0  0
    3.8259    1.3055   -3.9238 H   0  0  0  0  0  0  0  0  0  0  0  0
    0.3912    1.3178   -6.1077 N   0  0  0  0  0  0  0  0  0  0  0  0
   -0.5865    0.8966   -7.0837 C   0  0  0  0  0  0  0  0  0  0  0  0
    0.9466    2.1417   -6.3183 H   0  0  0  0  0  0  0  0  0  0  0  0
   -0.1216    0.1917   -7.7886 H   0  0  0  0  0  0  0  0  0  0  0  0
   -1.4261    0.4032   -6.5721 H   0  0  0  0  0  0  0  0  0  0  0  0
   -0.9571    1.7742   -7.6337 H   0  0  0  0  0  0  0  0  0  0  0  0
 25 27  1  0  0  0  0
 26 27  2  0  0  0  0
 23 25  2  0  0  0  0
 24 26  1  0  0  0  0
 22 23  1  0  0  0  0
 22 24  2  0  0  0  0
 21 22  1  0  0  0  0
  1  3  1  0  0  0  0
  1  7  1  0  0  0  0
  1  2  2  0  0  0  0
 38 39  1  0  0  0  0
 39 47  1  0  0  0  0
 39 40  2  0  0  0  0
  8  9  1  0  0  0  0
  9 17  1  0  0  0  0
  9 10  2  0  0  0  0
 18 19  1  0  0  0  0
 19 37  1  0  0  0  0
 19 20  2  0  0  0  0
 38 41  1  0  0  0  0
  8 11  1  0  0  0  0
 47 48  1  0  0  0  0
 18 21  1  0  0  0  0
 37 38  1  0  0  0  0
  7  8  1  0  0  0  0
 17 18  1  0  0  0  0
 27 36  1  0  0  0  0
 25 34  1  0  0  0  0
 26 35  1  0  0  0  0
 23 32  1  0  0  0  0
 24 33  1  0  0  0  0
  3  4  1  0  0  0  0
  3  5  1  0  0  0  0
  3  6  1  0  0  0  0
 41 44  1  0  0  0  0
 41 45  1  0  0  0  0
 41 46  1  0  0  0  0
 11 14  1  0  0  0  0
 11 15  1  0  0  0  0
 11 16  1  0  0  0  0
 48 50  1  0  0  0  0
 48 51  1  0  0  0  0
 48 52  1  0  0  0  0
 21 30  1  0  0  0  0
 21 31  1  0  0  0  0
 38 43  1  0  0  0  0
  8 13  1  0  0  0  0
 18 29  1  0  0  0  0
 47 49  1  0  0  0  0
  7 12  1  0  0  0  0
 37 42  1  0  0  0  0
 17 28  1  0  0  0  0
M  END
$$$$

  -OEChem-05262214473D

 52 52  0     1  0  0  0  0  0999 V2000
   -1.8248    0.3424    3.9102 C   0  0  0  0  0  0  0  0  0  0  0  0
   -0.8774   -0.2723    3.4345 O   0  0  0  0  0  0  0  0  0  0  0  0
   -2.2566    0.0600    5.3109 C   0  0  0  0  0  0  0  0  0  0  0  0
   -3.0163   -0.7363    5.3643 H   0  0  0  0  0  0  0  0  0  0  0  0
   -1.4254   -0.2876    5.9452 H   0  0  0  0  0  0  0  0  0  0  0  0
   -2.6947    0.9149    5.8505 H   0  0  0  0  0  0  0  0  0  0  0  0
   -2.5745    1.3149    3.2691 N   0  0  0  0  0  0  0  0  0  0  0  0
   -2.3276    1.7409    1.9167 C   0  0  2  0  0  0  0  0  0  0  0  0
   -0.9926    1.1555    1.4755 C   0  0  0  0  0  0  0  0  0  0  0  0
   -0.1206    0.8028    2.2668 O   0  0  0  0  0  0  0  0  0  0  0  0
   -2.3188    3.2577    1.8072 C   0  0  0  0  0  0  0  0  0  0  0  0
   -3.3395    1.7507    3.7809 H   0  0  0  0  0  0  0  0  0  0  0  0
   -3.1317    1.3224    1.3015 H   0  0  0  0  0  0  0  0  0  0  0  0
   -1.5198    3.6949    2.4169 H   0  0  0  0  0  0  0  0  0  0  0  0
   -2.1594    3.5799    0.7729 H   0  0  0  0  0  0  0  0  0  0  0  0
   -3.2690    3.6789    2.1530 H   0  0  0  0  0  0  0  0  0  0  0  0
   -0.8700    1.1124    0.0921 N   0  0  0  0  0  0  0  0  0  0  0  0
    0.3073    0.6116   -0.5716 C   0  0  2  0  0  0  0  0  0  0  0  0
    0.4321    1.3596   -1.8941 C   0  0  0  0  0  0  0  0  0  0  0  0
   -0.3458    2.2476   -2.2366 O   0  0  0  0  0  0  0  0  0  0  0  0
    0.2339   -0.8995   -0.8189 C   0  0  0  0  0  0  0  0  0  0  0  0
    0.2661   -1.7022    0.4588 C   0  0  0  0  0  0  0  0  0  0  0  0
    1.4828   -1.9617    1.0897 C   0  0  0  0  0  0  0  0  0  0  0  0
   -0.9215   -2.1846    1.0088 C   0  0  0  0  0  0  0  0  0  0  0  0
    1.5119   -2.7034    2.2707 C   0  0  0  0  0  0  0  0  0  0  0  0
   -0.8925   -2.9263    2.1898 C   0  0  0  0  0  0  0  0  0  0  0  0
    0.3243   -3.1857    2.8207 C   0  0  0  0  0  0  0  0  0  0  0  0
   -1.6531    1.4091   -0.4852 H   0  0  0  0  0  0  0  0  0  0  0  0
    1.1598    0.8689    0.0680 H   0  0  0  0  0  0  0  0  0  0  0  0
    1.0547   -1.2178   -1.4759 H   0  0  0  0  0  0  0  0  0  0  0  0
   -0.6853   -1.1551   -1.3623 H   0  0  0  0  0  0  0  0  0  0  0  0
    2.4131   -1.5897    0.6685 H   0  0  0  0  0  0  0  0  0  0  0  0
   -1.8741   -1.9873    0.5243 H   0  0  0  0  0  0  0  0  0  0  0  0
    2.4594   -2.9062    2.7612 H   0  0  0  0  0  0  0  0  0  0  0  0
   -1.8172   -3.3026    2.6171 H   0  0  0  0  0  0  0  0  0  0  0  0
    0.3472   -3.7644    3.7395 H   0  0  0  0  0  0  0  0  0  0  0  0
    1.5425    0.9508   -2.6195 N   0  0  0  0  0  0  0  0  0  0  0  0
    1.9063    1.5155   -3.8992 C   0  0  2  0  0  0  0  0  0  0  0  0
    0.6703    1.4995   -4.7888 C   0  0  0  0  0  0  0  0  0  0  0  0
   -0.2787    0.7401   -4.6049 O   0  0  0  0  0  0  0  0  0  0  0  0
    3.0478    0.7422   -4.5408 C   0  0  0  0  0  0  0  0  0  0  0  0
    2.1291    0.2179   -2.2315 H   0  0  0  0  0  0  0  0  0  0  0  0
    2.2096    2.5515   -3.7130 H   0  0  0  0  0  0  0  0  0  0  0  0
    2.7626   -0.2982   -4.7349 H   0  0  0  0  0  0  0  0  0  0  0  0
    3.3413    1.1883   -5.4968 H   0  0  0  0  0  0  0  0  0  0  0  0
    3.9262    0.7295   -3.8865 H   0  0  0  0  0  0  0  0  0  0  0  0
    0.7704    2.4029   -5.8376 N   0  0  0  0  0  0  0  0  0  0  0  0
   -0.2688    2.5669   -6.8272 C   0  0  0  0  0  0  0  0  0  0  0  0
    1.5852    3.0060   -5.9016 H   0  0  0  0  0  0  0  0  0  0  0  0
   -0.0644    1.9111   -7.6863 H   0  0  0  0  0  0  0  0  0  0  0  0
   -1.2405    2.3008   -6.3858 H   0  0  0  0  0  0  0  0  0  0  0  0
   -0.2930    3.6141   -7.1631 H   0  0  0  0  0  0  0  0  0  0  0  0
 25 27  1  0  0  0  0
 26 27  2  0  0  0  0
 23 25  2  0  0  0  0
 24 26  1  0  0  0  0
 22 23  1  0  0  0  0
 22 24  2  0  0  0  0
 21 22  1  0  0  0  0
  1  3  1  0  0  0  0
  1  7  1  0  0  0  0
  1  2  2  0  0  0  0
 38 39  1  0  0  0  0
 39 47  1  0  0  0  0
 39 40  2  0  0  0  0
  8  9  1  0  0  0  0
  9 17  1  0  0  0  0
  9 10  2  0  0  0  0
 18 19  1  0  0  0  0
 19 37  1  0  0  0  0
 19 20  2  0  0  0  0
 38 41  1  0  0  0  0
  8 11  1  0  0  0  0
 47 48  1  0  0  0  0
 18 21  1  0  0  0  0
 37 38  1  0  0  0  0
  7  8  1  0  0  0  0
 17 18  1  0  0  0  0
 27 36  1  0  0  0  0
 25 34  1  0  0  0  0
 26 35  1  0  0  0  0
 23 32  1  0  0  0  0
 24 33  1  0  0  0  0
  3  4  1  0  0  0  0
  3  5  1  0  0  0  0
  3  6  1  0  0  0  0
 41 44  1  0  0  0  0
 41 45  1  0  0  0  0
 41 46  1  0  0  0  0
 11 14  1  0  0  0  0
 11 15  1  0  0  0  0
 11 16  1  0  0  0  0
 48 50  1  0  0  0  0
 48 51  1  0  0  0  0
 48 52  1  0  0  0  0
 21 30  1  0  0  0  0
 21 31  1  0  0  0  0
 38 43  1  0  0  0  0
  8 13  1  0  0  0  0
 18 29  1  0  0  0  0
 47 49  1  0  0  0  0
  7 12  1  0  0  0  0
 37 42  1  0  0  0  0
 17 28  1  0  0  0  0
M  END
$$$$

  -OEChem-05262214473D

 52 52  0     1  0  0  0  0  0999 V2000
   -1.8248    0.3424    3.9102 C   0  0  0  0  0  0  0  0  0  0  0  0
   -0.8774   -0.2723    3.4345 O   0  0  0  0  0  0  0  0  0  0  0  0
   -2.2566    0.0600    5.3109 C   0  0  0  0  0  0  0  0  0  0  0  0
   -3.0163   -0.7363    5.3643 H   0  0  0  0  0  0  0  0  0  0  0  0
   -1.4254   -0.2876    5.9452 H   0  0  0  0  0  0  0  0  0  0  0  0
   -2.6947    0.9149    5.8505 H   0  0  0  0  0  0  0  0  0  0  0  0
   -2.5745    1.3149    3.2691 N   0  0  0  0  0  0  0  0  0  0  0  0
   -2.3276    1.7409    1.9167 C   0  0  2  0  0  0  0  0  0  0  0  0
   -0.9926    1.1555    1.4755 C   0  0  0  0  0  0  0  0  0  0  0  0
   -0.1206    0.8028    2.2668 O   0  0  0  0  0  0  0  0  0  0  0  0
   -2.3188    3.2577    1.8072 C   0  0  0  0  0  0  0  0  0  0  0  0
   -3.3395    1.7507    3.7809 H   0  0  0  0  0  0  0  0  0  0  0  0
   -3.1317    1.3224    1.3015 H   0  0  0  0  0  0  0  0  0  0  0  0
   -1.5198    3.6949    2.4169 H   0  0  0  0  0  0  0  0  0  0  0  0
   -2.1594    3.5799    0.7729 H   0  0  0  0  0  0  0  0  0  0  0  0
   -3.2690    3.6789    2.1530 H   0  0  0  0  0  0  0  0  0  0  0  0
   -0.8700    1.1124    0.0921 N   0  0  0  0  0  0  0  0  0  0  0  0
    0.3073    0.6116   -0.5716 C   0  0  2  0  0  0  0  0  0  0  0  0
    0.4321    1.3596   -1.8941 C   0  0  0  0  0  0  0  0  0  0  0  0
   -0.1616    2.4104   -2.1271 O   0  0  0  0  0  0  0  0  0  0  0  0
    0.2339   -0.8995   -0.8189 C   0  0  0  0  0  0  0  0  0  0  0  0
    0.2661   -1.7022    0.4588 C   0  0  0  0  0  0  0  0  0  0  0  0
    1.4828   -1.9617    1.0897 C   0  0  0  0  0  0  0  0  0  0  0  0
   -0.9215   -2.1846    1.0088 C   0  0  0  0  0  0  0  0  0  0  0  0
    1.5119   -2.7034    2.2707 C   0  0  0  0  0  0  0  0  0  0  0  0
   -0.8925   -2.9263    2.1898 C   0  0  0  0  0  0  0  0  0  0  0  0
    0.3243   -3.1857    2.8207 C   0  0  0  0  0  0  0  0  0  0  0  0
   -1.6531    1.4091   -0.4852 H   0  0  0  0  0  0  0  0  0  0  0  0
    1.1598    0.8689    0.0680 H   0  0  0  0  0  0  0  0  0  0  0  0
    1.0547   -1.2178   -1.4759 H   0  0  0  0  0  0  0  0  0  0  0  0
   -0.6853   -1.1551   -1.3623 H   0  0  0  0  0  0  0  0  0  0  0  0
    2.4131   -1.5897    0.6685 H   0  0  0  0  0  0  0  0  0  0  0  0
   -1.8741   -1.9873    0.5243 H   0  0  0  0  0  0  0  0  0  0  0  0
    2.4594   -2.9062    2.7612 H   0  0  0  0  0  0  0  0  0  0  0  0
   -1.8172   -3.3026    2.6171 H   0  0  0  0  0  0  0  0  0  0  0  0
    0.3472   -3.7644    3.7395 H   0  0  0  0  0  0  0  0  0  0  0  0
    1.3222    0.7395   -2.7598 N   0  0  0  0  0  0  0  0  0  0  0  0
    1.6419    1.2540   -4.0720 C   0  0  2  0  0  0  0  0  0  0  0  0
    0.3332    1.5460   -4.7943 C   0  0  0  0  0  0  0  0  0  0  0  0
   -0.7323    1.0115   -4.4942 O   0  0  0  0  0  0  0  0  0  0  0  0
    2.4901    0.2688   -4.8611 C   0  0  0  0  0  0  0  0  0  0  0  0
    1.7717   -0.1192   -2.4558 H   0  0  0  0  0  0  0  0  0  0  0  0
    2.1921    2.1889   -3.9198 H   0  0  0  0  0  0  0  0  0  0  0  0
    1.9554   -0.6741   -5.0236 H   0  0  0  0  0  0  0  0  0  0  0  0
    2.7553    0.6720   -5.8441 H   0  0  0  0  0  0  0  0  0  0  0  0
    3.4174    0.0371   -4.3261 H   0  0  0  0  0  0  0  0  0  0  0  0
    0.5034    2.4411   -5.8411 N   0  0  0  0  0  0  0  0  0  0  0  0
   -0.5868    2.8681   -6.6869 C   0  0  0  0  0  0  0  0  0  0  0  0
    1.4189    2.8490   -6.0060 H   0  0  0  0  0  0  0  0  0  0  0  0
   -0.6446    2.2142   -7.5695 H   0  0  0  0  0  0  0  0  0  0  0  0
   -1.5308    2.8100   -6.1252 H   0  0  0  0  0  0  0  0  0  0  0  0
   -0.4156    3.9056   -7.0098 H   0  0  0  0  0  0  0  0  0  0  0  0
 25 27  1  0  0  0  0
 26 27  2  0  0  0  0
 23 25  2  0  0  0  0
 24 26  1  0  0  0  0
 22 23  1  0  0  0  0
 22 24  2  0  0  0  0
 21 22  1  0  0  0  0
  1  3  1  0  0  0  0
  1  7  1  0  0  0  0
  1  2  2  0  0  0  0
 38 39  1  0  0  0  0
 39 47  1  0  0  0  0
 39 40  2  0  0  0  0
  8  9  1  0  0  0  0
  9 17  1  0  0  0  0
  9 10  2  0  0  0  0
 18 19  1  0  0  0  0
 19 37  1  0  0  0  0
 19 20  2  0  0  0  0
 38 41  1  0  0  0  0
  8 11  1  0  0  0  0
 47 48  1  0  0  0  0
 18 21  1  0  0  0  0
 37 38  1  0  0  0  0
  7  8  1  0  0  0  0
 17 18  1  0  0  0  0
 27 36  1  0  0  0  0
 25 34  1  0  0  0  0
 26 35  1  0  0  0  0
 23 32  1  0  0  0  0
 24 33  1  0  0  0  0
  3  4  1  0  0  0  0
  3  5  1  0  0  0  0
  3  6  1  0  0  0  0
 41 44  1  0  0  0  0
 41 45  1  0  0  0  0
 41 46  1  0  0  0  0
 11 14  1  0  0  0  0
 11 15  1  0  0  0  0
 11 16  1  0  0  0  0
 48 50  1  0  0  0  0
 48 51  1  0  0  0  0
 48 52  1  0  0  0  0
 21 30  1  0  0  0  0
 21 31  1  0  0  0  0
 38 43  1  0  0  0  0
  8 13  1  0  0  0  0
 18 29  1  0  0  0  0
 47 49  1  0  0  0  0
  7 12  1  0  0  0  0
 37 42  1  0  0  0  0
 17 28  1  0  0  0  0
M  END
$$$$

  -OEChem-05262214473D

 52 52  0     1  0  0  0  0  0999 V2000
   -1.8248    0.3424    3.9102 C   0  0  0  0  0  0  0  0  0  0  0  0
   -0.8774   -0.2723    3.4345 O   0  0  0  0  0  0  0  0  0  0  0  0
   -2.2566    0.0600    5.3109 C   0  0  0  0  0  0  0  0  0  0  0  0
   -3.0163   -0.7363    5.3643 H   0  0  0  0  0  0  0  0  0  0  0  0
   -1.4254   -0.2876    5.9452 H   0  0  0  0  0  0  0  0  0  0  0  0
   -2.6947    0.9149    5.8505 H   0  0  0  0  0  0  0  0  0  0  0  0
   -2.5745    1.3149    3.2691 N   0  0  0  0  0  0  0  0  0  0  0  0
   -2.3276    1.7409    1.9167 C   0  0  2  0  0  0  0  0  0  0  0  0
   -0.9926    1.1555    1.4755 C   0  0  0  0  0  0  0  0  0  0  0  0
   -0.1206    0.8028    2.2668 O   0  0  0  0  0  0  0  0  0  0  0  0
   -2.3188    3.2577    1.8072 C   0  0  0  0  0  0  0  0  0  0  0  0
   -3.3395    1.7507    3.7809 H   0  0  0  0  0  0  0  0  0  0  0  0
   -3.1317    1.3224    1.3015 H   0  0  0  0  0  0  0  0  0  0  0  0
   -1.5198    3.6949    2.4169 H   0  0  0  0  0  0  0  0  0  0  0  0
   -2.1594    3.5799    0.7729 H   0  0  0  0  0  0  0  0  0  0  0  0
   -3.2690    3.6789    2.1530 H   0  0  0  0  0  0  0  0  0  0  0  0
   -0.8700    1.1124    0.0921 N   0  0  0  0  0  0  0  0  0  0  0  0
    0.3073    0.6116   -0.5716 C   0  0  2  0  0  0  0  0  0  0  0  0
    0.4321    1.3596   -1.8941 C   0  0  0  0  0  0  0  0  0  0  0  0
    0.0669    2.5240   -2.0413 O   0  0  0  0  0  0  0  0  0  0  0  0
    0.2339   -0.8995   -0.8189 C   0  0  0  0  0  0  0  0  0  0  0  0
    0.2661   -1.7022    0.4588 C   0  0  0  0  0  0  0  0  0  0  0  0
    1.4828   -1.9617    1.0897 C   0  0  0  0  0  0  0  0  0  0  0  0
   -0.9215   -2.1846    1.0088 C   0  0  0  0  0  0  0  0  0  0  0  0
    1.5119   -2.7034    2.2707 C   0  0  0  0  0  0  0  0  0  0  0  0
   -0.8925   -2.9263    2.1898 C   0  0  0  0  0  0  0  0  0  0  0  0
    0.3243   -3.1857    2.8207 C   0  0  0  0  0  0  0  0  0  0  0  0
   -1.6531    1.4091   -0.4852 H   0  0  0  0  0  0  0  0  0  0  0  0
    1.1598    0.8689    0.0680 H   0  0  0  0  0  0  0  0  0  0  0  0
    1.0547   -1.2178   -1.4759 H   0  0  0  0  0  0  0  0  0  0  0  0
   -0.6853   -1.1551   -1.3623 H   0  0  0  0  0  0  0  0  0  0  0  0
    2.4131   -1.5897    0.6685 H   0  0  0  0  0  0  0  0  0  0  0  0
   -1.8741   -1.9873    0.5243 H   0  0  0  0  0  0  0  0  0  0  0  0
    2.4594   -2.9062    2.7612 H   0  0  0  0  0  0  0  0  0  0  0  0
   -1.8172   -3.3026    2.6171 H   0  0  0  0  0  0  0  0  0  0  0  0
    0.3472   -3.7644    3.7395 H   0  0  0  0  0  0  0  0  0  0  0  0
    1.0442    0.5877   -2.8719 N   0  0  0  0  0  0  0  0  0  0  0  0
    1.3058    1.0644   -4.2109 C   0  0  2  0  0  0  0  0  0  0  0  0
    0.0174    1.6667   -4.7558 C   0  0  0  0  0  0  0  0  0  0  0  0
   -1.0954    1.3731   -4.3240 O   0  0  0  0  0  0  0  0  0  0  0  0
    1.8045   -0.0564   -5.1097 C   0  0  0  0  0  0  0  0  0  0  0  0
    1.3223   -0.3599   -2.6343 H   0  0  0  0  0  0  0  0  0  0  0  0
    2.0676    1.8469   -4.1249 H   0  0  0  0  0  0  0  0  0  0  0  0
    1.0546   -0.8498   -5.2079 H   0  0  0  0  0  0  0  0  0  0  0  0
    2.0293    0.3123   -6.1160 H   0  0  0  0  0  0  0  0  0  0  0  0
    2.7147   -0.5081   -4.7007 H   0  0  0  0  0  0  0  0  0  0  0  0
    0.2536    2.5381   -5.8099 N   0  0  0  0  0  0  0  0  0  0  0  0
   -0.8086    3.2274   -6.5045 C   0  0  0  0  0  0  0  0  0  0  0  0
    1.2098    2.7370   -6.0891 H   0  0  0  0  0  0  0  0  0  0  0  0
   -1.1220    2.6349   -7.3767 H   0  0  0  0  0  0  0  0  0  0  0  0
   -1.6638    3.3615   -5.8259 H   0  0  0  0  0  0  0  0  0  0  0  0
   -0.4490    4.2114   -6.8400 H   0  0  0  0  0  0  0  0  0  0  0  0
 25 27  1  0  0  0  0
 26 27  2  0  0  0  0
 23 25  2  0  0  0  0
 24 26  1  0  0  0  0
 22 23  1  0  0  0  0
 22 24  2  0  0  0  0
 21 22  1  0  0  0  0
  1  3  1  0  0  0  0
  1  7  1  0  0  0  0
  1  2  2  0  0  0  0
 38 39  1  0  0  0  0
 39 47  1  0  0  0  0
 39 40  2  0  0  0  0
  8  9  1  0  0  0  0
  9 17  1  0  0  0  0
  9 10  2  0  0  0  0
 18 19  1  0  0  0  0
 19 37  1  0  0  0  0
 19 20  2  0  0  0  0
 38 41  1  0  0  0  0
  8 11  1  0  0  0  0
 47 48  1  0  0  0  0
 18 21  1  0  0  0  0
 37 38  1  0  0  0  0
  7  8  1  0  0  0  0
 17 18  1  0  0  0  0
 27 36  1  0  0  0  0
 25 34  1  0  0  0  0
 26 35  1  0  0  0  0
 23 32  1  0  0  0  0
 24 33  1  0  0  0  0
  3  4  1  0  0  0  0
  3  5  1  0  0  0  0
  3  6  1  0  0  0  0
 41 44  1  0  0  0  0
 41 45  1  0  0  0  0
 41 46  1  0  0  0  0
 11 14  1  0  0  0  0
 11 15  1  0  0  0  0
 11 16  1  0  0  0  0
 48 50  1  0  0  0  0
 48 51  1  0  0  0  0
 48 52  1  0  0  0  0
 21 30  1  0  0  0  0
 21 31  1  0  0  0  0
 38 43  1  0  0  0  0
  8 13  1  0  0  0  0
 18 29  1  0  0  0  0
 47 49  1  0  0  0  0
  7 12  1  0  0  0  0
 37 42  1  0  0  0  0
 17 28  1  0  0  0  0
M  END
$$$$

  -OEChem-05262214473D

 52 52  0     1  0  0  0  0  0999 V2000
   -1.8248    0.3424    3.9102 C   0  0  0  0  0  0  0  0  0  0  0  0
   -0.8774   -0.2723    3.4345 O   0  0  0  0  0  0  0  0  0  0  0  0
   -2.2566    0.0600    5.3109 C   0  0  0  0  0  0  0  0  0  0  0  0
   -3.0163   -0.7363    5.3643 H   0  0  0  0  0  0  0  0  0  0  0  0
   -1.4254   -0.2876    5.9452 H   0  0  0  0  0  0  0  0  0  0  0  0
   -2.6947    0.9149    5.8505 H   0  0  0  0  0  0  0  0  0  0  0  0
   -2.5745    1.3149    3.2691 N   0  0  0  0  0  0  0  0  0  0  0  0
   -2.3276    1.7409    1.9167 C   0  0  2  0  0  0  0  0  0  0  0  0
   -0.9926    1.1555    1.4755 C   0  0  0  0  0  0  0  0  0  0  0  0
   -0.1206    0.8028    2.2668 O   0  0  0  0  0  0  0  0  0  0  0  0
   -2.3188    3.2577    1.8072 C   0  0  0  0  0  0  0  0  0  0  0  0
   -3.3395    1.7507    3.7809 H   0  0  0  0  0  0  0  0  0  0  0  0
   -3.1317    1.3224    1.3015 H   0  0  0  0  0  0  0  0  0  0  0  0
   -1.5198    3.6949    2.4169 H   0  0  0  0  0  0  0  0  0  0  0  0
   -2.1594    3.5799    0.7729 H   0  0  0  0  0  0  0  0  0  0  0  0
   -3.2690    3.6789    2.1530 H   0  0  0  0  0  0  0  0  0  0  0  0
   -0.8700    1.1124    0.0921 N   0  0  0  0  0  0  0  0  0  0  0  0
    0.3073    0.6116   -0.5716 C   0  0  2  0  0  0  0  0  0  0  0  0
    0.4321    1.3596   -1.8941 C   0  0  0  0  0  0  0  0  0  0  0  0
    0.3240    2.5806   -1.9850 O   0  0  0  0  0  0  0  0  0  0  0  0
    0.2339   -0.8995   -0.8189 C   0  0  0  0  0  0  0  0  0  0  0  0
    0.2661   -1.7022    0.4588 C   0  0  0  0  0  0  0  0  0  0  0  0
    1.4828   -1.9617    1.0897 C   0  0  0  0  0  0  0  0  0  0  0  0
   -0.9215   -2.1846    1.0088 C   0  0  0  0  0  0  0  0  0  0  0  0
    1.5119   -2.7034    2.2707 C   0  0  0  0  0  0  0  0  0  0  0  0
   -0.8925   -2.9263    2.1898 C   0  0  0  0  0  0  0  0  0  0  0  0
    0.3243   -3.1857    2.8207 C   0  0  0  0  0  0  0  0  0  0  0  0
   -1.6531    1.4091   -0.4852 H   0  0  0  0  0  0  0  0  0  0  0  0
    1.1598    0.8689    0.0680 H   0  0  0  0  0  0  0  0  0  0  0  0
    1.0547   -1.2178   -1.4759 H   0  0  0  0  0  0  0  0  0  0  0  0
   -0.6853   -1.1551   -1.3623 H   0  0  0  0  0  0  0  0  0  0  0  0
    2.4131   -1.5897    0.6685 H   0  0  0  0  0  0  0  0  0  0  0  0
   -1.8741   -1.9873    0.5243 H   0  0  0  0  0  0  0  0  0  0  0  0
    2.4594   -2.9062    2.7612 H   0  0  0  0  0  0  0  0  0  0  0  0
   -1.8172   -3.3026    2.6171 H   0  0  0  0  0  0  0  0  0  0  0  0
    0.3472   -3.7644    3.7395 H   0  0  0  0  0  0  0  0  0  0  0  0
    0.7273    0.5060   -2.9480 N   0  0  0  0  0  0  0  0  0  0  0  0
    0.9209    0.9598   -4.3064 C   0  0  2  0  0  0  0  0  0  0  0  0
   -0.2557    1.8534   -4.6760 C   0  0  0  0  0  0  0  0  0  0  0  0
   -1.3434    1.8003   -4.1057 O   0  0  0  0  0  0  0  0  0  0  0  0
    1.0376   -0.2113   -5.2697 C   0  0  0  0  0  0  0  0  0  0  0  0
    0.8116   -0.4877   -2.7548 H   0  0  0  0  0  0  0  0  0  0  0  0
    1.8444    1.5489   -4.3145 H   0  0  0  0  0  0  0  0  0  0  0  0
    0.1216   -0.8133   -5.2753 H   0  0  0  0  0  0  0  0  0  0  0  0
    1.2128    0.1335   -6.2941 H   0  0  0  0  0  0  0  0  0  0  0  0
    1.8659   -0.8691   -4.9849 H   0  0  0  0  0  0  0  0  0  0  0  0
    0.0381    2.6871   -5.7459 N   0  0  0  0  0  0  0  0  0  0  0  0
   -0.9190    3.6205   -6.2927 C   0  0  0  0  0  0  0  0  0  0  0  0
    0.9720    2.6774   -6.1452 H   0  0  0  0  0  0  0  0  0  0  0  0
   -1.4643    3.1443   -7.1208 H   0  0  0  0  0  0  0  0  0  0  0  0
   -1.6304    3.9177   -5.5082 H   0  0  0  0  0  0  0  0  0  0  0  0
   -0.3911    4.5107   -6.6653 H   0  0  0  0  0  0  0  0  0  0  0  0
 25 27  1  0  0  0  0
 26 27  2  0  0  0  0
 23 25  2  0  0  0  0
 24 26  1  0  0  0  0
 22 23  1  0  0  0  0
 22 24  2  0  0  0  0
 21 22  1  0  0  0  0
  1  3  1  0  0  0  0
  1  7  1  0  0  0  0
  1  2  2  0  0  0  0
 38 39  1  0  0  0  0
 39 47  1  0  0  0  0
 39 40  2  0  0  0  0
  8  9  1  0  0  0  0
  9 17  1  0  0  0  0
  9 10  2  0  0  0  0
 18 19  1  0  0  0  0
 19 37  1  0  0  0  0
 19 20  2  0  0  0  0
 38 41  1  0  0  0  0
  8 11  1  0  0  0  0
 47 48  1  0  0  0  0
 18 21  1  0  0  0  0
 37 38  1  0  0  0  0
  7  8  1  0  0  0  0
 17 18  1  0  0  0  0
 27 36  1  0  0  0  0
 25 34  1  0  0  0  0
 26 35  1  0  0  0  0
 23 32  1  0  0  0  0
 24 33  1  0  0  0  0
  3  4  1  0  0  0  0
  3  5  1  0  0  0  0
  3  6  1  0  0  0  0
 41 44  1  0  0  0  0
 41 45  1  0  0  0  0
 41 46  1  0  0  0  0
 11 14  1  0  0  0  0
 11 15  1  0  0  0  0
 11 16  1  0  0  0  0
 48 50  1  0  0  0  0
 48 51  1  0  0  0  0
 48 52  1  0  0  0  0
 21 30  1  0  0  0  0
 21 31  1  0  0  0  0
 38 43  1  0  0  0  0
  8 13  1  0  0  0  0
 18 29  1  0  0  0  0
 47 49  1  0  0  0  0
  7 12  1  0  0  0  0
 37 42  1  0  0  0  0
 17 28  1  0  0  0  0
M  END
$$$$

  -OEChem-05262214473D

 52 52  0     1  0  0  0  0  0999 V2000
   -1.8248    0.3424    3.9102 C   0  0  0  0  0  0  0  0  0  0  0  0
   -0.8774   -0.2723    3.4345 O   0  0  0  0  0  0  0  0  0  0  0  0
   -2.2566    0.0600    5.3109 C   0  0  0  0  0  0  0  0  0  0  0  0
   -3.0163   -0.7363    5.3643 H   0  0  0  0  0  0  0  0  0  0  0  0
   -1.4254   -0.2876    5.9452 H   0  0  0  0  0  0  0  0  0  0  0  0
   -2.6947    0.9149    5.8505 H   0  0  0  0  0  0  0  0  0  0  0  0
   -2.5745    1.3149    3.2691 N   0  0  0  0  0  0  0  0  0  0  0  0
   -2.3276    1.7409    1.9167 C   0  0  2  0  0  0  0  0  0  0  0  0
   -0.9926    1.1555    1.4755 C   0  0  0  0  0  0  0  0  0  0  0  0
   -0.1206    0.8028    2.2668 O   0  0  0  0  0  0  0  0  0  0  0  0
   -2.3188    3.2577    1.8072 C   0  0  0  0  0  0  0  0  0  0  0  0
   -3.3395    1.7507    3.7809 H   0  0  0  0  0  0  0  0  0  0  0  0
   -3.1317    1.3224    1.3015 H   0  0  0  0  0  0  0  0  0  0  0  0
   -1.5198    3.6949    2.4169 H   0  0  0  0  0  0  0  0  0  0  0  0
   -2.1594    3.5799    0.7729 H   0  0  0  0  0  0  0  0  0  0  0  0
   -3.2690    3.6789    2.1530 H   0  0  0  0  0  0  0  0  0  0  0  0
   -0.8700    1.1124    0.0921 N   0  0  0  0  0  0  0  0  0  0  0  0
    0.3073    0.6116   -0.5716 C   0  0  2  0  0  0  0  0  0  0  0  0
    0.4321    1.3596   -1.8941 C   0  0  0  0  0  0  0  0  0  0  0  0
    0.5921    2.5764   -1.9621 O   0  0  0  0  0  0  0  0  0  0  0  0
    0.2339   -0.8995   -0.8189 C   0  0  0  0  0  0  0  0  0  0  0  0
    0.2661   -1.7022    0.4588 C   0  0  0  0  0  0  0  0  0  0  0  0
    1.4828   -1.9617    1.0897 C   0  0  0  0  0  0  0  0  0  0  0  0
   -0.9215   -2.1846    1.0088 C   0  0  0  0  0  0  0  0  0  0  0  0
    1.5119   -2.7034    2.2707 C   0  0  0  0  0  0  0  0  0  0  0  0
   -0.8925   -2.9263    2.1898 C   0  0  0  0  0  0  0  0  0  0  0  0
    0.3243   -3.1857    2.8207 C   0  0  0  0  0  0  0  0  0  0  0  0
   -1.6531    1.4091   -0.4852 H   0  0  0  0  0  0  0  0  0  0  0  0
    1.1598    0.8689    0.0680 H   0  0  0  0  0  0  0  0  0  0  0  0
    1.0547   -1.2178   -1.4759 H   0  0  0  0  0  0  0  0  0  0  0  0
   -0.6853   -1.1551   -1.3623 H   0  0  0  0  0  0  0  0  0  0  0  0
    2.4131   -1.5897    0.6685 H   0  0  0  0  0  0  0  0  0  0  0  0
   -1.8741   -1.9873    0.5243 H   0  0  0  0  0  0  0  0  0  0  0  0
    2.4594   -2.9062    2.7612 H   0  0  0  0  0  0  0  0  0  0  0  0
   -1.8172   -3.3026    2.6171 H   0  0  0  0  0  0  0  0  0  0  0  0
    0.3472   -3.7644    3.7395 H   0  0  0  0  0  0  0  0  0  0  0  0
    0.3932    0.4998   -2.9830 N   0  0  0  0  0  0  0  0  0  0  0  0
    0.5136    0.9471   -4.3520 C   0  0  2  0  0  0  0  0  0  0  0  0
   -0.4674    2.0933   -4.5602 C   0  0  0  0  0  0  0  0  0  0  0  0
   -1.4592    2.2640   -3.8544 O   0  0  0  0  0  0  0  0  0  0  0  0
    0.2418   -0.1853   -5.3300 C   0  0  0  0  0  0  0  0  0  0  0  0
    0.2742   -0.4938   -2.8089 H   0  0  0  0  0  0  0  0  0  0  0  0
    1.5379    1.3152   -4.4756 H   0  0  0  0  0  0  0  0  0  0  0  0
   -0.7799   -0.5672   -5.2211 H   0  0  0  0  0  0  0  0  0  0  0  0
    0.3613    0.1480   -6.3662 H   0  0  0  0  0  0  0  0  0  0  0  0
    0.9289   -1.0211   -5.1593 H   0  0  0  0  0  0  0  0  0  0  0  0
   -0.1285    2.8781   -5.6536 N   0  0  0  0  0  0  0  0  0  0  0  0
   -0.9104    4.0204   -6.0657 C   0  0  0  0  0  0  0  0  0  0  0  0
    0.7219    2.6745   -6.1705 H   0  0  0  0  0  0  0  0  0  0  0  0
   -1.6480    3.7078   -6.8195 H   0  0  0  0  0  0  0  0  0  0  0  0
   -1.4330    4.4407   -5.1937 H   0  0  0  0  0  0  0  0  0  0  0  0
   -0.2457    4.7831   -6.4975 H   0  0  0  0  0  0  0  0  0  0  0  0
 25 27  1  0  0  0  0
 26 27  2  0  0  0  0
 23 25  2  0  0  0  0
 24 26  1  0  0  0  0
 22 23  1  0  0  0  0
 22 24  2  0  0  0  0
 21 22  1  0  0  0  0
  1  3  1  0  0  0  0
  1  7  1  0  0  0  0
  1  2  2  0  0  0  0
 38 39  1  0  0  0  0
 39 47  1  0  0  0  0
 39 40  2  0  0  0  0
  8  9  1  0  0  0  0
  9 17  1  0  0  0  0
  9 10  2  0  0  0  0
 18 19  1  0  0  0  0
 19 37  1  0  0  0  0
 19 20  2  0  0  0  0
 38 41  1  0  0  0  0
  8 11  1  0  0  0  0
 47 48  1  0  0  0  0
 18 21  1  0  0  0  0
 37 38  1  0  0  0  0
  7  8  1  0  0  0  0
 17 18  1  0  0  0  0
 27 36  1  0  0  0  0
 25 34  1  0  0  0  0
 26 35  1  0  0  0  0
 23 32  1  0  0  0  0
 24 33  1  0  0  0  0
  3  4  1  0  0  0  0
  3  5  1  0  0  0  0
  3  6  1  0  0  0  0
 41 44  1  0  0  0  0
 41 45  1  0  0  0  0
 41 46  1  0  0  0  0
 11 14  1  0  0  0  0
 11 15  1  0  0  0  0
 11 16  1  0  0  0  0
 48 50  1  0  0  0  0
 48 51  1  0  0  0  0
 48 52  1  0  0  0  0
 21 30  1  0  0  0  0
 21 31  1  0  0  0  0
 38 43  1  0  0  0  0
  8 13  1  0  0  0  0
 18 29  1  0  0  0  0
 47 49  1  0  0  0  0
  7 12  1  0  0  0  0
 37 42  1  0  0  0  0
 17 28  1  0  0  0  0
M  END
$$$$

  -OEChem-05262214473D

 52 52  0     1  0  0  0  0  0999 V2000
   -1.8248    0.3424    3.9102 C   0  0  0  0  0  0  0  0  0  0  0  0
   -0.8774   -0.2723    3.4345 O   0  0  0  0  0  0  0  0  0  0  0  0
   -2.2566    0.0600    5.3109 C   0  0  0  0  0  0  0  0  0  0  0  0
   -3.0163   -0.7363    5.3643 H   0  0  0  0  0  0  0  0  0  0  0  0
   -1.4254   -0.2876    5.9452 H   0  0  0  0  0  0  0  0  0  0  0  0
   -2.6947    0.9149    5.8505 H   0  0  0  0  0  0  0  0  0  0  0  0
   -2.5745    1.3149    3.2691 N   0  0  0  0  0  0  0  0  0  0  0  0
   -2.3276    1.7409    1.9167 C   0  0  2  0  0  0  0  0  0  0  0  0
   -0.9926    1.1555    1.4755 C   0  0  0  0  0  0  0  0  0  0  0  0
   -0.1206    0.8028    2.2668 O   0  0  0  0  0  0  0  0  0  0  0  0
   -2.3188    3.2577    1.8072 C   0  0  0  0  0  0  0  0  0  0  0  0
   -3.3395    1.7507    3.7809 H   0  0  0  0  0  0  0  0  0  0  0  0
   -3.1317    1.3224    1.3015 H   0  0  0  0  0  0  0  0  0  0  0  0
   -1.5198    3.6949    2.4169 H   0  0  0  0  0  0  0  0  0  0  0  0
   -2.1594    3.5799    0.7729 H   0  0  0  0  0  0  0  0  0  0  0  0
   -3.2690    3.6789    2.1530 H   0  0  0  0  0  0  0  0  0  0  0  0
   -0.8700    1.1124    0.0921 N   0  0  0  0  0  0  0  0  0  0  0  0
    0.3073    0.6116   -0.5716 C   0  0  2  0  0  0  0  0  0  0  0  0
    0.4321    1.3596   -1.8941 C   0  0  0  0  0  0  0  0  0  0  0  0
    0.8531    2.5116   -1.9742 O   0  0  0  0  0  0  0  0  0  0  0  0
    0.2339   -0.8995   -0.8189 C   0  0  0  0  0  0  0  0  0  0  0  0
    0.2661   -1.7022    0.4588 C   0  0  0  0  0  0  0  0  0  0  0  0
    1.4828   -1.9617    1.0897 C   0  0  0  0  0  0  0  0  0  0  0  0
   -0.9215   -2.1846    1.0088 C   0  0  0  0  0  0  0  0  0  0  0  0
    1.5119   -2.7034    2.2707 C   0  0  0  0  0  0  0  0  0  0  0  0
   -0.8925   -2.9263    2.1898 C   0  0  0  0  0  0  0  0  0  0  0  0
    0.3243   -3.1857    2.8207 C   0  0  0  0  0  0  0  0  0  0  0  0
   -1.6531    1.4091   -0.4852 H   0  0  0  0  0  0  0  0  0  0  0  0
    1.1598    0.8689    0.0680 H   0  0  0  0  0  0  0  0  0  0  0  0
    1.0547   -1.2178   -1.4759 H   0  0  0  0  0  0  0  0  0  0  0  0
   -0.6853   -1.1551   -1.3623 H   0  0  0  0  0  0  0  0  0  0  0  0
    2.4131   -1.5897    0.6685 H   0  0  0  0  0  0  0  0  0  0  0  0
   -1.8741   -1.9873    0.5243 H   0  0  0  0  0  0  0  0  0  0  0  0
    2.4594   -2.9062    2.7612 H   0  0  0  0  0  0  0  0  0  0  0  0
   -1.8172   -3.3026    2.6171 H   0  0  0  0  0  0  0  0  0  0  0  0
    0.3472   -3.7644    3.7395 H   0  0  0  0  0  0  0  0  0  0  0  0
    0.0647    0.5695   -2.9745 N   0  0  0  0  0  0  0  0  0  0  0  0
    0.1114    1.0273   -4.3446 C   0  0  2  0  0  0  0  0  0  0  0  0
   -0.6033    2.3702   -4.4165 C   0  0  0  0  0  0  0  0  0  0  0  0
   -1.4351    2.7326   -3.5871 O   0  0  0  0  0  0  0  0  0  0  0  0
   -0.5288    0.0197   -5.2868 C   0  0  0  0  0  0  0  0  0  0  0  0
   -0.2531   -0.3780   -2.7932 H   0  0  0  0  0  0  0  0  0  0  0  0
    1.1689    1.1617   -4.5972 H   0  0  0  0  0  0  0  0  0  0  0  0
   -1.5886   -0.1281   -5.0491 H   0  0  0  0  0  0  0  0  0  0  0  0
   -0.4671    0.3547   -6.3274 H   0  0  0  0  0  0  0  0  0  0  0  0
   -0.0325   -0.9539   -5.2119 H   0  0  0  0  0  0  0  0  0  0  0  0
   -0.2348    3.0981   -5.5392 N   0  0  0  0  0  0  0  0  0  0  0  0
   -0.7835    4.4000   -5.8390 C   0  0  0  0  0  0  0  0  0  0  0  0
    0.4764    2.7284   -6.1631 H   0  0  0  0  0  0  0  0  0  0  0  0
   -1.6607    4.2870   -6.4931 H   0  0  0  0  0  0  0  0  0  0  0  0
   -1.0849    4.8949   -4.9040 H   0  0  0  0  0  0  0  0  0  0  0  0
   -0.0228    5.0100   -6.3481 H   0  0  0  0  0  0  0  0  0  0  0  0
 25 27  1  0  0  0  0
 26 27  2  0  0  0  0
 23 25  2  0  0  0  0
 24 26  1  0  0  0  0
 22 23  1  0  0  0  0
 22 24  2  0  0  0  0
 21 22  1  0  0  0  0
  1  3  1  0  0  0  0
  1  7  1  0  0  0  0
  1  2  2  0  0  0  0
 38 39  1  0  0  0  0
 39 47  1  0  0  0  0
 39 40  2  0  0  0  0
  8  9  1  0  0  0  0
  9 17  1  0  0  0  0
  9 10  2  0  0  0  0
 18 19  1  0  0  0  0
 19 37  1  0  0  0  0
 19 20  2  0  0  0  0
 38 41  1  0  0  0  0
  8 11  1  0  0  0  0
 47 48  1  0  0  0  0
 18 21  1  0  0  0  0
 37 38  1  0  0  0  0
  7  8  1  0  0  0  0
 17 18  1  0  0  0  0
 27 36  1  0  0  0  0
 25 34  1  0  0  0  0
 26 35  1  0  0  0  0
 23 32  1  0  0  0  0
 24 33  1  0  0  0  0
  3  4  1  0  0  0  0
  3  5  1  0  0  0  0
  3  6  1  0  0  0  0
 41 44  1  0  0  0  0
 41 45  1  0  0  0  0
 41 46  1  0  0  0  0
 11 14  1  0  0  0  0
 11 15  1  0  0  0  0
 11 16  1  0  0  0  0
 48 50  1  0  0  0  0
 48 51  1  0  0  0  0
 48 52  1  0  0  0  0
 21 30  1  0  0  0  0
 21 31  1  0  0  0  0
 38 43  1  0  0  0  0
  8 13  1  0  0  0  0
 18 29  1  0  0  0  0
 47 49  1  0  0  0  0
  7 12  1  0  0  0  0
 37 42  1  0  0  0  0
 17 28  1  0  0  0  0
M  END
$$$$

  -OEChem-05262214473D

 52 52  0     1  0  0  0  0  0999 V2000
   -1.8248    0.3424    3.9102 C   0  0  0  0  0  0  0  0  0  0  0  0
   -0.8774   -0.2723    3.4345 O   0  0  0  0  0  0  0  0  0  0  0  0
   -2.2566    0.0600    5.3109 C   0  0  0  0  0  0  0  0  0  0  0  0
   -3.0163   -0.7363    5.3643 H   0  0  0  0  0  0  0  0  0  0  0  0
   -1.4254   -0.2876    5.9452 H   0  0  0  0  0  0  0  0  0  0  0  0
   -2.6947    0.9149    5.8505 H   0  0  0  0  0  0  0  0  0  0  0  0
   -2.5745    1.3149    3.2691 N   0  0  0  0  0  0  0  0  0  0  0  0
   -2.3276    1.7409    1.9167 C   0  0  2  0  0  0  0  0  0  0  0  0
   -0.9926    1.1555    1.4755 C   0  0  0  0  0  0  0  0  0  0  0  0
   -0.1206    0.8028    2.2668 O   0  0  0  0  0  0  0  0  0  0  0  0
   -2.3188    3.2577    1.8072 C   0  0  0  0  0  0  0  0  0  0  0  0
   -3.3395    1.7507    3.7809 H   0  0  0  0  0  0  0  0  0  0  0  0
   -3.1317    1.3224    1.3015 H   0  0  0  0  0  0  0  0  0  0  0  0
   -1.5198    3.6949    2.4169 H   0  0  0  0  0  0  0  0  0  0  0  0
   -2.1594    3.5799    0.7729 H   0  0  0  0  0  0  0  0  0  0  0  0
   -3.2690    3.6789    2.1530 H   0  0  0  0  0  0  0  0  0  0  0  0
   -0.8700    1.1124    0.0921 N   0  0  0  0  0  0  0  0  0  0  0  0
    0.3073    0.6116   -0.5716 C   0  0  2  0  0  0  0  0  0  0  0  0
    0.4321    1.3596   -1.8941 C   0  0  0  0  0  0  0  0  0  0  0  0
    1.0891    2.3907   -2.0203 O   0  0  0  0  0  0  0  0  0  0  0  0
    0.2339   -0.8995   -0.8189 C   0  0  0  0  0  0  0  0  0  0  0  0
    0.2661   -1.7022    0.4588 C   0  0  0  0  0  0  0  0  0  0  0  0
    1.4828   -1.9617    1.0897 C   0  0  0  0  0  0  0  0  0  0  0  0
   -0.9215   -2.1846    1.0088 C   0  0  0  0  0  0  0  0  0  0  0  0
    1.5119   -2.7034    2.2707 C   0  0  0  0  0  0  0  0  0  0  0  0
   -0.8925   -2.9263    2.1898 C   0  0  0  0  0  0  0  0  0  0  0  0
    0.3243   -3.1857    2.8207 C   0  0  0  0  0  0  0  0  0  0  0  0
   -1.6531    1.4091   -0.4852 H   0  0  0  0  0  0  0  0  0  0  0  0
    1.1598    0.8689    0.0680 H   0  0  0  0  0  0  0  0  0  0  0  0
    1.0547   -1.2178   -1.4759 H   0  0  0  0  0  0  0  0  0  0  0  0
   -0.6853   -1.1551   -1.3623 H   0  0  0  0  0  0  0  0  0  0  0  0
    2.4131   -1.5897    0.6685 H   0  0  0  0  0  0  0  0  0  0  0  0
   -1.8741   -1.9873    0.5243 H   0  0  0  0  0  0  0  0  0  0  0  0
    2.4594   -2.9062    2.7612 H   0  0  0  0  0  0  0  0  0  0  0  0
   -1.8172   -3.3026    2.6171 H   0  0  0  0  0  0  0  0  0  0  0  0
    0.3472   -3.7644    3.7395 H   0  0  0  0  0  0  0  0  0  0  0  0
   -0.2360    0.7105   -2.9232 N   0  0  0  0  0  0  0  0  0  0  0  0
   -0.2580    1.1948   -4.2847 C   0  0  2  0  0  0  0  0  0  0  0  0
   -0.6542    2.6651   -4.2545 C   0  0  0  0  0  0  0  0  0  0  0  0
   -1.2726    3.1742   -3.3221 O   0  0  0  0  0  0  0  0  0  0  0  0
   -1.2216    0.3898   -5.1428 C   0  0  0  0  0  0  0  0  0  0  0  0
   -0.7344   -0.1481   -2.7085 H   0  0  0  0  0  0  0  0  0  0  0  0
    0.7625    1.0988   -4.6711 H   0  0  0  0  0  0  0  0  0  0  0  0
   -2.2493    0.4738   -4.7709 H   0  0  0  0  0  0  0  0  0  0  0  0
   -1.2159    0.7395   -6.1804 H   0  0  0  0  0  0  0  0  0  0  0  0
   -0.9526   -0.6720   -5.1393 H   0  0  0  0  0  0  0  0  0  0  0  0
   -0.2736    3.3320   -5.4106 N   0  0  0  0  0  0  0  0  0  0  0  0
   -0.5470    4.7334   -5.6282 C   0  0  0  0  0  0  0  0  0  0  0  0
    0.2523    2.8354   -6.1237 H   0  0  0  0  0  0  0  0  0  0  0  0
   -1.5015    4.8424   -6.1640 H   0  0  0  0  0  0  0  0  0  0  0  0
   -0.6098    5.2494   -4.6587 H   0  0  0  0  0  0  0  0  0  0  0  0
    0.2624    5.1760   -6.2274 H   0  0  0  0  0  0  0  0  0  0  0  0
 25 27  1  0  0  0  0
 26 27  2  0  0  0  0
 23 25  2  0  0  0  0
 24 26  1  0  0  0  0
 22 23  1  0  0  0  0
 22 24  2  0  0  0  0
 21 22  1  0  0  0  0
  1  3  1  0  0  0  0
  1  7  1  0  0  0  0
  1  2  2  0  0  0  0
 38 39  1  0  0  0  0
 39 47  1  0  0  0  0
 39 40  2  0  0  0  0
  8  9  1  0  0  0  0
  9 17  1  0  0  0  0
  9 10  2  0  0  0  0
 18 19  1  0  0  0  0
 19 37  1  0  0  0  0
 19 20  2  0  0  0  0
 38 41  1  0  0  0  0
  8 11  1  0  0  0  0
 47 48  1  0  0  0  0
 18 21  1  0  0  0  0
 37 38  1  0  0  0  0
  7  8  1  0  0  0  0
 17 18  1  0  0  0  0
 27 36  1  0  0  0  0
 25 34  1  0  0  0  0
 26 35  1  0  0  0  0
 23 32  1  0  0  0  0
 24 33  1  0  0  0  0
  3  4  1  0  0  0  0
  3  5  1  0  0  0  0
  3  6  1  0  0  0  0
 41 44  1  0  0  0  0
 41 45  1  0  0  0  0
 41 46  1  0  0  0  0
 11 14  1  0  0  0  0
 11 15  1  0  0  0  0
 11 16  1  0  0  0  0
 48 50  1  0  0  0  0
 48 51  1  0  0  0  0
 48 52  1  0  0  0  0
 21 30  1  0  0  0  0
 21 31  1  0  0  0  0
 38 43  1  0  0  0  0
  8 13  1  0  0  0  0
 18 29  1  0  0  0  0
 47 49  1  0  0  0  0
  7 12  1  0  0  0  0
 37 42  1  0  0  0  0
 17 28  1  0  0  0  0
M  END
$$$$

  -OEChem-05262214473D

 52 52  0     1  0  0  0  0  0999 V2000
   -1.8248    0.3424    3.9102 C   0  0  0  0  0  0  0  0  0  0  0  0
   -0.8774   -0.2723    3.4345 O   0  0  0  0  0  0  0  0  0  0  0  0
   -2.2566    0.0600    5.3109 C   0  0  0  0  0  0  0  0  0  0  0  0
   -3.0163   -0.7363    5.3643 H   0  0  0  0  0  0  0  0  0  0  0  0
   -1.4254   -0.2876    5.9452 H   0  0  0  0  0  0  0  0  0  0  0  0
   -2.6947    0.9149    5.8505 H   0  0  0  0  0  0  0  0  0  0  0  0
   -2.5745    1.3149    3.2691 N   0  0  0  0  0  0  0  0  0  0  0  0
   -2.3276    1.7409    1.9167 C   0  0  2  0  0  0  0  0  0  0  0  0
   -0.9926    1.1555    1.4755 C   0  0  0  0  0  0  0  0  0  0  0  0
   -0.1206    0.8028    2.2668 O   0  0  0  0  0  0  0  0  0  0  0  0
   -2.3188    3.2577    1.8072 C   0  0  0  0  0  0  0  0  0  0  0  0
   -3.3395    1.7507    3.7809 H   0  0  0  0  0  0  0  0  0  0  0  0
   -3.1317    1.3224    1.3015 H   0  0  0  0  0  0  0  0  0  0  0  0
   -1.5198    3.6949    2.4169 H   0  0  0  0  0  0  0  0  0  0  0  0
   -2.1594    3.5799    0.7729 H   0  0  0  0  0  0  0  0  0  0  0  0
   -3.2690    3.6789    2.1530 H   0  0  0  0  0  0  0  0  0  0  0  0
   -0.8700    1.1124    0.0921 N   0  0  0  0  0  0  0  0  0  0  0  0
    0.3073    0.6116   -0.5716 C   0  0  2  0  0  0  0  0  0  0  0  0
    0.4321    1.3596   -1.8941 C   0  0  0  0  0  0  0  0  0  0  0  0
    1.2841    2.2219   -2.0974 O   0  0  0  0  0  0  0  0  0  0  0  0
    0.2339   -0.8995   -0.8189 C   0  0  0  0  0  0  0  0  0  0  0  0
    0.2661   -1.7022    0.4588 C   0  0  0  0  0  0  0  0  0  0  0  0
    1.4828   -1.9617    1.0897 C   0  0  0  0  0  0  0  0  0  0  0  0
   -0.9215   -2.1846    1.0088 C   0  0  0  0  0  0  0  0  0  0  0  0
    1.5119   -2.7034    2.2707 C   0  0  0  0  0  0  0  0  0  0  0  0
   -0.8925   -2.9263    2.1898 C   0  0  0  0  0  0  0  0  0  0  0  0
    0.3243   -3.1857    2.8207 C   0  0  0  0  0  0  0  0  0  0  0  0
   -1.6531    1.4091   -0.4852 H   0  0  0  0  0  0  0  0  0  0  0  0
    1.1598    0.8689    0.0680 H   0  0  0  0  0  0  0  0  0  0  0  0
    1.0547   -1.2178   -1.4759 H   0  0  0  0  0  0  0  0  0  0  0  0
   -0.6853   -1.1551   -1.3623 H   0  0  0  0  0  0  0  0  0  0  0  0
    2.4131   -1.5897    0.6685 H   0  0  0  0  0  0  0  0  0  0  0  0
   -1.8741   -1.9873    0.5243 H   0  0  0  0  0  0  0  0  0  0  0  0
    2.4594   -2.9062    2.7612 H   0  0  0  0  0  0  0  0  0  0  0  0
   -1.8172   -3.3026    2.6171 H   0  0  0  0  0  0  0  0  0  0  0  0
    0.3472   -3.7644    3.7395 H   0  0  0  0  0  0  0  0  0  0  0  0
   -0.4882    0.9131   -2.8324 N   0  0  0  0  0  0  0  0  0  0  0  0
   -0.5697    1.4384   -4.1763 C   0  0  2  0  0  0  0  0  0  0  0  0
   -0.6165    2.9579   -4.0853 C   0  0  0  0  0  0  0  0  0  0  0  0
   -0.9829    3.5586   -3.0773 O   0  0  0  0  0  0  0  0  0  0  0  0
   -1.7893    0.8998   -4.9079 C   0  0  0  0  0  0  0  0  0  0  0  0
   -1.1370    0.1803   -2.5608 H   0  0  0  0  0  0  0  0  0  0  0  0
    0.3465    1.1309   -4.6922 H   0  0  0  0  0  0  0  0  0  0  0  0
   -2.7170    1.1978   -4.4056 H   0  0  0  0  0  0  0  0  0  0  0  0
   -1.8341    1.2763   -5.9352 H   0  0  0  0  0  0  0  0  0  0  0  0
   -1.7689   -0.1946   -4.9463 H   0  0  0  0  0  0  0  0  0  0  0  0
   -0.2422    3.5639   -5.2765 N   0  0  0  0  0  0  0  0  0  0  0  0
   -0.2169    4.9978   -5.4475 C   0  0  0  0  0  0  0  0  0  0  0  0
    0.0649    2.9882   -6.0550 H   0  0  0  0  0  0  0  0  0  0  0  0
   -1.1812    5.3361   -5.8545 H   0  0  0  0  0  0  0  0  0  0  0  0
   -0.0403    5.4799   -4.4747 H   0  0  0  0  0  0  0  0  0  0  0  0
    0.5904    5.2697   -6.1434 H   0  0  0  0  0  0  0  0  0  0  0  0
 25 27  1  0  0  0  0
 26 27  2  0  0  0  0
 23 25  2  0  0  0  0
 24 26  1  0  0  0  0
 22 23  1  0  0  0  0
 22 24  2  0  0  0  0
 21 22  1  0  0  0  0
  1  3  1  0  0  0  0
  1  7  1  0  0  0  0
  1  2  2  0  0  0  0
 38 39  1  0  0  0  0
 39 47  1  0  0  0  0
 39 40  2  0  0  0  0
  8  9  1  0  0  0  0
  9 17  1  0  0  0  0
  9 10  2  0  0  0  0
 18 19  1  0  0  0  0
 19 37  1  0  0  0  0
 19 20  2  0  0  0  0
 38 41  1  0  0  0  0
  8 11  1  0  0  0  0
 47 48  1  0  0  0  0
 18 21  1  0  0  0  0
 37 38  1  0  0  0  0
  7  8  1  0  0  0  0
 17 18  1  0  0  0  0
 27 36  1  0  0  0  0
 25 34  1  0  0  0  0
 26 35  1  0  0  0  0
 23 32  1  0  0  0  0
 24 33  1  0  0  0  0
  3  4  1  0  0  0  0
  3  5  1  0  0  0  0
  3  6  1  0  0  0  0
 41 44  1  0  0  0  0
 41 45  1  0  0  0  0
 41 46  1  0  0  0  0
 11 14  1  0  0  0  0
 11 15  1  0  0  0  0
 11 16  1  0  0  0  0
 48 50  1  0  0  0  0
 48 51  1  0  0  0  0
 48 52  1  0  0  0  0
 21 30  1  0  0  0  0
 21 31  1  0  0  0  0
 38 43  1  0  0  0  0
  8 13  1  0  0  0  0
 18 29  1  0  0  0  0
 47 49  1  0  0  0  0
  7 12  1  0  0  0  0
 37 42  1  0  0  0  0
 17 28  1  0  0  0  0
M  END
$$$$

  -OEChem-05262214473D

 52 52  0     1  0  0  0  0  0999 V2000
   -1.8248    0.3424    3.9102 C   0  0  0  0  0  0  0  0  0  0  0  0
   -0.8774   -0.2723    3.4345 O   0  0  0  0  0  0  0  0  0  0  0  0
   -2.2566    0.0600    5.3109 C   0  0  0  0  0  0  0  0  0  0  0  0
   -3.0163   -0.7363    5.3643 H   0  0  0  0  0  0  0  0  0  0  0  0
   -1.4254   -0.2876    5.9452 H   0  0  0  0  0  0  0  0  0  0  0  0
   -2.6947    0.9149    5.8505 H   0  0  0  0  0  0  0  0  0  0  0  0
   -2.5745    1.3149    3.2691 N   0  0  0  0  0  0  0  0  0  0  0  0
   -2.3276    1.7409    1.9167 C   0  0  2  0  0  0  0  0  0  0  0  0
   -0.9926    1.1555    1.4755 C   0  0  0  0  0  0  0  0  0  0  0  0
   -0.1206    0.8028    2.2668 O   0  0  0  0  0  0  0  0  0  0  0  0
   -2.3188    3.2577    1.8072 C   0  0  0  0  0  0  0  0  0  0  0  0
   -3.3395    1.7507    3.7809 H   0  0  0  0  0  0  0  0  0  0  0  0
   -3.1317    1.3224    1.3015 H   0  0  0  0  0  0  0  0  0  0  0  0
   -1.5198    3.6949    2.4169 H   0  0  0  0  0  0  0  0  0  0  0  0
   -2.1594    3.5799    0.7729 H   0  0  0  0  0  0  0  0  0  0  0  0
   -3.2690    3.6789    2.1530 H   0  0  0  0  0  0  0  0  0  0  0  0
   -0.8700    1.1124    0.0921 N   0  0  0  0  0  0  0  0  0  0  0  0
    0.3073    0.6116   -0.5716 C   0  0  2  0  0  0  0  0  0  0  0  0
    0.4321    1.3596   -1.8941 C   0  0  0  0  0  0  0  0  0  0  0  0
    1.4247    2.0167   -2.2002 O   0  0  0  0  0  0  0  0  0  0  0  0
    0.2339   -0.8995   -0.8189 C   0  0  0  0  0  0  0  0  0  0  0  0
    0.2661   -1.7022    0.4588 C   0  0  0  0  0  0  0  0  0  0  0  0
    1.4828   -1.9617    1.0897 C   0  0  0  0  0  0  0  0  0  0  0  0
   -0.9215   -2.1846    1.0088 C   0  0  0  0  0  0  0  0  0  0  0  0
    1.5119   -2.7034    2.2707 C   0  0  0  0  0  0  0  0  0  0  0  0
   -0.8925   -2.9263    2.1898 C   0  0  0  0  0  0  0  0  0  0  0  0
    0.3243   -3.1857    2.8207 C   0  0  0  0  0  0  0  0  0  0  0  0
   -1.6531    1.4091   -0.4852 H   0  0  0  0  0  0  0  0  0  0  0  0
    1.1598    0.8689    0.0680 H   0  0  0  0  0  0  0  0  0  0  0  0
    1.0547   -1.2178   -1.4759 H   0  0  0  0  0  0  0  0  0  0  0  0
   -0.6853   -1.1551   -1.3623 H   0  0  0  0  0  0  0  0  0  0  0  0
    2.4131   -1.5897    0.6685 H   0  0  0  0  0  0  0  0  0  0  0  0
   -1.8741   -1.9873    0.5243 H   0  0  0  0  0  0  0  0  0  0  0  0
    2.4594   -2.9062    2.7612 H   0  0  0  0  0  0  0  0  0  0  0  0
   -1.8172   -3.3026    2.6171 H   0  0  0  0  0  0  0  0  0  0  0  0
    0.3472   -3.7644    3.7395 H   0  0  0  0  0  0  0  0  0  0  0  0
   -0.6748    1.1635   -2.7084 N   0  0  0  0  0  0  0  0  0  0  0  0
   -0.8023    1.7413   -4.0269 C   0  0  2  0  0  0  0  0  0  0  0  0
   -0.4929    3.2288   -3.9205 C   0  0  0  0  0  0  0  0  0  0  0  0
   -0.5857    3.8597   -2.8696 O   0  0  0  0  0  0  0  0  0  0  0  0
   -2.1934    1.5150   -4.5981 C   0  0  0  0  0  0  0  0  0  0  0  0
   -1.4333    0.5847   -2.3600 H   0  0  0  0  0  0  0  0  0  0  0  0
   -0.0508    1.2557   -4.6591 H   0  0  0  0  0  0  0  0  0  0  0  0
   -2.9598    1.9943   -3.9780 H   0  0  0  0  0  0  0  0  0  0  0  0
   -2.2796    1.9283   -5.6084 H   0  0  0  0  0  0  0  0  0  0  0  0
   -2.4258    0.4456   -4.6461 H   0  0  0  0  0  0  0  0  0  0  0  0
   -0.1428    3.7780   -5.1460 N   0  0  0  0  0  0  0  0  0  0  0  0
    0.1843    5.1753   -5.3093 C   0  0  0  0  0  0  0  0  0  0  0  0
   -0.0730    3.1765   -5.9615 H   0  0  0  0  0  0  0  0  0  0  0  0
   -0.7216    5.7345   -5.5859 H   0  0  0  0  0  0  0  0  0  0  0  0
    0.5850    5.5707   -4.3643 H   0  0  0  0  0  0  0  0  0  0  0  0
    0.9390    5.2848   -6.1020 H   0  0  0  0  0  0  0  0  0  0  0  0
 25 27  1  0  0  0  0
 26 27  2  0  0  0  0
 23 25  2  0  0  0  0
 24 26  1  0  0  0  0
 22 23  1  0  0  0  0
 22 24  2  0  0  0  0
 21 22  1  0  0  0  0
  1  3  1  0  0  0  0
  1  7  1  0  0  0  0
  1  2  2  0  0  0  0
 38 39  1  0  0  0  0
 39 47  1  0  0  0  0
 39 40  2  0  0  0  0
  8  9  1  0  0  0  0
  9 17  1  0  0  0  0
  9 10  2  0  0  0  0
 18 19  1  0  0  0  0
 19 37  1  0  0  0  0
 19 20  2  0  0  0  0
 38 41  1  0  0  0  0
  8 11  1  0  0  0  0
 47 48  1  0  0  0  0
 18 21  1  0  0  0  0
 37 38  1  0  0  0  0
  7  8  1  0  0  0  0
 17 18  1  0  0  0  0
 27 36  1  0  0  0  0
 25 34  1  0  0  0  0
 26 35  1  0  0  0  0
 23 32  1  0  0  0  0
 24 33  1  0  0  0  0
  3  4  1  0  0  0  0
  3  5  1  0  0  0  0
  3  6  1  0  0  0  0
 41 44  1  0  0  0  0
 41 45  1  0  0  0  0
 41 46  1  0  0  0  0
 11 14  1  0  0  0  0
 11 15  1  0  0  0  0
 11 16  1  0  0  0  0
 48 50  1  0  0  0  0
 48 51  1  0  0  0  0
 48 52  1  0  0  0  0
 21 30  1  0  0  0  0
 21 31  1  0  0  0  0
 38 43  1  0  0  0  0
  8 13  1  0  0  0  0
 18 29  1  0  0  0  0
 47 49  1  0  0  0  0
  7 12  1  0  0  0  0
 37 42  1  0  0  0  0
 17 28  1  0  0  0  0
M  END
$$$$

  -OEChem-05262214473D

 52 52  0     1  0  0  0  0  0999 V2000
   -1.8248    0.3424    3.9102 C   0  0  0  0  0  0  0  0  0  0  0  0
   -0.8774   -0.2723    3.4345 O   0  0  0  0  0  0  0  0  0  0  0  0
   -2.2566    0.0600    5.3109 C   0  0  0  0  0  0  0  0  0  0  0  0
   -3.0163   -0.7363    5.3643 H   0  0  0  0  0  0  0  0  0  0  0  0
   -1.4254   -0.2876    5.9452 H   0  0  0  0  0  0  0  0  0  0  0  0
   -2.6947    0.9149    5.8505 H   0  0  0  0  0  0  0  0  0  0  0  0
   -2.5745    1.3149    3.2691 N   0  0  0  0  0  0  0  0  0  0  0  0
   -2.3276    1.7409    1.9167 C   0  0  2  0  0  0  0  0  0  0  0  0
   -0.9926    1.1555    1.4755 C   0  0  0  0  0  0  0  0  0  0  0  0
   -0.1206    0.8028    2.2668 O   0  0  0  0  0  0  0  0  0  0  0  0
   -2.3188    3.2577    1.8072 C   0  0  0  0  0  0  0  0  0  0  0  0
   -3.3395    1.7507    3.7809 H   0  0  0  0  0  0  0  0  0  0  0  0
   -3.1317    1.3224    1.3015 H   0  0  0  0  0  0  0  0  0  0  0  0
   -1.5198    3.6949    2.4169 H   0  0  0  0  0  0  0  0  0  0  0  0
   -2.1594    3.5799    0.7729 H   0  0  0  0  0  0  0  0  0  0  0  0
   -3.2690    3.6789    2.1530 H   0  0  0  0  0  0  0  0  0  0  0  0
   -0.8700    1.1124    0.0921 N   0  0  0  0  0  0  0  0  0  0  0  0
    0.3073    0.6116   -0.5716 C   0  0  2  0  0  0  0  0  0  0  0  0
    0.4321    1.3596   -1.8941 C   0  0  0  0  0  0  0  0  0  0  0  0
    1.5015    1.7891   -2.3217 O   0  0  0  0  0  0  0  0  0  0  0  0
    0.2339   -0.8995   -0.8189 C   0  0  0  0  0  0  0  0  0  0  0  0
    0.2661   -1.7022    0.4588 C   0  0  0  0  0  0  0  0  0  0  0  0
    1.4828   -1.9617    1.0897 C   0  0  0  0  0  0  0  0  0  0  0  0
   -0.9215   -2.1846    1.0088 C   0  0  0  0  0  0  0  0  0  0  0  0
    1.5119   -2.7034    2.2707 C   0  0  0  0  0  0  0  0  0  0  0  0
   -0.8925   -2.9263    2.1898 C   0  0  0  0  0  0  0  0  0  0  0  0
    0.3243   -3.1857    2.8207 C   0  0  0  0  0  0  0  0  0  0  0  0
   -1.6531    1.4091   -0.4852 H   0  0  0  0  0  0  0  0  0  0  0  0
    1.1598    0.8689    0.0680 H   0  0  0  0  0  0  0  0  0  0  0  0
    1.0547   -1.2178   -1.4759 H   0  0  0  0  0  0  0  0  0  0  0  0
   -0.6853   -1.1551   -1.3623 H   0  0  0  0  0  0  0  0  0  0  0  0
    2.4131   -1.5897    0.6685 H   0  0  0  0  0  0  0  0  0  0  0  0
   -1.8741   -1.9873    0.5243 H   0  0  0  0  0  0  0  0  0  0  0  0
    2.4594   -2.9062    2.7612 H   0  0  0  0  0  0  0  0  0  0  0  0
   -1.8172   -3.3026    2.6171 H   0  0  0  0  0  0  0  0  0  0  0  0
    0.3472   -3.7644    3.7395 H   0  0  0  0  0  0  0  0  0  0  0  0
   -0.7830    1.4446   -2.5596 N   0  0  0  0  0  0  0  0  0  0  0  0
   -0.9399    2.0830   -3.8467 C   0  0  2  0  0  0  0  0  0  0  0  0
   -0.2918    3.4591   -3.7712 C   0  0  0  0  0  0  0  0  0  0  0  0
   -0.1080    4.0569   -2.7130 O   0  0  0  0  0  0  0  0  0  0  0  0
   -2.4063    2.1934   -4.2345 C   0  0  0  0  0  0  0  0  0  0  0  0
   -1.6033    1.0377   -2.1198 H   0  0  0  0  0  0  0  0  0  0  0  0
   -0.4024    1.4648   -4.5739 H   0  0  0  0  0  0  0  0  0  0  0  0
   -2.9612    2.8092   -3.5173 H   0  0  0  0  0  0  0  0  0  0  0  0
   -2.5220    2.6513   -5.2224 H   0  0  0  0  0  0  0  0  0  0  0  0
   -2.8783    1.2052   -4.2592 H   0  0  0  0  0  0  0  0  0  0  0  0
    0.0179    3.9597   -5.0281 N   0  0  0  0  0  0  0  0  0  0  0  0
    0.6292    5.2537   -5.2230 C   0  0  0  0  0  0  0  0  0  0  0  0
   -0.1522    3.3873   -5.8498 H   0  0  0  0  0  0  0  0  0  0  0  0
   -0.1542    6.0105   -5.3762 H   0  0  0  0  0  0  0  0  0  0  0  0
    1.2234    5.5158   -4.3352 H   0  0  0  0  0  0  0  0  0  0  0  0
    1.2844    5.2203   -6.1059 H   0  0  0  0  0  0  0  0  0  0  0  0
 25 27  1  0  0  0  0
 26 27  2  0  0  0  0
 23 25  2  0  0  0  0
 24 26  1  0  0  0  0
 22 23  1  0  0  0  0
 22 24  2  0  0  0  0
 21 22  1  0  0  0  0
  1  3  1  0  0  0  0
  1  7  1  0  0  0  0
  1  2  2  0  0  0  0
 38 39  1  0  0  0  0
 39 47  1  0  0  0  0
 39 40  2  0  0  0  0
  8  9  1  0  0  0  0
  9 17  1  0  0  0  0
  9 10  2  0  0  0  0
 18 19  1  0  0  0  0
 19 37  1  0  0  0  0
 19 20  2  0  0  0  0
 38 41  1  0  0  0  0
  8 11  1  0  0  0  0
 47 48  1  0  0  0  0
 18 21  1  0  0  0  0
 37 38  1  0  0  0  0
  7  8  1  0  0  0  0
 17 18  1  0  0  0  0
 27 36  1  0  0  0  0
 25 34  1  0  0  0  0
 26 35  1  0  0  0  0
 23 32  1  0  0  0  0
 24 33  1  0  0  0  0
  3  4  1  0  0  0  0
  3  5  1  0  0  0  0
  3  6  1  0  0  0  0
 41 44  1  0  0  0  0
 41 45  1  0  0  0  0
 41 46  1  0  0  0  0
 11 14  1  0  0  0  0
 11 15  1  0  0  0  0
 11 16  1  0  0  0  0
 48 50  1  0  0  0  0
 48 51  1  0  0  0  0
 48 52  1  0  0  0  0
 21 30  1  0  0  0  0
 21 31  1  0  0  0  0
 38 43  1  0  0  0  0
  8 13  1  0  0  0  0
 18 29  1  0  0  0  0
 47 49  1  0  0  0  0
  7 12  1  0  0  0  0
 37 42  1  0  0  0  0
 17 28  1  0  0  0  0
M  END
$$$$

  -OEChem-05262214473D

 52 52  0     1  0  0  0  0  0999 V2000
   -1.8248    0.3424    3.9102 C   0  0  0  0  0  0  0  0  0  0  0  0
   -0.8774   -0.2723    3.4345 O   0  0  0  0  0  0  0  0  0  0  0  0
   -2.2566    0.0600    5.3109 C   0  0  0  0  0  0  0  0  0  0  0  0
   -3.0163   -0.7363    5.3643 H   0  0  0  0  0  0  0  0  0  0  0  0
   -1.4254   -0.2876    5.9452 H   0  0  0  0  0  0  0  0  0  0  0  0
   -2.6947    0.9149    5.8505 H   0  0  0  0  0  0  0  0  0  0  0  0
   -2.5745    1.3149    3.2691 N   0  0  0  0  0  0  0  0  0  0  0  0
   -2.3276    1.7409    1.9167 C   0  0  2  0  0  0  0  0  0  0  0  0
   -0.9926    1.1555    1.4755 C   0  0  0  0  0  0  0  0  0  0  0  0
   -0.1206    0.8028    2.2668 O   0  0  0  0  0  0  0  0  0  0  0  0
   -2.3188    3.2577    1.8072 C   0  0  0  0  0  0  0  0  0  0  0  0
   -3.3395    1.7507    3.7809 H   0  0  0  0  0  0  0  0  0  0  0  0
   -3.1317    1.3224    1.3015 H   0  0  0  0  0  0  0  0  0  0  0  0
   -1.5198    3.6949    2.4169 H   0  0  0  0  0  0  0  0  0  0  0  0
   -2.1594    3.5799    0.7729 H   0  0  0  0  0  0  0  0  0  0  0  0
   -3.2690    3.6789    2.1530 H   0  0  0  0  0  0  0  0  0  0  0  0
   -0.8700    1.1124    0.0921 N   0  0  0  0  0  0  0  0  0  0  0  0
    0.3073    0.6116   -0.5716 C   0  0  2  0  0  0  0  0  0  0  0  0
    0.4321    1.3596   -1.8941 C   0  0  0  0  0  0  0  0  0  0  0  0
    1.5090    1.5546   -2.4536 O   0  0  0  0  0  0  0  0  0  0  0  0
    0.2339   -0.8995   -0.8189 C   0  0  0  0  0  0  0  0  0  0  0  0
    0.2661   -1.7022    0.4588 C   0  0  0  0  0  0  0  0  0  0  0  0
    1.4828   -1.9617    1.0897 C   0  0  0  0  0  0  0  0  0  0  0  0
   -0.9215   -2.1846    1.0088 C   0  0  0  0  0  0  0  0  0  0  0  0
    1.5119   -2.7034    2.2707 C   0  0  0  0  0  0  0  0  0  0  0  0
   -0.8925   -2.9263    2.1898 C   0  0  0  0  0  0  0  0  0  0  0  0
    0.3243   -3.1857    2.8207 C   0  0  0  0  0  0  0  0  0  0  0  0
   -1.6531    1.4091   -0.4852 H   0  0  0  0  0  0  0  0  0  0  0  0
    1.1598    0.8689    0.0680 H   0  0  0  0  0  0  0  0  0  0  0  0
    1.0547   -1.2178   -1.4759 H   0  0  0  0  0  0  0  0  0  0  0  0
   -0.6853   -1.1551   -1.3623 H   0  0  0  0  0  0  0  0  0  0  0  0
    2.4131   -1.5897    0.6685 H   0  0  0  0  0  0  0  0  0  0  0  0
   -1.8741   -1.9873    0.5243 H   0  0  0  0  0  0  0  0  0  0  0  0
    2.4594   -2.9062    2.7612 H   0  0  0  0  0  0  0  0  0  0  0  0
   -1.8172   -3.3026    2.6171 H   0  0  0  0  0  0  0  0  0  0  0  0
    0.3472   -3.7644    3.7395 H   0  0  0  0  0  0  0  0  0  0  0  0
   -0.8056    1.7373   -2.3962 N   0  0  0  0  0  0  0  0  0  0  0  0
   -0.9733    2.4401   -3.6478 C   0  0  2  0  0  0  0  0  0  0  0  0
   -0.0268    3.6333   -3.6477 C   0  0  0  0  0  0  0  0  0  0  0  0
    0.4176    4.1368   -2.6182 O   0  0  0  0  0  0  0  0  0  0  0  0
   -2.4134    2.8887   -3.8419 C   0  0  0  0  0  0  0  0  0  0  0  0
   -1.6352    1.5083   -1.8567 H   0  0  0  0  0  0  0  0  0  0  0  0
   -0.6842    1.7440   -4.4427 H   0  0  0  0  0  0  0  0  0  0  0  0
   -2.7211    3.5868   -3.0549 H   0  0  0  0  0  0  0  0  0  0  0  0
   -2.5449    3.3959   -4.8034 H   0  0  0  0  0  0  0  0  0  0  0  0
   -3.0957    2.0324   -3.8119 H   0  0  0  0  0  0  0  0  0  0  0  0
    0.2289    4.0967   -4.9307 N   0  0  0  0  0  0  0  0  0  0  0  0
    1.0875    5.2277   -5.1944 C   0  0  0  0  0  0  0  0  0  0  0  0
   -0.1671    3.6064   -5.7273 H   0  0  0  0  0  0  0  0  0  0  0  0
    0.4826    6.1453   -5.2400 H   0  0  0  0  0  0  0  0  0  0  0  0
    1.8314    5.3188   -4.3892 H   0  0  0  0  0  0  0  0  0  0  0  0
    1.6030    5.0805   -6.1549 H   0  0  0  0  0  0  0  0  0  0  0  0
 25 27  1  0  0  0  0
 26 27  2  0  0  0  0
 23 25  2  0  0  0  0
 24 26  1  0  0  0  0
 22 23  1  0  0  0  0
 22 24  2  0  0  0  0
 21 22  1  0  0  0  0
  1  3  1  0  0  0  0
  1  7  1  0  0  0  0
  1  2  2  0  0  0  0
 38 39  1  0  0  0  0
 39 47  1  0  0  0  0
 39 40  2  0  0  0  0
  8  9  1  0  0  0  0
  9 17  1  0  0  0  0
  9 10  2  0  0  0  0
 18 19  1  0  0  0  0
 19 37  1  0  0  0  0
 19 20  2  0  0  0  0
 38 41  1  0  0  0  0
  8 11  1  0  0  0  0
 47 48  1  0  0  0  0
 18 21  1  0  0  0  0
 37 38  1  0  0  0  0
  7  8  1  0  0  0  0
 17 18  1  0  0  0  0
 27 36  1  0  0  0  0
 25 34  1  0  0  0  0
 26 35  1  0  0  0  0
 23 32  1  0  0  0  0
 24 33  1  0  0  0  0
  3  4  1  0  0  0  0
  3  5  1  0  0  0  0
  3  6  1  0  0  0  0
 41 44  1  0  0  0  0
 41 45  1  0  0  0  0
 41 46  1  0  0  0  0
 11 14  1  0  0  0  0
 11 15  1  0  0  0  0
 11 16  1  0  0  0  0
 48 50  1  0  0  0  0
 48 51  1  0  0  0  0
 48 52  1  0  0  0  0
 21 30  1  0  0  0  0
 21 31  1  0  0  0  0
 38 43  1  0  0  0  0
  8 13  1  0  0  0  0
 18 29  1  0  0  0  0
 47 49  1  0  0  0  0
  7 12  1  0  0  0  0
 37 42  1  0  0  0  0
 17 28  1  0  0  0  0
M  END
$$$$

  -OEChem-05262214473D

 52 52  0     1  0  0  0  0  0999 V2000
   -1.8248    0.3424    3.9102 C   0  0  0  0  0  0  0  0  0  0  0  0
   -0.8774   -0.2723    3.4345 O   0  0  0  0  0  0  0  0  0  0  0  0
   -2.2566    0.0600    5.3109 C   0  0  0  0  0  0  0  0  0  0  0  0
   -3.0163   -0.7363    5.3643 H   0  0  0  0  0  0  0  0  0  0  0  0
   -1.4254   -0.2876    5.9452 H   0  0  0  0  0  0  0  0  0  0  0  0
   -2.6947    0.9149    5.8505 H   0  0  0  0  0  0  0  0  0  0  0  0
   -2.5745    1.3149    3.2691 N   0  0  0  0  0  0  0  0  0  0  0  0
   -2.3276    1.7409    1.9167 C   0  0  2  0  0  0  0  0  0  0  0  0
   -0.9926    1.1555    1.4755 C   0  0  0  0  0  0  0  0  0  0  0  0
   -0.1206    0.8028    2.2668 O   0  0  0  0  0  0  0  0  0  0  0  0
   -2.3188    3.2577    1.8072 C   0  0  0  0  0  0  0  0  0  0  0  0
   -3.3395    1.7507    3.7809 H   0  0  0  0  0  0  0  0  0  0  0  0
   -3.1317    1.3224    1.3015 H   0  0  0  0  0  0  0  0  0  0  0  0
   -1.5198    3.6949    2.4169 H   0  0  0  0  0  0  0  0  0  0  0  0
   -2.1594    3.5799    0.7729 H   0  0  0  0  0  0  0  0  0  0  0  0
   -3.2690    3.6789    2.1530 H   0  0  0  0  0  0  0  0  0  0  0  0
   -0.8700    1.1124    0.0921 N   0  0  0  0  0  0  0  0  0  0  0  0
    0.3073    0.6116   -0.5716 C   0  0  2  0  0  0  0  0  0  0  0  0
    0.4321    1.3596   -1.8941 C   0  0  0  0  0  0  0  0  0  0  0  0
    1.4469    1.3292   -2.5869 O   0  0  0  0  0  0  0  0  0  0  0  0
    0.2339   -0.8995   -0.8189 C   0  0  0  0  0  0  0  0  0  0  0  0
    0.2661   -1.7022    0.4588 C   0  0  0  0  0  0  0  0  0  0  0  0
    1.4828   -1.9617    1.0897 C   0  0  0  0  0  0  0  0  0  0  0  0
   -0.9215   -2.1846    1.0088 C   0  0  0  0  0  0  0  0  0  0  0  0
    1.5119   -2.7034    2.2707 C   0  0  0  0  0  0  0  0  0  0  0  0
   -0.8925   -2.9263    2.1898 C   0  0  0  0  0  0  0  0  0  0  0  0
    0.3243   -3.1857    2.8207 C   0  0  0  0  0  0  0  0  0  0  0  0
   -1.6531    1.4091   -0.4852 H   0  0  0  0  0  0  0  0  0  0  0  0
    1.1598    0.8689    0.0680 H   0  0  0  0  0  0  0  0  0  0  0  0
    1.0547   -1.2178   -1.4759 H   0  0  0  0  0  0  0  0  0  0  0  0
   -0.6853   -1.1551   -1.3623 H   0  0  0  0  0  0  0  0  0  0  0  0
    2.4131   -1.5897    0.6685 H   0  0  0  0  0  0  0  0  0  0  0  0
   -1.8741   -1.9873    0.5243 H   0  0  0  0  0  0  0  0  0  0  0  0
    2.4594   -2.9062    2.7612 H   0  0  0  0  0  0  0  0  0  0  0  0
   -1.8172   -3.3026    2.6171 H   0  0  0  0  0  0  0  0  0  0  0  0
    0.3472   -3.7644    3.7395 H   0  0  0  0  0  0  0  0  0  0  0  0
   -0.7409    2.0217   -2.2293 N   0  0  0  0  0  0  0  0  0  0  0  0
   -0.9001    2.7884   -3.4440 C   0  0  2  0  0  0  0  0  0  0  0  0
    0.2839    3.7395   -3.5584 C   0  0  0  0  0  0  0  0  0  0  0  0
    0.9553    4.0940   -2.5917 O   0  0  0  0  0  0  0  0  0  0  0  0
   -2.2143    3.5536   -3.4471 C   0  0  0  0  0  0  0  0  0  0  0  0
   -1.5270    1.9644   -1.5885 H   0  0  0  0  0  0  0  0  0  0  0  0
   -0.8770    2.0740   -4.2742 H   0  0  0  0  0  0  0  0  0  0  0  0
   -2.2558    4.2743   -2.6222 H   0  0  0  0  0  0  0  0  0  0  0  0
   -2.3465    4.1113   -4.3801 H   0  0  0  0  0  0  0  0  0  0  0  0
   -3.0633    2.8706   -3.3348 H   0  0  0  0  0  0  0  0  0  0  0  0
    0.4758    4.1796   -4.8606 N   0  0  0  0  0  0  0  0  0  0  0  0
    1.5280    5.0991   -5.2256 C   0  0  0  0  0  0  0  0  0  0  0  0
   -0.1168    3.8187   -5.6024 H   0  0  0  0  0  0  0  0  0  0  0  0
    1.1451    6.1296   -5.1864 H   0  0  0  0  0  0  0  0  0  0  0  0
    2.3676    4.9931   -4.5229 H   0  0  0  0  0  0  0  0  0  0  0  0
    1.8732    4.8749   -6.2457 H   0  0  0  0  0  0  0  0  0  0  0  0
 25 27  1  0  0  0  0
 26 27  2  0  0  0  0
 23 25  2  0  0  0  0
 24 26  1  0  0  0  0
 22 23  1  0  0  0  0
 22 24  2  0  0  0  0
 21 22  1  0  0  0  0
  1  3  1  0  0  0  0
  1  7  1  0  0  0  0
  1  2  2  0  0  0  0
 38 39  1  0  0  0  0
 39 47  1  0  0  0  0
 39 40  2  0  0  0  0
  8  9  1  0  0  0  0
  9 17  1  0  0  0  0
  9 10  2  0  0  0  0
 18 19  1  0  0  0  0
 19 37  1  0  0  0  0
 19 20  2  0  0  0  0
 38 41  1  0  0  0  0
  8 11  1  0  0  0  0
 47 48  1  0  0  0  0
 18 21  1  0  0  0  0
 37 38  1  0  0  0  0
  7  8  1  0  0  0  0
 17 18  1  0  0  0  0
 27 36  1  0  0  0  0
 25 34  1  0  0  0  0
 26 35  1  0  0  0  0
 23 32  1  0  0  0  0
 24 33  1  0  0  0  0
  3  4  1  0  0  0  0
  3  5  1  0  0  0  0
  3  6  1  0  0  0  0
 41 44  1  0  0  0  0
 41 45  1  0  0  0  0
 41 46  1  0  0  0  0
 11 14  1  0  0  0  0
 11 15  1  0  0  0  0
 11 16  1  0  0  0  0
 48 50  1  0  0  0  0
 48 51  1  0  0  0  0
 48 52  1  0  0  0  0
 21 30  1  0  0  0  0
 21 31  1  0  0  0  0
 38 43  1  0  0  0  0
  8 13  1  0  0  0  0
 18 29  1  0  0  0  0
 47 49  1  0  0  0  0
  7 12  1  0  0  0  0
 37 42  1  0  0  0  0
 17 28  1  0  0  0  0
M  END
$$$$

  -OEChem-05262214473D

 52 52  0     1  0  0  0  0  0999 V2000
   -1.8248    0.3424    3.9102 C   0  0  0  0  0  0  0  0  0  0  0  0
   -0.8774   -0.2723    3.4345 O   0  0  0  0  0  0  0  0  0  0  0  0
   -2.2566    0.0600    5.3109 C   0  0  0  0  0  0  0  0  0  0  0  0
   -3.0163   -0.7363    5.3643 H   0  0  0  0  0  0  0  0  0  0  0  0
   -1.4254   -0.2876    5.9452 H   0  0  0  0  0  0  0  0  0  0  0  0
   -2.6947    0.9149    5.8505 H   0  0  0  0  0  0  0  0  0  0  0  0
   -2.5745    1.3149    3.2691 N   0  0  0  0  0  0  0  0  0  0  0  0
   -2.3276    1.7409    1.9167 C   0  0  2  0  0  0  0  0  0  0  0  0
   -0.9926    1.1555    1.4755 C   0  0  0  0  0  0  0  0  0  0  0  0
   -0.1206    0.8028    2.2668 O   0  0  0  0  0  0  0  0  0  0  0  0
   -2.3188    3.2577    1.8072 C   0  0  0  0  0  0  0  0  0  0  0  0
   -3.3395    1.7507    3.7809 H   0  0  0  0  0  0  0  0  0  0  0  0
   -3.1317    1.3224    1.3015 H   0  0  0  0  0  0  0  0  0  0  0  0
   -1.5198    3.6949    2.4169 H   0  0  0  0  0  0  0  0  0  0  0  0
   -2.1594    3.5799    0.7729 H   0  0  0  0  0  0  0  0  0  0  0  0
   -3.2690    3.6789    2.1530 H   0  0  0  0  0  0  0  0  0  0  0  0
   -0.8700    1.1124    0.0921 N   0  0  0  0  0  0  0  0  0  0  0  0
    0.3073    0.6116   -0.5716 C   0  0  2  0  0  0  0  0  0  0  0  0
    0.4321    1.3596   -1.8941 C   0  0  0  0  0  0  0  0  0  0  0  0
    1.3194    1.1282   -2.7126 O   0  0  0  0  0  0  0  0  0  0  0  0
    0.2339   -0.8995   -0.8189 C   0  0  0  0  0  0  0  0  0  0  0  0
    0.2661   -1.7022    0.4588 C   0  0  0  0  0  0  0  0  0  0  0  0
    1.4828   -1.9617    1.0897 C   0  0  0  0  0  0  0  0  0  0  0  0
   -0.9215   -2.1846    1.0088 C   0  0  0  0  0  0  0  0  0  0  0  0
    1.5119   -2.7034    2.2707 C   0  0  0  0  0  0  0  0  0  0  0  0
   -0.8925   -2.9263    2.1898 C   0  0  0  0  0  0  0  0  0  0  0  0
    0.3243   -3.1857    2.8207 C   0  0  0  0  0  0  0  0  0  0  0  0
   -1.6531    1.4091   -0.4852 H   0  0  0  0  0  0  0  0  0  0  0  0
    1.1598    0.8689    0.0680 H   0  0  0  0  0  0  0  0  0  0  0  0
    1.0547   -1.2178   -1.4759 H   0  0  0  0  0  0  0  0  0  0  0  0
   -0.6853   -1.1551   -1.3623 H   0  0  0  0  0  0  0  0  0  0  0  0
    2.4131   -1.5897    0.6685 H   0  0  0  0  0  0  0  0  0  0  0  0
   -1.8741   -1.9873    0.5243 H   0  0  0  0  0  0  0  0  0  0  0  0
    2.4594   -2.9062    2.7612 H   0  0  0  0  0  0  0  0  0  0  0  0
   -1.8172   -3.3026    2.6171 H   0  0  0  0  0  0  0  0  0  0  0  0
    0.3472   -3.7644    3.7395 H   0  0  0  0  0  0  0  0  0  0  0  0
   -0.5934    2.2782   -2.0702 N   0  0  0  0  0  0  0  0  0  0  0  0
   -0.7253    3.1040   -3.2490 C   0  0  2  0  0  0  0  0  0  0  0  0
    0.6192    3.7703   -3.5093 C   0  0  0  0  0  0  0  0  0  0  0  0
    1.4684    3.9314   -2.6353 O   0  0  0  0  0  0  0  0  0  0  0  0
   -1.8226    4.1428   -3.0769 C   0  0  0  0  0  0  0  0  0  0  0  0
   -1.2860    2.3750   -1.3335 H   0  0  0  0  0  0  0  0  0  0  0  0
   -0.9678    2.4326   -4.0799 H   0  0  0  0  0  0  0  0  0  0  0  0
   -1.5972    4.8247   -2.2488 H   0  0  0  0  0  0  0  0  0  0  0  0
   -1.9406    4.7489   -3.9812 H   0  0  0  0  0  0  0  0  0  0  0  0
   -2.7831    3.6630   -2.8602 H   0  0  0  0  0  0  0  0  0  0  0  0
    0.7418    4.2027   -4.8224 N   0  0  0  0  0  0  0  0  0  0  0  0
    1.9207    4.8766   -5.3144 C   0  0  0  0  0  0  0  0  0  0  0  0
   -0.0046    4.0099   -5.4837 H   0  0  0  0  0  0  0  0  0  0  0  0
    1.7884    5.9645   -5.2191 H   0  0  0  0  0  0  0  0  0  0  0  0
    2.7955    4.5609   -4.7269 H   0  0  0  0  0  0  0  0  0  0  0  0
    2.0764    4.6176   -6.3721 H   0  0  0  0  0  0  0  0  0  0  0  0
 25 27  1  0  0  0  0
 26 27  2  0  0  0  0
 23 25  2  0  0  0  0
 24 26  1  0  0  0  0
 22 23  1  0  0  0  0
 22 24  2  0  0  0  0
 21 22  1  0  0  0  0
  1  3  1  0  0  0  0
  1  7  1  0  0  0  0
  1  2  2  0  0  0  0
 38 39  1  0  0  0  0
 39 47  1  0  0  0  0
 39 40  2  0  0  0  0
  8  9  1  0  0  0  0
  9 17  1  0  0  0  0
  9 10  2  0  0  0  0
 18 19  1  0  0  0  0
 19 37  1  0  0  0  0
 19 20  2  0  0  0  0
 38 41  1  0  0  0  0
  8 11  1  0  0  0  0
 47 48  1  0  0  0  0
 18 21  1  0  0  0  0
 37 38  1  0  0  0  0
  7  8  1  0  0  0  0
 17 18  1  0  0  0  0
 27 36  1  0  0  0  0
 25 34  1  0  0  0  0
 26 35  1  0  0  0  0
 23 32  1  0  0  0  0
 24 33  1  0  0  0  0
  3  4  1  0  0  0  0
  3  5  1  0  0  0  0
  3  6  1  0  0  0  0
 41 44  1  0  0  0  0
 41 45  1  0  0  0  0
 41 46  1  0  0  0  0
 11 14  1  0  0  0  0
 11 15  1  0  0  0  0
 11 16  1  0  0  0  0
 48 50  1  0  0  0  0
 48 51  1  0  0  0  0
 48 52  1  0  0  0  0
 21 30  1  0  0  0  0
 21 31  1  0  0  0  0
 38 43  1  0  0  0  0
  8 13  1  0  0  0  0
 18 29  1  0  0  0  0
 47 49  1  0  0  0  0
  7 12  1  0  0  0  0
 37 42  1  0  0  0  0
 17 28  1  0  0  0  0
M  END
$$$$

  -OEChem-05262214473D

 52 52  0     1  0  0  0  0  0999 V2000
   -1.8248    0.3424    3.9102 C   0  0  0  0  0  0  0  0  0  0  0  0
   -0.8774   -0.2723    3.4345 O   0  0  0  0  0  0  0  0  0  0  0  0
   -2.2566    0.0600    5.3109 C   0  0  0  0  0  0  0  0  0  0  0  0
   -3.0163   -0.7363    5.3643 H   0  0  0  0  0  0  0  0  0  0  0  0
   -1.4254   -0.2876    5.9452 H   0  0  0  0  0  0  0  0  0  0  0  0
   -2.6947    0.9149    5.8505 H   0  0  0  0  0  0  0  0  0  0  0  0
   -2.5745    1.3149    3.2691 N   0  0  0  0  0  0  0  0  0  0  0  0
   -2.3276    1.7409    1.9167 C   0  0  2  0  0  0  0  0  0  0  0  0
   -0.9926    1.1555    1.4755 C   0  0  0  0  0  0  0  0  0  0  0  0
   -0.1206    0.8028    2.2668 O   0  0  0  0  0  0  0  0  0  0  0  0
   -2.3188    3.2577    1.8072 C   0  0  0  0  0  0  0  0  0  0  0  0
   -3.3395    1.7507    3.7809 H   0  0  0  0  0  0  0  0  0  0  0  0
   -3.1317    1.3224    1.3015 H   0  0  0  0  0  0  0  0  0  0  0  0
   -1.5198    3.6949    2.4169 H   0  0  0  0  0  0  0  0  0  0  0  0
   -2.1594    3.5799    0.7729 H   0  0  0  0  0  0  0  0  0  0  0  0
   -3.2690    3.6789    2.1530 H   0  0  0  0  0  0  0  0  0  0  0  0
   -0.8700    1.1124    0.0921 N   0  0  0  0  0  0  0  0  0  0  0  0
    0.3073    0.6116   -0.5716 C   0  0  2  0  0  0  0  0  0  0  0  0
    0.4321    1.3596   -1.8941 C   0  0  0  0  0  0  0  0  0  0  0  0
    1.1351    0.9654   -2.8221 O   0  0  0  0  0  0  0  0  0  0  0  0
    0.2339   -0.8995   -0.8189 C   0  0  0  0  0  0  0  0  0  0  0  0
    0.2661   -1.7022    0.4588 C   0  0  0  0  0  0  0  0  0  0  0  0
    1.4828   -1.9617    1.0897 C   0  0  0  0  0  0  0  0  0  0  0  0
   -0.9215   -2.1846    1.0088 C   0  0  0  0  0  0  0  0  0  0  0  0
    1.5119   -2.7034    2.2707 C   0  0  0  0  0  0  0  0  0  0  0  0
   -0.8925   -2.9263    2.1898 C   0  0  0  0  0  0  0  0  0  0  0  0
    0.3243   -3.1857    2.8207 C   0  0  0  0  0  0  0  0  0  0  0  0
   -1.6531    1.4091   -0.4852 H   0  0  0  0  0  0  0  0  0  0  0  0
    1.1598    0.8689    0.0680 H   0  0  0  0  0  0  0  0  0  0  0  0
    1.0547   -1.2178   -1.4759 H   0  0  0  0  0  0  0  0  0  0  0  0
   -0.6853   -1.1551   -1.3623 H   0  0  0  0  0  0  0  0  0  0  0  0
    2.4131   -1.5897    0.6685 H   0  0  0  0  0  0  0  0  0  0  0  0
   -1.8741   -1.9873    0.5243 H   0  0  0  0  0  0  0  0  0  0  0  0
    2.4594   -2.9062    2.7612 H   0  0  0  0  0  0  0  0  0  0  0  0
   -1.8172   -3.3026    2.6171 H   0  0  0  0  0  0  0  0  0  0  0  0
    0.3472   -3.7644    3.7395 H   0  0  0  0  0  0  0  0  0  0  0  0
   -0.3731    2.4896   -1.9299 N   0  0  0  0  0  0  0  0  0  0  0  0
   -0.4609    3.3655   -3.0762 C   0  0  2  0  0  0  0  0  0  0  0  0
    0.9562    3.7238   -3.5038 C   0  0  0  0  0  0  0  0  0  0  0  0
    1.9220    3.6601   -2.7460 O   0  0  0  0  0  0  0  0  0  0  0  0
   -1.2649    4.6162   -2.7566 C   0  0  0  0  0  0  0  0  0  0  0  0
   -0.9286    2.7122   -1.1092 H   0  0  0  0  0  0  0  0  0  0  0  0
   -0.9503    2.7952   -3.8732 H   0  0  0  0  0  0  0  0  0  0  0  0
   -0.7899    5.2005   -1.9601 H   0  0  0  0  0  0  0  0  0  0  0  0
   -1.3546    5.2651   -3.6340 H   0  0  0  0  0  0  0  0  0  0  0  0
   -2.2743    4.3553   -2.4206 H   0  0  0  0  0  0  0  0  0  0  0  0
    1.0088    4.1645   -4.8188 N   0  0  0  0  0  0  0  0  0  0  0  0
    2.2387    4.5755   -5.4547 C   0  0  0  0  0  0  0  0  0  0  0  0
    0.1617    4.1668   -5.3793 H   0  0  0  0  0  0  0  0  0  0  0  0
    2.3686    5.6613   -5.3358 H   0  0  0  0  0  0  0  0  0  0  0  0
    3.0857    4.0517   -4.9875 H   0  0  0  0  0  0  0  0  0  0  0  0
    2.1989    4.3261   -6.5254 H   0  0  0  0  0  0  0  0  0  0  0  0
 25 27  1  0  0  0  0
 26 27  2  0  0  0  0
 23 25  2  0  0  0  0
 24 26  1  0  0  0  0
 22 23  1  0  0  0  0
 22 24  2  0  0  0  0
 21 22  1  0  0  0  0
  1  3  1  0  0  0  0
  1  7  1  0  0  0  0
  1  2  2  0  0  0  0
 38 39  1  0  0  0  0
 39 47  1  0  0  0  0
 39 40  2  0  0  0  0
  8  9  1  0  0  0  0
  9 17  1  0  0  0  0
  9 10  2  0  0  0  0
 18 19  1  0  0  0  0
 19 37  1  0  0  0  0
 19 20  2  0  0  0  0
 38 41  1  0  0  0  0
  8 11  1  0  0  0  0
 47 48  1  0  0  0  0
 18 21  1  0  0  0  0
 37 38  1  0  0  0  0
  7  8  1  0  0  0  0
 17 18  1  0  0  0  0
 27 36  1  0  0  0  0
 25 34  1  0  0  0  0
 26 35  1  0  0  0  0
 23 32  1  0  0  0  0
 24 33  1  0  0  0  0
  3  4  1  0  0  0  0
  3  5  1  0  0  0  0
  3  6  1  0  0  0  0
 41 44  1  0  0  0  0
 41 45  1  0  0  0  0
 41 46  1  0  0  0  0
 11 14  1  0  0  0  0
 11 15  1  0  0  0  0
 11 16  1  0  0  0  0
 48 50  1  0  0  0  0
 48 51  1  0  0  0  0
 48 52  1  0  0  0  0
 21 30  1  0  0  0  0
 21 31  1  0  0  0  0
 38 43  1  0  0  0  0
  8 13  1  0  0  0  0
 18 29  1  0  0  0  0
 47 49  1  0  0  0  0
  7 12  1  0  0  0  0
 37 42  1  0  0  0  0
 17 28  1  0  0  0  0
M  END
$$$$

  -OEChem-05262214473D

 52 52  0     1  0  0  0  0  0999 V2000
   -1.8248    0.3424    3.9102 C   0  0  0  0  0  0  0  0  0  0  0  0
   -0.8774   -0.2723    3.4345 O   0  0  0  0  0  0  0  0  0  0  0  0
   -2.2566    0.0600    5.3109 C   0  0  0  0  0  0  0  0  0  0  0  0
   -3.0163   -0.7363    5.3643 H   0  0  0  0  0  0  0  0  0  0  0  0
   -1.4254   -0.2876    5.9452 H   0  0  0  0  0  0  0  0  0  0  0  0
   -2.6947    0.9149    5.8505 H   0  0  0  0  0  0  0  0  0  0  0  0
   -2.5745    1.3149    3.2691 N   0  0  0  0  0  0  0  0  0  0  0  0
   -2.3276    1.7409    1.9167 C   0  0  2  0  0  0  0  0  0  0  0  0
   -0.9926    1.1555    1.4755 C   0  0  0  0  0  0  0  0  0  0  0  0
   -0.1206    0.8028    2.2668 O   0  0  0  0  0  0  0  0  0  0  0  0
   -2.3188    3.2577    1.8072 C   0  0  0  0  0  0  0  0  0  0  0  0
   -3.3395    1.7507    3.7809 H   0  0  0  0  0  0  0  0  0  0  0  0
   -3.1317    1.3224    1.3015 H   0  0  0  0  0  0  0  0  0  0  0  0
   -1.5198    3.6949    2.4169 H   0  0  0  0  0  0  0  0  0  0  0  0
   -2.1594    3.5799    0.7729 H   0  0  0  0  0  0  0  0  0  0  0  0
   -3.2690    3.6789    2.1530 H   0  0  0  0  0  0  0  0  0  0  0  0
   -0.8700    1.1124    0.0921 N   0  0  0  0  0  0  0  0  0  0  0  0
    0.3073    0.6116   -0.5716 C   0  0  2  0  0  0  0  0  0  0  0  0
    0.4321    1.3596   -1.8941 C   0  0  0  0  0  0  0  0  0  0  0  0
    0.9067    0.8518   -2.9079 O   0  0  0  0  0  0  0  0  0  0  0  0
    0.2339   -0.8995   -0.8189 C   0  0  0  0  0  0  0  0  0  0  0  0
    0.2661   -1.7022    0.4588 C   0  0  0  0  0  0  0  0  0  0  0  0
    1.4828   -1.9617    1.0897 C   0  0  0  0  0  0  0  0  0  0  0  0
   -0.9215   -2.1846    1.0088 C   0  0  0  0  0  0  0  0  0  0  0  0
    1.5119   -2.7034    2.2707 C   0  0  0  0  0  0  0  0  0  0  0  0
   -0.8925   -2.9263    2.1898 C   0  0  0  0  0  0  0  0  0  0  0  0
    0.3243   -3.1857    2.8207 C   0  0  0  0  0  0  0  0  0  0  0  0
   -1.6531    1.4091   -0.4852 H   0  0  0  0  0  0  0  0  0  0  0  0
    1.1598    0.8689    0.0680 H   0  0  0  0  0  0  0  0  0  0  0  0
    1.0547   -1.2178   -1.4759 H   0  0  0  0  0  0  0  0  0  0  0  0
   -0.6853   -1.1551   -1.3623 H   0  0  0  0  0  0  0  0  0  0  0  0
    2.4131   -1.5897    0.6685 H   0  0  0  0  0  0  0  0  0  0  0  0
   -1.8741   -1.9873    0.5243 H   0  0  0  0  0  0  0  0  0  0  0  0
    2.4594   -2.9062    2.7612 H   0  0  0  0  0  0  0  0  0  0  0  0
   -1.8172   -3.3026    2.6171 H   0  0  0  0  0  0  0  0  0  0  0  0
    0.3472   -3.7644    3.7395 H   0  0  0  0  0  0  0  0  0  0  0  0
   -0.0951    2.6413   -1.8179 N   0  0  0  0  0  0  0  0  0  0  0  0
   -0.1248    3.5550   -2.9373 C   0  0  2  0  0  0  0  0  0  0  0  0
    1.2720    3.6031   -3.5423 C   0  0  0  0  0  0  0  0  0  0  0  0
    2.2851    3.2984   -2.9162 O   0  0  0  0  0  0  0  0  0  0  0  0
   -0.5792    4.9414   -2.5080 C   0  0  0  0  0  0  0  0  0  0  0  0
   -0.4793    2.9528   -0.9307 H   0  0  0  0  0  0  0  0  0  0  0  0
   -0.8258    3.1372   -3.6680 H   0  0  0  0  0  0  0  0  0  0  0  0
    0.1109    5.3762   -1.7757 H   0  0  0  0  0  0  0  0  0  0  0  0
   -0.6286    5.6249   -3.3620 H   0  0  0  0  0  0  0  0  0  0  0  0
   -1.5715    4.9006   -2.0460 H   0  0  0  0  0  0  0  0  0  0  0  0
    1.2586    4.0675   -4.8501 N   0  0  0  0  0  0  0  0  0  0  0  0
    2.4605    4.2161   -5.6370 C   0  0  0  0  0  0  0  0  0  0  0  0
    0.3709    4.2789   -5.2962 H   0  0  0  0  0  0  0  0  0  0  0  0
    2.8460    5.2406   -5.5287 H   0  0  0  0  0  0  0  0  0  0  0  0
    3.2187    3.5002   -5.2869 H   0  0  0  0  0  0  0  0  0  0  0  0
    2.2324    4.0203   -6.6952 H   0  0  0  0  0  0  0  0  0  0  0  0
 25 27  1  0  0  0  0
 26 27  2  0  0  0  0
 23 25  2  0  0  0  0
 24 26  1  0  0  0  0
 22 23  1  0  0  0  0
 22 24  2  0  0  0  0
 21 22  1  0  0  0  0
  1  3  1  0  0  0  0
  1  7  1  0  0  0  0
  1  2  2  0  0  0  0
 38 39  1  0  0  0  0
 39 47  1  0  0  0  0
 39 40  2  0  0  0  0
  8  9  1  0  0  0  0
  9 17  1  0  0  0  0
  9 10  2  0  0  0  0
 18 19  1  0  0  0  0
 19 37  1  0  0  0  0
 19 20  2  0  0  0  0
 38 41  1  0  0  0  0
  8 11  1  0  0  0  0
 47 48  1  0  0  0  0
 18 21  1  0  0  0  0
 37 38  1  0  0  0  0
  7  8  1  0  0  0  0
 17 18  1  0  0  0  0
 27 36  1  0  0  0  0
 25 34  1  0  0  0  0
 26 35  1  0  0  0  0
 23 32  1  0  0  0  0
 24 33  1  0  0  0  0
  3  4  1  0  0  0  0
  3  5  1  0  0  0  0
  3  6  1  0  0  0  0
 41 44  1  0  0  0  0
 41 45  1  0  0  0  0
 41 46  1  0  0  0  0
 11 14  1  0  0  0  0
 11 15  1  0  0  0  0
 11 16  1  0  0  0  0
 48 50  1  0  0  0  0
 48 51  1  0  0  0  0
 48 52  1  0  0  0  0
 21 30  1  0  0  0  0
 21 31  1  0  0  0  0
 38 43  1  0  0  0  0
  8 13  1  0  0  0  0
 18 29  1  0  0  0  0
 47 49  1  0  0  0  0
  7 12  1  0  0  0  0
 37 42  1  0  0  0  0
 17 28  1  0  0  0  0
M  END
$$$$

  -OEChem-05262214473D

 52 52  0     1  0  0  0  0  0999 V2000
   -1.8248    0.3424    3.9102 C   0  0  0  0  0  0  0  0  0  0  0  0
   -0.8774   -0.2723    3.4345 O   0  0  0  0  0  0  0  0  0  0  0  0
   -2.2566    0.0600    5.3109 C   0  0  0  0  0  0  0  0  0  0  0  0
   -3.0163   -0.7363    5.3643 H   0  0  0  0  0  0  0  0  0  0  0  0
   -1.4254   -0.2876    5.9452 H   0  0  0  0  0  0  0  0  0  0  0  0
   -2.6947    0.9149    5.8505 H   0  0  0  0  0  0  0  0  0  0  0  0
   -2.5745    1.3149    3.2691 N   0  0  0  0  0  0  0  0  0  0  0  0
   -2.3276    1.7409    1.9167 C   0  0  2  0  0  0  0  0  0  0  0  0
   -0.9926    1.1555    1.4755 C   0  0  0  0  0  0  0  0  0  0  0  0
   -0.1206    0.8028    2.2668 O   0  0  0  0  0  0  0  0  0  0  0  0
   -2.3188    3.2577    1.8072 C   0  0  0  0  0  0  0  0  0  0  0  0
   -3.3395    1.7507    3.7809 H   0  0  0  0  0  0  0  0  0  0  0  0
   -3.1317    1.3224    1.3015 H   0  0  0  0  0  0  0  0  0  0  0  0
   -1.5198    3.6949    2.4169 H   0  0  0  0  0  0  0  0  0  0  0  0
   -2.1594    3.5799    0.7729 H   0  0  0  0  0  0  0  0  0  0  0  0
   -3.2690    3.6789    2.1530 H   0  0  0  0  0  0  0  0  0  0  0  0
   -0.8700    1.1124    0.0921 N   0  0  0  0  0  0  0  0  0  0  0  0
    0.3073    0.6116   -0.5716 C   0  0  2  0  0  0  0  0  0  0  0  0
    0.4321    1.3596   -1.8941 C   0  0  0  0  0  0  0  0  0  0  0  0
    0.6496    0.7951   -2.9641 O   0  0  0  0  0  0  0  0  0  0  0  0
    0.2339   -0.8995   -0.8189 C   0  0  0  0  0  0  0  0  0  0  0  0
    0.2661   -1.7022    0.4588 C   0  0  0  0  0  0  0  0  0  0  0  0
    1.4828   -1.9617    1.0897 C   0  0  0  0  0  0  0  0  0  0  0  0
   -0.9215   -2.1846    1.0088 C   0  0  0  0  0  0  0  0  0  0  0  0
    1.5119   -2.7034    2.2707 C   0  0  0  0  0  0  0  0  0  0  0  0
   -0.8925   -2.9263    2.1898 C   0  0  0  0  0  0  0  0  0  0  0  0
    0.3243   -3.1857    2.8207 C   0  0  0  0  0  0  0  0  0  0  0  0
   -1.6531    1.4091   -0.4852 H   0  0  0  0  0  0  0  0  0  0  0  0
    1.1598    0.8689    0.0680 H   0  0  0  0  0  0  0  0  0  0  0  0
    1.0547   -1.2178   -1.4759 H   0  0  0  0  0  0  0  0  0  0  0  0
   -0.6853   -1.1551   -1.3623 H   0  0  0  0  0  0  0  0  0  0  0  0
    2.4131   -1.5897    0.6685 H   0  0  0  0  0  0  0  0  0  0  0  0
   -1.8741   -1.9873    0.5243 H   0  0  0  0  0  0  0  0  0  0  0  0
    2.4594   -2.9062    2.7612 H   0  0  0  0  0  0  0  0  0  0  0  0
   -1.8172   -3.3026    2.6171 H   0  0  0  0  0  0  0  0  0  0  0  0
    0.3472   -3.7644    3.7395 H   0  0  0  0  0  0  0  0  0  0  0  0
    0.2218    2.7231   -1.7418 N   0  0  0  0  0  0  0  0  0  0  0  0
    0.2601    3.6597   -2.8418 C   0  0  2  0  0  0  0  0  0  0  0  0
    1.5451    3.4164   -3.6221 C   0  0  0  0  0  0  0  0  0  0  0  0
    2.5330    2.8712   -3.1345 O   0  0  0  0  0  0  0  0  0  0  0  0
    0.1877    5.0963   -2.3480 C   0  0  0  0  0  0  0  0  0  0  0  0
    0.0315    3.0806   -0.8102 H   0  0  0  0  0  0  0  0  0  0  0  0
   -0.6026    3.4352   -3.4785 H   0  0  0  0  0  0  0  0  0  0  0  0
    1.0438    5.3397   -1.7084 H   0  0  0  0  0  0  0  0  0  0  0  0
    0.1880    5.8036   -3.1839 H   0  0  0  0  0  0  0  0  0  0  0  0
   -0.7228    5.2615   -1.7618 H   0  0  0  0  0  0  0  0  0  0  0  0
    1.4741    3.9185   -4.9141 N   0  0  0  0  0  0  0  0  0  0  0  0
    2.5709    3.8231   -5.8489 C   0  0  0  0  0  0  0  0  0  0  0  0
    0.6086    4.3384   -5.2401 H   0  0  0  0  0  0  0  0  0  0  0  0
    3.1883    4.7312   -5.7845 H   0  0  0  0  0  0  0  0  0  0  0  0
    3.1854    2.9440   -5.6046 H   0  0  0  0  0  0  0  0  0  0  0  0
    2.1744    3.7210   -6.8699 H   0  0  0  0  0  0  0  0  0  0  0  0
 25 27  1  0  0  0  0
 26 27  2  0  0  0  0
 23 25  2  0  0  0  0
 24 26  1  0  0  0  0
 22 23  1  0  0  0  0
 22 24  2  0  0  0  0
 21 22  1  0  0  0  0
  1  3  1  0  0  0  0
  1  7  1  0  0  0  0
  1  2  2  0  0  0  0
 38 39  1  0  0  0  0
 39 47  1  0  0  0  0
 39 40  2  0  0  0  0
  8  9  1  0  0  0  0
  9 17  1  0  0  0  0
  9 10  2  0  0  0  0
 18 19  1  0  0  0  0
 19 37  1  0  0  0  0
 19 20  2  0  0  0  0
 38 41  1  0  0  0  0
  8 11  1  0  0  0  0
 47 48  1  0  0  0  0
 18 21  1  0  0  0  0
 37 38  1  0  0  0  0
  7  8  1  0  0  0  0
 17 18  1  0  0  0  0
 27 36  1  0  0  0  0
 25 34  1  0  0  0  0
 26 35  1  0  0  0  0
 23 32  1  0  0  0  0
 24 33  1  0  0  0  0
  3  4  1  0  0  0  0
  3  5  1  0  0  0  0
  3  6  1  0  0  0  0
 41 44  1  0  0  0  0
 41 45  1  0  0  0  0
 41 46  1  0  0  0  0
 11 14  1  0  0  0  0
 11 15  1  0  0  0  0
 11 16  1  0  0  0  0
 48 50  1  0  0  0  0
 48 51  1  0  0  0  0
 48 52  1  0  0  0  0
 21 30  1  0  0  0  0
 21 31  1  0  0  0  0
 38 43  1  0  0  0  0
  8 13  1  0  0  0  0
 18 29  1  0  0  0  0
 47 49  1  0  0  0  0
  7 12  1  0  0  0  0
 37 42  1  0  0  0  0
 17 28  1  0  0  0  0
M  END
$$$$

  -OEChem-05262214473D

 52 52  0     1  0  0  0  0  0999 V2000
   -1.8248    0.3424    3.9102 C   0  0  0  0  0  0  0  0  0  0  0  0
   -0.8774   -0.2723    3.4345 O   0  0  0  0  0  0  0  0  0  0  0  0
   -2.2566    0.0600    5.3109 C   0  0  0  0  0  0  0  0  0  0  0  0
   -3.0163   -0.7363    5.3643 H   0  0  0  0  0  0  0  0  0  0  0  0
   -1.4254   -0.2876    5.9452 H   0  0  0  0  0  0  0  0  0  0  0  0
   -2.6947    0.9149    5.8505 H   0  0  0  0  0  0  0  0  0  0  0  0
   -2.5745    1.3149    3.2691 N   0  0  0  0  0  0  0  0  0  0  0  0
   -2.3276    1.7409    1.9167 C   0  0  2  0  0  0  0  0  0  0  0  0
   -0.9926    1.1555    1.4755 C   0  0  0  0  0  0  0  0  0  0  0  0
   -0.1206    0.8028    2.2668 O   0  0  0  0  0  0  0  0  0  0  0  0
   -2.3188    3.2577    1.8072 C   0  0  0  0  0  0  0  0  0  0  0  0
   -3.3395    1.7507    3.7809 H   0  0  0  0  0  0  0  0  0  0  0  0
   -3.1317    1.3224    1.3015 H   0  0  0  0  0  0  0  0  0  0  0  0
   -1.5198    3.6949    2.4169 H   0  0  0  0  0  0  0  0  0  0  0  0
   -2.1594    3.5799    0.7729 H   0  0  0  0  0  0  0  0  0  0  0  0
   -3.2690    3.6789    2.1530 H   0  0  0  0  0  0  0  0  0  0  0  0
   -0.8700    1.1124    0.0921 N   0  0  0  0  0  0  0  0  0  0  0  0
    0.3073    0.6116   -0.5716 C   0  0  2  0  0  0  0  0  0  0  0  0
    0.4321    1.3596   -1.8941 C   0  0  0  0  0  0  0  0  0  0  0  0
    0.3815    0.7994   -2.9870 O   0  0  0  0  0  0  0  0  0  0  0  0
    0.2339   -0.8995   -0.8189 C   0  0  0  0  0  0  0  0  0  0  0  0
    0.2661   -1.7022    0.4588 C   0  0  0  0  0  0  0  0  0  0  0  0
    1.4828   -1.9617    1.0897 C   0  0  0  0  0  0  0  0  0  0  0  0
   -0.9215   -2.1846    1.0088 C   0  0  0  0  0  0  0  0  0  0  0  0
    1.5119   -2.7034    2.2707 C   0  0  0  0  0  0  0  0  0  0  0  0
   -0.8925   -2.9263    2.1898 C   0  0  0  0  0  0  0  0  0  0  0  0
    0.3243   -3.1857    2.8207 C   0  0  0  0  0  0  0  0  0  0  0  0
   -1.6531    1.4091   -0.4852 H   0  0  0  0  0  0  0  0  0  0  0  0
    1.1598    0.8689    0.0680 H   0  0  0  0  0  0  0  0  0  0  0  0
    1.0547   -1.2178   -1.4759 H   0  0  0  0  0  0  0  0  0  0  0  0
   -0.6853   -1.1551   -1.3623 H   0  0  0  0  0  0  0  0  0  0  0  0
    2.4131   -1.5897    0.6685 H   0  0  0  0  0  0  0  0  0  0  0  0
   -1.8741   -1.9873    0.5243 H   0  0  0  0  0  0  0  0  0  0  0  0
    2.4594   -2.9062    2.7612 H   0  0  0  0  0  0  0  0  0  0  0  0
   -1.8172   -3.3026    2.6171 H   0  0  0  0  0  0  0  0  0  0  0  0
    0.3472   -3.7644    3.7395 H   0  0  0  0  0  0  0  0  0  0  0  0
    0.5559    2.7293   -1.7067 N   0  0  0  0  0  0  0  0  0  0  0  0
    0.6674    3.6724   -2.7962 C   0  0  2  0  0  0  0  0  0  0  0  0
    1.7568    3.1765   -3.7379 C   0  0  0  0  0  0  0  0  0  0  0  0
    2.6489    2.4075   -3.3858 O   0  0  0  0  0  0  0  0  0  0  0  0
    0.9835    5.0703   -2.2877 C   0  0  0  0  0  0  0  0  0  0  0  0
    0.5688    3.0868   -0.7561 H   0  0  0  0  0  0  0  0  0  0  0  0
   -0.2961    3.6689   -3.3174 H   0  0  0  0  0  0  0  0  0  0  0  0
    1.9454    5.0936   -1.7626 H   0  0  0  0  0  0  0  0  0  0  0  0
    1.0394    5.7891   -3.1118 H   0  0  0  0  0  0  0  0  0  0  0  0
    0.2142    5.4135   -1.5875 H   0  0  0  0  0  0  0  0  0  0  0  0
    1.6407    3.7275   -5.0064 N   0  0  0  0  0  0  0  0  0  0  0  0
    2.5624    3.4232   -6.0759 C   0  0  0  0  0  0  0  0  0  0  0  0
    0.8587    4.3413   -5.2149 H   0  0  0  0  0  0  0  0  0  0  0  0
    3.3720    4.1677   -6.0859 H   0  0  0  0  0  0  0  0  0  0  0  0
    2.9879    2.4210   -5.9190 H   0  0  0  0  0  0  0  0  0  0  0  0
    2.0291    3.4486   -7.0377 H   0  0  0  0  0  0  0  0  0  0  0  0
 25 27  1  0  0  0  0
 26 27  2  0  0  0  0
 23 25  2  0  0  0  0
 24 26  1  0  0  0  0
 22 23  1  0  0  0  0
 22 24  2  0  0  0  0
 21 22  1  0  0  0  0
  1  3  1  0  0  0  0
  1  7  1  0  0  0  0
  1  2  2  0  0  0  0
 38 39  1  0  0  0  0
 39 47  1  0  0  0  0
 39 40  2  0  0  0  0
  8  9  1  0  0  0  0
  9 17  1  0  0  0  0
  9 10  2  0  0  0  0
 18 19  1  0  0  0  0
 19 37  1  0  0  0  0
 19 20  2  0  0  0  0
 38 41  1  0  0  0  0
  8 11  1  0  0  0  0
 47 48  1  0  0  0  0
 18 21  1  0  0  0  0
 37 38  1  0  0  0  0
  7  8  1  0  0  0  0
 17 18  1  0  0  0  0
 27 36  1  0  0  0  0
 25 34  1  0  0  0  0
 26 35  1  0  0  0  0
 23 32  1  0  0  0  0
 24 33  1  0  0  0  0
  3  4  1  0  0  0  0
  3  5  1  0  0  0  0
  3  6  1  0  0  0  0
 41 44  1  0  0  0  0
 41 45  1  0  0  0  0
 41 46  1  0  0  0  0
 11 14  1  0  0  0  0
 11 15  1  0  0  0  0
 11 16  1  0  0  0  0
 48 50  1  0  0  0  0
 48 51  1  0  0  0  0
 48 52  1  0  0  0  0
 21 30  1  0  0  0  0
 21 31  1  0  0  0  0
 38 43  1  0  0  0  0
  8 13  1  0  0  0  0
 18 29  1  0  0  0  0
 47 49  1  0  0  0  0
  7 12  1  0  0  0  0
 37 42  1  0  0  0  0
 17 28  1  0  0  0  0
M  END
$$$$

  -OEChem-05262214473D

 52 52  0     1  0  0  0  0  0999 V2000
   -1.8248    0.3424    3.9102 C   0  0  0  0  0  0  0  0  0  0  0  0
   -0.8774   -0.2723    3.4345 O   0  0  0  0  0  0  0  0  0  0  0  0
   -2.2566    0.0600    5.3109 C   0  0  0  0  0  0  0  0  0  0  0  0
   -3.0163   -0.7363    5.3643 H   0  0  0  0  0  0  0  0  0  0  0  0
   -1.4254   -0.2876    5.9452 H   0  0  0  0  0  0  0  0  0  0  0  0
   -2.6947    0.9149    5.8505 H   0  0  0  0  0  0  0  0  0  0  0  0
   -2.5745    1.3149    3.2691 N   0  0  0  0  0  0  0  0  0  0  0  0
   -2.3276    1.7409    1.9167 C   0  0  2  0  0  0  0  0  0  0  0  0
   -0.9926    1.1555    1.4755 C   0  0  0  0  0  0  0  0  0  0  0  0
   -0.1206    0.8028    2.2668 O   0  0  0  0  0  0  0  0  0  0  0  0
   -2.3188    3.2577    1.8072 C   0  0  0  0  0  0  0  0  0  0  0  0
   -3.3395    1.7507    3.7809 H   0  0  0  0  0  0  0  0  0  0  0  0
   -3.1317    1.3224    1.3015 H   0  0  0  0  0  0  0  0  0  0  0  0
   -1.5198    3.6949    2.4169 H   0  0  0  0  0  0  0  0  0  0  0  0
   -2.1594    3.5799    0.7729 H   0  0  0  0  0  0  0  0  0  0  0  0
   -3.2690    3.6789    2.1530 H   0  0  0  0  0  0  0  0  0  0  0  0
   -0.8700    1.1124    0.0921 N   0  0  0  0  0  0  0  0  0  0  0  0
    0.3073    0.6116   -0.5716 C   0  0  2  0  0  0  0  0  0  0  0  0
    0.4321    1.3596   -1.8941 C   0  0  0  0  0  0  0  0  0  0  0  0
    0.1205    0.8642   -2.9750 O   0  0  0  0  0  0  0  0  0  0  0  0
    0.2339   -0.8995   -0.8189 C   0  0  0  0  0  0  0  0  0  0  0  0
    0.2661   -1.7022    0.4588 C   0  0  0  0  0  0  0  0  0  0  0  0
    1.4828   -1.9617    1.0897 C   0  0  0  0  0  0  0  0  0  0  0  0
   -0.9215   -2.1846    1.0088 C   0  0  0  0  0  0  0  0  0  0  0  0
    1.5119   -2.7034    2.2707 C   0  0  0  0  0  0  0  0  0  0  0  0
   -0.8925   -2.9263    2.1898 C   0  0  0  0  0  0  0  0  0  0  0  0
    0.3243   -3.1857    2.8207 C   0  0  0  0  0  0  0  0  0  0  0  0
   -1.6531    1.4091   -0.4852 H   0  0  0  0  0  0  0  0  0  0  0  0
    1.1598    0.8689    0.0680 H   0  0  0  0  0  0  0  0  0  0  0  0
    1.0547   -1.2178   -1.4759 H   0  0  0  0  0  0  0  0  0  0  0  0
   -0.6853   -1.1551   -1.3623 H   0  0  0  0  0  0  0  0  0  0  0  0
    2.4131   -1.5897    0.6685 H   0  0  0  0  0  0  0  0  0  0  0  0
   -1.8741   -1.9873    0.5243 H   0  0  0  0  0  0  0  0  0  0  0  0
    2.4594   -2.9062    2.7612 H   0  0  0  0  0  0  0  0  0  0  0  0
   -1.8172   -3.3026    2.6171 H   0  0  0  0  0  0  0  0  0  0  0  0
    0.3472   -3.7644    3.7395 H   0  0  0  0  0  0  0  0  0  0  0  0
    0.8845    2.6595   -1.7152 N   0  0  0  0  0  0  0  0  0  0  0  0
    1.0696    3.5922   -2.8036 C   0  0  2  0  0  0  0  0  0  0  0  0
    1.8927    2.8996   -3.8816 C   0  0  0  0  0  0  0  0  0  0  0  0
    2.6248    1.9389   -3.6531 O   0  0  0  0  0  0  0  0  0  0  0  0
    1.7541    4.8653   -2.3309 C   0  0  0  0  0  0  0  0  0  0  0  0
    1.0961    2.9710   -0.7718 H   0  0  0  0  0  0  0  0  0  0  0  0
    0.0729    3.8225   -3.1957 H   0  0  0  0  0  0  0  0  0  0  0  0
    2.7540    4.6546   -1.9346 H   0  0  0  0  0  0  0  0  0  0  0  0
    1.8678    5.5824   -3.1506 H   0  0  0  0  0  0  0  0  0  0  0  0
    1.1756    5.3463   -1.5348 H   0  0  0  0  0  0  0  0  0  0  0  0
    1.7470    3.5075   -5.1207 N   0  0  0  0  0  0  0  0  0  0  0  0
    2.4355    3.0436   -6.3026 C   0  0  0  0  0  0  0  0  0  0  0  0
    1.1042    4.2874   -5.2222 H   0  0  0  0  0  0  0  0  0  0  0  0
    3.3847    3.5885   -6.4123 H   0  0  0  0  0  0  0  0  0  0  0  0
    2.6398    1.9668   -6.2088 H   0  0  0  0  0  0  0  0  0  0  0  0
    1.8062    3.2217   -7.1870 H   0  0  0  0  0  0  0  0  0  0  0  0
 25 27  1  0  0  0  0
 26 27  2  0  0  0  0
 23 25  2  0  0  0  0
 24 26  1  0  0  0  0
 22 23  1  0  0  0  0
 22 24  2  0  0  0  0
 21 22  1  0  0  0  0
  1  3  1  0  0  0  0
  1  7  1  0  0  0  0
  1  2  2  0  0  0  0
 38 39  1  0  0  0  0
 39 47  1  0  0  0  0
 39 40  2  0  0  0  0
  8  9  1  0  0  0  0
  9 17  1  0  0  0  0
  9 10  2  0  0  0  0
 18 19  1  0  0  0  0
 19 37  1  0  0  0  0
 19 20  2  0  0  0  0
 38 41  1  0  0  0  0
  8 11  1  0  0  0  0
 47 48  1  0  0  0  0
 18 21  1  0  0  0  0
 37 38  1  0  0  0  0
  7  8  1  0  0  0  0
 17 18  1  0  0  0  0
 27 36  1  0  0  0  0
 25 34  1  0  0  0  0
 26 35  1  0  0  0  0
 23 32  1  0  0  0  0
 24 33  1  0  0  0  0
  3  4  1  0  0  0  0
  3  5  1  0  0  0  0
  3  6  1  0  0  0  0
 41 44  1  0  0  0  0
 41 45  1  0  0  0  0
 41 46  1  0  0  0  0
 11 14  1  0  0  0  0
 11 15  1  0  0  0  0
 11 16  1  0  0  0  0
 48 50  1  0  0  0  0
 48 51  1  0  0  0  0
 48 52  1  0  0  0  0
 21 30  1  0  0  0  0
 21 31  1  0  0  0  0
 38 43  1  0  0  0  0
  8 13  1  0  0  0  0
 18 29  1  0  0  0  0
 47 49  1  0  0  0  0
  7 12  1  0  0  0  0
 37 42  1  0  0  0  0
 17 28  1  0  0  0  0
M  END
$$$$

  -OEChem-05262214473D

 52 52  0     1  0  0  0  0  0999 V2000
   -1.8248    0.3424    3.9102 C   0  0  0  0  0  0  0  0  0  0  0  0
   -0.8774   -0.2723    3.4345 O   0  0  0  0  0  0  0  0  0  0  0  0
   -2.2566    0.0600    5.3109 C   0  0  0  0  0  0  0  0  0  0  0  0
   -3.0163   -0.7363    5.3643 H   0  0  0  0  0  0  0  0  0  0  0  0
   -1.4254   -0.2876    5.9452 H   0  0  0  0  0  0  0  0  0  0  0  0
   -2.6947    0.9149    5.8505 H   0  0  0  0  0  0  0  0  0  0  0  0
   -2.5745    1.3149    3.2691 N   0  0  0  0  0  0  0  0  0  0  0  0
   -2.3276    1.7409    1.9167 C   0  0  2  0  0  0  0  0  0  0  0  0
   -0.9926    1.1555    1.4755 C   0  0  0  0  0  0  0  0  0  0  0  0
   -0.1206    0.8028    2.2668 O   0  0  0  0  0  0  0  0  0  0  0  0
   -2.3188    3.2577    1.8072 C   0  0  0  0  0  0  0  0  0  0  0  0
   -3.3395    1.7507    3.7809 H   0  0  0  0  0  0  0  0  0  0  0  0
   -3.1317    1.3224    1.3015 H   0  0  0  0  0  0  0  0  0  0  0  0
   -1.5198    3.6949    2.4169 H   0  0  0  0  0  0  0  0  0  0  0  0
   -2.1594    3.5799    0.7729 H   0  0  0  0  0  0  0  0  0  0  0  0
   -3.2690    3.6789    2.1530 H   0  0  0  0  0  0  0  0  0  0  0  0
   -0.8700    1.1124    0.0921 N   0  0  0  0  0  0  0  0  0  0  0  0
    0.3073    0.6116   -0.5716 C   0  0  2  0  0  0  0  0  0  0  0  0
    0.4321    1.3596   -1.8941 C   0  0  0  0  0  0  0  0  0  0  0  0
   -0.1155    0.9851   -2.9289 O   0  0  0  0  0  0  0  0  0  0  0  0
    0.2339   -0.8995   -0.8189 C   0  0  0  0  0  0  0  0  0  0  0  0
    0.2661   -1.7022    0.4588 C   0  0  0  0  0  0  0  0  0  0  0  0
    1.4828   -1.9617    1.0897 C   0  0  0  0  0  0  0  0  0  0  0  0
   -0.9215   -2.1846    1.0088 C   0  0  0  0  0  0  0  0  0  0  0  0
    1.5119   -2.7034    2.2707 C   0  0  0  0  0  0  0  0  0  0  0  0
   -0.8925   -2.9263    2.1898 C   0  0  0  0  0  0  0  0  0  0  0  0
    0.3243   -3.1857    2.8207 C   0  0  0  0  0  0  0  0  0  0  0  0
   -1.6531    1.4091   -0.4852 H   0  0  0  0  0  0  0  0  0  0  0  0
    1.1598    0.8689    0.0680 H   0  0  0  0  0  0  0  0  0  0  0  0
    1.0547   -1.2178   -1.4759 H   0  0  0  0  0  0  0  0  0  0  0  0
   -0.6853   -1.1551   -1.3623 H   0  0  0  0  0  0  0  0  0  0  0  0
    2.4131   -1.5897    0.6685 H   0  0  0  0  0  0  0  0  0  0  0  0
   -1.8741   -1.9873    0.5243 H   0  0  0  0  0  0  0  0  0  0  0  0
    2.4594   -2.9062    2.7612 H   0  0  0  0  0  0  0  0  0  0  0  0
   -1.8172   -3.3026    2.6171 H   0  0  0  0  0  0  0  0  0  0  0  0
    0.3472   -3.7644    3.7395 H   0  0  0  0  0  0  0  0  0  0  0  0
    1.1851    2.5185   -1.7666 N   0  0  0  0  0  0  0  0  0  0  0  0
    1.4390    3.4246   -2.8635 C   0  0  2  0  0  0  0  0  0  0  0  0
    1.9436    2.6047   -4.0436 C   0  0  0  0  0  0  0  0  0  0  0  0
    2.4623    1.4974   -3.9182 O   0  0  0  0  0  0  0  0  0  0  0  0
    2.4468    4.4952   -2.4749 C   0  0  0  0  0  0  0  0  0  0  0  0
    1.5775    2.7410   -0.8565 H   0  0  0  0  0  0  0  0  0  0  0  0
    0.4793    3.8853   -3.1219 H   0  0  0  0  0  0  0  0  0  0  0  0
    3.4147    4.0526   -2.2127 H   0  0  0  0  0  0  0  0  0  0  0  0
    2.6166    5.1976   -3.2976 H   0  0  0  0  0  0  0  0  0  0  0  0
    2.0958    5.0644   -1.6075 H   0  0  0  0  0  0  0  0  0  0  0  0
    1.7858    3.2737   -5.2494 N   0  0  0  0  0  0  0  0  0  0  0  0
    2.1989    2.7102   -6.5134 C   0  0  0  0  0  0  0  0  0  0  0  0
    1.3283    4.1804   -5.2616 H   0  0  0  0  0  0  0  0  0  0  0  0
    3.2254    3.0332   -6.7414 H   0  0  0  0  0  0  0  0  0  0  0  0
    2.1647    1.6123   -6.4540 H   0  0  0  0  0  0  0  0  0  0  0  0
    1.5210    3.0557   -7.3078 H   0  0  0  0  0  0  0  0  0  0  0  0
 25 27  1  0  0  0  0
 26 27  2  0  0  0  0
 23 25  2  0  0  0  0
 24 26  1  0  0  0  0
 22 23  1  0  0  0  0
 22 24  2  0  0  0  0
 21 22  1  0  0  0  0
  1  3  1  0  0  0  0
  1  7  1  0  0  0  0
  1  2  2  0  0  0  0
 38 39  1  0  0  0  0
 39 47  1  0  0  0  0
 39 40  2  0  0  0  0
  8  9  1  0  0  0  0
  9 17  1  0  0  0  0
  9 10  2  0  0  0  0
 18 19  1  0  0  0  0
 19 37  1  0  0  0  0
 19 20  2  0  0  0  0
 38 41  1  0  0  0  0
  8 11  1  0  0  0  0
 47 48  1  0  0  0  0
 18 21  1  0  0  0  0
 37 38  1  0  0  0  0
  7  8  1  0  0  0  0
 17 18  1  0  0  0  0
 27 36  1  0  0  0  0
 25 34  1  0  0  0  0
 26 35  1  0  0  0  0
 23 32  1  0  0  0  0
 24 33  1  0  0  0  0
  3  4  1  0  0  0  0
  3  5  1  0  0  0  0
  3  6  1  0  0  0  0
 41 44  1  0  0  0  0
 41 45  1  0  0  0  0
 41 46  1  0  0  0  0
 11 14  1  0  0  0  0
 11 15  1  0  0  0  0
 11 16  1  0  0  0  0
 48 50  1  0  0  0  0
 48 51  1  0  0  0  0
 48 52  1  0  0  0  0
 21 30  1  0  0  0  0
 21 31  1  0  0  0  0
 38 43  1  0  0  0  0
  8 13  1  0  0  0  0
 18 29  1  0  0  0  0
 47 49  1  0  0  0  0
  7 12  1  0  0  0  0
 37 42  1  0  0  0  0
 17 28  1  0  0  0  0
M  END
$$$$

  -OEChem-05262214473D

 52 52  0     1  0  0  0  0  0999 V2000
   -1.8248    0.3424    3.9102 C   0  0  0  0  0  0  0  0  0  0  0  0
   -0.8774   -0.2723    3.4345 O   0  0  0  0  0  0  0  0  0  0  0  0
   -2.2566    0.0600    5.3109 C   0  0  0  0  0  0  0  0  0  0  0  0
   -3.0163   -0.7363    5.3643 H   0  0  0  0  0  0  0  0  0  0  0  0
   -1.4254   -0.2876    5.9452 H   0  0  0  0  0  0  0  0  0  0  0  0
   -2.6947    0.9149    5.8505 H   0  0  0  0  0  0  0  0  0  0  0  0
   -2.5745    1.3149    3.2691 N   0  0  0  0  0  0  0  0  0  0  0  0
   -2.3276    1.7409    1.9167 C   0  0  2  0  0  0  0  0  0  0  0  0
   -0.9926    1.1555    1.4755 C   0  0  0  0  0  0  0  0  0  0  0  0
   -0.1206    0.8028    2.2668 O   0  0  0  0  0  0  0  0  0  0  0  0
   -2.3188    3.2577    1.8072 C   0  0  0  0  0  0  0  0  0  0  0  0
   -3.3395    1.7507    3.7809 H   0  0  0  0  0  0  0  0  0  0  0  0
   -3.1317    1.3224    1.3015 H   0  0  0  0  0  0  0  0  0  0  0  0
   -1.5198    3.6949    2.4169 H   0  0  0  0  0  0  0  0  0  0  0  0
   -2.1594    3.5799    0.7729 H   0  0  0  0  0  0  0  0  0  0  0  0
   -3.2690    3.6789    2.1530 H   0  0  0  0  0  0  0  0  0  0  0  0
   -0.8700    1.1124    0.0921 N   0  0  0  0  0  0  0  0  0  0  0  0
    0.3073    0.6116   -0.5716 C   0  0  2  0  0  0  0  0  0  0  0  0
    0.4321    1.3596   -1.8941 C   0  0  0  0  0  0  0  0  0  0  0  0
   -0.3105    1.1539   -2.8518 O   0  0  0  0  0  0  0  0  0  0  0  0
    0.2339   -0.8995   -0.8189 C   0  0  0  0  0  0  0  0  0  0  0  0
    0.2661   -1.7022    0.4588 C   0  0  0  0  0  0  0  0  0  0  0  0
    1.4828   -1.9617    1.0897 C   0  0  0  0  0  0  0  0  0  0  0  0
   -0.9215   -2.1846    1.0088 C   0  0  0  0  0  0  0  0  0  0  0  0
    1.5119   -2.7034    2.2707 C   0  0  0  0  0  0  0  0  0  0  0  0
   -0.8925   -2.9263    2.1898 C   0  0  0  0  0  0  0  0  0  0  0  0
    0.3243   -3.1857    2.8207 C   0  0  0  0  0  0  0  0  0  0  0  0
   -1.6531    1.4091   -0.4852 H   0  0  0  0  0  0  0  0  0  0  0  0
    1.1598    0.8689    0.0680 H   0  0  0  0  0  0  0  0  0  0  0  0
    1.0547   -1.2178   -1.4759 H   0  0  0  0  0  0  0  0  0  0  0  0
   -0.6853   -1.1551   -1.3623 H   0  0  0  0  0  0  0  0  0  0  0  0
    2.4131   -1.5897    0.6685 H   0  0  0  0  0  0  0  0  0  0  0  0
   -1.8741   -1.9873    0.5243 H   0  0  0  0  0  0  0  0  0  0  0  0
    2.4594   -2.9062    2.7612 H   0  0  0  0  0  0  0  0  0  0  0  0
   -1.8172   -3.3026    2.6171 H   0  0  0  0  0  0  0  0  0  0  0  0
    0.3472   -3.7644    3.7395 H   0  0  0  0  0  0  0  0  0  0  0  0
    1.4373    2.3160   -1.8574 N   0  0  0  0  0  0  0  0  0  0  0  0
    1.7507    3.1811   -2.9719 C   0  0  2  0  0  0  0  0  0  0  0  0
    1.9060    2.3119   -4.2128 C   0  0  0  0  0  0  0  0  0  0  0  0
    2.1726    1.1129   -4.1629 O   0  0  0  0  0  0  0  0  0  0  0  0
    3.0146    3.9852   -2.7098 C   0  0  0  0  0  0  0  0  0  0  0  0
    1.9800    2.4127   -1.0042 H   0  0  0  0  0  0  0  0  0  0  0  0
    0.8953    3.8532   -3.1008 H   0  0  0  0  0  0  0  0  0  0  0  0
    3.8824    3.3287   -2.5780 H   0  0  0  0  0  0  0  0  0  0  0  0
    3.2348    4.6609   -3.5429 H   0  0  0  0  0  0  0  0  0  0  0  0
    2.9121    4.5871   -1.8004 H   0  0  0  0  0  0  0  0  0  0  0  0
    1.7544    3.0417   -5.3835 N   0  0  0  0  0  0  0  0  0  0  0  0
    1.8688    2.4458   -6.6941 C   0  0  0  0  0  0  0  0  0  0  0  0
    1.5157    4.0276   -5.3303 H   0  0  0  0  0  0  0  0  0  0  0  0
    2.9051    2.5394   -7.0509 H   0  0  0  0  0  0  0  0  0  0  0  0
    1.5952    1.3818   -6.6381 H   0  0  0  0  0  0  0  0  0  0  0  0
    1.1929    2.9620   -7.3918 H   0  0  0  0  0  0  0  0  0  0  0  0
 25 27  1  0  0  0  0
 26 27  2  0  0  0  0
 23 25  2  0  0  0  0
 24 26  1  0  0  0  0
 22 23  1  0  0  0  0
 22 24  2  0  0  0  0
 21 22  1  0  0  0  0
  1  3  1  0  0  0  0
  1  7  1  0  0  0  0
  1  2  2  0  0  0  0
 38 39  1  0  0  0  0
 39 47  1  0  0  0  0
 39 40  2  0  0  0  0
  8  9  1  0  0  0  0
  9 17  1  0  0  0  0
  9 10  2  0  0  0  0
 18 19  1  0  0  0  0
 19 37  1  0  0  0  0
 19 20  2  0  0  0  0
 38 41  1  0  0  0  0
  8 11  1  0  0  0  0
 47 48  1  0  0  0  0
 18 21  1  0  0  0  0
 37 38  1  0  0  0  0
  7  8  1  0  0  0  0
 17 18  1  0  0  0  0
 27 36  1  0  0  0  0
 25 34  1  0  0  0  0
 26 35  1  0  0  0  0
 23 32  1  0  0  0  0
 24 33  1  0  0  0  0
  3  4  1  0  0  0  0
  3  5  1  0  0  0  0
  3  6  1  0  0  0  0
 41 44  1  0  0  0  0
 41 45  1  0  0  0  0
 41 46  1  0  0  0  0
 11 14  1  0  0  0  0
 11 15  1  0  0  0  0
 11 16  1  0  0  0  0
 48 50  1  0  0  0  0
 48 51  1  0  0  0  0
 48 52  1  0  0  0  0
 21 30  1  0  0  0  0
 21 31  1  0  0  0  0
 38 43  1  0  0  0  0
  8 13  1  0  0  0  0
 18 29  1  0  0  0  0
 47 49  1  0  0  0  0
  7 12  1  0  0  0  0
 37 42  1  0  0  0  0
 17 28  1  0  0  0  0
M  END
$$$$

  -OEChem-05262214473D

 52 52  0     1  0  0  0  0  0999 V2000
   -1.8248    0.3424    3.9102 C   0  0  0  0  0  0  0  0  0  0  0  0
   -0.8774   -0.2723    3.4345 O   0  0  0  0  0  0  0  0  0  0  0  0
   -2.2566    0.0600    5.3109 C   0  0  0  0  0  0  0  0  0  0  0  0
   -3.0163   -0.7363    5.3643 H   0  0  0  0  0  0  0  0  0  0  0  0
   -1.4254   -0.2876    5.9452 H   0  0  0  0  0  0  0  0  0  0  0  0
   -2.6947    0.9149    5.8505 H   0  0  0  0  0  0  0  0  0  0  0  0
   -2.5745    1.3149    3.2691 N   0  0  0  0  0  0  0  0  0  0  0  0
   -2.3276    1.7409    1.9167 C   0  0  2  0  0  0  0  0  0  0  0  0
   -0.9926    1.1555    1.4755 C   0  0  0  0  0  0  0  0  0  0  0  0
   -0.1206    0.8028    2.2668 O   0  0  0  0  0  0  0  0  0  0  0  0
   -2.3188    3.2577    1.8072 C   0  0  0  0  0  0  0  0  0  0  0  0
   -3.3395    1.7507    3.7809 H   0  0  0  0  0  0  0  0  0  0  0  0
   -3.1317    1.3224    1.3015 H   0  0  0  0  0  0  0  0  0  0  0  0
   -1.5198    3.6949    2.4169 H   0  0  0  0  0  0  0  0  0  0  0  0
   -2.1594    3.5799    0.7729 H   0  0  0  0  0  0  0  0  0  0  0  0
   -3.2690    3.6789    2.1530 H   0  0  0  0  0  0  0  0  0  0  0  0
   -0.8700    1.1124    0.0921 N   0  0  0  0  0  0  0  0  0  0  0  0
    0.3073    0.6116   -0.5716 C   0  0  2  0  0  0  0  0  0  0  0  0
    0.4321    1.3596   -1.8941 C   0  0  0  0  0  0  0  0  0  0  0  0
   -0.4511    1.3591   -2.7490 O   0  0  0  0  0  0  0  0  0  0  0  0
    0.2339   -0.8995   -0.8189 C   0  0  0  0  0  0  0  0  0  0  0  0
    0.2661   -1.7022    0.4588 C   0  0  0  0  0  0  0  0  0  0  0  0
    1.4828   -1.9617    1.0897 C   0  0  0  0  0  0  0  0  0  0  0  0
   -0.9215   -2.1846    1.0088 C   0  0  0  0  0  0  0  0  0  0  0  0
    1.5119   -2.7034    2.2707 C   0  0  0  0  0  0  0  0  0  0  0  0
   -0.8925   -2.9263    2.1898 C   0  0  0  0  0  0  0  0  0  0  0  0
    0.3243   -3.1857    2.8207 C   0  0  0  0  0  0  0  0  0  0  0  0
   -1.6531    1.4091   -0.4852 H   0  0  0  0  0  0  0  0  0  0  0  0
    1.1598    0.8689    0.0680 H   0  0  0  0  0  0  0  0  0  0  0  0
    1.0547   -1.2178   -1.4759 H   0  0  0  0  0  0  0  0  0  0  0  0
   -0.6853   -1.1551   -1.3623 H   0  0  0  0  0  0  0  0  0  0  0  0
    2.4131   -1.5897    0.6685 H   0  0  0  0  0  0  0  0  0  0  0  0
   -1.8741   -1.9873    0.5243 H   0  0  0  0  0  0  0  0  0  0  0  0
    2.4594   -2.9062    2.7612 H   0  0  0  0  0  0  0  0  0  0  0  0
   -1.8172   -3.3026    2.6171 H   0  0  0  0  0  0  0  0  0  0  0  0
    0.3472   -3.7644    3.7395 H   0  0  0  0  0  0  0  0  0  0  0  0
    1.6239    2.0656   -1.9814 N   0  0  0  0  0  0  0  0  0  0  0  0
    1.9833    2.8781   -3.1213 C   0  0  2  0  0  0  0  0  0  0  0  0
    1.7824    2.0411   -4.3776 C   0  0  0  0  0  0  0  0  0  0  0  0
    1.7753    0.8118   -4.3706 O   0  0  0  0  0  0  0  0  0  0  0  0
    3.4187    3.3700   -3.0196 C   0  0  0  0  0  0  0  0  0  0  0  0
    2.2764    2.0082   -1.2050 H   0  0  0  0  0  0  0  0  0  0  0  0
    1.2926    3.7284   -3.1339 H   0  0  0  0  0  0  0  0  0  0  0  0
    4.1253    2.5321   -3.0056 H   0  0  0  0  0  0  0  0  0  0  0  0
    3.6803    4.0088   -3.8696 H   0  0  0  0  0  0  0  0  0  0  0  0
    3.5689    3.9468   -2.1006 H   0  0  0  0  0  0  0  0  0  0  0  0
    1.6550    2.8276   -5.5140 N   0  0  0  0  0  0  0  0  0  0  0  0
    1.4676    2.2683   -6.8323 C   0  0  0  0  0  0  0  0  0  0  0  0
    1.6537    3.8394   -5.4238 H   0  0  0  0  0  0  0  0  0  0  0  0
    2.4456    2.1410   -7.3195 H   0  0  0  0  0  0  0  0  0  0  0  0
    0.9699    1.2910   -6.7485 H   0  0  0  0  0  0  0  0  0  0  0  0
    0.8443    2.9469   -7.4332 H   0  0  0  0  0  0  0  0  0  0  0  0
 25 27  1  0  0  0  0
 26 27  2  0  0  0  0
 23 25  2  0  0  0  0
 24 26  1  0  0  0  0
 22 23  1  0  0  0  0
 22 24  2  0  0  0  0
 21 22  1  0  0  0  0
  1  3  1  0  0  0  0
  1  7  1  0  0  0  0
  1  2  2  0  0  0  0
 38 39  1  0  0  0  0
 39 47  1  0  0  0  0
 39 40  2  0  0  0  0
  8  9  1  0  0  0  0
  9 17  1  0  0  0  0
  9 10  2  0  0  0  0
 18 19  1  0  0  0  0
 19 37  1  0  0  0  0
 19 20  2  0  0  0  0
 38 41  1  0  0  0  0
  8 11  1  0  0  0  0
 47 48  1  0  0  0  0
 18 21  1  0  0  0  0
 37 38  1  0  0  0  0
  7  8  1  0  0  0  0
 17 18  1  0  0  0  0
 27 36  1  0  0  0  0
 25 34  1  0  0  0  0
 26 35  1  0  0  0  0
 23 32  1  0  0  0  0
 24 33  1  0  0  0  0
  3  4  1  0  0  0  0
  3  5  1  0  0  0  0
  3  6  1  0  0  0  0
 41 44  1  0  0  0  0
 41 45  1  0  0  0  0
 41 46  1  0  0  0  0
 11 14  1  0  0  0  0
 11 15  1  0  0  0  0
 11 16  1  0  0  0  0
 48 50  1  0  0  0  0
 48 51  1  0  0  0  0
 48 52  1  0  0  0  0
 21 30  1  0  0  0  0
 21 31  1  0  0  0  0
 38 43  1  0  0  0  0
  8 13  1  0  0  0  0
 18 29  1  0  0  0  0
 47 49  1  0  0  0  0
  7 12  1  0  0  0  0
 37 42  1  0  0  0  0
 17 28  1  0  0  0  0
M  END
$$$$

  -OEChem-05262214473D

 52 52  0     1  0  0  0  0  0999 V2000
   -1.8248    0.3424    3.9102 C   0  0  0  0  0  0  0  0  0  0  0  0
   -0.8774   -0.2723    3.4345 O   0  0  0  0  0  0  0  0  0  0  0  0
   -2.2566    0.0600    5.3109 C   0  0  0  0  0  0  0  0  0  0  0  0
   -3.0163   -0.7363    5.3643 H   0  0  0  0  0  0  0  0  0  0  0  0
   -1.4254   -0.2876    5.9452 H   0  0  0  0  0  0  0  0  0  0  0  0
   -2.6947    0.9149    5.8505 H   0  0  0  0  0  0  0  0  0  0  0  0
   -2.5745    1.3149    3.2691 N   0  0  0  0  0  0  0  0  0  0  0  0
   -2.3276    1.7409    1.9167 C   0  0  2  0  0  0  0  0  0  0  0  0
   -0.9926    1.1555    1.4755 C   0  0  0  0  0  0  0  0  0  0  0  0
   -0.1206    0.8028    2.2668 O   0  0  0  0  0  0  0  0  0  0  0  0
   -2.3188    3.2577    1.8072 C   0  0  0  0  0  0  0  0  0  0  0  0
   -3.3395    1.7507    3.7809 H   0  0  0  0  0  0  0  0  0  0  0  0
   -3.1317    1.3224    1.3015 H   0  0  0  0  0  0  0  0  0  0  0  0
   -1.5198    3.6949    2.4169 H   0  0  0  0  0  0  0  0  0  0  0  0
   -2.1594    3.5799    0.7729 H   0  0  0  0  0  0  0  0  0  0  0  0
   -3.2690    3.6789    2.1530 H   0  0  0  0  0  0  0  0  0  0  0  0
   -0.8700    1.1124    0.0921 N   0  0  0  0  0  0  0  0  0  0  0  0
    0.3073    0.6116   -0.5716 C   0  0  2  0  0  0  0  0  0  0  0  0
    0.4321    1.3596   -1.8941 C   0  0  0  0  0  0  0  0  0  0  0  0
   -0.5279    1.5867   -2.6275 O   0  0  0  0  0  0  0  0  0  0  0  0
    0.2339   -0.8995   -0.8189 C   0  0  0  0  0  0  0  0  0  0  0  0
    0.2661   -1.7022    0.4588 C   0  0  0  0  0  0  0  0  0  0  0  0
    1.4828   -1.9617    1.0897 C   0  0  0  0  0  0  0  0  0  0  0  0
   -0.9215   -2.1846    1.0088 C   0  0  0  0  0  0  0  0  0  0  0  0
    1.5119   -2.7034    2.2707 C   0  0  0  0  0  0  0  0  0  0  0  0
   -0.8925   -2.9263    2.1898 C   0  0  0  0  0  0  0  0  0  0  0  0
    0.3243   -3.1857    2.8207 C   0  0  0  0  0  0  0  0  0  0  0  0
   -1.6531    1.4091   -0.4852 H   0  0  0  0  0  0  0  0  0  0  0  0
    1.1598    0.8689    0.0680 H   0  0  0  0  0  0  0  0  0  0  0  0
    1.0547   -1.2178   -1.4759 H   0  0  0  0  0  0  0  0  0  0  0  0
   -0.6853   -1.1551   -1.3623 H   0  0  0  0  0  0  0  0  0  0  0  0
    2.4131   -1.5897    0.6685 H   0  0  0  0  0  0  0  0  0  0  0  0
   -1.8741   -1.9873    0.5243 H   0  0  0  0  0  0  0  0  0  0  0  0
    2.4594   -2.9062    2.7612 H   0  0  0  0  0  0  0  0  0  0  0  0
   -1.8172   -3.3026    2.6171 H   0  0  0  0  0  0  0  0  0  0  0  0
    0.3472   -3.7644    3.7395 H   0  0  0  0  0  0  0  0  0  0  0  0
    1.7321    1.7844   -2.1302 N   0  0  0  0  0  0  0  0  0  0  0  0
    2.1209    2.5365   -3.3015 C   0  0  2  0  0  0  0  0  0  0  0  0
    1.5812    1.8107   -4.5269 C   0  0  0  0  0  0  0  0  0  0  0  0
    1.2976    0.6146   -4.5272 O   0  0  0  0  0  0  0  0  0  0  0  0
    3.6316    2.6917   -3.3832 C   0  0  0  0  0  0  0  0  0  0  0  0
    2.4463    1.5553   -1.4452 H   0  0  0  0  0  0  0  0  0  0  0  0
    1.6442    3.5193   -3.2190 H   0  0  0  0  0  0  0  0  0  0  0  0
    4.1267    1.7173   -3.4664 H   0  0  0  0  0  0  0  0  0  0  0  0
    3.9228    3.2859   -4.2556 H   0  0  0  0  0  0  0  0  0  0  0  0
    4.0214    3.1872   -2.4875 H   0  0  0  0  0  0  0  0  0  0  0  0
    1.4943    2.6459   -5.6319 N   0  0  0  0  0  0  0  0  0  0  0  0
    1.0227    2.1899   -6.9186 C   0  0  0  0  0  0  0  0  0  0  0  0
    1.7328    3.6285   -5.5356 H   0  0  0  0  0  0  0  0  0  0  0  0
    1.8781    1.8650   -7.5291 H   0  0  0  0  0  0  0  0  0  0  0  0
    0.3315    1.3459   -6.7776 H   0  0  0  0  0  0  0  0  0  0  0  0
    0.4990    3.0114   -7.4292 H   0  0  0  0  0  0  0  0  0  0  0  0
 25 27  1  0  0  0  0
 26 27  2  0  0  0  0
 23 25  2  0  0  0  0
 24 26  1  0  0  0  0
 22 23  1  0  0  0  0
 22 24  2  0  0  0  0
 21 22  1  0  0  0  0
  1  3  1  0  0  0  0
  1  7  1  0  0  0  0
  1  2  2  0  0  0  0
 38 39  1  0  0  0  0
 39 47  1  0  0  0  0
 39 40  2  0  0  0  0
  8  9  1  0  0  0  0
  9 17  1  0  0  0  0
  9 10  2  0  0  0  0
 18 19  1  0  0  0  0
 19 37  1  0  0  0  0
 19 20  2  0  0  0  0
 38 41  1  0  0  0  0
  8 11  1  0  0  0  0
 47 48  1  0  0  0  0
 18 21  1  0  0  0  0
 37 38  1  0  0  0  0
  7  8  1  0  0  0  0
 17 18  1  0  0  0  0
 27 36  1  0  0  0  0
 25 34  1  0  0  0  0
 26 35  1  0  0  0  0
 23 32  1  0  0  0  0
 24 33  1  0  0  0  0
  3  4  1  0  0  0  0
  3  5  1  0  0  0  0
  3  6  1  0  0  0  0
 41 44  1  0  0  0  0
 41 45  1  0  0  0  0
 41 46  1  0  0  0  0
 11 14  1  0  0  0  0
 11 15  1  0  0  0  0
 11 16  1  0  0  0  0
 48 50  1  0  0  0  0
 48 51  1  0  0  0  0
 48 52  1  0  0  0  0
 21 30  1  0  0  0  0
 21 31  1  0  0  0  0
 38 43  1  0  0  0  0
  8 13  1  0  0  0  0
 18 29  1  0  0  0  0
 47 49  1  0  0  0  0
  7 12  1  0  0  0  0
 37 42  1  0  0  0  0
 17 28  1  0  0  0  0
M  END
$$$$

  -OEChem-05262214473D

 52 52  0     1  0  0  0  0  0999 V2000
   -1.8248    0.3424    3.9102 C   0  0  0  0  0  0  0  0  0  0  0  0
   -0.8774   -0.2723    3.4345 O   0  0  0  0  0  0  0  0  0  0  0  0
   -2.2566    0.0600    5.3109 C   0  0  0  0  0  0  0  0  0  0  0  0
   -3.0163   -0.7363    5.3643 H   0  0  0  0  0  0  0  0  0  0  0  0
   -1.4254   -0.2876    5.9452 H   0  0  0  0  0  0  0  0  0  0  0  0
   -2.6947    0.9149    5.8505 H   0  0  0  0  0  0  0  0  0  0  0  0
   -2.5745    1.3149    3.2691 N   0  0  0  0  0  0  0  0  0  0  0  0
   -2.3276    1.7409    1.9167 C   0  0  2  0  0  0  0  0  0  0  0  0
   -0.9926    1.1555    1.4755 C   0  0  0  0  0  0  0  0  0  0  0  0
   -0.1206    0.8028    2.2668 O   0  0  0  0  0  0  0  0  0  0  0  0
   -2.3188    3.2577    1.8072 C   0  0  0  0  0  0  0  0  0  0  0  0
   -3.3395    1.7507    3.7809 H   0  0  0  0  0  0  0  0  0  0  0  0
   -3.1317    1.3224    1.3015 H   0  0  0  0  0  0  0  0  0  0  0  0
   -1.5198    3.6949    2.4169 H   0  0  0  0  0  0  0  0  0  0  0  0
   -2.1594    3.5799    0.7729 H   0  0  0  0  0  0  0  0  0  0  0  0
   -3.2690    3.6789    2.1530 H   0  0  0  0  0  0  0  0  0  0  0  0
   -0.8700    1.1124    0.0921 N   0  0  0  0  0  0  0  0  0  0  0  0
    0.3073    0.6116   -0.5716 C   0  0  2  0  0  0  0  0  0  0  0  0
    0.4321    1.3596   -1.8941 C   0  0  0  0  0  0  0  0  0  0  0  0
   -0.5354    1.8212   -2.4956 O   0  0  0  0  0  0  0  0  0  0  0  0
    0.2339   -0.8995   -0.8189 C   0  0  0  0  0  0  0  0  0  0  0  0
    0.2661   -1.7022    0.4588 C   0  0  0  0  0  0  0  0  0  0  0  0
    1.4828   -1.9617    1.0897 C   0  0  0  0  0  0  0  0  0  0  0  0
   -0.9215   -2.1846    1.0088 C   0  0  0  0  0  0  0  0  0  0  0  0
    1.5119   -2.7034    2.2707 C   0  0  0  0  0  0  0  0  0  0  0  0
   -0.8925   -2.9263    2.1898 C   0  0  0  0  0  0  0  0  0  0  0  0
    0.3243   -3.1857    2.8207 C   0  0  0  0  0  0  0  0  0  0  0  0
   -1.6531    1.4091   -0.4852 H   0  0  0  0  0  0  0  0  0  0  0  0
    1.1598    0.8689    0.0680 H   0  0  0  0  0  0  0  0  0  0  0  0
    1.0547   -1.2178   -1.4759 H   0  0  0  0  0  0  0  0  0  0  0  0
   -0.6853   -1.1551   -1.3623 H   0  0  0  0  0  0  0  0  0  0  0  0
    2.4131   -1.5897    0.6685 H   0  0  0  0  0  0  0  0  0  0  0  0
   -1.8741   -1.9873    0.5243 H   0  0  0  0  0  0  0  0  0  0  0  0
    2.4594   -2.9062    2.7612 H   0  0  0  0  0  0  0  0  0  0  0  0
   -1.8172   -3.3026    2.6171 H   0  0  0  0  0  0  0  0  0  0  0  0
    0.3472   -3.7644    3.7395 H   0  0  0  0  0  0  0  0  0  0  0  0
    1.7547    1.4917   -2.2936 N   0  0  0  0  0  0  0  0  0  0  0  0
    2.1543    2.1793   -3.5004 C   0  0  2  0  0  0  0  0  0  0  0  0
    1.3163    1.6365   -4.6504 C   0  0  0  0  0  0  0  0  0  0  0  0
    0.7720    0.5347   -4.6220 O   0  0  0  0  0  0  0  0  0  0  0  0
    3.6387    1.9963   -3.7758 C   0  0  0  0  0  0  0  0  0  0  0  0
    2.4783    1.0847   -1.7083 H   0  0  0  0  0  0  0  0  0  0  0  0
    1.9260    3.2402   -3.3503 H   0  0  0  0  0  0  0  0  0  0  0  0
    3.8866    0.9396   -3.9288 H   0  0  0  0  0  0  0  0  0  0  0  0
    3.9456    2.5413   -4.6746 H   0  0  0  0  0  0  0  0  0  0  0  0
    4.2389    2.3601   -2.9348 H   0  0  0  0  0  0  0  0  0  0  0  0
    1.2833    2.5089   -5.7293 N   0  0  0  0  0  0  0  0  0  0  0  0
    0.5644    2.2159   -6.9472 C   0  0  0  0  0  0  0  0  0  0  0  0
    1.7477    3.4095   -5.6580 H   0  0  0  0  0  0  0  0  0  0  0  0
    1.2414    1.7303   -7.6654 H   0  0  0  0  0  0  0  0  0  0  0  0
   -0.2765    1.5429   -6.7235 H   0  0  0  0  0  0  0  0  0  0  0  0
    0.1803    3.1513   -7.3802 H   0  0  0  0  0  0  0  0  0  0  0  0
 25 27  1  0  0  0  0
 26 27  2  0  0  0  0
 23 25  2  0  0  0  0
 24 26  1  0  0  0  0
 22 23  1  0  0  0  0
 22 24  2  0  0  0  0
 21 22  1  0  0  0  0
  1  3  1  0  0  0  0
  1  7  1  0  0  0  0
  1  2  2  0  0  0  0
 38 39  1  0  0  0  0
 39 47  1  0  0  0  0
 39 40  2  0  0  0  0
  8  9  1  0  0  0  0
  9 17  1  0  0  0  0
  9 10  2  0  0  0  0
 18 19  1  0  0  0  0
 19 37  1  0  0  0  0
 19 20  2  0  0  0  0
 38 41  1  0  0  0  0
  8 11  1  0  0  0  0
 47 48  1  0  0  0  0
 18 21  1  0  0  0  0
 37 38  1  0  0  0  0
  7  8  1  0  0  0  0
 17 18  1  0  0  0  0
 27 36  1  0  0  0  0
 25 34  1  0  0  0  0
 26 35  1  0  0  0  0
 23 32  1  0  0  0  0
 24 33  1  0  0  0  0
  3  4  1  0  0  0  0
  3  5  1  0  0  0  0
  3  6  1  0  0  0  0
 41 44  1  0  0  0  0
 41 45  1  0  0  0  0
 41 46  1  0  0  0  0
 11 14  1  0  0  0  0
 11 15  1  0  0  0  0
 11 16  1  0  0  0  0
 48 50  1  0  0  0  0
 48 51  1  0  0  0  0
 48 52  1  0  0  0  0
 21 30  1  0  0  0  0
 21 31  1  0  0  0  0
 38 43  1  0  0  0  0
  8 13  1  0  0  0  0
 18 29  1  0  0  0  0
 47 49  1  0  0  0  0
  7 12  1  0  0  0  0
 37 42  1  0  0  0  0
 17 28  1  0  0  0  0
M  END
$$$$

  -OEChem-05262214473D

 52 52  0     1  0  0  0  0  0999 V2000
   -1.8248    0.3424    3.9102 C   0  0  0  0  0  0  0  0  0  0  0  0
   -0.8774   -0.2723    3.4345 O   0  0  0  0  0  0  0  0  0  0  0  0
   -2.2566    0.0600    5.3109 C   0  0  0  0  0  0  0  0  0  0  0  0
   -3.0163   -0.7363    5.3643 H   0  0  0  0  0  0  0  0  0  0  0  0
   -1.4254   -0.2876    5.9452 H   0  0  0  0  0  0  0  0  0  0  0  0
   -2.6947    0.9149    5.8505 H   0  0  0  0  0  0  0  0  0  0  0  0
   -2.5745    1.3149    3.2691 N   0  0  0  0  0  0  0  0  0  0  0  0
   -2.3276    1.7409    1.9167 C   0  0  2  0  0  0  0  0  0  0  0  0
   -0.9926    1.1555    1.4755 C   0  0  0  0  0  0  0  0  0  0  0  0
   -0.1206    0.8028    2.2668 O   0  0  0  0  0  0  0  0  0  0  0  0
   -2.3188    3.2577    1.8072 C   0  0  0  0  0  0  0  0  0  0  0  0
   -3.3395    1.7507    3.7809 H   0  0  0  0  0  0  0  0  0  0  0  0
   -3.1317    1.3224    1.3015 H   0  0  0  0  0  0  0  0  0  0  0  0
   -1.5198    3.6949    2.4169 H   0  0  0  0  0  0  0  0  0  0  0  0
   -2.1594    3.5799    0.7729 H   0  0  0  0  0  0  0  0  0  0  0  0
   -3.2690    3.6789    2.1530 H   0  0  0  0  0  0  0  0  0  0  0  0
   -0.8700    1.1124    0.0921 N   0  0  0  0  0  0  0  0  0  0  0  0
    0.3073    0.6116   -0.5716 C   0  0  2  0  0  0  0  0  0  0  0  0
    0.4321    1.3596   -1.8941 C   0  0  0  0  0  0  0  0  0  0  0  0
   -0.4733    2.0466   -2.3623 O   0  0  0  0  0  0  0  0  0  0  0  0
    0.2339   -0.8995   -0.8189 C   0  0  0  0  0  0  0  0  0  0  0  0
    0.2661   -1.7022    0.4588 C   0  0  0  0  0  0  0  0  0  0  0  0
    1.4828   -1.9617    1.0897 C   0  0  0  0  0  0  0  0  0  0  0  0
   -0.9215   -2.1846    1.0088 C   0  0  0  0  0  0  0  0  0  0  0  0
    1.5119   -2.7034    2.2707 C   0  0  0  0  0  0  0  0  0  0  0  0
   -0.8925   -2.9263    2.1898 C   0  0  0  0  0  0  0  0  0  0  0  0
    0.3243   -3.1857    2.8207 C   0  0  0  0  0  0  0  0  0  0  0  0
   -1.6531    1.4091   -0.4852 H   0  0  0  0  0  0  0  0  0  0  0  0
    1.1598    0.8689    0.0680 H   0  0  0  0  0  0  0  0  0  0  0  0
    1.0547   -1.2178   -1.4759 H   0  0  0  0  0  0  0  0  0  0  0  0
   -0.6853   -1.1551   -1.3623 H   0  0  0  0  0  0  0  0  0  0  0  0
    2.4131   -1.5897    0.6685 H   0  0  0  0  0  0  0  0  0  0  0  0
   -1.8741   -1.9873    0.5243 H   0  0  0  0  0  0  0  0  0  0  0  0
    2.4594   -2.9062    2.7612 H   0  0  0  0  0  0  0  0  0  0  0  0
   -1.8172   -3.3026    2.6171 H   0  0  0  0  0  0  0  0  0  0  0  0
    0.3472   -3.7644    3.7395 H   0  0  0  0  0  0  0  0  0  0  0  0
    1.6900    1.2074   -2.4605 N   0  0  0  0  0  0  0  0  0  0  0  0
    2.0811    1.8311   -3.7042 C   0  0  2  0  0  0  0  0  0  0  0  0
    1.0056    1.5304   -4.7397 C   0  0  0  0  0  0  0  0  0  0  0  0
    0.2344    0.5775   -4.6485 O   0  0  0  0  0  0  0  0  0  0  0  0
    3.4396    1.3314   -4.1706 C   0  0  0  0  0  0  0  0  0  0  0  0
    2.3700    0.6285   -1.9765 H   0  0  0  0  0  0  0  0  0  0  0  0
    2.1189    2.9101   -3.5188 H   0  0  0  0  0  0  0  0  0  0  0  0
    3.4213    0.2522   -4.3615 H   0  0  0  0  0  0  0  0  0  0  0  0
    3.7473    1.8258   -5.0979 H   0  0  0  0  0  0  0  0  0  0  0  0
    4.2064    1.5218   -3.4120 H   0  0  0  0  0  0  0  0  0  0  0  0
    1.0364    2.4261   -5.7994 N   0  0  0  0  0  0  0  0  0  0  0  0
    0.1239    2.3445   -6.9160 C   0  0  0  0  0  0  0  0  0  0  0  0
    1.6974    3.1971   -5.7829 H   0  0  0  0  0  0  0  0  0  0  0  0
    0.5788    1.7460   -7.7190 H   0  0  0  0  0  0  0  0  0  0  0  0
   -0.8127    1.8686   -6.5899 H   0  0  0  0  0  0  0  0  0  0  0  0
   -0.0898    3.3568   -7.2894 H   0  0  0  0  0  0  0  0  0  0  0  0
 25 27  1  0  0  0  0
 26 27  2  0  0  0  0
 23 25  2  0  0  0  0
 24 26  1  0  0  0  0
 22 23  1  0  0  0  0
 22 24  2  0  0  0  0
 21 22  1  0  0  0  0
  1  3  1  0  0  0  0
  1  7  1  0  0  0  0
  1  2  2  0  0  0  0
 38 39  1  0  0  0  0
 39 47  1  0  0  0  0
 39 40  2  0  0  0  0
  8  9  1  0  0  0  0
  9 17  1  0  0  0  0
  9 10  2  0  0  0  0
 18 19  1  0  0  0  0
 19 37  1  0  0  0  0
 19 20  2  0  0  0  0
 38 41  1  0  0  0  0
  8 11  1  0  0  0  0
 47 48  1  0  0  0  0
 18 21  1  0  0  0  0
 37 38  1  0  0  0  0
  7  8  1  0  0  0  0
 17 18  1  0  0  0  0
 27 36  1  0  0  0  0
 25 34  1  0  0  0  0
 26 35  1  0  0  0  0
 23 32  1  0  0  0  0
 24 33  1  0  0  0  0
  3  4  1  0  0  0  0
  3  5  1  0  0  0  0
  3  6  1  0  0  0  0
 41 44  1  0  0  0  0
 41 45  1  0  0  0  0
 41 46  1  0  0  0  0
 11 14  1  0  0  0  0
 11 15  1  0  0  0  0
 11 16  1  0  0  0  0
 48 50  1  0  0  0  0
 48 51  1  0  0  0  0
 48 52  1  0  0  0  0
 21 30  1  0  0  0  0
 21 31  1  0  0  0  0
 38 43  1  0  0  0  0
  8 13  1  0  0  0  0
 18 29  1  0  0  0  0
 47 49  1  0  0  0  0
  7 12  1  0  0  0  0
 37 42  1  0  0  0  0
 17 28  1  0  0  0  0
M  END
$$$$

  -OEChem-05262214473D

 52 52  0     1  0  0  0  0  0999 V2000
   -1.8248    0.3424    3.9102 C   0  0  0  0  0  0  0  0  0  0  0  0
   -0.8774   -0.2723    3.4345 O   0  0  0  0  0  0  0  0  0  0  0  0
   -2.2566    0.0600    5.3109 C   0  0  0  0  0  0  0  0  0  0  0  0
   -3.0163   -0.7363    5.3643 H   0  0  0  0  0  0  0  0  0  0  0  0
   -1.4254   -0.2876    5.9452 H   0  0  0  0  0  0  0  0  0  0  0  0
   -2.6947    0.9149    5.8505 H   0  0  0  0  0  0  0  0  0  0  0  0
   -2.5745    1.3149    3.2691 N   0  0  0  0  0  0  0  0  0  0  0  0
   -2.3276    1.7409    1.9167 C   0  0  2  0  0  0  0  0  0  0  0  0
   -0.9926    1.1555    1.4755 C   0  0  0  0  0  0  0  0  0  0  0  0
   -0.1206    0.8028    2.2668 O   0  0  0  0  0  0  0  0  0  0  0  0
   -2.3188    3.2577    1.8072 C   0  0  0  0  0  0  0  0  0  0  0  0
   -3.3395    1.7507    3.7809 H   0  0  0  0  0  0  0  0  0  0  0  0
   -3.1317    1.3224    1.3015 H   0  0  0  0  0  0  0  0  0  0  0  0
   -1.5198    3.6949    2.4169 H   0  0  0  0  0  0  0  0  0  0  0  0
   -2.1594    3.5799    0.7729 H   0  0  0  0  0  0  0  0  0  0  0  0
   -3.2690    3.6789    2.1530 H   0  0  0  0  0  0  0  0  0  0  0  0
   -0.8700    1.1124    0.0921 N   0  0  0  0  0  0  0  0  0  0  0  0
    0.3073    0.6116   -0.5716 C   0  0  2  0  0  0  0  0  0  0  0  0
    0.6484    1.5935   -1.6868 C   0  0  0  0  0  0  0  0  0  0  0  0
    0.0118    2.6257   -1.8874 O   0  0  0  0  0  0  0  0  0  0  0  0
    0.0947   -0.7939   -1.1456 C   0  0  0  0  0  0  0  0  0  0  0  0
   -0.0927   -1.8398   -0.0739 C   0  0  0  0  0  0  0  0  0  0  0  0
    1.0170   -2.3782    0.5777 C   0  0  0  0  0  0  0  0  0  0  0  0
   -1.3762   -2.2680    0.2652 C   0  0  0  0  0  0  0  0  0  0  0  0
    0.8432   -3.3447    1.5683 C   0  0  0  0  0  0  0  0  0  0  0  0
   -1.5500   -3.2345    1.2558 C   0  0  0  0  0  0  0  0  0  0  0  0
   -0.4403   -3.7728    1.9074 C   0  0  0  0  0  0  0  0  0  0  0  0
   -1.6531    1.4091   -0.4852 H   0  0  0  0  0  0  0  0  0  0  0  0
    1.1126    0.6197    0.1724 H   0  0  0  0  0  0  0  0  0  0  0  0
    0.9388   -1.0730   -1.7907 H   0  0  0  0  0  0  0  0  0  0  0  0
   -0.7863   -0.8114   -1.8008 H   0  0  0  0  0  0  0  0  0  0  0  0
    2.0208   -2.0505    0.3202 H   0  0  0  0  0  0  0  0  0  0  0  0
   -2.2466   -1.8540   -0.2370 H   0  0  0  0  0  0  0  0  0  0  0  0
    1.7074   -3.7645    2.0748 H   0  0  0  0  0  0  0  0  0  0  0  0
   -2.5494   -3.5683    1.5188 H   0  0  0  0  0  0  0  0  0  0  0  0
   -0.5754   -4.5263    2.6778 H   0  0  0  0  0  0  0  0  0  0  0  0
    1.7761    1.2033   -2.3957 N   0  0  0  0  0  0  0  0  0  0  0  0
    2.3291    1.9677   -3.4905 C   0  0  2  0  0  0  0  0  0  0  0  0
    1.1967    2.2947   -4.4550 C   0  0  0  0  0  0  0  0  0  0  0  0
    0.1564    1.6425   -4.5140 O   0  0  0  0  0  0  0  0  0  0  0  0
    3.4389    1.2027   -4.1946 C   0  0  0  0  0  0  0  0  0  0  0  0
    2.2358    0.3368   -2.1318 H   0  0  0  0  0  0  0  0  0  0  0  0
    2.7233    2.8953   -3.0613 H   0  0  0  0  0  0  0  0  0  0  0  0
    3.0629    0.2701   -4.6311 H   0  0  0  0  0  0  0  0  0  0  0  0
    3.8761    1.7945   -5.0056 H   0  0  0  0  0  0  0  0  0  0  0  0
    4.2387    0.9424   -3.4929 H   0  0  0  0  0  0  0  0  0  0  0  0
    1.5023    3.3742   -5.2720 N   0  0  0  0  0  0  0  0  0  0  0  0
    0.5946    3.8710   -6.2796 C   0  0  0  0  0  0  0  0  0  0  0  0
    2.3806    3.8674   -5.1407 H   0  0  0  0  0  0  0  0  0  0  0  0
    0.8131    3.3854   -7.2421 H   0  0  0  0  0  0  0  0  0  0  0  0
   -0.4406    3.6472   -5.9828 H   0  0  0  0  0  0  0  0  0  0  0  0
    0.7198    4.9591   -6.3813 H   0  0  0  0  0  0  0  0  0  0  0  0
 25 27  1  0  0  0  0
 26 27  2  0  0  0  0
 23 25  2  0  0  0  0
 24 26  1  0  0  0  0
 22 23  1  0  0  0  0
 22 24  2  0  0  0  0
 21 22  1  0  0  0  0
  1  3  1  0  0  0  0
  1  7  1  0  0  0  0
  1  2  2  0  0  0  0
 38 39  1  0  0  0  0
 39 47  1  0  0  0  0
 39 40  2  0  0  0  0
  8  9  1  0  0  0  0
  9 17  1  0  0  0  0
  9 10  2  0  0  0  0
 18 19  1  0  0  0  0
 19 37  1  0  0  0  0
 19 20  2  0  0  0  0
 38 41  1  0  0  0  0
  8 11  1  0  0  0  0
 47 48  1  0  0  0  0
 18 21  1  0  0  0  0
 37 38  1  0  0  0  0
  7  8  1  0  0  0  0
 17 18  1  0  0  0  0
 27 36  1  0  0  0  0
 25 34  1  0  0  0  0
 26 35  1  0  0  0  0
 23 32  1  0  0  0  0
 24 33  1  0  0  0  0
  3  4  1  0  0  0  0
  3  5  1  0  0  0  0
  3  6  1  0  0  0  0
 41 44  1  0  0  0  0
 41 45  1  0  0  0  0
 41 46  1  0  0  0  0
 11 14  1  0  0  0  0
 11 15  1  0  0  0  0
 11 16  1  0  0  0  0
 48 50  1  0  0  0  0
 48 51  1  0  0  0  0
 48 52  1  0  0  0  0
 21 30  1  0  0  0  0
 21 31  1  0  0  0  0
 38 43  1  0  0  0  0
  8 13  1  0  0  0  0
 18 29  1  0  0  0  0
 47 49  1  0  0  0  0
  7 12  1  0  0  0  0
 37 42  1  0  0  0  0
 17 28  1  0  0  0  0
M  END
$$$$

  -OEChem-05262214473D

 52 52  0     1  0  0  0  0  0999 V2000
   -1.8248    0.3424    3.9102 C   0  0  0  0  0  0  0  0  0  0  0  0
   -0.8774   -0.2723    3.4345 O   0  0  0  0  0  0  0  0  0  0  0  0
   -2.2566    0.0600    5.3109 C   0  0  0  0  0  0  0  0  0  0  0  0
   -3.0163   -0.7363    5.3643 H   0  0  0  0  0  0  0  0  0  0  0  0
   -1.4254   -0.2876    5.9452 H   0  0  0  0  0  0  0  0  0  0  0  0
   -2.6947    0.9149    5.8505 H   0  0  0  0  0  0  0  0  0  0  0  0
   -2.5745    1.3149    3.2691 N   0  0  0  0  0  0  0  0  0  0  0  0
   -2.3276    1.7409    1.9167 C   0  0  2  0  0  0  0  0  0  0  0  0
   -0.9926    1.1555    1.4755 C   0  0  0  0  0  0  0  0  0  0  0  0
   -0.1206    0.8028    2.2668 O   0  0  0  0  0  0  0  0  0  0  0  0
   -2.3188    3.2577    1.8072 C   0  0  0  0  0  0  0  0  0  0  0  0
   -3.3395    1.7507    3.7809 H   0  0  0  0  0  0  0  0  0  0  0  0
   -3.1317    1.3224    1.3015 H   0  0  0  0  0  0  0  0  0  0  0  0
   -1.5198    3.6949    2.4169 H   0  0  0  0  0  0  0  0  0  0  0  0
   -2.1594    3.5799    0.7729 H   0  0  0  0  0  0  0  0  0  0  0  0
   -3.2690    3.6789    2.1530 H   0  0  0  0  0  0  0  0  0  0  0  0
   -0.8700    1.1124    0.0921 N   0  0  0  0  0  0  0  0  0  0  0  0
    0.3073    0.6116   -0.5716 C   0  0  2  0  0  0  0  0  0  0  0  0
    0.6484    1.5935   -1.6868 C   0  0  0  0  0  0  0  0  0  0  0  0
    0.2006    2.7373   -1.7314 O   0  0  0  0  0  0  0  0  0  0  0  0
    0.0947   -0.7939   -1.1456 C   0  0  0  0  0  0  0  0  0  0  0  0
   -0.0927   -1.8398   -0.0739 C   0  0  0  0  0  0  0  0  0  0  0  0
    1.0170   -2.3782    0.5777 C   0  0  0  0  0  0  0  0  0  0  0  0
   -1.3762   -2.2680    0.2652 C   0  0  0  0  0  0  0  0  0  0  0  0
    0.8432   -3.3447    1.5683 C   0  0  0  0  0  0  0  0  0  0  0  0
   -1.5500   -3.2345    1.2558 C   0  0  0  0  0  0  0  0  0  0  0  0
   -0.4403   -3.7728    1.9074 C   0  0  0  0  0  0  0  0  0  0  0  0
   -1.6531    1.4091   -0.4852 H   0  0  0  0  0  0  0  0  0  0  0  0
    1.1126    0.6197    0.1724 H   0  0  0  0  0  0  0  0  0  0  0  0
    0.9388   -1.0730   -1.7907 H   0  0  0  0  0  0  0  0  0  0  0  0
   -0.7863   -0.8114   -1.8008 H   0  0  0  0  0  0  0  0  0  0  0  0
    2.0208   -2.0505    0.3202 H   0  0  0  0  0  0  0  0  0  0  0  0
   -2.2466   -1.8540   -0.2370 H   0  0  0  0  0  0  0  0  0  0  0  0
    1.7074   -3.7645    2.0748 H   0  0  0  0  0  0  0  0  0  0  0  0
   -2.5494   -3.5683    1.5188 H   0  0  0  0  0  0  0  0  0  0  0  0
   -0.5754   -4.5263    2.6778 H   0  0  0  0  0  0  0  0  0  0  0  0
    1.5496    1.0556   -2.5951 N   0  0  0  0  0  0  0  0  0  0  0  0
    2.0568    1.7837   -3.7358 C   0  0  2  0  0  0  0  0  0  0  0  0
    0.8691    2.3844   -4.4763 C   0  0  0  0  0  0  0  0  0  0  0  0
   -0.2737    1.9414   -4.3824 O   0  0  0  0  0  0  0  0  0  0  0  0
    2.8686    0.8813   -4.6520 C   0  0  0  0  0  0  0  0  0  0  0  0
    1.8687    0.1021   -2.4508 H   0  0  0  0  0  0  0  0  0  0  0  0
    2.6875    2.5884   -3.3425 H   0  0  0  0  0  0  0  0  0  0  0  0
    2.2533    0.0690   -5.0558 H   0  0  0  0  0  0  0  0  0  0  0  0
    3.2759    1.4407   -5.5006 H   0  0  0  0  0  0  0  0  0  0  0  0
    3.7050    0.4269   -4.1101 H   0  0  0  0  0  0  0  0  0  0  0  0
    1.2429    3.4464   -5.2878 N   0  0  0  0  0  0  0  0  0  0  0  0
    0.2988    4.1752   -6.1023 C   0  0  0  0  0  0  0  0  0  0  0  0
    2.2097    3.7580   -5.2892 H   0  0  0  0  0  0  0  0  0  0  0  0
    0.2607    3.7302   -7.1075 H   0  0  0  0  0  0  0  0  0  0  0  0
   -0.6986    4.1248   -5.6411 H   0  0  0  0  0  0  0  0  0  0  0  0
    0.6149    5.2261   -6.1783 H   0  0  0  0  0  0  0  0  0  0  0  0
 25 27  1  0  0  0  0
 26 27  2  0  0  0  0
 23 25  2  0  0  0  0
 24 26  1  0  0  0  0
 22 23  1  0  0  0  0
 22 24  2  0  0  0  0
 21 22  1  0  0  0  0
  1  3  1  0  0  0  0
  1  7  1  0  0  0  0
  1  2  2  0  0  0  0
 38 39  1  0  0  0  0
 39 47  1  0  0  0  0
 39 40  2  0  0  0  0
  8  9  1  0  0  0  0
  9 17  1  0  0  0  0
  9 10  2  0  0  0  0
 18 19  1  0  0  0  0
 19 37  1  0  0  0  0
 19 20  2  0  0  0  0
 38 41  1  0  0  0  0
  8 11  1  0  0  0  0
 47 48  1  0  0  0  0
 18 21  1  0  0  0  0
 37 38  1  0  0  0  0
  7  8  1  0  0  0  0
 17 18  1  0  0  0  0
 27 36  1  0  0  0  0
 25 34  1  0  0  0  0
 26 35  1  0  0  0  0
 23 32  1  0  0  0  0
 24 33  1  0  0  0  0
  3  4  1  0  0  0  0
  3  5  1  0  0  0  0
  3  6  1  0  0  0  0
 41 44  1  0  0  0  0
 41 45  1  0  0  0  0
 41 46  1  0  0  0  0
 11 14  1  0  0  0  0
 11 15  1  0  0  0  0
 11 16  1  0  0  0  0
 48 50  1  0  0  0  0
 48 51  1  0  0  0  0
 48 52  1  0  0  0  0
 21 30  1  0  0  0  0
 21 31  1  0  0  0  0
 38 43  1  0  0  0  0
  8 13  1  0  0  0  0
 18 29  1  0  0  0  0
 47 49  1  0  0  0  0
  7 12  1  0  0  0  0
 37 42  1  0  0  0  0
 17 28  1  0  0  0  0
M  END
$$$$

  -OEChem-05262214473D

 52 52  0     1  0  0  0  0  0999 V2000
   -1.8248    0.3424    3.9102 C   0  0  0  0  0  0  0  0  0  0  0  0
   -0.8774   -0.2723    3.4345 O   0  0  0  0  0  0  0  0  0  0  0  0
   -2.2566    0.0600    5.3109 C   0  0  0  0  0  0  0  0  0  0  0  0
   -3.0163   -0.7363    5.3643 H   0  0  0  0  0  0  0  0  0  0  0  0
   -1.4254   -0.2876    5.9452 H   0  0  0  0  0  0  0  0  0  0  0  0
   -2.6947    0.9149    5.8505 H   0  0  0  0  0  0  0  0  0  0  0  0
   -2.5745    1.3149    3.2691 N   0  0  0  0  0  0  0  0  0  0  0  0
   -2.3276    1.7409    1.9167 C   0  0  2  0  0  0  0  0  0  0  0  0
   -0.9926    1.1555    1.4755 C   0  0  0  0  0  0  0  0  0  0  0  0
   -0.1206    0.8028    2.2668 O   0  0  0  0  0  0  0  0  0  0  0  0
   -2.3188    3.2577    1.8072 C   0  0  0  0  0  0  0  0  0  0  0  0
   -3.3395    1.7507    3.7809 H   0  0  0  0  0  0  0  0  0  0  0  0
   -3.1317    1.3224    1.3015 H   0  0  0  0  0  0  0  0  0  0  0  0
   -1.5198    3.6949    2.4169 H   0  0  0  0  0  0  0  0  0  0  0  0
   -2.1594    3.5799    0.7729 H   0  0  0  0  0  0  0  0  0  0  0  0
   -3.2690    3.6789    2.1530 H   0  0  0  0  0  0  0  0  0  0  0  0
   -0.8700    1.1124    0.0921 N   0  0  0  0  0  0  0  0  0  0  0  0
    0.3073    0.6116   -0.5716 C   0  0  2  0  0  0  0  0  0  0  0  0
    0.6484    1.5935   -1.6868 C   0  0  0  0  0  0  0  0  0  0  0  0
    0.4301    2.8004   -1.6056 O   0  0  0  0  0  0  0  0  0  0  0  0
    0.0947   -0.7939   -1.1456 C   0  0  0  0  0  0  0  0  0  0  0  0
   -0.0927   -1.8398   -0.0739 C   0  0  0  0  0  0  0  0  0  0  0  0
    1.0170   -2.3782    0.5777 C   0  0  0  0  0  0  0  0  0  0  0  0
   -1.3762   -2.2680    0.2652 C   0  0  0  0  0  0  0  0  0  0  0  0
    0.8432   -3.3447    1.5683 C   0  0  0  0  0  0  0  0  0  0  0  0
   -1.5500   -3.2345    1.2558 C   0  0  0  0  0  0  0  0  0  0  0  0
   -0.4403   -3.7728    1.9074 C   0  0  0  0  0  0  0  0  0  0  0  0
   -1.6531    1.4091   -0.4852 H   0  0  0  0  0  0  0  0  0  0  0  0
    1.1126    0.6197    0.1724 H   0  0  0  0  0  0  0  0  0  0  0  0
    0.9388   -1.0730   -1.7907 H   0  0  0  0  0  0  0  0  0  0  0  0
   -0.7863   -0.8114   -1.8008 H   0  0  0  0  0  0  0  0  0  0  0  0
    2.0208   -2.0505    0.3202 H   0  0  0  0  0  0  0  0  0  0  0  0
   -2.2466   -1.8540   -0.2370 H   0  0  0  0  0  0  0  0  0  0  0  0
    1.7074   -3.7645    2.0748 H   0  0  0  0  0  0  0  0  0  0  0  0
   -2.5494   -3.5683    1.5188 H   0  0  0  0  0  0  0  0  0  0  0  0
   -0.5754   -4.5263    2.6778 H   0  0  0  0  0  0  0  0  0  0  0  0
    1.2696    0.9673   -2.7585 N   0  0  0  0  0  0  0  0  0  0  0  0
    1.7180    1.6718   -3.9380 C   0  0  2  0  0  0  0  0  0  0  0  0
    0.5662    2.5342   -4.4370 C   0  0  0  0  0  0  0  0  0  0  0  0
   -0.6106    2.3039   -4.1663 O   0  0  0  0  0  0  0  0  0  0  0  0
    2.1806    0.7054   -5.0173 C   0  0  0  0  0  0  0  0  0  0  0  0
    1.4164   -0.0367   -2.7114 H   0  0  0  0  0  0  0  0  0  0  0  0
    2.5480    2.3150   -3.6259 H   0  0  0  0  0  0  0  0  0  0  0  0
    1.3624    0.0527   -5.3427 H   0  0  0  0  0  0  0  0  0  0  0  0
    2.5467    1.2413   -5.8993 H   0  0  0  0  0  0  0  0  0  0  0  0
    2.9890    0.0657   -4.6471 H   0  0  0  0  0  0  0  0  0  0  0  0
    1.0034    3.5662   -5.2556 N   0  0  0  0  0  0  0  0  0  0  0  0
    0.1001    4.5148   -5.8640 C   0  0  0  0  0  0  0  0  0  0  0  0
    1.9992    3.6934   -5.4105 H   0  0  0  0  0  0  0  0  0  0  0  0
   -0.1851    4.1601   -6.8654 H   0  0  0  0  0  0  0  0  0  0  0  0
   -0.8005    4.6152   -5.2405 H   0  0  0  0  0  0  0  0  0  0  0  0
    0.5978    5.4921   -5.9493 H   0  0  0  0  0  0  0  0  0  0  0  0
 25 27  1  0  0  0  0
 26 27  2  0  0  0  0
 23 25  2  0  0  0  0
 24 26  1  0  0  0  0
 22 23  1  0  0  0  0
 22 24  2  0  0  0  0
 21 22  1  0  0  0  0
  1  3  1  0  0  0  0
  1  7  1  0  0  0  0
  1  2  2  0  0  0  0
 38 39  1  0  0  0  0
 39 47  1  0  0  0  0
 39 40  2  0  0  0  0
  8  9  1  0  0  0  0
  9 17  1  0  0  0  0
  9 10  2  0  0  0  0
 18 19  1  0  0  0  0
 19 37  1  0  0  0  0
 19 20  2  0  0  0  0
 38 41  1  0  0  0  0
  8 11  1  0  0  0  0
 47 48  1  0  0  0  0
 18 21  1  0  0  0  0
 37 38  1  0  0  0  0
  7  8  1  0  0  0  0
 17 18  1  0  0  0  0
 27 36  1  0  0  0  0
 25 34  1  0  0  0  0
 26 35  1  0  0  0  0
 23 32  1  0  0  0  0
 24 33  1  0  0  0  0
  3  4  1  0  0  0  0
  3  5  1  0  0  0  0
  3  6  1  0  0  0  0
 41 44  1  0  0  0  0
 41 45  1  0  0  0  0
 41 46  1  0  0  0  0
 11 14  1  0  0  0  0
 11 15  1  0  0  0  0
 11 16  1  0  0  0  0
 48 50  1  0  0  0  0
 48 51  1  0  0  0  0
 48 52  1  0  0  0  0
 21 30  1  0  0  0  0
 21 31  1  0  0  0  0
 38 43  1  0  0  0  0
  8 13  1  0  0  0  0
 18 29  1  0  0  0  0
 47 49  1  0  0  0  0
  7 12  1  0  0  0  0
 37 42  1  0  0  0  0
 17 28  1  0  0  0  0
M  END
$$$$

  -OEChem-05262214473D

 52 52  0     1  0  0  0  0  0999 V2000
   -1.8248    0.3424    3.9102 C   0  0  0  0  0  0  0  0  0  0  0  0
   -0.8774   -0.2723    3.4345 O   0  0  0  0  0  0  0  0  0  0  0  0
   -2.2566    0.0600    5.3109 C   0  0  0  0  0  0  0  0  0  0  0  0
   -3.0163   -0.7363    5.3643 H   0  0  0  0  0  0  0  0  0  0  0  0
   -1.4254   -0.2876    5.9452 H   0  0  0  0  0  0  0  0  0  0  0  0
   -2.6947    0.9149    5.8505 H   0  0  0  0  0  0  0  0  0  0  0  0
   -2.5745    1.3149    3.2691 N   0  0  0  0  0  0  0  0  0  0  0  0
   -2.3276    1.7409    1.9167 C   0  0  2  0  0  0  0  0  0  0  0  0
   -0.9926    1.1555    1.4755 C   0  0  0  0  0  0  0  0  0  0  0  0
   -0.1206    0.8028    2.2668 O   0  0  0  0  0  0  0  0  0  0  0  0
   -2.3188    3.2577    1.8072 C   0  0  0  0  0  0  0  0  0  0  0  0
   -3.3395    1.7507    3.7809 H   0  0  0  0  0  0  0  0  0  0  0  0
   -3.1317    1.3224    1.3015 H   0  0  0  0  0  0  0  0  0  0  0  0
   -1.5198    3.6949    2.4169 H   0  0  0  0  0  0  0  0  0  0  0  0
   -2.1594    3.5799    0.7729 H   0  0  0  0  0  0  0  0  0  0  0  0
   -3.2690    3.6789    2.1530 H   0  0  0  0  0  0  0  0  0  0  0  0
   -0.8700    1.1124    0.0921 N   0  0  0  0  0  0  0  0  0  0  0  0
    0.3073    0.6116   -0.5716 C   0  0  2  0  0  0  0  0  0  0  0  0
    0.6484    1.5935   -1.6868 C   0  0  0  0  0  0  0  0  0  0  0  0
    0.6846    2.8106   -1.5188 O   0  0  0  0  0  0  0  0  0  0  0  0
    0.0947   -0.7939   -1.1456 C   0  0  0  0  0  0  0  0  0  0  0  0
   -0.0927   -1.8398   -0.0739 C   0  0  0  0  0  0  0  0  0  0  0  0
    1.0170   -2.3782    0.5777 C   0  0  0  0  0  0  0  0  0  0  0  0
   -1.3762   -2.2680    0.2652 C   0  0  0  0  0  0  0  0  0  0  0  0
    0.8432   -3.3447    1.5683 C   0  0  0  0  0  0  0  0  0  0  0  0
   -1.5500   -3.2345    1.2558 C   0  0  0  0  0  0  0  0  0  0  0  0
   -0.4403   -3.7728    1.9074 C   0  0  0  0  0  0  0  0  0  0  0  0
   -1.6531    1.4091   -0.4852 H   0  0  0  0  0  0  0  0  0  0  0  0
    1.1126    0.6197    0.1724 H   0  0  0  0  0  0  0  0  0  0  0  0
    0.9388   -1.0730   -1.7907 H   0  0  0  0  0  0  0  0  0  0  0  0
   -0.7863   -0.8114   -1.8008 H   0  0  0  0  0  0  0  0  0  0  0  0
    2.0208   -2.0505    0.3202 H   0  0  0  0  0  0  0  0  0  0  0  0
   -2.2466   -1.8540   -0.2370 H   0  0  0  0  0  0  0  0  0  0  0  0
    1.7074   -3.7645    2.0748 H   0  0  0  0  0  0  0  0  0  0  0  0
   -2.5494   -3.5683    1.5188 H   0  0  0  0  0  0  0  0  0  0  0  0
   -0.5754   -4.5263    2.6778 H   0  0  0  0  0  0  0  0  0  0  0  0
    0.9551    0.9445   -2.8747 N   0  0  0  0  0  0  0  0  0  0  0  0
    1.3358    1.6395   -4.0833 C   0  0  2  0  0  0  0  0  0  0  0  0
    0.3084    2.7341   -4.3399 C   0  0  0  0  0  0  0  0  0  0  0  0
   -0.8313    2.7053   -3.8804 O   0  0  0  0  0  0  0  0  0  0  0  0
    1.4219    0.6869   -5.2657 C   0  0  0  0  0  0  0  0  0  0  0  0
    0.9098   -0.0700   -2.8957 H   0  0  0  0  0  0  0  0  0  0  0  0
    2.3142    2.0937   -3.8922 H   0  0  0  0  0  0  0  0  0  0  0  0
    0.4510    0.2221   -5.4723 H   0  0  0  0  0  0  0  0  0  0  0  0
    1.7381    1.2098   -6.1743 H   0  0  0  0  0  0  0  0  0  0  0  0
    2.1395   -0.1165   -5.0673 H   0  0  0  0  0  0  0  0  0  0  0  0
    0.8001    3.7254   -5.1776 N   0  0  0  0  0  0  0  0  0  0  0  0
    0.0123    4.8667   -5.5811 C   0  0  0  0  0  0  0  0  0  0  0  0
    1.7634    3.6779   -5.4963 H   0  0  0  0  0  0  0  0  0  0  0  0
   -0.4940    4.6456   -6.5323 H   0  0  0  0  0  0  0  0  0  0  0  0
   -0.7392    5.0850   -4.8081 H   0  0  0  0  0  0  0  0  0  0  0  0
    0.6699    5.7389   -5.7099 H   0  0  0  0  0  0  0  0  0  0  0  0
 25 27  1  0  0  0  0
 26 27  2  0  0  0  0
 23 25  2  0  0  0  0
 24 26  1  0  0  0  0
 22 23  1  0  0  0  0
 22 24  2  0  0  0  0
 21 22  1  0  0  0  0
  1  3  1  0  0  0  0
  1  7  1  0  0  0  0
  1  2  2  0  0  0  0
 38 39  1  0  0  0  0
 39 47  1  0  0  0  0
 39 40  2  0  0  0  0
  8  9  1  0  0  0  0
  9 17  1  0  0  0  0
  9 10  2  0  0  0  0
 18 19  1  0  0  0  0
 19 37  1  0  0  0  0
 19 20  2  0  0  0  0
 38 41  1  0  0  0  0
  8 11  1  0  0  0  0
 47 48  1  0  0  0  0
 18 21  1  0  0  0  0
 37 38  1  0  0  0  0
  7  8  1  0  0  0  0
 17 18  1  0  0  0  0
 27 36  1  0  0  0  0
 25 34  1  0  0  0  0
 26 35  1  0  0  0  0
 23 32  1  0  0  0  0
 24 33  1  0  0  0  0
  3  4  1  0  0  0  0
  3  5  1  0  0  0  0
  3  6  1  0  0  0  0
 41 44  1  0  0  0  0
 41 45  1  0  0  0  0
 41 46  1  0  0  0  0
 11 14  1  0  0  0  0
 11 15  1  0  0  0  0
 11 16  1  0  0  0  0
 48 50  1  0  0  0  0
 48 51  1  0  0  0  0
 48 52  1  0  0  0  0
 21 30  1  0  0  0  0
 21 31  1  0  0  0  0
 38 43  1  0  0  0  0
  8 13  1  0  0  0  0
 18 29  1  0  0  0  0
 47 49  1  0  0  0  0
  7 12  1  0  0  0  0
 37 42  1  0  0  0  0
 17 28  1  0  0  0  0
M  END
$$$$

  -OEChem-05262214473D

 52 52  0     1  0  0  0  0  0999 V2000
   -1.8248    0.3424    3.9102 C   0  0  0  0  0  0  0  0  0  0  0  0
   -0.8774   -0.2723    3.4345 O   0  0  0  0  0  0  0  0  0  0  0  0
   -2.2566    0.0600    5.3109 C   0  0  0  0  0  0  0  0  0  0  0  0
   -3.0163   -0.7363    5.3643 H   0  0  0  0  0  0  0  0  0  0  0  0
   -1.4254   -0.2876    5.9452 H   0  0  0  0  0  0  0  0  0  0  0  0
   -2.6947    0.9149    5.8505 H   0  0  0  0  0  0  0  0  0  0  0  0
   -2.5745    1.3149    3.2691 N   0  0  0  0  0  0  0  0  0  0  0  0
   -2.3276    1.7409    1.9167 C   0  0  2  0  0  0  0  0  0  0  0  0
   -0.9926    1.1555    1.4755 C   0  0  0  0  0  0  0  0  0  0  0  0
   -0.1206    0.8028    2.2668 O   0  0  0  0  0  0  0  0  0  0  0  0
   -2.3188    3.2577    1.8072 C   0  0  0  0  0  0  0  0  0  0  0  0
   -3.3395    1.7507    3.7809 H   0  0  0  0  0  0  0  0  0  0  0  0
   -3.1317    1.3224    1.3015 H   0  0  0  0  0  0  0  0  0  0  0  0
   -1.5198    3.6949    2.4169 H   0  0  0  0  0  0  0  0  0  0  0  0
   -2.1594    3.5799    0.7729 H   0  0  0  0  0  0  0  0  0  0  0  0
   -3.2690    3.6789    2.1530 H   0  0  0  0  0  0  0  0  0  0  0  0
   -0.8700    1.1124    0.0921 N   0  0  0  0  0  0  0  0  0  0  0  0
    0.3073    0.6116   -0.5716 C   0  0  2  0  0  0  0  0  0  0  0  0
    0.6484    1.5935   -1.6868 C   0  0  0  0  0  0  0  0  0  0  0  0
    0.9469    2.7673   -1.4767 O   0  0  0  0  0  0  0  0  0  0  0  0
    0.0947   -0.7939   -1.1456 C   0  0  0  0  0  0  0  0  0  0  0  0
   -0.0927   -1.8398   -0.0739 C   0  0  0  0  0  0  0  0  0  0  0  0
    1.0170   -2.3782    0.5777 C   0  0  0  0  0  0  0  0  0  0  0  0
   -1.3762   -2.2680    0.2652 C   0  0  0  0  0  0  0  0  0  0  0  0
    0.8432   -3.3447    1.5683 C   0  0  0  0  0  0  0  0  0  0  0  0
   -1.5500   -3.2345    1.2558 C   0  0  0  0  0  0  0  0  0  0  0  0
   -0.4403   -3.7728    1.9074 C   0  0  0  0  0  0  0  0  0  0  0  0
   -1.6531    1.4091   -0.4852 H   0  0  0  0  0  0  0  0  0  0  0  0
    1.1126    0.6197    0.1724 H   0  0  0  0  0  0  0  0  0  0  0  0
    0.9388   -1.0730   -1.7907 H   0  0  0  0  0  0  0  0  0  0  0  0
   -0.7863   -0.8114   -1.8008 H   0  0  0  0  0  0  0  0  0  0  0  0
    2.0208   -2.0505    0.3202 H   0  0  0  0  0  0  0  0  0  0  0  0
   -2.2466   -1.8540   -0.2370 H   0  0  0  0  0  0  0  0  0  0  0  0
    1.7074   -3.7645    2.0748 H   0  0  0  0  0  0  0  0  0  0  0  0
   -2.5494   -3.5683    1.5188 H   0  0  0  0  0  0  0  0  0  0  0  0
   -0.5754   -4.5263    2.6778 H   0  0  0  0  0  0  0  0  0  0  0  0
    0.6278    0.9887   -2.9359 N   0  0  0  0  0  0  0  0  0  0  0  0
    0.9364    1.6891   -4.1619 C   0  0  2  0  0  0  0  0  0  0  0  0
    0.1135    2.9703   -4.1916 C   0  0  0  0  0  0  0  0  0  0  0  0
   -0.9209    3.1183   -3.5441 O   0  0  0  0  0  0  0  0  0  0  0  0
    0.6442    0.8271   -5.3802 C   0  0  0  0  0  0  0  0  0  0  0  0
    0.3834    0.0044   -2.9912 H   0  0  0  0  0  0  0  0  0  0  0  0
    2.0021    1.9396   -4.1233 H   0  0  0  0  0  0  0  0  0  0  0  0
   -0.4189    0.5659   -5.4358 H   0  0  0  0  0  0  0  0  0  0  0  0
    0.9053    1.3484   -6.3070 H   0  0  0  0  0  0  0  0  0  0  0  0
    1.2144   -0.1074   -5.3423 H   0  0  0  0  0  0  0  0  0  0  0  0
    0.6468    3.9131   -5.0592 N   0  0  0  0  0  0  0  0  0  0  0  0
    0.0412    5.2068   -5.2728 C   0  0  0  0  0  0  0  0  0  0  0  0
    1.5184    3.7125   -5.5408 H   0  0  0  0  0  0  0  0  0  0  0  0
   -0.6449    5.1539   -6.1310 H   0  0  0  0  0  0  0  0  0  0  0  0
   -0.5190    5.5022   -4.3734 H   0  0  0  0  0  0  0  0  0  0  0  0
    0.8262    5.9499   -5.4764 H   0  0  0  0  0  0  0  0  0  0  0  0
 25 27  1  0  0  0  0
 26 27  2  0  0  0  0
 23 25  2  0  0  0  0
 24 26  1  0  0  0  0
 22 23  1  0  0  0  0
 22 24  2  0  0  0  0
 21 22  1  0  0  0  0
  1  3  1  0  0  0  0
  1  7  1  0  0  0  0
  1  2  2  0  0  0  0
 38 39  1  0  0  0  0
 39 47  1  0  0  0  0
 39 40  2  0  0  0  0
  8  9  1  0  0  0  0
  9 17  1  0  0  0  0
  9 10  2  0  0  0  0
 18 19  1  0  0  0  0
 19 37  1  0  0  0  0
 19 20  2  0  0  0  0
 38 41  1  0  0  0  0
  8 11  1  0  0  0  0
 47 48  1  0  0  0  0
 18 21  1  0  0  0  0
 37 38  1  0  0  0  0
  7  8  1  0  0  0  0
 17 18  1  0  0  0  0
 27 36  1  0  0  0  0
 25 34  1  0  0  0  0
 26 35  1  0  0  0  0
 23 32  1  0  0  0  0
 24 33  1  0  0  0  0
  3  4  1  0  0  0  0
  3  5  1  0  0  0  0
  3  6  1  0  0  0  0
 41 44  1  0  0  0  0
 41 45  1  0  0  0  0
 41 46  1  0  0  0  0
 11 14  1  0  0  0  0
 11 15  1  0  0  0  0
 11 16  1  0  0  0  0
 48 50  1  0  0  0  0
 48 51  1  0  0  0  0
 48 52  1  0  0  0  0
 21 30  1  0  0  0  0
 21 31  1  0  0  0  0
 38 43  1  0  0  0  0
  8 13  1  0  0  0  0
 18 29  1  0  0  0  0
 47 49  1  0  0  0  0
  7 12  1  0  0  0  0
 37 42  1  0  0  0  0
 17 28  1  0  0  0  0
M  END
$$$$

  -OEChem-05262214473D

 52 52  0     1  0  0  0  0  0999 V2000
   -1.8248    0.3424    3.9102 C   0  0  0  0  0  0  0  0  0  0  0  0
   -0.8774   -0.2723    3.4345 O   0  0  0  0  0  0  0  0  0  0  0  0
   -2.2566    0.0600    5.3109 C   0  0  0  0  0  0  0  0  0  0  0  0
   -3.0163   -0.7363    5.3643 H   0  0  0  0  0  0  0  0  0  0  0  0
   -1.4254   -0.2876    5.9452 H   0  0  0  0  0  0  0  0  0  0  0  0
   -2.6947    0.9149    5.8505 H   0  0  0  0  0  0  0  0  0  0  0  0
   -2.5745    1.3149    3.2691 N   0  0  0  0  0  0  0  0  0  0  0  0
   -2.3276    1.7409    1.9167 C   0  0  2  0  0  0  0  0  0  0  0  0
   -0.9926    1.1555    1.4755 C   0  0  0  0  0  0  0  0  0  0  0  0
   -0.1206    0.8028    2.2668 O   0  0  0  0  0  0  0  0  0  0  0  0
   -2.3188    3.2577    1.8072 C   0  0  0  0  0  0  0  0  0  0  0  0
   -3.3395    1.7507    3.7809 H   0  0  0  0  0  0  0  0  0  0  0  0
   -3.1317    1.3224    1.3015 H   0  0  0  0  0  0  0  0  0  0  0  0
   -1.5198    3.6949    2.4169 H   0  0  0  0  0  0  0  0  0  0  0  0
   -2.1594    3.5799    0.7729 H   0  0  0  0  0  0  0  0  0  0  0  0
   -3.2690    3.6789    2.1530 H   0  0  0  0  0  0  0  0  0  0  0  0
   -0.8700    1.1124    0.0921 N   0  0  0  0  0  0  0  0  0  0  0  0
    0.3073    0.6116   -0.5716 C   0  0  2  0  0  0  0  0  0  0  0  0
    0.6484    1.5935   -1.6868 C   0  0  0  0  0  0  0  0  0  0  0  0
    1.1991    2.6733   -1.4824 O   0  0  0  0  0  0  0  0  0  0  0  0
    0.0947   -0.7939   -1.1456 C   0  0  0  0  0  0  0  0  0  0  0  0
   -0.0927   -1.8398   -0.0739 C   0  0  0  0  0  0  0  0  0  0  0  0
    1.0170   -2.3782    0.5777 C   0  0  0  0  0  0  0  0  0  0  0  0
   -1.3762   -2.2680    0.2652 C   0  0  0  0  0  0  0  0  0  0  0  0
    0.8432   -3.3447    1.5683 C   0  0  0  0  0  0  0  0  0  0  0  0
   -1.5500   -3.2345    1.2558 C   0  0  0  0  0  0  0  0  0  0  0  0
   -0.4403   -3.7728    1.9074 C   0  0  0  0  0  0  0  0  0  0  0  0
   -1.6531    1.4091   -0.4852 H   0  0  0  0  0  0  0  0  0  0  0  0
    1.1126    0.6197    0.1724 H   0  0  0  0  0  0  0  0  0  0  0  0
    0.9388   -1.0730   -1.7907 H   0  0  0  0  0  0  0  0  0  0  0  0
   -0.7863   -0.8114   -1.8008 H   0  0  0  0  0  0  0  0  0  0  0  0
    2.0208   -2.0505    0.3202 H   0  0  0  0  0  0  0  0  0  0  0  0
   -2.2466   -1.8540   -0.2370 H   0  0  0  0  0  0  0  0  0  0  0  0
    1.7074   -3.7645    2.0748 H   0  0  0  0  0  0  0  0  0  0  0  0
   -2.5494   -3.5683    1.5188 H   0  0  0  0  0  0  0  0  0  0  0  0
   -0.5754   -4.5263    2.6778 H   0  0  0  0  0  0  0  0  0  0  0  0
    0.3097    1.0970   -2.9379 N   0  0  0  0  0  0  0  0  0  0  0  0
    0.5468    1.8171   -4.1683 C   0  0  2  0  0  0  0  0  0  0  0  0
   -0.0053    3.2267   -4.0021 C   0  0  0  0  0  0  0  0  0  0  0  0
   -0.8732    3.5147   -3.1805 O   0  0  0  0  0  0  0  0  0  0  0  0
   -0.0997    1.1163   -5.3530 C   0  0  0  0  0  0  0  0  0  0  0  0
   -0.1269    0.1814   -2.9914 H   0  0  0  0  0  0  0  0  0  0  0  0
    1.6329    1.8633   -4.3034 H   0  0  0  0  0  0  0  0  0  0  0  0
   -1.1880    1.0605   -5.2355 H   0  0  0  0  0  0  0  0  0  0  0  0
    0.1050    1.6477   -6.2883 H   0  0  0  0  0  0  0  0  0  0  0  0
    0.2767    0.0925   -5.4530 H   0  0  0  0  0  0  0  0  0  0  0  0
    0.5540    4.1166   -4.9084 N   0  0  0  0  0  0  0  0  0  0  0  0
    0.1849    5.5119   -4.9601 C   0  0  0  0  0  0  0  0  0  0  0  0
    1.2808    3.7948   -5.5409 H   0  0  0  0  0  0  0  0  0  0  0  0
   -0.6275    5.6501   -5.6888 H   0  0  0  0  0  0  0  0  0  0  0  0
   -0.1549    5.8383   -3.9661 H   0  0  0  0  0  0  0  0  0  0  0  0
    1.0561    6.1105   -5.2646 H   0  0  0  0  0  0  0  0  0  0  0  0
 25 27  1  0  0  0  0
 26 27  2  0  0  0  0
 23 25  2  0  0  0  0
 24 26  1  0  0  0  0
 22 23  1  0  0  0  0
 22 24  2  0  0  0  0
 21 22  1  0  0  0  0
  1  3  1  0  0  0  0
  1  7  1  0  0  0  0
  1  2  2  0  0  0  0
 38 39  1  0  0  0  0
 39 47  1  0  0  0  0
 39 40  2  0  0  0  0
  8  9  1  0  0  0  0
  9 17  1  0  0  0  0
  9 10  2  0  0  0  0
 18 19  1  0  0  0  0
 19 37  1  0  0  0  0
 19 20  2  0  0  0  0
 38 41  1  0  0  0  0
  8 11  1  0  0  0  0
 47 48  1  0  0  0  0
 18 21  1  0  0  0  0
 37 38  1  0  0  0  0
  7  8  1  0  0  0  0
 17 18  1  0  0  0  0
 27 36  1  0  0  0  0
 25 34  1  0  0  0  0
 26 35  1  0  0  0  0
 23 32  1  0  0  0  0
 24 33  1  0  0  0  0
  3  4  1  0  0  0  0
  3  5  1  0  0  0  0
  3  6  1  0  0  0  0
 41 44  1  0  0  0  0
 41 45  1  0  0  0  0
 41 46  1  0  0  0  0
 11 14  1  0  0  0  0
 11 15  1  0  0  0  0
 11 16  1  0  0  0  0
 48 50  1  0  0  0  0
 48 51  1  0  0  0  0
 48 52  1  0  0  0  0
 21 30  1  0  0  0  0
 21 31  1  0  0  0  0
 38 43  1  0  0  0  0
  8 13  1  0  0  0  0
 18 29  1  0  0  0  0
 47 49  1  0  0  0  0
  7 12  1  0  0  0  0
 37 42  1  0  0  0  0
 17 28  1  0  0  0  0
M  END
$$$$

  -OEChem-05262214473D

 52 52  0     1  0  0  0  0  0999 V2000
   -1.8248    0.3424    3.9102 C   0  0  0  0  0  0  0  0  0  0  0  0
   -0.8774   -0.2723    3.4345 O   0  0  0  0  0  0  0  0  0  0  0  0
   -2.2566    0.0600    5.3109 C   0  0  0  0  0  0  0  0  0  0  0  0
   -3.0163   -0.7363    5.3643 H   0  0  0  0  0  0  0  0  0  0  0  0
   -1.4254   -0.2876    5.9452 H   0  0  0  0  0  0  0  0  0  0  0  0
   -2.6947    0.9149    5.8505 H   0  0  0  0  0  0  0  0  0  0  0  0
   -2.5745    1.3149    3.2691 N   0  0  0  0  0  0  0  0  0  0  0  0
   -2.3276    1.7409    1.9167 C   0  0  2  0  0  0  0  0  0  0  0  0
   -0.9926    1.1555    1.4755 C   0  0  0  0  0  0  0  0  0  0  0  0
   -0.1206    0.8028    2.2668 O   0  0  0  0  0  0  0  0  0  0  0  0
   -2.3188    3.2577    1.8072 C   0  0  0  0  0  0  0  0  0  0  0  0
   -3.3395    1.7507    3.7809 H   0  0  0  0  0  0  0  0  0  0  0  0
   -3.1317    1.3224    1.3015 H   0  0  0  0  0  0  0  0  0  0  0  0
   -1.5198    3.6949    2.4169 H   0  0  0  0  0  0  0  0  0  0  0  0
   -2.1594    3.5799    0.7729 H   0  0  0  0  0  0  0  0  0  0  0  0
   -3.2690    3.6789    2.1530 H   0  0  0  0  0  0  0  0  0  0  0  0
   -0.8700    1.1124    0.0921 N   0  0  0  0  0  0  0  0  0  0  0  0
    0.3073    0.6116   -0.5716 C   0  0  2  0  0  0  0  0  0  0  0  0
    0.6484    1.5935   -1.6868 C   0  0  0  0  0  0  0  0  0  0  0  0
    1.4239    2.5351   -1.5353 O   0  0  0  0  0  0  0  0  0  0  0  0
    0.0947   -0.7939   -1.1456 C   0  0  0  0  0  0  0  0  0  0  0  0
   -0.0927   -1.8398   -0.0739 C   0  0  0  0  0  0  0  0  0  0  0  0
    1.0170   -2.3782    0.5777 C   0  0  0  0  0  0  0  0  0  0  0  0
   -1.3762   -2.2680    0.2652 C   0  0  0  0  0  0  0  0  0  0  0  0
    0.8432   -3.3447    1.5683 C   0  0  0  0  0  0  0  0  0  0  0  0
   -1.5500   -3.2345    1.2558 C   0  0  0  0  0  0  0  0  0  0  0  0
   -0.4403   -3.7728    1.9074 C   0  0  0  0  0  0  0  0  0  0  0  0
   -1.6531    1.4091   -0.4852 H   0  0  0  0  0  0  0  0  0  0  0  0
    1.1126    0.6197    0.1724 H   0  0  0  0  0  0  0  0  0  0  0  0
    0.9388   -1.0730   -1.7907 H   0  0  0  0  0  0  0  0  0  0  0  0
   -0.7863   -0.8114   -1.8008 H   0  0  0  0  0  0  0  0  0  0  0  0
    2.0208   -2.0505    0.3202 H   0  0  0  0  0  0  0  0  0  0  0  0
   -2.2466   -1.8540   -0.2370 H   0  0  0  0  0  0  0  0  0  0  0  0
    1.7074   -3.7645    2.0748 H   0  0  0  0  0  0  0  0  0  0  0  0
   -2.5494   -3.5683    1.5188 H   0  0  0  0  0  0  0  0  0  0  0  0
   -0.5754   -4.5263    2.6778 H   0  0  0  0  0  0  0  0  0  0  0  0
    0.0226    1.2619   -2.8805 N   0  0  0  0  0  0  0  0  0  0  0  0
    0.1937    2.0150   -4.1021 C   0  0  2  0  0  0  0  0  0  0  0  0
   -0.0400    3.4860   -3.7844 C   0  0  0  0  0  0  0  0  0  0  0  0
   -0.6915    3.8675   -2.8143 O   0  0  0  0  0  0  0  0  0  0  0  0
   -0.7588    1.5350   -5.1860 C   0  0  0  0  0  0  0  0  0  0  0  0
   -0.5862    0.4490   -2.8962 H   0  0  0  0  0  0  0  0  0  0  0  0
    1.2319    1.8699   -4.4203 H   0  0  0  0  0  0  0  0  0  0  0  0
   -1.8039    1.6723   -4.8852 H   0  0  0  0  0  0  0  0  0  0  0  0
   -0.6083    2.0872   -6.1195 H   0  0  0  0  0  0  0  0  0  0  0  0
   -0.6096    0.4696   -5.3922 H   0  0  0  0  0  0  0  0  0  0  0  0
    0.5281    4.3220   -4.7355 N   0  0  0  0  0  0  0  0  0  0  0  0
    0.4336    5.7614   -4.6644 C   0  0  0  0  0  0  0  0  0  0  0  0
    1.0670    3.9194   -5.4967 H   0  0  0  0  0  0  0  0  0  0  0  0
   -0.4431    6.1005   -5.2358 H   0  0  0  0  0  0  0  0  0  0  0  0
    0.3284    6.0704   -3.6140 H   0  0  0  0  0  0  0  0  0  0  0  0
    1.3438    6.2099   -5.0891 H   0  0  0  0  0  0  0  0  0  0  0  0
 25 27  1  0  0  0  0
 26 27  2  0  0  0  0
 23 25  2  0  0  0  0
 24 26  1  0  0  0  0
 22 23  1  0  0  0  0
 22 24  2  0  0  0  0
 21 22  1  0  0  0  0
  1  3  1  0  0  0  0
  1  7  1  0  0  0  0
  1  2  2  0  0  0  0
 38 39  1  0  0  0  0
 39 47  1  0  0  0  0
 39 40  2  0  0  0  0
  8  9  1  0  0  0  0
  9 17  1  0  0  0  0
  9 10  2  0  0  0  0
 18 19  1  0  0  0  0
 19 37  1  0  0  0  0
 19 20  2  0  0  0  0
 38 41  1  0  0  0  0
  8 11  1  0  0  0  0
 47 48  1  0  0  0  0
 18 21  1  0  0  0  0
 37 38  1  0  0  0  0
  7  8  1  0  0  0  0
 17 18  1  0  0  0  0
 27 36  1  0  0  0  0
 25 34  1  0  0  0  0
 26 35  1  0  0  0  0
 23 32  1  0  0  0  0
 24 33  1  0  0  0  0
  3  4  1  0  0  0  0
  3  5  1  0  0  0  0
  3  6  1  0  0  0  0
 41 44  1  0  0  0  0
 41 45  1  0  0  0  0
 41 46  1  0  0  0  0
 11 14  1  0  0  0  0
 11 15  1  0  0  0  0
 11 16  1  0  0  0  0
 48 50  1  0  0  0  0
 48 51  1  0  0  0  0
 48 52  1  0  0  0  0
 21 30  1  0  0  0  0
 21 31  1  0  0  0  0
 38 43  1  0  0  0  0
  8 13  1  0  0  0  0
 18 29  1  0  0  0  0
 47 49  1  0  0  0  0
  7 12  1  0  0  0  0
 37 42  1  0  0  0  0
 17 28  1  0  0  0  0
M  END
$$$$

  -OEChem-05262214473D

 52 52  0     1  0  0  0  0  0999 V2000
   -1.8248    0.3424    3.9102 C   0  0  0  0  0  0  0  0  0  0  0  0
   -0.8774   -0.2723    3.4345 O   0  0  0  0  0  0  0  0  0  0  0  0
   -2.2566    0.0600    5.3109 C   0  0  0  0  0  0  0  0  0  0  0  0
   -3.0163   -0.7363    5.3643 H   0  0  0  0  0  0  0  0  0  0  0  0
   -1.4254   -0.2876    5.9452 H   0  0  0  0  0  0  0  0  0  0  0  0
   -2.6947    0.9149    5.8505 H   0  0  0  0  0  0  0  0  0  0  0  0
   -2.5745    1.3149    3.2691 N   0  0  0  0  0  0  0  0  0  0  0  0
   -2.3276    1.7409    1.9167 C   0  0  2  0  0  0  0  0  0  0  0  0
   -0.9926    1.1555    1.4755 C   0  0  0  0  0  0  0  0  0  0  0  0
   -0.1206    0.8028    2.2668 O   0  0  0  0  0  0  0  0  0  0  0  0
   -2.3188    3.2577    1.8072 C   0  0  0  0  0  0  0  0  0  0  0  0
   -3.3395    1.7507    3.7809 H   0  0  0  0  0  0  0  0  0  0  0  0
   -3.1317    1.3224    1.3015 H   0  0  0  0  0  0  0  0  0  0  0  0
   -1.5198    3.6949    2.4169 H   0  0  0  0  0  0  0  0  0  0  0  0
   -2.1594    3.5799    0.7729 H   0  0  0  0  0  0  0  0  0  0  0  0
   -3.2690    3.6789    2.1530 H   0  0  0  0  0  0  0  0  0  0  0  0
   -0.8700    1.1124    0.0921 N   0  0  0  0  0  0  0  0  0  0  0  0
    0.3073    0.6116   -0.5716 C   0  0  2  0  0  0  0  0  0  0  0  0
    0.6484    1.5935   -1.6868 C   0  0  0  0  0  0  0  0  0  0  0  0
    1.6061    2.3621   -1.6319 O   0  0  0  0  0  0  0  0  0  0  0  0
    0.0947   -0.7939   -1.1456 C   0  0  0  0  0  0  0  0  0  0  0  0
   -0.0927   -1.8398   -0.0739 C   0  0  0  0  0  0  0  0  0  0  0  0
    1.0170   -2.3782    0.5777 C   0  0  0  0  0  0  0  0  0  0  0  0
   -1.3762   -2.2680    0.2652 C   0  0  0  0  0  0  0  0  0  0  0  0
    0.8432   -3.3447    1.5683 C   0  0  0  0  0  0  0  0  0  0  0  0
   -1.5500   -3.2345    1.2558 C   0  0  0  0  0  0  0  0  0  0  0  0
   -0.4403   -3.7728    1.9074 C   0  0  0  0  0  0  0  0  0  0  0  0
   -1.6531    1.4091   -0.4852 H   0  0  0  0  0  0  0  0  0  0  0  0
    1.1126    0.6197    0.1724 H   0  0  0  0  0  0  0  0  0  0  0  0
    0.9388   -1.0730   -1.7907 H   0  0  0  0  0  0  0  0  0  0  0  0
   -0.7863   -0.8114   -1.8008 H   0  0  0  0  0  0  0  0  0  0  0  0
    2.0208   -2.0505    0.3202 H   0  0  0  0  0  0  0  0  0  0  0  0
   -2.2466   -1.8540   -0.2370 H   0  0  0  0  0  0  0  0  0  0  0  0
    1.7074   -3.7645    2.0748 H   0  0  0  0  0  0  0  0  0  0  0  0
   -2.5494   -3.5683    1.5188 H   0  0  0  0  0  0  0  0  0  0  0  0
   -0.5754   -4.5263    2.6778 H   0  0  0  0  0  0  0  0  0  0  0  0
   -0.2138    1.4722   -2.7676 N   0  0  0  0  0  0  0  0  0  0  0  0
   -0.0988    2.2691   -3.9679 C   0  0  2  0  0  0  0  0  0  0  0  0
    0.0119    3.7304   -3.5534 C   0  0  0  0  0  0  0  0  0  0  0  0
   -0.3881    4.1526   -2.4704 O   0  0  0  0  0  0  0  0  0  0  0  0
   -1.2885    2.0545   -4.8906 C   0  0  0  0  0  0  0  0  0  0  0  0
   -0.9634    0.7890   -2.7123 H   0  0  0  0  0  0  0  0  0  0  0  0
    0.8263    1.9590   -4.4659 H   0  0  0  0  0  0  0  0  0  0  0  0
   -2.2245    2.3595   -4.4088 H   0  0  0  0  0  0  0  0  0  0  0  0
   -1.1860    2.6370   -5.8121 H   0  0  0  0  0  0  0  0  0  0  0  0
   -1.3842    0.9981   -5.1638 H   0  0  0  0  0  0  0  0  0  0  0  0
    0.5707    4.5153   -4.5523 N   0  0  0  0  0  0  0  0  0  0  0  0
    0.7704    5.9382   -4.4058 C   0  0  0  0  0  0  0  0  0  0  0  0
    0.8913    4.0776   -5.4110 H   0  0  0  0  0  0  0  0  0  0  0  0
   -0.1041    6.4745   -4.8029 H   0  0  0  0  0  0  0  0  0  0  0  0
    0.8978    6.1827   -3.3409 H   0  0  0  0  0  0  0  0  0  0  0  0
    1.6698    6.2413   -4.9618 H   0  0  0  0  0  0  0  0  0  0  0  0
 25 27  1  0  0  0  0
 26 27  2  0  0  0  0
 23 25  2  0  0  0  0
 24 26  1  0  0  0  0
 22 23  1  0  0  0  0
 22 24  2  0  0  0  0
 21 22  1  0  0  0  0
  1  3  1  0  0  0  0
  1  7  1  0  0  0  0
  1  2  2  0  0  0  0
 38 39  1  0  0  0  0
 39 47  1  0  0  0  0
 39 40  2  0  0  0  0
  8  9  1  0  0  0  0
  9 17  1  0  0  0  0
  9 10  2  0  0  0  0
 18 19  1  0  0  0  0
 19 37  1  0  0  0  0
 19 20  2  0  0  0  0
 38 41  1  0  0  0  0
  8 11  1  0  0  0  0
 47 48  1  0  0  0  0
 18 21  1  0  0  0  0
 37 38  1  0  0  0  0
  7  8  1  0  0  0  0
 17 18  1  0  0  0  0
 27 36  1  0  0  0  0
 25 34  1  0  0  0  0
 26 35  1  0  0  0  0
 23 32  1  0  0  0  0
 24 33  1  0  0  0  0
  3  4  1  0  0  0  0
  3  5  1  0  0  0  0
  3  6  1  0  0  0  0
 41 44  1  0  0  0  0
 41 45  1  0  0  0  0
 41 46  1  0  0  0  0
 11 14  1  0  0  0  0
 11 15  1  0  0  0  0
 11 16  1  0  0  0  0
 48 50  1  0  0  0  0
 48 51  1  0  0  0  0
 48 52  1  0  0  0  0
 21 30  1  0  0  0  0
 21 31  1  0  0  0  0
 38 43  1  0  0  0  0
  8 13  1  0  0  0  0
 18 29  1  0  0  0  0
 47 49  1  0  0  0  0
  7 12  1  0  0  0  0
 37 42  1  0  0  0  0
 17 28  1  0  0  0  0
M  END
$$$$

  -OEChem-05262214473D

 52 52  0     1  0  0  0  0  0999 V2000
   -1.8248    0.3424    3.9102 C   0  0  0  0  0  0  0  0  0  0  0  0
   -0.8774   -0.2723    3.4345 O   0  0  0  0  0  0  0  0  0  0  0  0
   -2.2566    0.0600    5.3109 C   0  0  0  0  0  0  0  0  0  0  0  0
   -3.0163   -0.7363    5.3643 H   0  0  0  0  0  0  0  0  0  0  0  0
   -1.4254   -0.2876    5.9452 H   0  0  0  0  0  0  0  0  0  0  0  0
   -2.6947    0.9149    5.8505 H   0  0  0  0  0  0  0  0  0  0  0  0
   -2.5745    1.3149    3.2691 N   0  0  0  0  0  0  0  0  0  0  0  0
   -2.3276    1.7409    1.9167 C   0  0  2  0  0  0  0  0  0  0  0  0
   -0.9926    1.1555    1.4755 C   0  0  0  0  0  0  0  0  0  0  0  0
   -0.1206    0.8028    2.2668 O   0  0  0  0  0  0  0  0  0  0  0  0
   -2.3188    3.2577    1.8072 C   0  0  0  0  0  0  0  0  0  0  0  0
   -3.3395    1.7507    3.7809 H   0  0  0  0  0  0  0  0  0  0  0  0
   -3.1317    1.3224    1.3015 H   0  0  0  0  0  0  0  0  0  0  0  0
   -1.5198    3.6949    2.4169 H   0  0  0  0  0  0  0  0  0  0  0  0
   -2.1594    3.5799    0.7729 H   0  0  0  0  0  0  0  0  0  0  0  0
   -3.2690    3.6789    2.1530 H   0  0  0  0  0  0  0  0  0  0  0  0
   -0.8700    1.1124    0.0921 N   0  0  0  0  0  0  0  0  0  0  0  0
    0.3073    0.6116   -0.5716 C   0  0  2  0  0  0  0  0  0  0  0  0
    0.6484    1.5935   -1.6868 C   0  0  0  0  0  0  0  0  0  0  0  0
    1.7333    2.1661   -1.7656 O   0  0  0  0  0  0  0  0  0  0  0  0
    0.0947   -0.7939   -1.1456 C   0  0  0  0  0  0  0  0  0  0  0  0
   -0.0927   -1.8398   -0.0739 C   0  0  0  0  0  0  0  0  0  0  0  0
    1.0170   -2.3782    0.5777 C   0  0  0  0  0  0  0  0  0  0  0  0
   -1.3762   -2.2680    0.2652 C   0  0  0  0  0  0  0  0  0  0  0  0
    0.8432   -3.3447    1.5683 C   0  0  0  0  0  0  0  0  0  0  0  0
   -1.5500   -3.2345    1.2558 C   0  0  0  0  0  0  0  0  0  0  0  0
   -0.4403   -3.7728    1.9074 C   0  0  0  0  0  0  0  0  0  0  0  0
   -1.6531    1.4091   -0.4852 H   0  0  0  0  0  0  0  0  0  0  0  0
    1.1126    0.6197    0.1724 H   0  0  0  0  0  0  0  0  0  0  0  0
    0.9388   -1.0730   -1.7907 H   0  0  0  0  0  0  0  0  0  0  0  0
   -0.7863   -0.8114   -1.8008 H   0  0  0  0  0  0  0  0  0  0  0  0
    2.0208   -2.0505    0.3202 H   0  0  0  0  0  0  0  0  0  0  0  0
   -2.2466   -1.8540   -0.2370 H   0  0  0  0  0  0  0  0  0  0  0  0
    1.7074   -3.7645    2.0748 H   0  0  0  0  0  0  0  0  0  0  0  0
   -2.5494   -3.5683    1.5188 H   0  0  0  0  0  0  0  0  0  0  0  0
   -0.5754   -4.5263    2.6778 H   0  0  0  0  0  0  0  0  0  0  0  0
   -0.3836    1.7136   -2.6070 N   0  0  0  0  0  0  0  0  0  0  0  0
   -0.3110    2.5621   -3.7747 C   0  0  2  0  0  0  0  0  0  0  0  0
    0.1468    3.9432   -3.3247 C   0  0  0  0  0  0  0  0  0  0  0  0
    0.0163    4.3507   -2.1723 O   0  0  0  0  0  0  0  0  0  0  0  0
   -1.6524    2.6395   -4.4869 C   0  0  0  0  0  0  0  0  0  0  0  0
   -1.2328    1.1782   -2.4520 H   0  0  0  0  0  0  0  0  0  0  0  0
    0.4437    2.1245   -4.4372 H   0  0  0  0  0  0  0  0  0  0  0  0
   -2.4213    3.0754   -3.8387 H   0  0  0  0  0  0  0  0  0  0  0  0
   -1.5886    3.2596   -5.3871 H   0  0  0  0  0  0  0  0  0  0  0  0
   -1.9943    1.6420   -4.7835 H   0  0  0  0  0  0  0  0  0  0  0  0
    0.6791    4.6833   -4.3712 N   0  0  0  0  0  0  0  0  0  0  0  0
    1.1722    6.0302   -4.2019 C   0  0  0  0  0  0  0  0  0  0  0  0
    0.7659    4.2588   -5.2899 H   0  0  0  0  0  0  0  0  0  0  0  0
    0.3663    6.7464   -4.4196 H   0  0  0  0  0  0  0  0  0  0  0  0
    1.5146    6.1675   -3.1656 H   0  0  0  0  0  0  0  0  0  0  0  0
    2.0119    6.2025   -4.8913 H   0  0  0  0  0  0  0  0  0  0  0  0
 25 27  1  0  0  0  0
 26 27  2  0  0  0  0
 23 25  2  0  0  0  0
 24 26  1  0  0  0  0
 22 23  1  0  0  0  0
 22 24  2  0  0  0  0
 21 22  1  0  0  0  0
  1  3  1  0  0  0  0
  1  7  1  0  0  0  0
  1  2  2  0  0  0  0
 38 39  1  0  0  0  0
 39 47  1  0  0  0  0
 39 40  2  0  0  0  0
  8  9  1  0  0  0  0
  9 17  1  0  0  0  0
  9 10  2  0  0  0  0
 18 19  1  0  0  0  0
 19 37  1  0  0  0  0
 19 20  2  0  0  0  0
 38 41  1  0  0  0  0
  8 11  1  0  0  0  0
 47 48  1  0  0  0  0
 18 21  1  0  0  0  0
 37 38  1  0  0  0  0
  7  8  1  0  0  0  0
 17 18  1  0  0  0  0
 27 36  1  0  0  0  0
 25 34  1  0  0  0  0
 26 35  1  0  0  0  0
 23 32  1  0  0  0  0
 24 33  1  0  0  0  0
  3  4  1  0  0  0  0
  3  5  1  0  0  0  0
  3  6  1  0  0  0  0
 41 44  1  0  0  0  0
 41 45  1  0  0  0  0
 41 46  1  0  0  0  0
 11 14  1  0  0  0  0
 11 15  1  0  0  0  0
 11 16  1  0  0  0  0
 48 50  1  0  0  0  0
 48 51  1  0  0  0  0
 48 52  1  0  0  0  0
 21 30  1  0  0  0  0
 21 31  1  0  0  0  0
 38 43  1  0  0  0  0
  8 13  1  0  0  0  0
 18 29  1  0  0  0  0
 47 49  1  0  0  0  0
  7 12  1  0  0  0  0
 37 42  1  0  0  0  0
 17 28  1  0  0  0  0
M  END
$$$$

  -OEChem-05262214473D

 52 52  0     1  0  0  0  0  0999 V2000
   -1.8248    0.3424    3.9102 C   0  0  0  0  0  0  0  0  0  0  0  0
   -0.8774   -0.2723    3.4345 O   0  0  0  0  0  0  0  0  0  0  0  0
   -2.2566    0.0600    5.3109 C   0  0  0  0  0  0  0  0  0  0  0  0
   -3.0163   -0.7363    5.3643 H   0  0  0  0  0  0  0  0  0  0  0  0
   -1.4254   -0.2876    5.9452 H   0  0  0  0  0  0  0  0  0  0  0  0
   -2.6947    0.9149    5.8505 H   0  0  0  0  0  0  0  0  0  0  0  0
   -2.5745    1.3149    3.2691 N   0  0  0  0  0  0  0  0  0  0  0  0
   -2.3276    1.7409    1.9167 C   0  0  2  0  0  0  0  0  0  0  0  0
   -0.9926    1.1555    1.4755 C   0  0  0  0  0  0  0  0  0  0  0  0
   -0.1206    0.8028    2.2668 O   0  0  0  0  0  0  0  0  0  0  0  0
   -2.3188    3.2577    1.8072 C   0  0  0  0  0  0  0  0  0  0  0  0
   -3.3395    1.7507    3.7809 H   0  0  0  0  0  0  0  0  0  0  0  0
   -3.1317    1.3224    1.3015 H   0  0  0  0  0  0  0  0  0  0  0  0
   -1.5198    3.6949    2.4169 H   0  0  0  0  0  0  0  0  0  0  0  0
   -2.1594    3.5799    0.7729 H   0  0  0  0  0  0  0  0  0  0  0  0
   -3.2690    3.6789    2.1530 H   0  0  0  0  0  0  0  0  0  0  0  0
   -0.8700    1.1124    0.0921 N   0  0  0  0  0  0  0  0  0  0  0  0
    0.3073    0.6116   -0.5716 C   0  0  2  0  0  0  0  0  0  0  0  0
    0.6484    1.5935   -1.6868 C   0  0  0  0  0  0  0  0  0  0  0  0
    1.7967    1.9604   -1.9272 O   0  0  0  0  0  0  0  0  0  0  0  0
    0.0947   -0.7939   -1.1456 C   0  0  0  0  0  0  0  0  0  0  0  0
   -0.0927   -1.8398   -0.0739 C   0  0  0  0  0  0  0  0  0  0  0  0
    1.0170   -2.3782    0.5777 C   0  0  0  0  0  0  0  0  0  0  0  0
   -1.3762   -2.2680    0.2652 C   0  0  0  0  0  0  0  0  0  0  0  0
    0.8432   -3.3447    1.5683 C   0  0  0  0  0  0  0  0  0  0  0  0
   -1.5500   -3.2345    1.2558 C   0  0  0  0  0  0  0  0  0  0  0  0
   -0.4403   -3.7728    1.9074 C   0  0  0  0  0  0  0  0  0  0  0  0
   -1.6531    1.4091   -0.4852 H   0  0  0  0  0  0  0  0  0  0  0  0
    1.1126    0.6197    0.1724 H   0  0  0  0  0  0  0  0  0  0  0  0
    0.9388   -1.0730   -1.7907 H   0  0  0  0  0  0  0  0  0  0  0  0
   -0.7863   -0.8114   -1.8008 H   0  0  0  0  0  0  0  0  0  0  0  0
    2.0208   -2.0505    0.3202 H   0  0  0  0  0  0  0  0  0  0  0  0
   -2.2466   -1.8540   -0.2370 H   0  0  0  0  0  0  0  0  0  0  0  0
    1.7074   -3.7645    2.0748 H   0  0  0  0  0  0  0  0  0  0  0  0
   -2.5494   -3.5683    1.5188 H   0  0  0  0  0  0  0  0  0  0  0  0
   -0.5754   -4.5263    2.6778 H   0  0  0  0  0  0  0  0  0  0  0  0
   -0.4752    1.9696   -2.4096 N   0  0  0  0  0  0  0  0  0  0  0  0
   -0.4282    2.8742   -3.5358 C   0  0  2  0  0  0  0  0  0  0  0  0
    0.3556    4.1100   -3.1140 C   0  0  0  0  0  0  0  0  0  0  0  0
    0.4941    4.4482   -1.9403 O   0  0  0  0  0  0  0  0  0  0  0  0
   -1.8260    3.2500   -4.0024 C   0  0  0  0  0  0  0  0  0  0  0  0
   -1.3759    1.5900   -2.1332 H   0  0  0  0  0  0  0  0  0  0  0  0
    0.1103    2.3551   -4.3362 H   0  0  0  0  0  0  0  0  0  0  0  0
   -2.3808    3.7712   -3.2137 H   0  0  0  0  0  0  0  0  0  0  0  0
   -1.7888    3.9126   -4.8734 H   0  0  0  0  0  0  0  0  0  0  0  0
   -2.3983    2.3574   -4.2771 H   0  0  0  0  0  0  0  0  0  0  0  0
    0.8457    4.8146   -4.2046 N   0  0  0  0  0  0  0  0  0  0  0  0
    1.6118    6.0311   -4.0665 C   0  0  0  0  0  0  0  0  0  0  0  0
    0.6993    4.4505   -5.1415 H   0  0  0  0  0  0  0  0  0  0  0  0
    0.9360    6.8978   -4.1120 H   0  0  0  0  0  0  0  0  0  0  0  0
    2.1368    6.0260   -3.0999 H   0  0  0  0  0  0  0  0  0  0  0  0
    2.3467    6.0962   -4.8825 H   0  0  0  0  0  0  0  0  0  0  0  0
 25 27  1  0  0  0  0
 26 27  2  0  0  0  0
 23 25  2  0  0  0  0
 24 26  1  0  0  0  0
 22 23  1  0  0  0  0
 22 24  2  0  0  0  0
 21 22  1  0  0  0  0
  1  3  1  0  0  0  0
  1  7  1  0  0  0  0
  1  2  2  0  0  0  0
 38 39  1  0  0  0  0
 39 47  1  0  0  0  0
 39 40  2  0  0  0  0
  8  9  1  0  0  0  0
  9 17  1  0  0  0  0
  9 10  2  0  0  0  0
 18 19  1  0  0  0  0
 19 37  1  0  0  0  0
 19 20  2  0  0  0  0
 38 41  1  0  0  0  0
  8 11  1  0  0  0  0
 47 48  1  0  0  0  0
 18 21  1  0  0  0  0
 37 38  1  0  0  0  0
  7  8  1  0  0  0  0
 17 18  1  0  0  0  0
 27 36  1  0  0  0  0
 25 34  1  0  0  0  0
 26 35  1  0  0  0  0
 23 32  1  0  0  0  0
 24 33  1  0  0  0  0
  3  4  1  0  0  0  0
  3  5  1  0  0  0  0
  3  6  1  0  0  0  0
 41 44  1  0  0  0  0
 41 45  1  0  0  0  0
 41 46  1  0  0  0  0
 11 14  1  0  0  0  0
 11 15  1  0  0  0  0
 11 16  1  0  0  0  0
 48 50  1  0  0  0  0
 48 51  1  0  0  0  0
 48 52  1  0  0  0  0
 21 30  1  0  0  0  0
 21 31  1  0  0  0  0
 38 43  1  0  0  0  0
  8 13  1  0  0  0  0
 18 29  1  0  0  0  0
 47 49  1  0  0  0  0
  7 12  1  0  0  0  0
 37 42  1  0  0  0  0
 17 28  1  0  0  0  0
M  END
$$$$

  -OEChem-05262214473D

 52 52  0     1  0  0  0  0  0999 V2000
   -1.8248    0.3424    3.9102 C   0  0  0  0  0  0  0  0  0  0  0  0
   -0.8774   -0.2723    3.4345 O   0  0  0  0  0  0  0  0  0  0  0  0
   -2.2566    0.0600    5.3109 C   0  0  0  0  0  0  0  0  0  0  0  0
   -3.0163   -0.7363    5.3643 H   0  0  0  0  0  0  0  0  0  0  0  0
   -1.4254   -0.2876    5.9452 H   0  0  0  0  0  0  0  0  0  0  0  0
   -2.6947    0.9149    5.8505 H   0  0  0  0  0  0  0  0  0  0  0  0
   -2.5745    1.3149    3.2691 N   0  0  0  0  0  0  0  0  0  0  0  0
   -2.3276    1.7409    1.9167 C   0  0  2  0  0  0  0  0  0  0  0  0
   -0.9926    1.1555    1.4755 C   0  0  0  0  0  0  0  0  0  0  0  0
   -0.1206    0.8028    2.2668 O   0  0  0  0  0  0  0  0  0  0  0  0
   -2.3188    3.2577    1.8072 C   0  0  0  0  0  0  0  0  0  0  0  0
   -3.3395    1.7507    3.7809 H   0  0  0  0  0  0  0  0  0  0  0  0
   -3.1317    1.3224    1.3015 H   0  0  0  0  0  0  0  0  0  0  0  0
   -1.5198    3.6949    2.4169 H   0  0  0  0  0  0  0  0  0  0  0  0
   -2.1594    3.5799    0.7729 H   0  0  0  0  0  0  0  0  0  0  0  0
   -3.2690    3.6789    2.1530 H   0  0  0  0  0  0  0  0  0  0  0  0
   -0.8700    1.1124    0.0921 N   0  0  0  0  0  0  0  0  0  0  0  0
    0.3073    0.6116   -0.5716 C   0  0  2  0  0  0  0  0  0  0  0  0
    0.6484    1.5935   -1.6868 C   0  0  0  0  0  0  0  0  0  0  0  0
    1.7920    1.7591   -2.1059 O   0  0  0  0  0  0  0  0  0  0  0  0
    0.0947   -0.7939   -1.1456 C   0  0  0  0  0  0  0  0  0  0  0  0
   -0.0927   -1.8398   -0.0739 C   0  0  0  0  0  0  0  0  0  0  0  0
    1.0170   -2.3782    0.5777 C   0  0  0  0  0  0  0  0  0  0  0  0
   -1.3762   -2.2680    0.2652 C   0  0  0  0  0  0  0  0  0  0  0  0
    0.8432   -3.3447    1.5683 C   0  0  0  0  0  0  0  0  0  0  0  0
   -1.5500   -3.2345    1.2558 C   0  0  0  0  0  0  0  0  0  0  0  0
   -0.4403   -3.7728    1.9074 C   0  0  0  0  0  0  0  0  0  0  0  0
   -1.6531    1.4091   -0.4852 H   0  0  0  0  0  0  0  0  0  0  0  0
    1.1126    0.6197    0.1724 H   0  0  0  0  0  0  0  0  0  0  0  0
    0.9388   -1.0730   -1.7907 H   0  0  0  0  0  0  0  0  0  0  0  0
   -0.7863   -0.8114   -1.8008 H   0  0  0  0  0  0  0  0  0  0  0  0
    2.0208   -2.0505    0.3202 H   0  0  0  0  0  0  0  0  0  0  0  0
   -2.2466   -1.8540   -0.2370 H   0  0  0  0  0  0  0  0  0  0  0  0
    1.7074   -3.7645    2.0748 H   0  0  0  0  0  0  0  0  0  0  0  0
   -2.5494   -3.5683    1.5188 H   0  0  0  0  0  0  0  0  0  0  0  0
   -0.5754   -4.5263    2.6778 H   0  0  0  0  0  0  0  0  0  0  0  0
   -0.4822    2.2228   -2.1889 N   0  0  0  0  0  0  0  0  0  0  0  0
   -0.4425    3.1840   -3.2675 C   0  0  2  0  0  0  0  0  0  0  0  0
    0.6239    4.2194   -2.9356 C   0  0  0  0  0  0  0  0  0  0  0  0
    1.0127    4.4385   -1.7902 O   0  0  0  0  0  0  0  0  0  0  0  0
   -1.7972    3.8446   -3.4701 C   0  0  0  0  0  0  0  0  0  0  0  0
   -1.3830    1.9964   -1.7775 H   0  0  0  0  0  0  0  0  0  0  0  0
   -0.1512    2.6351   -4.1696 H   0  0  0  0  0  0  0  0  0  0  0  0
   -2.1058    4.3993   -2.5765 H   0  0  0  0  0  0  0  0  0  0  0  0
   -1.7728    4.5515   -4.3059 H   0  0  0  0  0  0  0  0  0  0  0  0
   -2.5686    3.0957   -3.6792 H   0  0  0  0  0  0  0  0  0  0  0  0
    1.0593    4.9002   -4.0639 N   0  0  0  0  0  0  0  0  0  0  0  0
    2.0592    5.9410   -4.0091 C   0  0  0  0  0  0  0  0  0  0  0  0
    0.6960    4.6397   -4.9760 H   0  0  0  0  0  0  0  0  0  0  0  0
    1.5662    6.9184   -3.9011 H   0  0  0  0  0  0  0  0  0  0  0  0
    2.7219    5.7676   -3.1484 H   0  0  0  0  0  0  0  0  0  0  0  0
    2.6514    5.9296   -4.9360 H   0  0  0  0  0  0  0  0  0  0  0  0
 25 27  1  0  0  0  0
 26 27  2  0  0  0  0
 23 25  2  0  0  0  0
 24 26  1  0  0  0  0
 22 23  1  0  0  0  0
 22 24  2  0  0  0  0
 21 22  1  0  0  0  0
  1  3  1  0  0  0  0
  1  7  1  0  0  0  0
  1  2  2  0  0  0  0
 38 39  1  0  0  0  0
 39 47  1  0  0  0  0
 39 40  2  0  0  0  0
  8  9  1  0  0  0  0
  9 17  1  0  0  0  0
  9 10  2  0  0  0  0
 18 19  1  0  0  0  0
 19 37  1  0  0  0  0
 19 20  2  0  0  0  0
 38 41  1  0  0  0  0
  8 11  1  0  0  0  0
 47 48  1  0  0  0  0
 18 21  1  0  0  0  0
 37 38  1  0  0  0  0
  7  8  1  0  0  0  0
 17 18  1  0  0  0  0
 27 36  1  0  0  0  0
 25 34  1  0  0  0  0
 26 35  1  0  0  0  0
 23 32  1  0  0  0  0
 24 33  1  0  0  0  0
  3  4  1  0  0  0  0
  3  5  1  0  0  0  0
  3  6  1  0  0  0  0
 41 44  1  0  0  0  0
 41 45  1  0  0  0  0
 41 46  1  0  0  0  0
 11 14  1  0  0  0  0
 11 15  1  0  0  0  0
 11 16  1  0  0  0  0
 48 50  1  0  0  0  0
 48 51  1  0  0  0  0
 48 52  1  0  0  0  0
 21 30  1  0  0  0  0
 21 31  1  0  0  0  0
 38 43  1  0  0  0  0
  8 13  1  0  0  0  0
 18 29  1  0  0  0  0
 47 49  1  0  0  0  0
  7 12  1  0  0  0  0
 37 42  1  0  0  0  0
 17 28  1  0  0  0  0
M  END
$$$$

  -OEChem-05262214473D

 52 52  0     1  0  0  0  0  0999 V2000
   -1.8248    0.3424    3.9102 C   0  0  0  0  0  0  0  0  0  0  0  0
   -0.8774   -0.2723    3.4345 O   0  0  0  0  0  0  0  0  0  0  0  0
   -2.2566    0.0600    5.3109 C   0  0  0  0  0  0  0  0  0  0  0  0
   -3.0163   -0.7363    5.3643 H   0  0  0  0  0  0  0  0  0  0  0  0
   -1.4254   -0.2876    5.9452 H   0  0  0  0  0  0  0  0  0  0  0  0
   -2.6947    0.9149    5.8505 H   0  0  0  0  0  0  0  0  0  0  0  0
   -2.5745    1.3149    3.2691 N   0  0  0  0  0  0  0  0  0  0  0  0
   -2.3276    1.7409    1.9167 C   0  0  2  0  0  0  0  0  0  0  0  0
   -0.9926    1.1555    1.4755 C   0  0  0  0  0  0  0  0  0  0  0  0
   -0.1206    0.8028    2.2668 O   0  0  0  0  0  0  0  0  0  0  0  0
   -2.3188    3.2577    1.8072 C   0  0  0  0  0  0  0  0  0  0  0  0
   -3.3395    1.7507    3.7809 H   0  0  0  0  0  0  0  0  0  0  0  0
   -3.1317    1.3224    1.3015 H   0  0  0  0  0  0  0  0  0  0  0  0
   -1.5198    3.6949    2.4169 H   0  0  0  0  0  0  0  0  0  0  0  0
   -2.1594    3.5799    0.7729 H   0  0  0  0  0  0  0  0  0  0  0  0
   -3.2690    3.6789    2.1530 H   0  0  0  0  0  0  0  0  0  0  0  0
   -0.8700    1.1124    0.0921 N   0  0  0  0  0  0  0  0  0  0  0  0
    0.3073    0.6116   -0.5716 C   0  0  2  0  0  0  0  0  0  0  0  0
    0.6484    1.5935   -1.6868 C   0  0  0  0  0  0  0  0  0  0  0  0
    1.7197    1.5759   -2.2893 O   0  0  0  0  0  0  0  0  0  0  0  0
    0.0947   -0.7939   -1.1456 C   0  0  0  0  0  0  0  0  0  0  0  0
   -0.0927   -1.8398   -0.0739 C   0  0  0  0  0  0  0  0  0  0  0  0
    1.0170   -2.3782    0.5777 C   0  0  0  0  0  0  0  0  0  0  0  0
   -1.3762   -2.2680    0.2652 C   0  0  0  0  0  0  0  0  0  0  0  0
    0.8432   -3.3447    1.5683 C   0  0  0  0  0  0  0  0  0  0  0  0
   -1.5500   -3.2345    1.2558 C   0  0  0  0  0  0  0  0  0  0  0  0
   -0.4403   -3.7728    1.9074 C   0  0  0  0  0  0  0  0  0  0  0  0
   -1.6531    1.4091   -0.4852 H   0  0  0  0  0  0  0  0  0  0  0  0
    1.1126    0.6197    0.1724 H   0  0  0  0  0  0  0  0  0  0  0  0
    0.9388   -1.0730   -1.7907 H   0  0  0  0  0  0  0  0  0  0  0  0
   -0.7863   -0.8114   -1.8008 H   0  0  0  0  0  0  0  0  0  0  0  0
    2.0208   -2.0505    0.3202 H   0  0  0  0  0  0  0  0  0  0  0  0
   -2.2466   -1.8540   -0.2370 H   0  0  0  0  0  0  0  0  0  0  0  0
    1.7074   -3.7645    2.0748 H   0  0  0  0  0  0  0  0  0  0  0  0
   -2.5494   -3.5683    1.5188 H   0  0  0  0  0  0  0  0  0  0  0  0
   -0.5754   -4.5263    2.6778 H   0  0  0  0  0  0  0  0  0  0  0  0
   -0.4043    2.4559   -1.9598 N   0  0  0  0  0  0  0  0  0  0  0  0
   -0.3529    3.4703   -2.9879 C   0  0  2  0  0  0  0  0  0  0  0  0
    0.9335    4.2639   -2.8017 C   0  0  0  0  0  0  0  0  0  0  0  0
    1.5369    4.3223   -1.7323 O   0  0  0  0  0  0  0  0  0  0  0  0
   -1.5681    4.3826   -2.9263 C   0  0  0  0  0  0  0  0  0  0  0  0
   -1.2536    2.3697   -1.4093 H   0  0  0  0  0  0  0  0  0  0  0  0
   -0.3230    2.9454   -3.9489 H   0  0  0  0  0  0  0  0  0  0  0  0
   -1.6150    4.9171   -1.9705 H   0  0  0  0  0  0  0  0  0  0  0  0
   -1.5419    5.1328   -3.7235 H   0  0  0  0  0  0  0  0  0  0  0  0
   -2.4938    3.8064   -3.0306 H   0  0  0  0  0  0  0  0  0  0  0  0
    1.3053    4.9343   -3.9586 N   0  0  0  0  0  0  0  0  0  0  0  0
    2.4838    5.7659   -4.0333 C   0  0  0  0  0  0  0  0  0  0  0  0
    0.7561    4.8134   -4.8045 H   0  0  0  0  0  0  0  0  0  0  0  0
    2.2140    6.8068   -3.8012 H   0  0  0  0  0  0  0  0  0  0  0  0
    3.2301    5.4101   -3.3077 H   0  0  0  0  0  0  0  0  0  0  0  0
    2.9053    5.7141   -5.0481 H   0  0  0  0  0  0  0  0  0  0  0  0
 25 27  1  0  0  0  0
 26 27  2  0  0  0  0
 23 25  2  0  0  0  0
 24 26  1  0  0  0  0
 22 23  1  0  0  0  0
 22 24  2  0  0  0  0
 21 22  1  0  0  0  0
  1  3  1  0  0  0  0
  1  7  1  0  0  0  0
  1  2  2  0  0  0  0
 38 39  1  0  0  0  0
 39 47  1  0  0  0  0
 39 40  2  0  0  0  0
  8  9  1  0  0  0  0
  9 17  1  0  0  0  0
  9 10  2  0  0  0  0
 18 19  1  0  0  0  0
 19 37  1  0  0  0  0
 19 20  2  0  0  0  0
 38 41  1  0  0  0  0
  8 11  1  0  0  0  0
 47 48  1  0  0  0  0
 18 21  1  0  0  0  0
 37 38  1  0  0  0  0
  7  8  1  0  0  0  0
 17 18  1  0  0  0  0
 27 36  1  0  0  0  0
 25 34  1  0  0  0  0
 26 35  1  0  0  0  0
 23 32  1  0  0  0  0
 24 33  1  0  0  0  0
  3  4  1  0  0  0  0
  3  5  1  0  0  0  0
  3  6  1  0  0  0  0
 41 44  1  0  0  0  0
 41 45  1  0  0  0  0
 41 46  1  0  0  0  0
 11 14  1  0  0  0  0
 11 15  1  0  0  0  0
 11 16  1  0  0  0  0
 48 50  1  0  0  0  0
 48 51  1  0  0  0  0
 48 52  1  0  0  0  0
 21 30  1  0  0  0  0
 21 31  1  0  0  0  0
 38 43  1  0  0  0  0
  8 13  1  0  0  0  0
 18 29  1  0  0  0  0
 47 49  1  0  0  0  0
  7 12  1  0  0  0  0
 37 42  1  0  0  0  0
 17 28  1  0  0  0  0
M  END
$$$$

  -OEChem-05262214473D

 52 52  0     1  0  0  0  0  0999 V2000
   -1.8248    0.3424    3.9102 C   0  0  0  0  0  0  0  0  0  0  0  0
   -0.8774   -0.2723    3.4345 O   0  0  0  0  0  0  0  0  0  0  0  0
   -2.2566    0.0600    5.3109 C   0  0  0  0  0  0  0  0  0  0  0  0
   -3.0163   -0.7363    5.3643 H   0  0  0  0  0  0  0  0  0  0  0  0
   -1.4254   -0.2876    5.9452 H   0  0  0  0  0  0  0  0  0  0  0  0
   -2.6947    0.9149    5.8505 H   0  0  0  0  0  0  0  0  0  0  0  0
   -2.5745    1.3149    3.2691 N   0  0  0  0  0  0  0  0  0  0  0  0
   -2.3276    1.7409    1.9167 C   0  0  2  0  0  0  0  0  0  0  0  0
   -0.9926    1.1555    1.4755 C   0  0  0  0  0  0  0  0  0  0  0  0
   -0.1206    0.8028    2.2668 O   0  0  0  0  0  0  0  0  0  0  0  0
   -2.3188    3.2577    1.8072 C   0  0  0  0  0  0  0  0  0  0  0  0
   -3.3395    1.7507    3.7809 H   0  0  0  0  0  0  0  0  0  0  0  0
   -3.1317    1.3224    1.3015 H   0  0  0  0  0  0  0  0  0  0  0  0
   -1.5198    3.6949    2.4169 H   0  0  0  0  0  0  0  0  0  0  0  0
   -2.1594    3.5799    0.7729 H   0  0  0  0  0  0  0  0  0  0  0  0
   -3.2690    3.6789    2.1530 H   0  0  0  0  0  0  0  0  0  0  0  0
   -0.8700    1.1124    0.0921 N   0  0  0  0  0  0  0  0  0  0  0  0
    0.3073    0.6116   -0.5716 C   0  0  2  0  0  0  0  0  0  0  0  0
    0.6484    1.5935   -1.6868 C   0  0  0  0  0  0  0  0  0  0  0  0
    1.5845    1.4233   -2.4651 O   0  0  0  0  0  0  0  0  0  0  0  0
    0.0947   -0.7939   -1.1456 C   0  0  0  0  0  0  0  0  0  0  0  0
   -0.0927   -1.8398   -0.0739 C   0  0  0  0  0  0  0  0  0  0  0  0
    1.0170   -2.3782    0.5777 C   0  0  0  0  0  0  0  0  0  0  0  0
   -1.3762   -2.2680    0.2652 C   0  0  0  0  0  0  0  0  0  0  0  0
    0.8432   -3.3447    1.5683 C   0  0  0  0  0  0  0  0  0  0  0  0
   -1.5500   -3.2345    1.2558 C   0  0  0  0  0  0  0  0  0  0  0  0
   -0.4403   -3.7728    1.9074 C   0  0  0  0  0  0  0  0  0  0  0  0
   -1.6531    1.4091   -0.4852 H   0  0  0  0  0  0  0  0  0  0  0  0
    1.1126    0.6197    0.1724 H   0  0  0  0  0  0  0  0  0  0  0  0
    0.9388   -1.0730   -1.7907 H   0  0  0  0  0  0  0  0  0  0  0  0
   -0.7863   -0.8114   -1.8008 H   0  0  0  0  0  0  0  0  0  0  0  0
    2.0208   -2.0505    0.3202 H   0  0  0  0  0  0  0  0  0  0  0  0
   -2.2466   -1.8540   -0.2370 H   0  0  0  0  0  0  0  0  0  0  0  0
    1.7074   -3.7645    2.0748 H   0  0  0  0  0  0  0  0  0  0  0  0
   -2.5494   -3.5683    1.5188 H   0  0  0  0  0  0  0  0  0  0  0  0
   -0.5754   -4.5263    2.6778 H   0  0  0  0  0  0  0  0  0  0  0  0
   -0.2467    2.6530   -1.7380 N   0  0  0  0  0  0  0  0  0  0  0  0
   -0.1656    3.7138   -2.7162 C   0  0  2  0  0  0  0  0  0  0  0  0
    1.2634    4.2406   -2.7214 C   0  0  0  0  0  0  0  0  0  0  0  0
    2.0308    4.1074   -1.7704 O   0  0  0  0  0  0  0  0  0  0  0  0
   -1.1543    4.8275   -2.4080 C   0  0  0  0  0  0  0  0  0  0  0  0
   -0.9965    2.6844   -1.0535 H   0  0  0  0  0  0  0  0  0  0  0  0
   -0.3935    3.2650   -3.6892 H   0  0  0  0  0  0  0  0  0  0  0  0
   -0.9419    5.2893   -1.4369 H   0  0  0  0  0  0  0  0  0  0  0  0
   -1.1117    5.6168   -3.1658 H   0  0  0  0  0  0  0  0  0  0  0  0
   -2.1787    4.4411   -2.3753 H   0  0  0  0  0  0  0  0  0  0  0  0
    1.5669    4.9146   -3.8960 N   0  0  0  0  0  0  0  0  0  0  0  0
    2.8568    5.5178   -4.1377 C   0  0  0  0  0  0  0  0  0  0  0  0
    0.8758    4.9600   -4.6389 H   0  0  0  0  0  0  0  0  0  0  0  0
    2.8353    6.5705   -3.8192 H   0  0  0  0  0  0  0  0  0  0  0  0
    3.6267    4.9778   -3.5670 H   0  0  0  0  0  0  0  0  0  0  0  0
    3.0910    5.4643   -5.2111 H   0  0  0  0  0  0  0  0  0  0  0  0
 25 27  1  0  0  0  0
 26 27  2  0  0  0  0
 23 25  2  0  0  0  0
 24 26  1  0  0  0  0
 22 23  1  0  0  0  0
 22 24  2  0  0  0  0
 21 22  1  0  0  0  0
  1  3  1  0  0  0  0
  1  7  1  0  0  0  0
  1  2  2  0  0  0  0
 38 39  1  0  0  0  0
 39 47  1  0  0  0  0
 39 40  2  0  0  0  0
  8  9  1  0  0  0  0
  9 17  1  0  0  0  0
  9 10  2  0  0  0  0
 18 19  1  0  0  0  0
 19 37  1  0  0  0  0
 19 20  2  0  0  0  0
 38 41  1  0  0  0  0
  8 11  1  0  0  0  0
 47 48  1  0  0  0  0
 18 21  1  0  0  0  0
 37 38  1  0  0  0  0
  7  8  1  0  0  0  0
 17 18  1  0  0  0  0
 27 36  1  0  0  0  0
 25 34  1  0  0  0  0
 26 35  1  0  0  0  0
 23 32  1  0  0  0  0
 24 33  1  0  0  0  0
  3  4  1  0  0  0  0
  3  5  1  0  0  0  0
  3  6  1  0  0  0  0
 41 44  1  0  0  0  0
 41 45  1  0  0  0  0
 41 46  1  0  0  0  0
 11 14  1  0  0  0  0
 11 15  1  0  0  0  0
 11 16  1  0  0  0  0
 48 50  1  0  0  0  0
 48 51  1  0  0  0  0
 48 52  1  0  0  0  0
 21 30  1  0  0  0  0
 21 31  1  0  0  0  0
 38 43  1  0  0  0  0
  8 13  1  0  0  0  0
 18 29  1  0  0  0  0
 47 49  1  0  0  0  0
  7 12  1  0  0  0  0
 37 42  1  0  0  0  0
 17 28  1  0  0  0  0
M  END
$$$$

  -OEChem-05262214473D

 52 52  0     1  0  0  0  0  0999 V2000
   -1.8248    0.3424    3.9102 C   0  0  0  0  0  0  0  0  0  0  0  0
   -0.8774   -0.2723    3.4345 O   0  0  0  0  0  0  0  0  0  0  0  0
   -2.2566    0.0600    5.3109 C   0  0  0  0  0  0  0  0  0  0  0  0
   -3.0163   -0.7363    5.3643 H   0  0  0  0  0  0  0  0  0  0  0  0
   -1.4254   -0.2876    5.9452 H   0  0  0  0  0  0  0  0  0  0  0  0
   -2.6947    0.9149    5.8505 H   0  0  0  0  0  0  0  0  0  0  0  0
   -2.5745    1.3149    3.2691 N   0  0  0  0  0  0  0  0  0  0  0  0
   -2.3276    1.7409    1.9167 C   0  0  2  0  0  0  0  0  0  0  0  0
   -0.9926    1.1555    1.4755 C   0  0  0  0  0  0  0  0  0  0  0  0
   -0.1206    0.8028    2.2668 O   0  0  0  0  0  0  0  0  0  0  0  0
   -2.3188    3.2577    1.8072 C   0  0  0  0  0  0  0  0  0  0  0  0
   -3.3395    1.7507    3.7809 H   0  0  0  0  0  0  0  0  0  0  0  0
   -3.1317    1.3224    1.3015 H   0  0  0  0  0  0  0  0  0  0  0  0
   -1.5198    3.6949    2.4169 H   0  0  0  0  0  0  0  0  0  0  0  0
   -2.1594    3.5799    0.7729 H   0  0  0  0  0  0  0  0  0  0  0  0
   -3.2690    3.6789    2.1530 H   0  0  0  0  0  0  0  0  0  0  0  0
   -0.8700    1.1124    0.0921 N   0  0  0  0  0  0  0  0  0  0  0  0
    0.3073    0.6116   -0.5716 C   0  0  2  0  0  0  0  0  0  0  0  0
    0.6484    1.5935   -1.6868 C   0  0  0  0  0  0  0  0  0  0  0  0
    1.3957    1.3116   -2.6211 O   0  0  0  0  0  0  0  0  0  0  0  0
    0.0947   -0.7939   -1.1456 C   0  0  0  0  0  0  0  0  0  0  0  0
   -0.0927   -1.8398   -0.0739 C   0  0  0  0  0  0  0  0  0  0  0  0
    1.0170   -2.3782    0.5777 C   0  0  0  0  0  0  0  0  0  0  0  0
   -1.3762   -2.2680    0.2652 C   0  0  0  0  0  0  0  0  0  0  0  0
    0.8432   -3.3447    1.5683 C   0  0  0  0  0  0  0  0  0  0  0  0
   -1.5500   -3.2345    1.2558 C   0  0  0  0  0  0  0  0  0  0  0  0
   -0.4403   -3.7728    1.9074 C   0  0  0  0  0  0  0  0  0  0  0  0
   -1.6531    1.4091   -0.4852 H   0  0  0  0  0  0  0  0  0  0  0  0
    1.1126    0.6197    0.1724 H   0  0  0  0  0  0  0  0  0  0  0  0
    0.9388   -1.0730   -1.7907 H   0  0  0  0  0  0  0  0  0  0  0  0
   -0.7863   -0.8114   -1.8008 H   0  0  0  0  0  0  0  0  0  0  0  0
    2.0208   -2.0505    0.3202 H   0  0  0  0  0  0  0  0  0  0  0  0
   -2.2466   -1.8540   -0.2370 H   0  0  0  0  0  0  0  0  0  0  0  0
    1.7074   -3.7645    2.0748 H   0  0  0  0  0  0  0  0  0  0  0  0
   -2.5494   -3.5683    1.5188 H   0  0  0  0  0  0  0  0  0  0  0  0
   -0.5754   -4.5263    2.6778 H   0  0  0  0  0  0  0  0  0  0  0  0
   -0.0202    2.8008   -1.5386 N   0  0  0  0  0  0  0  0  0  0  0  0
    0.1067    3.8978   -2.4709 C   0  0  2  0  0  0  0  0  0  0  0  0
    1.5910    4.1509   -2.7001 C   0  0  0  0  0  0  0  0  0  0  0  0
    2.4609    3.8085   -1.9020 O   0  0  0  0  0  0  0  0  0  0  0  0
   -0.5840    5.1488   -1.9507 C   0  0  0  0  0  0  0  0  0  0  0  0
   -0.6294    2.9192   -0.7345 H   0  0  0  0  0  0  0  0  0  0  0  0
   -0.3577    3.5719   -3.4080 H   0  0  0  0  0  0  0  0  0  0  0  0
   -0.1323    5.4904   -1.0122 H   0  0  0  0  0  0  0  0  0  0  0  0
   -0.5115    5.9706   -2.6707 H   0  0  0  0  0  0  0  0  0  0  0  0
   -1.6451    4.9567   -1.7582 H   0  0  0  0  0  0  0  0  0  0  0  0
    1.8263    4.8424   -3.8802 N   0  0  0  0  0  0  0  0  0  0  0  0
    3.1526    5.2136   -4.3151 C   0  0  0  0  0  0  0  0  0  0  0  0
    1.0466    5.0693   -4.4904 H   0  0  0  0  0  0  0  0  0  0  0  0
    3.3877    6.2257   -3.9539 H   0  0  0  0  0  0  0  0  0  0  0  0
    3.8847    4.5002   -3.9087 H   0  0  0  0  0  0  0  0  0  0  0  0
    3.1960    5.1974   -5.4141 H   0  0  0  0  0  0  0  0  0  0  0  0
 25 27  1  0  0  0  0
 26 27  2  0  0  0  0
 23 25  2  0  0  0  0
 24 26  1  0  0  0  0
 22 23  1  0  0  0  0
 22 24  2  0  0  0  0
 21 22  1  0  0  0  0
  1  3  1  0  0  0  0
  1  7  1  0  0  0  0
  1  2  2  0  0  0  0
 38 39  1  0  0  0  0
 39 47  1  0  0  0  0
 39 40  2  0  0  0  0
  8  9  1  0  0  0  0
  9 17  1  0  0  0  0
  9 10  2  0  0  0  0
 18 19  1  0  0  0  0
 19 37  1  0  0  0  0
 19 20  2  0  0  0  0
 38 41  1  0  0  0  0
  8 11  1  0  0  0  0
 47 48  1  0  0  0  0
 18 21  1  0  0  0  0
 37 38  1  0  0  0  0
  7  8  1  0  0  0  0
 17 18  1  0  0  0  0
 27 36  1  0  0  0  0
 25 34  1  0  0  0  0
 26 35  1  0  0  0  0
 23 32  1  0  0  0  0
 24 33  1  0  0  0  0
  3  4  1  0  0  0  0
  3  5  1  0  0  0  0
  3  6  1  0  0  0  0
 41 44  1  0  0  0  0
 41 45  1  0  0  0  0
 41 46  1  0  0  0  0
 11 14  1  0  0  0  0
 11 15  1  0  0  0  0
 11 16  1  0  0  0  0
 48 50  1  0  0  0  0
 48 51  1  0  0  0  0
 48 52  1  0  0  0  0
 21 30  1  0  0  0  0
 21 31  1  0  0  0  0
 38 43  1  0  0  0  0
  8 13  1  0  0  0  0
 18 29  1  0  0  0  0
 47 49  1  0  0  0  0
  7 12  1  0  0  0  0
 37 42  1  0  0  0  0
 17 28  1  0  0  0  0
M  END
$$$$

  -OEChem-05262214473D

 52 52  0     1  0  0  0  0  0999 V2000
   -1.8248    0.3424    3.9102 C   0  0  0  0  0  0  0  0  0  0  0  0
   -0.8774   -0.2723    3.4345 O   0  0  0  0  0  0  0  0  0  0  0  0
   -2.2566    0.0600    5.3109 C   0  0  0  0  0  0  0  0  0  0  0  0
   -3.0163   -0.7363    5.3643 H   0  0  0  0  0  0  0  0  0  0  0  0
   -1.4254   -0.2876    5.9452 H   0  0  0  0  0  0  0  0  0  0  0  0
   -2.6947    0.9149    5.8505 H   0  0  0  0  0  0  0  0  0  0  0  0
   -2.5745    1.3149    3.2691 N   0  0  0  0  0  0  0  0  0  0  0  0
   -2.3276    1.7409    1.9167 C   0  0  2  0  0  0  0  0  0  0  0  0
   -0.9926    1.1555    1.4755 C   0  0  0  0  0  0  0  0  0  0  0  0
   -0.1206    0.8028    2.2668 O   0  0  0  0  0  0  0  0  0  0  0  0
   -2.3188    3.2577    1.8072 C   0  0  0  0  0  0  0  0  0  0  0  0
   -3.3395    1.7507    3.7809 H   0  0  0  0  0  0  0  0  0  0  0  0
   -3.1317    1.3224    1.3015 H   0  0  0  0  0  0  0  0  0  0  0  0
   -1.5198    3.6949    2.4169 H   0  0  0  0  0  0  0  0  0  0  0  0
   -2.1594    3.5799    0.7729 H   0  0  0  0  0  0  0  0  0  0  0  0
   -3.2690    3.6789    2.1530 H   0  0  0  0  0  0  0  0  0  0  0  0
   -0.8700    1.1124    0.0921 N   0  0  0  0  0  0  0  0  0  0  0  0
    0.3073    0.6116   -0.5716 C   0  0  2  0  0  0  0  0  0  0  0  0
    0.6484    1.5935   -1.6868 C   0  0  0  0  0  0  0  0  0  0  0  0
    1.1662    1.2485   -2.7469 O   0  0  0  0  0  0  0  0  0  0  0  0
    0.0947   -0.7939   -1.1456 C   0  0  0  0  0  0  0  0  0  0  0  0
   -0.0927   -1.8398   -0.0739 C   0  0  0  0  0  0  0  0  0  0  0  0
    1.0170   -2.3782    0.5777 C   0  0  0  0  0  0  0  0  0  0  0  0
   -1.3762   -2.2680    0.2652 C   0  0  0  0  0  0  0  0  0  0  0  0
    0.8432   -3.3447    1.5683 C   0  0  0  0  0  0  0  0  0  0  0  0
   -1.5500   -3.2345    1.2558 C   0  0  0  0  0  0  0  0  0  0  0  0
   -0.4403   -3.7728    1.9074 C   0  0  0  0  0  0  0  0  0  0  0  0
   -1.6531    1.4091   -0.4852 H   0  0  0  0  0  0  0  0  0  0  0  0
    1.1126    0.6197    0.1724 H   0  0  0  0  0  0  0  0  0  0  0  0
    0.9388   -1.0730   -1.7907 H   0  0  0  0  0  0  0  0  0  0  0  0
   -0.7863   -0.8114   -1.8008 H   0  0  0  0  0  0  0  0  0  0  0  0
    2.0208   -2.0505    0.3202 H   0  0  0  0  0  0  0  0  0  0  0  0
   -2.2466   -1.8540   -0.2370 H   0  0  0  0  0  0  0  0  0  0  0  0
    1.7074   -3.7645    2.0748 H   0  0  0  0  0  0  0  0  0  0  0  0
   -2.5494   -3.5683    1.5188 H   0  0  0  0  0  0  0  0  0  0  0  0
   -0.5754   -4.5263    2.6778 H   0  0  0  0  0  0  0  0  0  0  0  0
    0.2598    2.8890   -1.3753 N   0  0  0  0  0  0  0  0  0  0  0  0
    0.4455    4.0098   -2.2687 C   0  0  2  0  0  0  0  0  0  0  0  0
    1.8939    4.0011   -2.7394 C   0  0  0  0  0  0  0  0  0  0  0  0
    2.7978    3.4460   -2.1181 O   0  0  0  0  0  0  0  0  0  0  0  0
    0.1039    5.3247   -1.5854 C   0  0  0  0  0  0  0  0  0  0  0  0
   -0.1771    3.0580   -0.4740 H   0  0  0  0  0  0  0  0  0  0  0  0
   -0.2182    3.8453   -3.1246 H   0  0  0  0  0  0  0  0  0  0  0  0
    0.7586    5.5068   -0.7253 H   0  0  0  0  0  0  0  0  0  0  0  0
    0.2177    6.1700   -2.2721 H   0  0  0  0  0  0  0  0  0  0  0  0
   -0.9291    5.3178   -1.2212 H   0  0  0  0  0  0  0  0  0  0  0  0
    2.0659    4.7226   -3.9124 N   0  0  0  0  0  0  0  0  0  0  0  0
    3.3513    4.8740   -4.5533 C   0  0  0  0  0  0  0  0  0  0  0  0
    1.2572    5.1339   -4.3691 H   0  0  0  0  0  0  0  0  0  0  0  0
    3.8335    5.7958   -4.1960 H   0  0  0  0  0  0  0  0  0  0  0  0
    3.9865    4.0097   -4.3093 H   0  0  0  0  0  0  0  0  0  0  0  0
    3.2130    4.9314   -5.6431 H   0  0  0  0  0  0  0  0  0  0  0  0
 25 27  1  0  0  0  0
 26 27  2  0  0  0  0
 23 25  2  0  0  0  0
 24 26  1  0  0  0  0
 22 23  1  0  0  0  0
 22 24  2  0  0  0  0
 21 22  1  0  0  0  0
  1  3  1  0  0  0  0
  1  7  1  0  0  0  0
  1  2  2  0  0  0  0
 38 39  1  0  0  0  0
 39 47  1  0  0  0  0
 39 40  2  0  0  0  0
  8  9  1  0  0  0  0
  9 17  1  0  0  0  0
  9 10  2  0  0  0  0
 18 19  1  0  0  0  0
 19 37  1  0  0  0  0
 19 20  2  0  0  0  0
 38 41  1  0  0  0  0
  8 11  1  0  0  0  0
 47 48  1  0  0  0  0
 18 21  1  0  0  0  0
 37 38  1  0  0  0  0
  7  8  1  0  0  0  0
 17 18  1  0  0  0  0
 27 36  1  0  0  0  0
 25 34  1  0  0  0  0
 26 35  1  0  0  0  0
 23 32  1  0  0  0  0
 24 33  1  0  0  0  0
  3  4  1  0  0  0  0
  3  5  1  0  0  0  0
  3  6  1  0  0  0  0
 41 44  1  0  0  0  0
 41 45  1  0  0  0  0
 41 46  1  0  0  0  0
 11 14  1  0  0  0  0
 11 15  1  0  0  0  0
 11 16  1  0  0  0  0
 48 50  1  0  0  0  0
 48 51  1  0  0  0  0
 48 52  1  0  0  0  0
 21 30  1  0  0  0  0
 21 31  1  0  0  0  0
 38 43  1  0  0  0  0
  8 13  1  0  0  0  0
 18 29  1  0  0  0  0
 47 49  1  0  0  0  0
  7 12  1  0  0  0  0
 37 42  1  0  0  0  0
 17 28  1  0  0  0  0
M  END
$$$$

  -OEChem-05262214473D

 52 52  0     1  0  0  0  0  0999 V2000
   -1.8248    0.3424    3.9102 C   0  0  0  0  0  0  0  0  0  0  0  0
   -0.8774   -0.2723    3.4345 O   0  0  0  0  0  0  0  0  0  0  0  0
   -2.2566    0.0600    5.3109 C   0  0  0  0  0  0  0  0  0  0  0  0
   -3.0163   -0.7363    5.3643 H   0  0  0  0  0  0  0  0  0  0  0  0
   -1.4254   -0.2876    5.9452 H   0  0  0  0  0  0  0  0  0  0  0  0
   -2.6947    0.9149    5.8505 H   0  0  0  0  0  0  0  0  0  0  0  0
   -2.5745    1.3149    3.2691 N   0  0  0  0  0  0  0  0  0  0  0  0
   -2.3276    1.7409    1.9167 C   0  0  2  0  0  0  0  0  0  0  0  0
   -0.9926    1.1555    1.4755 C   0  0  0  0  0  0  0  0  0  0  0  0
   -0.1206    0.8028    2.2668 O   0  0  0  0  0  0  0  0  0  0  0  0
   -2.3188    3.2577    1.8072 C   0  0  0  0  0  0  0  0  0  0  0  0
   -3.3395    1.7507    3.7809 H   0  0  0  0  0  0  0  0  0  0  0  0
   -3.1317    1.3224    1.3015 H   0  0  0  0  0  0  0  0  0  0  0  0
   -1.5198    3.6949    2.4169 H   0  0  0  0  0  0  0  0  0  0  0  0
   -2.1594    3.5799    0.7729 H   0  0  0  0  0  0  0  0  0  0  0  0
   -3.2690    3.6789    2.1530 H   0  0  0  0  0  0  0  0  0  0  0  0
   -0.8700    1.1124    0.0921 N   0  0  0  0  0  0  0  0  0  0  0  0
    0.3073    0.6116   -0.5716 C   0  0  2  0  0  0  0  0  0  0  0  0
    0.6484    1.5935   -1.6868 C   0  0  0  0  0  0  0  0  0  0  0  0
    0.9117    1.2383   -2.8337 O   0  0  0  0  0  0  0  0  0  0  0  0
    0.0947   -0.7939   -1.1456 C   0  0  0  0  0  0  0  0  0  0  0  0
   -0.0927   -1.8398   -0.0739 C   0  0  0  0  0  0  0  0  0  0  0  0
    1.0170   -2.3782    0.5777 C   0  0  0  0  0  0  0  0  0  0  0  0
   -1.3762   -2.2680    0.2652 C   0  0  0  0  0  0  0  0  0  0  0  0
    0.8432   -3.3447    1.5683 C   0  0  0  0  0  0  0  0  0  0  0  0
   -1.5500   -3.2345    1.2558 C   0  0  0  0  0  0  0  0  0  0  0  0
   -0.4403   -3.7728    1.9074 C   0  0  0  0  0  0  0  0  0  0  0  0
   -1.6531    1.4091   -0.4852 H   0  0  0  0  0  0  0  0  0  0  0  0
    1.1126    0.6197    0.1724 H   0  0  0  0  0  0  0  0  0  0  0  0
    0.9388   -1.0730   -1.7907 H   0  0  0  0  0  0  0  0  0  0  0  0
   -0.7863   -0.8114   -1.8008 H   0  0  0  0  0  0  0  0  0  0  0  0
    2.0208   -2.0505    0.3202 H   0  0  0  0  0  0  0  0  0  0  0  0
   -2.2466   -1.8540   -0.2370 H   0  0  0  0  0  0  0  0  0  0  0  0
    1.7074   -3.7645    2.0748 H   0  0  0  0  0  0  0  0  0  0  0  0
   -2.5494   -3.5683    1.5188 H   0  0  0  0  0  0  0  0  0  0  0  0
   -0.5754   -4.5263    2.6778 H   0  0  0  0  0  0  0  0  0  0  0  0
    0.5742    2.9118   -1.2590 N   0  0  0  0  0  0  0  0  0  0  0  0
    0.8276    4.0421   -2.1234 C   0  0  2  0  0  0  0  0  0  0  0  0
    2.1517    3.8012   -2.8365 C   0  0  0  0  0  0  0  0  0  0  0  0
    3.0186    3.0446   -2.4040 O   0  0  0  0  0  0  0  0  0  0  0  0
    0.8626    5.3432   -1.3370 C   0  0  0  0  0  0  0  0  0  0  0  0
    0.3295    3.0913   -0.2897 H   0  0  0  0  0  0  0  0  0  0  0  0
    0.0156    4.0666   -2.8582 H   0  0  0  0  0  0  0  0  0  0  0  0
    1.6701    5.3373   -0.5957 H   0  0  0  0  0  0  0  0  0  0  0  0
    1.0263    6.2015   -1.9970 H   0  0  0  0  0  0  0  0  0  0  0  0
   -0.0796    5.5001   -0.8009 H   0  0  0  0  0  0  0  0  0  0  0  0
    2.2692    4.5635   -3.9903 N   0  0  0  0  0  0  0  0  0  0  0  0
    3.4391    4.5222   -4.8362 C   0  0  0  0  0  0  0  0  0  0  0  0
    1.4930    5.1495   -4.2833 H   0  0  0  0  0  0  0  0  0  0  0  0
    4.1424    5.3103   -4.5290 H   0  0  0  0  0  0  0  0  0  0  0  0
    3.9253    3.5399   -4.7417 H   0  0  0  0  0  0  0  0  0  0  0  0
    3.1409    4.6845   -5.8825 H   0  0  0  0  0  0  0  0  0  0  0  0
 25 27  1  0  0  0  0
 26 27  2  0  0  0  0
 23 25  2  0  0  0  0
 24 26  1  0  0  0  0
 22 23  1  0  0  0  0
 22 24  2  0  0  0  0
 21 22  1  0  0  0  0
  1  3  1  0  0  0  0
  1  7  1  0  0  0  0
  1  2  2  0  0  0  0
 38 39  1  0  0  0  0
 39 47  1  0  0  0  0
 39 40  2  0  0  0  0
  8  9  1  0  0  0  0
  9 17  1  0  0  0  0
  9 10  2  0  0  0  0
 18 19  1  0  0  0  0
 19 37  1  0  0  0  0
 19 20  2  0  0  0  0
 38 41  1  0  0  0  0
  8 11  1  0  0  0  0
 47 48  1  0  0  0  0
 18 21  1  0  0  0  0
 37 38  1  0  0  0  0
  7  8  1  0  0  0  0
 17 18  1  0  0  0  0
 27 36  1  0  0  0  0
 25 34  1  0  0  0  0
 26 35  1  0  0  0  0
 23 32  1  0  0  0  0
 24 33  1  0  0  0  0
  3  4  1  0  0  0  0
  3  5  1  0  0  0  0
  3  6  1  0  0  0  0
 41 44  1  0  0  0  0
 41 45  1  0  0  0  0
 41 46  1  0  0  0  0
 11 14  1  0  0  0  0
 11 15  1  0  0  0  0
 11 16  1  0  0  0  0
 48 50  1  0  0  0  0
 48 51  1  0  0  0  0
 48 52  1  0  0  0  0
 21 30  1  0  0  0  0
 21 31  1  0  0  0  0
 38 43  1  0  0  0  0
  8 13  1  0  0  0  0
 18 29  1  0  0  0  0
 47 49  1  0  0  0  0
  7 12  1  0  0  0  0
 37 42  1  0  0  0  0
 17 28  1  0  0  0  0
M  END
$$$$

  -OEChem-05262214473D

 52 52  0     1  0  0  0  0  0999 V2000
   -1.8248    0.3424    3.9102 C   0  0  0  0  0  0  0  0  0  0  0  0
   -0.8774   -0.2723    3.4345 O   0  0  0  0  0  0  0  0  0  0  0  0
   -2.2566    0.0600    5.3109 C   0  0  0  0  0  0  0  0  0  0  0  0
   -3.0163   -0.7363    5.3643 H   0  0  0  0  0  0  0  0  0  0  0  0
   -1.4254   -0.2876    5.9452 H   0  0  0  0  0  0  0  0  0  0  0  0
   -2.6947    0.9149    5.8505 H   0  0  0  0  0  0  0  0  0  0  0  0
   -2.5745    1.3149    3.2691 N   0  0  0  0  0  0  0  0  0  0  0  0
   -2.3276    1.7409    1.9167 C   0  0  2  0  0  0  0  0  0  0  0  0
   -0.9926    1.1555    1.4755 C   0  0  0  0  0  0  0  0  0  0  0  0
   -0.1206    0.8028    2.2668 O   0  0  0  0  0  0  0  0  0  0  0  0
   -2.3188    3.2577    1.8072 C   0  0  0  0  0  0  0  0  0  0  0  0
   -3.3395    1.7507    3.7809 H   0  0  0  0  0  0  0  0  0  0  0  0
   -3.1317    1.3224    1.3015 H   0  0  0  0  0  0  0  0  0  0  0  0
   -1.5198    3.6949    2.4169 H   0  0  0  0  0  0  0  0  0  0  0  0
   -2.1594    3.5799    0.7729 H   0  0  0  0  0  0  0  0  0  0  0  0
   -3.2690    3.6789    2.1530 H   0  0  0  0  0  0  0  0  0  0  0  0
   -0.8700    1.1124    0.0921 N   0  0  0  0  0  0  0  0  0  0  0  0
    0.3073    0.6116   -0.5716 C   0  0  2  0  0  0  0  0  0  0  0  0
    0.6484    1.5935   -1.6868 C   0  0  0  0  0  0  0  0  0  0  0  0
    0.6494    1.2817   -2.8758 O   0  0  0  0  0  0  0  0  0  0  0  0
    0.0947   -0.7939   -1.1456 C   0  0  0  0  0  0  0  0  0  0  0  0
   -0.0927   -1.8398   -0.0739 C   0  0  0  0  0  0  0  0  0  0  0  0
    1.0170   -2.3782    0.5777 C   0  0  0  0  0  0  0  0  0  0  0  0
   -1.3762   -2.2680    0.2652 C   0  0  0  0  0  0  0  0  0  0  0  0
    0.8432   -3.3447    1.5683 C   0  0  0  0  0  0  0  0  0  0  0  0
   -1.5500   -3.2345    1.2558 C   0  0  0  0  0  0  0  0  0  0  0  0
   -0.4403   -3.7728    1.9074 C   0  0  0  0  0  0  0  0  0  0  0  0
   -1.6531    1.4091   -0.4852 H   0  0  0  0  0  0  0  0  0  0  0  0
    1.1126    0.6197    0.1724 H   0  0  0  0  0  0  0  0  0  0  0  0
    0.9388   -1.0730   -1.7907 H   0  0  0  0  0  0  0  0  0  0  0  0
   -0.7863   -0.8114   -1.8008 H   0  0  0  0  0  0  0  0  0  0  0  0
    2.0208   -2.0505    0.3202 H   0  0  0  0  0  0  0  0  0  0  0  0
   -2.2466   -1.8540   -0.2370 H   0  0  0  0  0  0  0  0  0  0  0  0
    1.7074   -3.7645    2.0748 H   0  0  0  0  0  0  0  0  0  0  0  0
   -2.5494   -3.5683    1.5188 H   0  0  0  0  0  0  0  0  0  0  0  0
   -0.5754   -4.5263    2.6778 H   0  0  0  0  0  0  0  0  0  0  0  0
    0.9016    2.8676   -1.1978 N   0  0  0  0  0  0  0  0  0  0  0  0
    1.2271    3.9925   -2.0449 C   0  0  2  0  0  0  0  0  0  0  0  0
    2.3466    3.5650   -2.9848 C   0  0  0  0  0  0  0  0  0  0  0  0
    3.1081    2.6316   -2.7402 O   0  0  0  0  0  0  0  0  0  0  0  0
    1.6404    5.2031   -1.2225 C   0  0  0  0  0  0  0  0  0  0  0  0
    0.8559    3.0169   -0.1942 H   0  0  0  0  0  0  0  0  0  0  0  0
    0.3277    4.2206   -2.6271 H   0  0  0  0  0  0  0  0  0  0  0  0
    2.5400    4.9935   -0.6323 H   0  0  0  0  0  0  0  0  0  0  0  0
    1.8591    6.0629   -1.8643 H   0  0  0  0  0  0  0  0  0  0  0  0
    0.8455    5.4909   -0.5260 H   0  0  0  0  0  0  0  0  0  0  0  0
    2.4225    4.3757   -4.1087 N   0  0  0  0  0  0  0  0  0  0  0  0
    3.4102    4.1821   -5.1445 C   0  0  0  0  0  0  0  0  0  0  0  0
    1.7380    5.1149   -4.2388 H   0  0  0  0  0  0  0  0  0  0  0  0
    4.2933    4.8020   -4.9303 H   0  0  0  0  0  0  0  0  0  0  0  0
    3.7051    3.1228   -5.1764 H   0  0  0  0  0  0  0  0  0  0  0  0
    2.9846    4.4736   -6.1160 H   0  0  0  0  0  0  0  0  0  0  0  0
 25 27  1  0  0  0  0
 26 27  2  0  0  0  0
 23 25  2  0  0  0  0
 24 26  1  0  0  0  0
 22 23  1  0  0  0  0
 22 24  2  0  0  0  0
 21 22  1  0  0  0  0
  1  3  1  0  0  0  0
  1  7  1  0  0  0  0
  1  2  2  0  0  0  0
 38 39  1  0  0  0  0
 39 47  1  0  0  0  0
 39 40  2  0  0  0  0
  8  9  1  0  0  0  0
  9 17  1  0  0  0  0
  9 10  2  0  0  0  0
 18 19  1  0  0  0  0
 19 37  1  0  0  0  0
 19 20  2  0  0  0  0
 38 41  1  0  0  0  0
  8 11  1  0  0  0  0
 47 48  1  0  0  0  0
 18 21  1  0  0  0  0
 37 38  1  0  0  0  0
  7  8  1  0  0  0  0
 17 18  1  0  0  0  0
 27 36  1  0  0  0  0
 25 34  1  0  0  0  0
 26 35  1  0  0  0  0
 23 32  1  0  0  0  0
 24 33  1  0  0  0  0
  3  4  1  0  0  0  0
  3  5  1  0  0  0  0
  3  6  1  0  0  0  0
 41 44  1  0  0  0  0
 41 45  1  0  0  0  0
 41 46  1  0  0  0  0
 11 14  1  0  0  0  0
 11 15  1  0  0  0  0
 11 16  1  0  0  0  0
 48 50  1  0  0  0  0
 48 51  1  0  0  0  0
 48 52  1  0  0  0  0
 21 30  1  0  0  0  0
 21 31  1  0  0  0  0
 38 43  1  0  0  0  0
  8 13  1  0  0  0  0
 18 29  1  0  0  0  0
 47 49  1  0  0  0  0
  7 12  1  0  0  0  0
 37 42  1  0  0  0  0
 17 28  1  0  0  0  0
M  END
$$$$

  -OEChem-05262214473D

 52 52  0     1  0  0  0  0  0999 V2000
   -1.8248    0.3424    3.9102 C   0  0  0  0  0  0  0  0  0  0  0  0
   -0.8774   -0.2723    3.4345 O   0  0  0  0  0  0  0  0  0  0  0  0
   -2.2566    0.0600    5.3109 C   0  0  0  0  0  0  0  0  0  0  0  0
   -3.0163   -0.7363    5.3643 H   0  0  0  0  0  0  0  0  0  0  0  0
   -1.4254   -0.2876    5.9452 H   0  0  0  0  0  0  0  0  0  0  0  0
   -2.6947    0.9149    5.8505 H   0  0  0  0  0  0  0  0  0  0  0  0
   -2.5745    1.3149    3.2691 N   0  0  0  0  0  0  0  0  0  0  0  0
   -2.3276    1.7409    1.9167 C   0  0  2  0  0  0  0  0  0  0  0  0
   -0.9926    1.1555    1.4755 C   0  0  0  0  0  0  0  0  0  0  0  0
   -0.1206    0.8028    2.2668 O   0  0  0  0  0  0  0  0  0  0  0  0
   -2.3188    3.2577    1.8072 C   0  0  0  0  0  0  0  0  0  0  0  0
   -3.3395    1.7507    3.7809 H   0  0  0  0  0  0  0  0  0  0  0  0
   -3.1317    1.3224    1.3015 H   0  0  0  0  0  0  0  0  0  0  0  0
   -1.5198    3.6949    2.4169 H   0  0  0  0  0  0  0  0  0  0  0  0
   -2.1594    3.5799    0.7729 H   0  0  0  0  0  0  0  0  0  0  0  0
   -3.2690    3.6789    2.1530 H   0  0  0  0  0  0  0  0  0  0  0  0
   -0.8700    1.1124    0.0921 N   0  0  0  0  0  0  0  0  0  0  0  0
    0.3073    0.6116   -0.5716 C   0  0  2  0  0  0  0  0  0  0  0  0
    0.6484    1.5935   -1.6868 C   0  0  0  0  0  0  0  0  0  0  0  0
    0.3972    1.3757   -2.8701 O   0  0  0  0  0  0  0  0  0  0  0  0
    0.0947   -0.7939   -1.1456 C   0  0  0  0  0  0  0  0  0  0  0  0
   -0.0927   -1.8398   -0.0739 C   0  0  0  0  0  0  0  0  0  0  0  0
    1.0170   -2.3782    0.5777 C   0  0  0  0  0  0  0  0  0  0  0  0
   -1.3762   -2.2680    0.2652 C   0  0  0  0  0  0  0  0  0  0  0  0
    0.8432   -3.3447    1.5683 C   0  0  0  0  0  0  0  0  0  0  0  0
   -1.5500   -3.2345    1.2558 C   0  0  0  0  0  0  0  0  0  0  0  0
   -0.4403   -3.7728    1.9074 C   0  0  0  0  0  0  0  0  0  0  0  0
   -1.6531    1.4091   -0.4852 H   0  0  0  0  0  0  0  0  0  0  0  0
    1.1126    0.6197    0.1724 H   0  0  0  0  0  0  0  0  0  0  0  0
    0.9388   -1.0730   -1.7907 H   0  0  0  0  0  0  0  0  0  0  0  0
   -0.7863   -0.8114   -1.8008 H   0  0  0  0  0  0  0  0  0  0  0  0
    2.0208   -2.0505    0.3202 H   0  0  0  0  0  0  0  0  0  0  0  0
   -2.2466   -1.8540   -0.2370 H   0  0  0  0  0  0  0  0  0  0  0  0
    1.7074   -3.7645    2.0748 H   0  0  0  0  0  0  0  0  0  0  0  0
   -2.5494   -3.5683    1.5188 H   0  0  0  0  0  0  0  0  0  0  0  0
   -0.5754   -4.5263    2.6778 H   0  0  0  0  0  0  0  0  0  0  0  0
    1.2197    2.7593   -1.1959 N   0  0  0  0  0  0  0  0  0  0  0  0
    1.6166    3.8644   -2.0385 C   0  0  2  0  0  0  0  0  0  0  0  0
    2.4654    3.3086   -3.1743 C   0  0  0  0  0  0  0  0  0  0  0  0
    3.0604    2.2352   -3.1038 O   0  0  0  0  0  0  0  0  0  0  0  0
    2.3842    4.9138   -1.2496 C   0  0  0  0  0  0  0  0  0  0  0  0
    1.3661    2.8399   -0.1940 H   0  0  0  0  0  0  0  0  0  0  0  0
    0.6968    4.2969   -2.4470 H   0  0  0  0  0  0  0  0  0  0  0  0
    3.3091    4.4989   -0.8325 H   0  0  0  0  0  0  0  0  0  0  0  0
    2.6594    5.7636   -1.8830 H   0  0  0  0  0  0  0  0  0  0  0  0
    1.7832    5.2910   -0.4152 H   0  0  0  0  0  0  0  0  0  0  0  0
    2.5152    4.1722   -4.2595 N   0  0  0  0  0  0  0  0  0  0  0  0
    3.2665    3.8769   -5.4572 C   0  0  0  0  0  0  0  0  0  0  0  0
    1.9755    5.0325   -4.2387 H   0  0  0  0  0  0  0  0  0  0  0  0
    4.2759    4.3058   -5.3726 H   0  0  0  0  0  0  0  0  0  0  0  0
    3.3409    2.7867   -5.5837 H   0  0  0  0  0  0  0  0  0  0  0  0
    2.7548    4.3129   -6.3278 H   0  0  0  0  0  0  0  0  0  0  0  0
 25 27  1  0  0  0  0
 26 27  2  0  0  0  0
 23 25  2  0  0  0  0
 24 26  1  0  0  0  0
 22 23  1  0  0  0  0
 22 24  2  0  0  0  0
 21 22  1  0  0  0  0
  1  3  1  0  0  0  0
  1  7  1  0  0  0  0
  1  2  2  0  0  0  0
 38 39  1  0  0  0  0
 39 47  1  0  0  0  0
 39 40  2  0  0  0  0
  8  9  1  0  0  0  0
  9 17  1  0  0  0  0
  9 10  2  0  0  0  0
 18 19  1  0  0  0  0
 19 37  1  0  0  0  0
 19 20  2  0  0  0  0
 38 41  1  0  0  0  0
  8 11  1  0  0  0  0
 47 48  1  0  0  0  0
 18 21  1  0  0  0  0
 37 38  1  0  0  0  0
  7  8  1  0  0  0  0
 17 18  1  0  0  0  0
 27 36  1  0  0  0  0
 25 34  1  0  0  0  0
 26 35  1  0  0  0  0
 23 32  1  0  0  0  0
 24 33  1  0  0  0  0
  3  4  1  0  0  0  0
  3  5  1  0  0  0  0
  3  6  1  0  0  0  0
 41 44  1  0  0  0  0
 41 45  1  0  0  0  0
 41 46  1  0  0  0  0
 11 14  1  0  0  0  0
 11 15  1  0  0  0  0
 11 16  1  0  0  0  0
 48 50  1  0  0  0  0
 48 51  1  0  0  0  0
 48 52  1  0  0  0  0
 21 30  1  0  0  0  0
 21 31  1  0  0  0  0
 38 43  1  0  0  0  0
  8 13  1  0  0  0  0
 18 29  1  0  0  0  0
 47 49  1  0  0  0  0
  7 12  1  0  0  0  0
 37 42  1  0  0  0  0
 17 28  1  0  0  0  0
M  END
$$$$

  -OEChem-05262214473D

 52 52  0     1  0  0  0  0  0999 V2000
   -1.8248    0.3424    3.9102 C   0  0  0  0  0  0  0  0  0  0  0  0
   -0.8774   -0.2723    3.4345 O   0  0  0  0  0  0  0  0  0  0  0  0
   -2.2566    0.0600    5.3109 C   0  0  0  0  0  0  0  0  0  0  0  0
   -3.0163   -0.7363    5.3643 H   0  0  0  0  0  0  0  0  0  0  0  0
   -1.4254   -0.2876    5.9452 H   0  0  0  0  0  0  0  0  0  0  0  0
   -2.6947    0.9149    5.8505 H   0  0  0  0  0  0  0  0  0  0  0  0
   -2.5745    1.3149    3.2691 N   0  0  0  0  0  0  0  0  0  0  0  0
   -2.3276    1.7409    1.9167 C   0  0  2  0  0  0  0  0  0  0  0  0
   -0.9926    1.1555    1.4755 C   0  0  0  0  0  0  0  0  0  0  0  0
   -0.1206    0.8028    2.2668 O   0  0  0  0  0  0  0  0  0  0  0  0
   -2.3188    3.2577    1.8072 C   0  0  0  0  0  0  0  0  0  0  0  0
   -3.3395    1.7507    3.7809 H   0  0  0  0  0  0  0  0  0  0  0  0
   -3.1317    1.3224    1.3015 H   0  0  0  0  0  0  0  0  0  0  0  0
   -1.5198    3.6949    2.4169 H   0  0  0  0  0  0  0  0  0  0  0  0
   -2.1594    3.5799    0.7729 H   0  0  0  0  0  0  0  0  0  0  0  0
   -3.2690    3.6789    2.1530 H   0  0  0  0  0  0  0  0  0  0  0  0
   -0.8700    1.1124    0.0921 N   0  0  0  0  0  0  0  0  0  0  0  0
    0.3073    0.6116   -0.5716 C   0  0  2  0  0  0  0  0  0  0  0  0
    0.6484    1.5935   -1.6868 C   0  0  0  0  0  0  0  0  0  0  0  0
    0.1724    1.5139   -2.8172 O   0  0  0  0  0  0  0  0  0  0  0  0
    0.0947   -0.7939   -1.1456 C   0  0  0  0  0  0  0  0  0  0  0  0
   -0.0927   -1.8398   -0.0739 C   0  0  0  0  0  0  0  0  0  0  0  0
    1.0170   -2.3782    0.5777 C   0  0  0  0  0  0  0  0  0  0  0  0
   -1.3762   -2.2680    0.2652 C   0  0  0  0  0  0  0  0  0  0  0  0
    0.8432   -3.3447    1.5683 C   0  0  0  0  0  0  0  0  0  0  0  0
   -1.5500   -3.2345    1.2558 C   0  0  0  0  0  0  0  0  0  0  0  0
   -0.4403   -3.7728    1.9074 C   0  0  0  0  0  0  0  0  0  0  0  0
   -1.6531    1.4091   -0.4852 H   0  0  0  0  0  0  0  0  0  0  0  0
    1.1126    0.6197    0.1724 H   0  0  0  0  0  0  0  0  0  0  0  0
    0.9388   -1.0730   -1.7907 H   0  0  0  0  0  0  0  0  0  0  0  0
   -0.7863   -0.8114   -1.8008 H   0  0  0  0  0  0  0  0  0  0  0  0
    2.0208   -2.0505    0.3202 H   0  0  0  0  0  0  0  0  0  0  0  0
   -2.2466   -1.8540   -0.2370 H   0  0  0  0  0  0  0  0  0  0  0  0
    1.7074   -3.7645    2.0748 H   0  0  0  0  0  0  0  0  0  0  0  0
   -2.5494   -3.5683    1.5188 H   0  0  0  0  0  0  0  0  0  0  0  0
   -0.5754   -4.5263    2.6778 H   0  0  0  0  0  0  0  0  0  0  0  0
    1.5067    2.5944   -1.2533 N   0  0  0  0  0  0  0  0  0  0  0  0
    1.9697    3.6666   -2.1047 C   0  0  2  0  0  0  0  0  0  0  0  0
    2.5001    3.0493   -3.3920 C   0  0  0  0  0  0  0  0  0  0  0  0
    2.8787    1.8824   -3.4700 O   0  0  0  0  0  0  0  0  0  0  0  0
    3.0434    4.4952   -1.4166 C   0  0  0  0  0  0  0  0  0  0  0  0
    1.8255    2.5723   -0.2891 H   0  0  0  0  0  0  0  0  0  0  0  0
    1.0979    4.2903   -2.3302 H   0  0  0  0  0  0  0  0  0  0  0  0
    3.9249    3.8871   -1.1828 H   0  0  0  0  0  0  0  0  0  0  0  0
    3.3727    5.3241   -2.0518 H   0  0  0  0  0  0  0  0  0  0  0  0
    2.6695    4.9139   -0.4761 H   0  0  0  0  0  0  0  0  0  0  0  0
    2.5412    3.9668   -4.4324 N   0  0  0  0  0  0  0  0  0  0  0  0
    3.0178    3.6274   -5.7529 C   0  0  0  0  0  0  0  0  0  0  0  0
    2.1894    4.9079   -4.2830 H   0  0  0  0  0  0  0  0  0  0  0  0
    4.0915    3.8554   -5.8256 H   0  0  0  0  0  0  0  0  0  0  0  0
    2.8577    2.5546   -5.9358 H   0  0  0  0  0  0  0  0  0  0  0  0
    2.4670    4.2135   -6.5033 H   0  0  0  0  0  0  0  0  0  0  0  0
 25 27  1  0  0  0  0
 26 27  2  0  0  0  0
 23 25  2  0  0  0  0
 24 26  1  0  0  0  0
 22 23  1  0  0  0  0
 22 24  2  0  0  0  0
 21 22  1  0  0  0  0
  1  3  1  0  0  0  0
  1  7  1  0  0  0  0
  1  2  2  0  0  0  0
 38 39  1  0  0  0  0
 39 47  1  0  0  0  0
 39 40  2  0  0  0  0
  8  9  1  0  0  0  0
  9 17  1  0  0  0  0
  9 10  2  0  0  0  0
 18 19  1  0  0  0  0
 19 37  1  0  0  0  0
 19 20  2  0  0  0  0
 38 41  1  0  0  0  0
  8 11  1  0  0  0  0
 47 48  1  0  0  0  0
 18 21  1  0  0  0  0
 37 38  1  0  0  0  0
  7  8  1  0  0  0  0
 17 18  1  0  0  0  0
 27 36  1  0  0  0  0
 25 34  1  0  0  0  0
 26 35  1  0  0  0  0
 23 32  1  0  0  0  0
 24 33  1  0  0  0  0
  3  4  1  0  0  0  0
  3  5  1  0  0  0  0
  3  6  1  0  0  0  0
 41 44  1  0  0  0  0
 41 45  1  0  0  0  0
 41 46  1  0  0  0  0
 11 14  1  0  0  0  0
 11 15  1  0  0  0  0
 11 16  1  0  0  0  0
 48 50  1  0  0  0  0
 48 51  1  0  0  0  0
 48 52  1  0  0  0  0
 21 30  1  0  0  0  0
 21 31  1  0  0  0  0
 38 43  1  0  0  0  0
  8 13  1  0  0  0  0
 18 29  1  0  0  0  0
 47 49  1  0  0  0  0
  7 12  1  0  0  0  0
 37 42  1  0  0  0  0
 17 28  1  0  0  0  0
M  END
$$$$

  -OEChem-05262214473D

 52 52  0     1  0  0  0  0  0999 V2000
   -1.8248    0.3424    3.9102 C   0  0  0  0  0  0  0  0  0  0  0  0
   -0.8774   -0.2723    3.4345 O   0  0  0  0  0  0  0  0  0  0  0  0
   -2.2566    0.0600    5.3109 C   0  0  0  0  0  0  0  0  0  0  0  0
   -3.0163   -0.7363    5.3643 H   0  0  0  0  0  0  0  0  0  0  0  0
   -1.4254   -0.2876    5.9452 H   0  0  0  0  0  0  0  0  0  0  0  0
   -2.6947    0.9149    5.8505 H   0  0  0  0  0  0  0  0  0  0  0  0
   -2.5745    1.3149    3.2691 N   0  0  0  0  0  0  0  0  0  0  0  0
   -2.3276    1.7409    1.9167 C   0  0  2  0  0  0  0  0  0  0  0  0
   -0.9926    1.1555    1.4755 C   0  0  0  0  0  0  0  0  0  0  0  0
   -0.1206    0.8028    2.2668 O   0  0  0  0  0  0  0  0  0  0  0  0
   -2.3188    3.2577    1.8072 C   0  0  0  0  0  0  0  0  0  0  0  0
   -3.3395    1.7507    3.7809 H   0  0  0  0  0  0  0  0  0  0  0  0
   -3.1317    1.3224    1.3015 H   0  0  0  0  0  0  0  0  0  0  0  0
   -1.5198    3.6949    2.4169 H   0  0  0  0  0  0  0  0  0  0  0  0
   -2.1594    3.5799    0.7729 H   0  0  0  0  0  0  0  0  0  0  0  0
   -3.2690    3.6789    2.1530 H   0  0  0  0  0  0  0  0  0  0  0  0
   -0.8700    1.1124    0.0921 N   0  0  0  0  0  0  0  0  0  0  0  0
    0.3073    0.6116   -0.5716 C   0  0  2  0  0  0  0  0  0  0  0  0
    0.6484    1.5935   -1.6868 C   0  0  0  0  0  0  0  0  0  0  0  0
   -0.0098    1.6869   -2.7206 O   0  0  0  0  0  0  0  0  0  0  0  0
    0.0947   -0.7939   -1.1456 C   0  0  0  0  0  0  0  0  0  0  0  0
   -0.0927   -1.8398   -0.0739 C   0  0  0  0  0  0  0  0  0  0  0  0
    1.0170   -2.3782    0.5777 C   0  0  0  0  0  0  0  0  0  0  0  0
   -1.3762   -2.2680    0.2652 C   0  0  0  0  0  0  0  0  0  0  0  0
    0.8432   -3.3447    1.5683 C   0  0  0  0  0  0  0  0  0  0  0  0
   -1.5500   -3.2345    1.2558 C   0  0  0  0  0  0  0  0  0  0  0  0
   -0.4403   -3.7728    1.9074 C   0  0  0  0  0  0  0  0  0  0  0  0
   -1.6531    1.4091   -0.4852 H   0  0  0  0  0  0  0  0  0  0  0  0
    1.1126    0.6197    0.1724 H   0  0  0  0  0  0  0  0  0  0  0  0
    0.9388   -1.0730   -1.7907 H   0  0  0  0  0  0  0  0  0  0  0  0
   -0.7863   -0.8114   -1.8008 H   0  0  0  0  0  0  0  0  0  0  0  0
    2.0208   -2.0505    0.3202 H   0  0  0  0  0  0  0  0  0  0  0  0
   -2.2466   -1.8540   -0.2370 H   0  0  0  0  0  0  0  0  0  0  0  0
    1.7074   -3.7645    2.0748 H   0  0  0  0  0  0  0  0  0  0  0  0
   -2.5494   -3.5683    1.5188 H   0  0  0  0  0  0  0  0  0  0  0  0
   -0.5754   -4.5263    2.6778 H   0  0  0  0  0  0  0  0  0  0  0  0
    1.7432    2.3841   -1.3661 N   0  0  0  0  0  0  0  0  0  0  0  0
    2.2623    3.4125   -2.2389 C   0  0  2  0  0  0  0  0  0  0  0  0
    2.4482    2.8049   -3.6230 C   0  0  0  0  0  0  0  0  0  0  0  0
    2.5753    1.5973   -3.8139 O   0  0  0  0  0  0  0  0  0  0  0  0
    3.5730    3.9757   -1.7120 C   0  0  0  0  0  0  0  0  0  0  0  0
    2.2027    2.2323   -0.4730 H   0  0  0  0  0  0  0  0  0  0  0  0
    1.5035    4.2013   -2.2845 H   0  0  0  0  0  0  0  0  0  0  0  0
    4.3456    3.1999   -1.6592 H   0  0  0  0  0  0  0  0  0  0  0  0
    3.9504    4.7743   -2.3592 H   0  0  0  0  0  0  0  0  0  0  0  0
    3.4441    4.3854   -0.7044 H   0  0  0  0  0  0  0  0  0  0  0  0
    2.4985    3.7736   -4.6157 N   0  0  0  0  0  0  0  0  0  0  0  0
    2.6810    3.4506   -6.0115 C   0  0  0  0  0  0  0  0  0  0  0  0
    2.3650    4.7497   -4.3686 H   0  0  0  0  0  0  0  0  0  0  0  0
    3.7525    3.4814   -6.2585 H   0  0  0  0  0  0  0  0  0  0  0  0
    2.2882    2.4423   -6.2089 H   0  0  0  0  0  0  0  0  0  0  0  0
    2.1410    4.1822   -6.6306 H   0  0  0  0  0  0  0  0  0  0  0  0
 25 27  1  0  0  0  0
 26 27  2  0  0  0  0
 23 25  2  0  0  0  0
 24 26  1  0  0  0  0
 22 23  1  0  0  0  0
 22 24  2  0  0  0  0
 21 22  1  0  0  0  0
  1  3  1  0  0  0  0
  1  7  1  0  0  0  0
  1  2  2  0  0  0  0
 38 39  1  0  0  0  0
 39 47  1  0  0  0  0
 39 40  2  0  0  0  0
  8  9  1  0  0  0  0
  9 17  1  0  0  0  0
  9 10  2  0  0  0  0
 18 19  1  0  0  0  0
 19 37  1  0  0  0  0
 19 20  2  0  0  0  0
 38 41  1  0  0  0  0
  8 11  1  0  0  0  0
 47 48  1  0  0  0  0
 18 21  1  0  0  0  0
 37 38  1  0  0  0  0
  7  8  1  0  0  0  0
 17 18  1  0  0  0  0
 27 36  1  0  0  0  0
 25 34  1  0  0  0  0
 26 35  1  0  0  0  0
 23 32  1  0  0  0  0
 24 33  1  0  0  0  0
  3  4  1  0  0  0  0
  3  5  1  0  0  0  0
  3  6  1  0  0  0  0
 41 44  1  0  0  0  0
 41 45  1  0  0  0  0
 41 46  1  0  0  0  0
 11 14  1  0  0  0  0
 11 15  1  0  0  0  0
 11 16  1  0  0  0  0
 48 50  1  0  0  0  0
 48 51  1  0  0  0  0
 48 52  1  0  0  0  0
 21 30  1  0  0  0  0
 21 31  1  0  0  0  0
 38 43  1  0  0  0  0
  8 13  1  0  0  0  0
 18 29  1  0  0  0  0
 47 49  1  0  0  0  0
  7 12  1  0  0  0  0
 37 42  1  0  0  0  0
 17 28  1  0  0  0  0
M  END
$$$$

  -OEChem-05262214473D

 52 52  0     1  0  0  0  0  0999 V2000
   -1.8248    0.3424    3.9102 C   0  0  0  0  0  0  0  0  0  0  0  0
   -0.8774   -0.2723    3.4345 O   0  0  0  0  0  0  0  0  0  0  0  0
   -2.2566    0.0600    5.3109 C   0  0  0  0  0  0  0  0  0  0  0  0
   -3.0163   -0.7363    5.3643 H   0  0  0  0  0  0  0  0  0  0  0  0
   -1.4254   -0.2876    5.9452 H   0  0  0  0  0  0  0  0  0  0  0  0
   -2.6947    0.9149    5.8505 H   0  0  0  0  0  0  0  0  0  0  0  0
   -2.5745    1.3149    3.2691 N   0  0  0  0  0  0  0  0  0  0  0  0
   -2.3276    1.7409    1.9167 C   0  0  2  0  0  0  0  0  0  0  0  0
   -0.9926    1.1555    1.4755 C   0  0  0  0  0  0  0  0  0  0  0  0
   -0.1206    0.8028    2.2668 O   0  0  0  0  0  0  0  0  0  0  0  0
   -2.3188    3.2577    1.8072 C   0  0  0  0  0  0  0  0  0  0  0  0
   -3.3395    1.7507    3.7809 H   0  0  0  0  0  0  0  0  0  0  0  0
   -3.1317    1.3224    1.3015 H   0  0  0  0  0  0  0  0  0  0  0  0
   -1.5198    3.6949    2.4169 H   0  0  0  0  0  0  0  0  0  0  0  0
   -2.1594    3.5799    0.7729 H   0  0  0  0  0  0  0  0  0  0  0  0
   -3.2690    3.6789    2.1530 H   0  0  0  0  0  0  0  0  0  0  0  0
   -0.8700    1.1124    0.0921 N   0  0  0  0  0  0  0  0  0  0  0  0
    0.3073    0.6116   -0.5716 C   0  0  2  0  0  0  0  0  0  0  0  0
    0.6484    1.5935   -1.6868 C   0  0  0  0  0  0  0  0  0  0  0  0
   -0.1370    1.8829   -2.5870 O   0  0  0  0  0  0  0  0  0  0  0  0
    0.0947   -0.7939   -1.1456 C   0  0  0  0  0  0  0  0  0  0  0  0
   -0.0927   -1.8398   -0.0739 C   0  0  0  0  0  0  0  0  0  0  0  0
    1.0170   -2.3782    0.5777 C   0  0  0  0  0  0  0  0  0  0  0  0
   -1.3762   -2.2680    0.2652 C   0  0  0  0  0  0  0  0  0  0  0  0
    0.8432   -3.3447    1.5683 C   0  0  0  0  0  0  0  0  0  0  0  0
   -1.5500   -3.2345    1.2558 C   0  0  0  0  0  0  0  0  0  0  0  0
   -0.4403   -3.7728    1.9074 C   0  0  0  0  0  0  0  0  0  0  0  0
   -1.6531    1.4091   -0.4852 H   0  0  0  0  0  0  0  0  0  0  0  0
    1.1126    0.6197    0.1724 H   0  0  0  0  0  0  0  0  0  0  0  0
    0.9388   -1.0730   -1.7907 H   0  0  0  0  0  0  0  0  0  0  0  0
   -0.7863   -0.8114   -1.8008 H   0  0  0  0  0  0  0  0  0  0  0  0
    2.0208   -2.0505    0.3202 H   0  0  0  0  0  0  0  0  0  0  0  0
   -2.2466   -1.8540   -0.2370 H   0  0  0  0  0  0  0  0  0  0  0  0
    1.7074   -3.7645    2.0748 H   0  0  0  0  0  0  0  0  0  0  0  0
   -2.5494   -3.5683    1.5188 H   0  0  0  0  0  0  0  0  0  0  0  0
   -0.5754   -4.5263    2.6778 H   0  0  0  0  0  0  0  0  0  0  0  0
    1.9130    2.1427   -1.5267 N   0  0  0  0  0  0  0  0  0  0  0  0
    2.4744    3.1194   -2.4320 C   0  0  2  0  0  0  0  0  0  0  0  0
    2.3132    2.5921   -3.8517 C   0  0  0  0  0  0  0  0  0  0  0  0
    2.1709    1.3992   -4.1120 O   0  0  0  0  0  0  0  0  0  0  0  0
    3.9370    3.3907   -2.1158 C   0  0  0  0  0  0  0  0  0  0  0  0
    2.4721    1.8431   -0.7333 H   0  0  0  0  0  0  0  0  0  0  0  0
    1.8861    4.0358   -2.3132 H   0  0  0  0  0  0  0  0  0  0  0  0
    4.5424    2.4840   -2.2294 H   0  0  0  0  0  0  0  0  0  0  0  0
    4.3530    4.1517   -2.7842 H   0  0  0  0  0  0  0  0  0  0  0  0
    4.0542    3.7415   -1.0848 H   0  0  0  0  0  0  0  0  0  0  0  0
    2.3902    3.6055   -4.7968 N   0  0  0  0  0  0  0  0  0  0  0  0
    2.2792    3.3586   -6.2155 C   0  0  0  0  0  0  0  0  0  0  0  0
    2.4904    4.5686   -4.4897 H   0  0  0  0  0  0  0  0  0  0  0  0
    3.2822    3.2095   -6.6418 H   0  0  0  0  0  0  0  0  0  0  0  0
    1.6714    2.4574   -6.3842 H   0  0  0  0  0  0  0  0  0  0  0  0
    1.7990    4.2210   -6.7011 H   0  0  0  0  0  0  0  0  0  0  0  0
 25 27  1  0  0  0  0
 26 27  2  0  0  0  0
 23 25  2  0  0  0  0
 24 26  1  0  0  0  0
 22 23  1  0  0  0  0
 22 24  2  0  0  0  0
 21 22  1  0  0  0  0
  1  3  1  0  0  0  0
  1  7  1  0  0  0  0
  1  2  2  0  0  0  0
 38 39  1  0  0  0  0
 39 47  1  0  0  0  0
 39 40  2  0  0  0  0
  8  9  1  0  0  0  0
  9 17  1  0  0  0  0
  9 10  2  0  0  0  0
 18 19  1  0  0  0  0
 19 37  1  0  0  0  0
 19 20  2  0  0  0  0
 38 41  1  0  0  0  0
  8 11  1  0  0  0  0
 47 48  1  0  0  0  0
 18 21  1  0  0  0  0
 37 38  1  0  0  0  0
  7  8  1  0  0  0  0
 17 18  1  0  0  0  0
 27 36  1  0  0  0  0
 25 34  1  0  0  0  0
 26 35  1  0  0  0  0
 23 32  1  0  0  0  0
 24 33  1  0  0  0  0
  3  4  1  0  0  0  0
  3  5  1  0  0  0  0
  3  6  1  0  0  0  0
 41 44  1  0  0  0  0
 41 45  1  0  0  0  0
 41 46  1  0  0  0  0
 11 14  1  0  0  0  0
 11 15  1  0  0  0  0
 11 16  1  0  0  0  0
 48 50  1  0  0  0  0
 48 51  1  0  0  0  0
 48 52  1  0  0  0  0
 21 30  1  0  0  0  0
 21 31  1  0  0  0  0
 38 43  1  0  0  0  0
  8 13  1  0  0  0  0
 18 29  1  0  0  0  0
 47 49  1  0  0  0  0
  7 12  1  0  0  0  0
 37 42  1  0  0  0  0
 17 28  1  0  0  0  0
M  END
$$$$

  -OEChem-05262214473D

 52 52  0     1  0  0  0  0  0999 V2000
   -1.8248    0.3424    3.9102 C   0  0  0  0  0  0  0  0  0  0  0  0
   -0.8774   -0.2723    3.4345 O   0  0  0  0  0  0  0  0  0  0  0  0
   -2.2566    0.0600    5.3109 C   0  0  0  0  0  0  0  0  0  0  0  0
   -3.0163   -0.7363    5.3643 H   0  0  0  0  0  0  0  0  0  0  0  0
   -1.4254   -0.2876    5.9452 H   0  0  0  0  0  0  0  0  0  0  0  0
   -2.6947    0.9149    5.8505 H   0  0  0  0  0  0  0  0  0  0  0  0
   -2.5745    1.3149    3.2691 N   0  0  0  0  0  0  0  0  0  0  0  0
   -2.3276    1.7409    1.9167 C   0  0  2  0  0  0  0  0  0  0  0  0
   -0.9926    1.1555    1.4755 C   0  0  0  0  0  0  0  0  0  0  0  0
   -0.1206    0.8028    2.2668 O   0  0  0  0  0  0  0  0  0  0  0  0
   -2.3188    3.2577    1.8072 C   0  0  0  0  0  0  0  0  0  0  0  0
   -3.3395    1.7507    3.7809 H   0  0  0  0  0  0  0  0  0  0  0  0
   -3.1317    1.3224    1.3015 H   0  0  0  0  0  0  0  0  0  0  0  0
   -1.5198    3.6949    2.4169 H   0  0  0  0  0  0  0  0  0  0  0  0
   -2.1594    3.5799    0.7729 H   0  0  0  0  0  0  0  0  0  0  0  0
   -3.2690    3.6789    2.1530 H   0  0  0  0  0  0  0  0  0  0  0  0
   -0.8700    1.1124    0.0921 N   0  0  0  0  0  0  0  0  0  0  0  0
    0.3073    0.6116   -0.5716 C   0  0  2  0  0  0  0  0  0  0  0  0
    0.6484    1.5935   -1.6868 C   0  0  0  0  0  0  0  0  0  0  0  0
   -0.2004    2.0885   -2.4253 O   0  0  0  0  0  0  0  0  0  0  0  0
    0.0947   -0.7939   -1.1456 C   0  0  0  0  0  0  0  0  0  0  0  0
   -0.0927   -1.8398   -0.0739 C   0  0  0  0  0  0  0  0  0  0  0  0
    1.0170   -2.3782    0.5777 C   0  0  0  0  0  0  0  0  0  0  0  0
   -1.3762   -2.2680    0.2652 C   0  0  0  0  0  0  0  0  0  0  0  0
    0.8432   -3.3447    1.5683 C   0  0  0  0  0  0  0  0  0  0  0  0
   -1.5500   -3.2345    1.2558 C   0  0  0  0  0  0  0  0  0  0  0  0
   -0.4403   -3.7728    1.9074 C   0  0  0  0  0  0  0  0  0  0  0  0
   -1.6531    1.4091   -0.4852 H   0  0  0  0  0  0  0  0  0  0  0  0
    1.1126    0.6197    0.1724 H   0  0  0  0  0  0  0  0  0  0  0  0
    0.9388   -1.0730   -1.7907 H   0  0  0  0  0  0  0  0  0  0  0  0
   -0.7863   -0.8114   -1.8008 H   0  0  0  0  0  0  0  0  0  0  0  0
    2.0208   -2.0505    0.3202 H   0  0  0  0  0  0  0  0  0  0  0  0
   -2.2466   -1.8540   -0.2370 H   0  0  0  0  0  0  0  0  0  0  0  0
    1.7074   -3.7645    2.0748 H   0  0  0  0  0  0  0  0  0  0  0  0
   -2.5494   -3.5683    1.5188 H   0  0  0  0  0  0  0  0  0  0  0  0
   -0.5754   -4.5263    2.6778 H   0  0  0  0  0  0  0  0  0  0  0  0
    2.0046    1.8867   -1.7241 N   0  0  0  0  0  0  0  0  0  0  0  0
    2.5917    2.8074   -2.6709 C   0  0  2  0  0  0  0  0  0  0  0  0
    2.1045    2.4253   -4.0624 C   0  0  0  0  0  0  0  0  0  0  0  0
    1.6932    1.3016   -4.3440 O   0  0  0  0  0  0  0  0  0  0  0  0
    4.1105    2.7801   -2.6003 C   0  0  0  0  0  0  0  0  0  0  0  0
    2.6151    1.4313   -1.0521 H   0  0  0  0  0  0  0  0  0  0  0  0
    2.2195    3.8052   -2.4143 H   0  0  0  0  0  0  0  0  0  0  0  0
    4.5019    1.7882   -2.8543 H   0  0  0  0  0  0  0  0  0  0  0  0
    4.5532    3.4987   -3.2980 H   0  0  0  0  0  0  0  0  0  0  0  0
    4.4582    3.0261   -1.5911 H   0  0  0  0  0  0  0  0  0  0  0  0
    2.2235    3.4742   -4.9633 N   0  0  0  0  0  0  0  0  0  0  0  0
    1.8396    3.3577   -6.3508 C   0  0  0  0  0  0  0  0  0  0  0  0
    2.5570    4.3769   -4.6381 H   0  0  0  0  0  0  0  0  0  0  0  0
    2.7124    3.0581   -6.9494 H   0  0  0  0  0  0  0  0  0  0  0  0
    1.0493    2.5990   -6.4499 H   0  0  0  0  0  0  0  0  0  0  0  0
    1.4642    4.3273   -6.7099 H   0  0  0  0  0  0  0  0  0  0  0  0
 25 27  1  0  0  0  0
 26 27  2  0  0  0  0
 23 25  2  0  0  0  0
 24 26  1  0  0  0  0
 22 23  1  0  0  0  0
 22 24  2  0  0  0  0
 21 22  1  0  0  0  0
  1  3  1  0  0  0  0
  1  7  1  0  0  0  0
  1  2  2  0  0  0  0
 38 39  1  0  0  0  0
 39 47  1  0  0  0  0
 39 40  2  0  0  0  0
  8  9  1  0  0  0  0
  9 17  1  0  0  0  0
  9 10  2  0  0  0  0
 18 19  1  0  0  0  0
 19 37  1  0  0  0  0
 19 20  2  0  0  0  0
 38 41  1  0  0  0  0
  8 11  1  0  0  0  0
 47 48  1  0  0  0  0
 18 21  1  0  0  0  0
 37 38  1  0  0  0  0
  7  8  1  0  0  0  0
 17 18  1  0  0  0  0
 27 36  1  0  0  0  0
 25 34  1  0  0  0  0
 26 35  1  0  0  0  0
 23 32  1  0  0  0  0
 24 33  1  0  0  0  0
  3  4  1  0  0  0  0
  3  5  1  0  0  0  0
  3  6  1  0  0  0  0
 41 44  1  0  0  0  0
 41 45  1  0  0  0  0
 41 46  1  0  0  0  0
 11 14  1  0  0  0  0
 11 15  1  0  0  0  0
 11 16  1  0  0  0  0
 48 50  1  0  0  0  0
 48 51  1  0  0  0  0
 48 52  1  0  0  0  0
 21 30  1  0  0  0  0
 21 31  1  0  0  0  0
 38 43  1  0  0  0  0
  8 13  1  0  0  0  0
 18 29  1  0  0  0  0
 47 49  1  0  0  0  0
  7 12  1  0  0  0  0
 37 42  1  0  0  0  0
 17 28  1  0  0  0  0
M  END
$$$$

  -OEChem-05262214473D

 52 52  0     1  0  0  0  0  0999 V2000
   -1.8248    0.3424    3.9102 C   0  0  0  0  0  0  0  0  0  0  0  0
   -0.8774   -0.2723    3.4345 O   0  0  0  0  0  0  0  0  0  0  0  0
   -2.2566    0.0600    5.3109 C   0  0  0  0  0  0  0  0  0  0  0  0
   -3.0163   -0.7363    5.3643 H   0  0  0  0  0  0  0  0  0  0  0  0
   -1.4254   -0.2876    5.9452 H   0  0  0  0  0  0  0  0  0  0  0  0
   -2.6947    0.9149    5.8505 H   0  0  0  0  0  0  0  0  0  0  0  0
   -2.5745    1.3149    3.2691 N   0  0  0  0  0  0  0  0  0  0  0  0
   -2.3276    1.7409    1.9167 C   0  0  2  0  0  0  0  0  0  0  0  0
   -0.9926    1.1555    1.4755 C   0  0  0  0  0  0  0  0  0  0  0  0
   -0.1206    0.8028    2.2668 O   0  0  0  0  0  0  0  0  0  0  0  0
   -2.3188    3.2577    1.8072 C   0  0  0  0  0  0  0  0  0  0  0  0
   -3.3395    1.7507    3.7809 H   0  0  0  0  0  0  0  0  0  0  0  0
   -3.1317    1.3224    1.3015 H   0  0  0  0  0  0  0  0  0  0  0  0
   -1.5198    3.6949    2.4169 H   0  0  0  0  0  0  0  0  0  0  0  0
   -2.1594    3.5799    0.7729 H   0  0  0  0  0  0  0  0  0  0  0  0
   -3.2690    3.6789    2.1530 H   0  0  0  0  0  0  0  0  0  0  0  0
   -0.8700    1.1124    0.0921 N   0  0  0  0  0  0  0  0  0  0  0  0
    0.3073    0.6116   -0.5716 C   0  0  2  0  0  0  0  0  0  0  0  0
    0.6484    1.5935   -1.6868 C   0  0  0  0  0  0  0  0  0  0  0  0
   -0.1957    2.2898   -2.2466 O   0  0  0  0  0  0  0  0  0  0  0  0
    0.0947   -0.7939   -1.1456 C   0  0  0  0  0  0  0  0  0  0  0  0
   -0.0927   -1.8398   -0.0739 C   0  0  0  0  0  0  0  0  0  0  0  0
    1.0170   -2.3782    0.5777 C   0  0  0  0  0  0  0  0  0  0  0  0
   -1.3762   -2.2680    0.2652 C   0  0  0  0  0  0  0  0  0  0  0  0
    0.8432   -3.3447    1.5683 C   0  0  0  0  0  0  0  0  0  0  0  0
   -1.5500   -3.2345    1.2558 C   0  0  0  0  0  0  0  0  0  0  0  0
   -0.4403   -3.7728    1.9074 C   0  0  0  0  0  0  0  0  0  0  0  0
   -1.6531    1.4091   -0.4852 H   0  0  0  0  0  0  0  0  0  0  0  0
    1.1126    0.6197    0.1724 H   0  0  0  0  0  0  0  0  0  0  0  0
    0.9388   -1.0730   -1.7907 H   0  0  0  0  0  0  0  0  0  0  0  0
   -0.7863   -0.8114   -1.8008 H   0  0  0  0  0  0  0  0  0  0  0  0
    2.0208   -2.0505    0.3202 H   0  0  0  0  0  0  0  0  0  0  0  0
   -2.2466   -1.8540   -0.2370 H   0  0  0  0  0  0  0  0  0  0  0  0
    1.7074   -3.7645    2.0748 H   0  0  0  0  0  0  0  0  0  0  0  0
   -2.5494   -3.5683    1.5188 H   0  0  0  0  0  0  0  0  0  0  0  0
   -0.5754   -4.5263    2.6778 H   0  0  0  0  0  0  0  0  0  0  0  0
    2.0116    1.6335   -1.9449 N   0  0  0  0  0  0  0  0  0  0  0  0
    2.6060    2.4976   -2.9393 C   0  0  2  0  0  0  0  0  0  0  0  0
    1.8362    2.3159   -4.2408 C   0  0  0  0  0  0  0  0  0  0  0  0
    1.1745    1.3113   -4.4941 O   0  0  0  0  0  0  0  0  0  0  0  0
    4.0818    2.1855   -3.1326 C   0  0  0  0  0  0  0  0  0  0  0  0
    2.6222    1.0249   -1.4078 H   0  0  0  0  0  0  0  0  0  0  0  0
    2.4810    3.5252   -2.5808 H   0  0  0  0  0  0  0  0  0  0  0  0
    4.2269    1.1601   -3.4915 H   0  0  0  0  0  0  0  0  0  0  0  0
    4.5372    2.8598   -3.8654 H   0  0  0  0  0  0  0  0  0  0  0  0
    4.6286    2.2879   -2.1890 H   0  0  0  0  0  0  0  0  0  0  0  0
    2.0099    3.3886   -5.1041 N   0  0  0  0  0  0  0  0  0  0  0  0
    1.3922    3.4478   -6.4082 C   0  0  0  0  0  0  0  0  0  0  0  0
    2.5604    4.1877   -4.8036 H   0  0  0  0  0  0  0  0  0  0  0  0
    2.0822    3.0375   -7.1603 H   0  0  0  0  0  0  0  0  0  0  0  0
    0.4642    2.8573   -6.4014 H   0  0  0  0  0  0  0  0  0  0  0  0
    1.1595    4.4939   -6.6564 H   0  0  0  0  0  0  0  0  0  0  0  0
 25 27  1  0  0  0  0
 26 27  2  0  0  0  0
 23 25  2  0  0  0  0
 24 26  1  0  0  0  0
 22 23  1  0  0  0  0
 22 24  2  0  0  0  0
 21 22  1  0  0  0  0
  1  3  1  0  0  0  0
  1  7  1  0  0  0  0
  1  2  2  0  0  0  0
 38 39  1  0  0  0  0
 39 47  1  0  0  0  0
 39 40  2  0  0  0  0
  8  9  1  0  0  0  0
  9 17  1  0  0  0  0
  9 10  2  0  0  0  0
 18 19  1  0  0  0  0
 19 37  1  0  0  0  0
 19 20  2  0  0  0  0
 38 41  1  0  0  0  0
  8 11  1  0  0  0  0
 47 48  1  0  0  0  0
 18 21  1  0  0  0  0
 37 38  1  0  0  0  0
  7  8  1  0  0  0  0
 17 18  1  0  0  0  0
 27 36  1  0  0  0  0
 25 34  1  0  0  0  0
 26 35  1  0  0  0  0
 23 32  1  0  0  0  0
 24 33  1  0  0  0  0
  3  4  1  0  0  0  0
  3  5  1  0  0  0  0
  3  6  1  0  0  0  0
 41 44  1  0  0  0  0
 41 45  1  0  0  0  0
 41 46  1  0  0  0  0
 11 14  1  0  0  0  0
 11 15  1  0  0  0  0
 11 16  1  0  0  0  0
 48 50  1  0  0  0  0
 48 51  1  0  0  0  0
 48 52  1  0  0  0  0
 21 30  1  0  0  0  0
 21 31  1  0  0  0  0
 38 43  1  0  0  0  0
  8 13  1  0  0  0  0
 18 29  1  0  0  0  0
 47 49  1  0  0  0  0
  7 12  1  0  0  0  0
 37 42  1  0  0  0  0
 17 28  1  0  0  0  0
M  END
$$$$

  -OEChem-05262214473D

 52 52  0     1  0  0  0  0  0999 V2000
   -1.8248    0.3424    3.9102 C   0  0  0  0  0  0  0  0  0  0  0  0
   -0.8774   -0.2723    3.4345 O   0  0  0  0  0  0  0  0  0  0  0  0
   -2.2566    0.0600    5.3109 C   0  0  0  0  0  0  0  0  0  0  0  0
   -3.0163   -0.7363    5.3643 H   0  0  0  0  0  0  0  0  0  0  0  0
   -1.4254   -0.2876    5.9452 H   0  0  0  0  0  0  0  0  0  0  0  0
   -2.6947    0.9149    5.8505 H   0  0  0  0  0  0  0  0  0  0  0  0
   -2.5745    1.3149    3.2691 N   0  0  0  0  0  0  0  0  0  0  0  0
   -2.3276    1.7409    1.9167 C   0  0  2  0  0  0  0  0  0  0  0  0
   -0.9926    1.1555    1.4755 C   0  0  0  0  0  0  0  0  0  0  0  0
   -0.1206    0.8028    2.2668 O   0  0  0  0  0  0  0  0  0  0  0  0
   -2.3188    3.2577    1.8072 C   0  0  0  0  0  0  0  0  0  0  0  0
   -3.3395    1.7507    3.7809 H   0  0  0  0  0  0  0  0  0  0  0  0
   -3.1317    1.3224    1.3015 H   0  0  0  0  0  0  0  0  0  0  0  0
   -1.5198    3.6949    2.4169 H   0  0  0  0  0  0  0  0  0  0  0  0
   -2.1594    3.5799    0.7729 H   0  0  0  0  0  0  0  0  0  0  0  0
   -3.2690    3.6789    2.1530 H   0  0  0  0  0  0  0  0  0  0  0  0
   -0.8700    1.1124    0.0921 N   0  0  0  0  0  0  0  0  0  0  0  0
    0.3073    0.6116   -0.5716 C   0  0  2  0  0  0  0  0  0  0  0  0
    0.6484    1.5935   -1.6868 C   0  0  0  0  0  0  0  0  0  0  0  0
   -0.1234    2.4730   -2.0632 O   0  0  0  0  0  0  0  0  0  0  0  0
    0.0947   -0.7939   -1.1456 C   0  0  0  0  0  0  0  0  0  0  0  0
   -0.0927   -1.8398   -0.0739 C   0  0  0  0  0  0  0  0  0  0  0  0
    1.0170   -2.3782    0.5777 C   0  0  0  0  0  0  0  0  0  0  0  0
   -1.3762   -2.2680    0.2652 C   0  0  0  0  0  0  0  0  0  0  0  0
    0.8432   -3.3447    1.5683 C   0  0  0  0  0  0  0  0  0  0  0  0
   -1.5500   -3.2345    1.2558 C   0  0  0  0  0  0  0  0  0  0  0  0
   -0.4403   -3.7728    1.9074 C   0  0  0  0  0  0  0  0  0  0  0  0
   -1.6531    1.4091   -0.4852 H   0  0  0  0  0  0  0  0  0  0  0  0
    1.1126    0.6197    0.1724 H   0  0  0  0  0  0  0  0  0  0  0  0
    0.9388   -1.0730   -1.7907 H   0  0  0  0  0  0  0  0  0  0  0  0
   -0.7863   -0.8114   -1.8008 H   0  0  0  0  0  0  0  0  0  0  0  0
    2.0208   -2.0505    0.3202 H   0  0  0  0  0  0  0  0  0  0  0  0
   -2.2466   -1.8540   -0.2370 H   0  0  0  0  0  0  0  0  0  0  0  0
    1.7074   -3.7645    2.0748 H   0  0  0  0  0  0  0  0  0  0  0  0
   -2.5494   -3.5683    1.5188 H   0  0  0  0  0  0  0  0  0  0  0  0
   -0.5754   -4.5263    2.6778 H   0  0  0  0  0  0  0  0  0  0  0  0
    1.9337    1.4004   -2.1739 N   0  0  0  0  0  0  0  0  0  0  0  0
    2.5164    2.2112   -3.2189 C   0  0  2  0  0  0  0  0  0  0  0  0
    1.5265    2.2714   -4.3747 C   0  0  0  0  0  0  0  0  0  0  0  0
    0.6504    1.4276   -4.5521 O   0  0  0  0  0  0  0  0  0  0  0  0
    3.8527    1.6475   -3.6764 C   0  0  0  0  0  0  0  0  0  0  0  0
    2.4929    0.6516   -1.7760 H   0  0  0  0  0  0  0  0  0  0  0  0
    2.6528    3.2148   -2.8015 H   0  0  0  0  0  0  0  0  0  0  0  0
    3.7361    0.6423   -4.0976 H   0  0  0  0  0  0  0  0  0  0  0  0
    4.3063    2.2785   -4.4478 H   0  0  0  0  0  0  0  0  0  0  0  0
    4.5537    1.5771   -2.8377 H   0  0  0  0  0  0  0  0  0  0  0  0
    1.7640    3.3545   -5.2093 N   0  0  0  0  0  0  0  0  0  0  0  0
    0.9676    3.6229   -6.3840 C   0  0  0  0  0  0  0  0  0  0  0  0
    2.5002    4.0139   -4.9751 H   0  0  0  0  0  0  0  0  0  0  0  0
    1.4344    3.1491   -7.2601 H   0  0  0  0  0  0  0  0  0  0  0  0
   -0.0440    3.2149   -6.2421 H   0  0  0  0  0  0  0  0  0  0  0  0
    0.9056    4.7094   -6.5443 H   0  0  0  0  0  0  0  0  0  0  0  0
 25 27  1  0  0  0  0
 26 27  2  0  0  0  0
 23 25  2  0  0  0  0
 24 26  1  0  0  0  0
 22 23  1  0  0  0  0
 22 24  2  0  0  0  0
 21 22  1  0  0  0  0
  1  3  1  0  0  0  0
  1  7  1  0  0  0  0
  1  2  2  0  0  0  0
 38 39  1  0  0  0  0
 39 47  1  0  0  0  0
 39 40  2  0  0  0  0
  8  9  1  0  0  0  0
  9 17  1  0  0  0  0
  9 10  2  0  0  0  0
 18 19  1  0  0  0  0
 19 37  1  0  0  0  0
 19 20  2  0  0  0  0
 38 41  1  0  0  0  0
  8 11  1  0  0  0  0
 47 48  1  0  0  0  0
 18 21  1  0  0  0  0
 37 38  1  0  0  0  0
  7  8  1  0  0  0  0
 17 18  1  0  0  0  0
 27 36  1  0  0  0  0
 25 34  1  0  0  0  0
 26 35  1  0  0  0  0
 23 32  1  0  0  0  0
 24 33  1  0  0  0  0
  3  4  1  0  0  0  0
  3  5  1  0  0  0  0
  3  6  1  0  0  0  0
 41 44  1  0  0  0  0
 41 45  1  0  0  0  0
 41 46  1  0  0  0  0
 11 14  1  0  0  0  0
 11 15  1  0  0  0  0
 11 16  1  0  0  0  0
 48 50  1  0  0  0  0
 48 51  1  0  0  0  0
 48 52  1  0  0  0  0
 21 30  1  0  0  0  0
 21 31  1  0  0  0  0
 38 43  1  0  0  0  0
  8 13  1  0  0  0  0
 18 29  1  0  0  0  0
 47 49  1  0  0  0  0
  7 12  1  0  0  0  0
 37 42  1  0  0  0  0
 17 28  1  0  0  0  0
M  END
$$$$

  -OEChem-05262214473D

 52 52  0     1  0  0  0  0  0999 V2000
   -1.8248    0.3424    3.9102 C   0  0  0  0  0  0  0  0  0  0  0  0
   -0.8774   -0.2723    3.4345 O   0  0  0  0  0  0  0  0  0  0  0  0
   -2.2566    0.0600    5.3109 C   0  0  0  0  0  0  0  0  0  0  0  0
   -3.0163   -0.7363    5.3643 H   0  0  0  0  0  0  0  0  0  0  0  0
   -1.4254   -0.2876    5.9452 H   0  0  0  0  0  0  0  0  0  0  0  0
   -2.6947    0.9149    5.8505 H   0  0  0  0  0  0  0  0  0  0  0  0
   -2.5745    1.3149    3.2691 N   0  0  0  0  0  0  0  0  0  0  0  0
   -2.3276    1.7409    1.9167 C   0  0  2  0  0  0  0  0  0  0  0  0
   -0.9926    1.1555    1.4755 C   0  0  0  0  0  0  0  0  0  0  0  0
   -0.1206    0.8028    2.2668 O   0  0  0  0  0  0  0  0  0  0  0  0
   -2.3188    3.2577    1.8072 C   0  0  0  0  0  0  0  0  0  0  0  0
   -3.3395    1.7507    3.7809 H   0  0  0  0  0  0  0  0  0  0  0  0
   -3.1317    1.3224    1.3015 H   0  0  0  0  0  0  0  0  0  0  0  0
   -1.5198    3.6949    2.4169 H   0  0  0  0  0  0  0  0  0  0  0  0
   -2.1594    3.5799    0.7729 H   0  0  0  0  0  0  0  0  0  0  0  0
   -3.2690    3.6789    2.1530 H   0  0  0  0  0  0  0  0  0  0  0  0
   -0.8700    1.1124    0.0921 N   0  0  0  0  0  0  0  0  0  0  0  0
    0.3073    0.6116   -0.5716 C   0  0  2  0  0  0  0  0  0  0  0  0
    0.8667    1.7498   -1.4176 C   0  0  0  0  0  0  0  0  0  0  0  0
    0.3709    2.8744   -1.4381 O   0  0  0  0  0  0  0  0  0  0  0  0
    0.0022   -0.6061   -1.4514 C   0  0  0  0  0  0  0  0  0  0  0  0
   -0.4077   -1.8173   -0.6497 C   0  0  0  0  0  0  0  0  0  0  0  0
    0.5635   -2.6168   -0.0468 C   0  0  0  0  0  0  0  0  0  0  0  0
   -1.7584   -2.1371   -0.5115 C   0  0  0  0  0  0  0  0  0  0  0  0
    0.1840   -3.7359    0.6942 C   0  0  0  0  0  0  0  0  0  0  0  0
   -2.1379   -3.2563    0.2295 C   0  0  0  0  0  0  0  0  0  0  0  0
   -1.1667   -4.0557    0.8324 C   0  0  0  0  0  0  0  0  0  0  0  0
   -1.6531    1.4091   -0.4852 H   0  0  0  0  0  0  0  0  0  0  0  0
    1.0279    0.3624    0.2163 H   0  0  0  0  0  0  0  0  0  0  0  0
    0.8724   -0.8529   -2.0746 H   0  0  0  0  0  0  0  0  0  0  0  0
   -0.8034   -0.3746   -2.1607 H   0  0  0  0  0  0  0  0  0  0  0  0
    1.6182   -2.3752   -0.1490 H   0  0  0  0  0  0  0  0  0  0  0  0
   -2.5220   -1.5200   -0.9776 H   0  0  0  0  0  0  0  0  0  0  0  0
    0.9404   -4.3589    1.1626 H   0  0  0  0  0  0  0  0  0  0  0  0
   -3.1895   -3.5056    0.3359 H   0  0  0  0  0  0  0  0  0  0  0  0
   -1.4619   -4.9279    1.4083 H   0  0  0  0  0  0  0  0  0  0  0  0
    2.0117    1.3720   -2.1052 N   0  0  0  0  0  0  0  0  0  0  0  0
    2.7546    2.2678   -2.9622 C   0  0  2  0  0  0  0  0  0  0  0  0
    1.7699    2.9295   -3.9172 C   0  0  0  0  0  0  0  0  0  0  0  0
    0.6761    2.4430   -4.1962 O   0  0  0  0  0  0  0  0  0  0  0  0
    3.8404    1.5277   -3.7277 C   0  0  0  0  0  0  0  0  0  0  0  0
    2.3442    0.4179   -2.0008 H   0  0  0  0  0  0  0  0  0  0  0  0
    3.2018    3.0284   -2.3129 H   0  0  0  0  0  0  0  0  0  0  0  0
    3.4114    0.7614   -4.3837 H   0  0  0  0  0  0  0  0  0  0  0  0
    4.4207    2.2124   -4.3548 H   0  0  0  0  0  0  0  0  0  0  0  0
    4.5305    1.0276   -3.0396 H   0  0  0  0  0  0  0  0  0  0  0  0
    2.2743    4.1056   -4.4545 N   0  0  0  0  0  0  0  0  0  0  0  0
    1.5348    4.9120   -5.3973 C   0  0  0  0  0  0  0  0  0  0  0  0
    3.1831    4.4437   -4.1521 H   0  0  0  0  0  0  0  0  0  0  0  0
    1.7965    4.6110   -6.4225 H   0  0  0  0  0  0  0  0  0  0  0  0
    0.4563    4.7671   -5.2368 H   0  0  0  0  0  0  0  0  0  0  0  0
    1.7881    5.9723   -5.2506 H   0  0  0  0  0  0  0  0  0  0  0  0
 25 27  1  0  0  0  0
 26 27  2  0  0  0  0
 23 25  2  0  0  0  0
 24 26  1  0  0  0  0
 22 23  1  0  0  0  0
 22 24  2  0  0  0  0
 21 22  1  0  0  0  0
  1  3  1  0  0  0  0
  1  7  1  0  0  0  0
  1  2  2  0  0  0  0
 38 39  1  0  0  0  0
 39 47  1  0  0  0  0
 39 40  2  0  0  0  0
  8  9  1  0  0  0  0
  9 17  1  0  0  0  0
  9 10  2  0  0  0  0
 18 19  1  0  0  0  0
 19 37  1  0  0  0  0
 19 20  2  0  0  0  0
 38 41  1  0  0  0  0
  8 11  1  0  0  0  0
 47 48  1  0  0  0  0
 18 21  1  0  0  0  0
 37 38  1  0  0  0  0
  7  8  1  0  0  0  0
 17 18  1  0  0  0  0
 27 36  1  0  0  0  0
 25 34  1  0  0  0  0
 26 35  1  0  0  0  0
 23 32  1  0  0  0  0
 24 33  1  0  0  0  0
  3  4  1  0  0  0  0
  3  5  1  0  0  0  0
  3  6  1  0  0  0  0
 41 44  1  0  0  0  0
 41 45  1  0  0  0  0
 41 46  1  0  0  0  0
 11 14  1  0  0  0  0
 11 15  1  0  0  0  0
 11 16  1  0  0  0  0
 48 50  1  0  0  0  0
 48 51  1  0  0  0  0
 48 52  1  0  0  0  0
 21 30  1  0  0  0  0
 21 31  1  0  0  0  0
 38 43  1  0  0  0  0
  8 13  1  0  0  0  0
 18 29  1  0  0  0  0
 47 49  1  0  0  0  0
  7 12  1  0  0  0  0
 37 42  1  0  0  0  0
 17 28  1  0  0  0  0
M  END
$$$$

  -OEChem-05262214473D

 52 52  0     1  0  0  0  0  0999 V2000
   -1.8248    0.3424    3.9102 C   0  0  0  0  0  0  0  0  0  0  0  0
   -0.8774   -0.2723    3.4345 O   0  0  0  0  0  0  0  0  0  0  0  0
   -2.2566    0.0600    5.3109 C   0  0  0  0  0  0  0  0  0  0  0  0
   -3.0163   -0.7363    5.3643 H   0  0  0  0  0  0  0  0  0  0  0  0
   -1.4254   -0.2876    5.9452 H   0  0  0  0  0  0  0  0  0  0  0  0
   -2.6947    0.9149    5.8505 H   0  0  0  0  0  0  0  0  0  0  0  0
   -2.5745    1.3149    3.2691 N   0  0  0  0  0  0  0  0  0  0  0  0
   -2.3276    1.7409    1.9167 C   0  0  2  0  0  0  0  0  0  0  0  0
   -0.9926    1.1555    1.4755 C   0  0  0  0  0  0  0  0  0  0  0  0
   -0.1206    0.8028    2.2668 O   0  0  0  0  0  0  0  0  0  0  0  0
   -2.3188    3.2577    1.8072 C   0  0  0  0  0  0  0  0  0  0  0  0
   -3.3395    1.7507    3.7809 H   0  0  0  0  0  0  0  0  0  0  0  0
   -3.1317    1.3224    1.3015 H   0  0  0  0  0  0  0  0  0  0  0  0
   -1.5198    3.6949    2.4169 H   0  0  0  0  0  0  0  0  0  0  0  0
   -2.1594    3.5799    0.7729 H   0  0  0  0  0  0  0  0  0  0  0  0
   -3.2690    3.6789    2.1530 H   0  0  0  0  0  0  0  0  0  0  0  0
   -0.8700    1.1124    0.0921 N   0  0  0  0  0  0  0  0  0  0  0  0
    0.3073    0.6116   -0.5716 C   0  0  2  0  0  0  0  0  0  0  0  0
    0.8667    1.7498   -1.4176 C   0  0  0  0  0  0  0  0  0  0  0  0
    0.5537    2.9263   -1.2475 O   0  0  0  0  0  0  0  0  0  0  0  0
    0.0022   -0.6061   -1.4514 C   0  0  0  0  0  0  0  0  0  0  0  0
   -0.4077   -1.8173   -0.6497 C   0  0  0  0  0  0  0  0  0  0  0  0
    0.5635   -2.6168   -0.0468 C   0  0  0  0  0  0  0  0  0  0  0  0
   -1.7584   -2.1371   -0.5115 C   0  0  0  0  0  0  0  0  0  0  0  0
    0.1840   -3.7359    0.6942 C   0  0  0  0  0  0  0  0  0  0  0  0
   -2.1379   -3.2563    0.2295 C   0  0  0  0  0  0  0  0  0  0  0  0
   -1.1667   -4.0557    0.8324 C   0  0  0  0  0  0  0  0  0  0  0  0
   -1.6531    1.4091   -0.4852 H   0  0  0  0  0  0  0  0  0  0  0  0
    1.0279    0.3624    0.2163 H   0  0  0  0  0  0  0  0  0  0  0  0
    0.8724   -0.8529   -2.0746 H   0  0  0  0  0  0  0  0  0  0  0  0
   -0.8034   -0.3746   -2.1607 H   0  0  0  0  0  0  0  0  0  0  0  0
    1.6182   -2.3752   -0.1490 H   0  0  0  0  0  0  0  0  0  0  0  0
   -2.5220   -1.5200   -0.9776 H   0  0  0  0  0  0  0  0  0  0  0  0
    0.9404   -4.3589    1.1626 H   0  0  0  0  0  0  0  0  0  0  0  0
   -3.1895   -3.5056    0.3359 H   0  0  0  0  0  0  0  0  0  0  0  0
   -1.4619   -4.9279    1.4083 H   0  0  0  0  0  0  0  0  0  0  0  0
    1.7920    1.2990   -2.3487 N   0  0  0  0  0  0  0  0  0  0  0  0
    2.4904    2.1749   -3.2618 C   0  0  2  0  0  0  0  0  0  0  0  0
    1.4581    3.0631   -3.9437 C   0  0  0  0  0  0  0  0  0  0  0  0
    0.2701    2.7613   -4.0365 O   0  0  0  0  0  0  0  0  0  0  0  0
    3.2883    1.3836   -4.2864 C   0  0  0  0  0  0  0  0  0  0  0  0
    1.9882    0.3032   -2.3905 H   0  0  0  0  0  0  0  0  0  0  0  0
    3.1617    2.7932   -2.6558 H   0  0  0  0  0  0  0  0  0  0  0  0
    2.6326    0.7581   -4.9030 H   0  0  0  0  0  0  0  0  0  0  0  0
    3.8395    2.0486   -4.9596 H   0  0  0  0  0  0  0  0  0  0  0  0
    4.0098    0.7234   -3.7931 H   0  0  0  0  0  0  0  0  0  0  0  0
    2.0273    4.2123   -4.4742 N   0  0  0  0  0  0  0  0  0  0  0  0
    1.2574    5.2087   -5.1816 C   0  0  0  0  0  0  0  0  0  0  0  0
    3.0174    4.3903   -4.3335 H   0  0  0  0  0  0  0  0  0  0  0  0
    1.2743    4.9889   -6.2593 H   0  0  0  0  0  0  0  0  0  0  0  0
    0.2184    5.1933   -4.8207 H   0  0  0  0  0  0  0  0  0  0  0  0
    1.6928    6.2030   -5.0034 H   0  0  0  0  0  0  0  0  0  0  0  0
 25 27  1  0  0  0  0
 26 27  2  0  0  0  0
 23 25  2  0  0  0  0
 24 26  1  0  0  0  0
 22 23  1  0  0  0  0
 22 24  2  0  0  0  0
 21 22  1  0  0  0  0
  1  3  1  0  0  0  0
  1  7  1  0  0  0  0
  1  2  2  0  0  0  0
 38 39  1  0  0  0  0
 39 47  1  0  0  0  0
 39 40  2  0  0  0  0
  8  9  1  0  0  0  0
  9 17  1  0  0  0  0
  9 10  2  0  0  0  0
 18 19  1  0  0  0  0
 19 37  1  0  0  0  0
 19 20  2  0  0  0  0
 38 41  1  0  0  0  0
  8 11  1  0  0  0  0
 47 48  1  0  0  0  0
 18 21  1  0  0  0  0
 37 38  1  0  0  0  0
  7  8  1  0  0  0  0
 17 18  1  0  0  0  0
 27 36  1  0  0  0  0
 25 34  1  0  0  0  0
 26 35  1  0  0  0  0
 23 32  1  0  0  0  0
 24 33  1  0  0  0  0
  3  4  1  0  0  0  0
  3  5  1  0  0  0  0
  3  6  1  0  0  0  0
 41 44  1  0  0  0  0
 41 45  1  0  0  0  0
 41 46  1  0  0  0  0
 11 14  1  0  0  0  0
 11 15  1  0  0  0  0
 11 16  1  0  0  0  0
 48 50  1  0  0  0  0
 48 51  1  0  0  0  0
 48 52  1  0  0  0  0
 21 30  1  0  0  0  0
 21 31  1  0  0  0  0
 38 43  1  0  0  0  0
  8 13  1  0  0  0  0
 18 29  1  0  0  0  0
 47 49  1  0  0  0  0
  7 12  1  0  0  0  0
 37 42  1  0  0  0  0
 17 28  1  0  0  0  0
M  END
$$$$

  -OEChem-05262214473D

 52 52  0     1  0  0  0  0  0999 V2000
   -1.8248    0.3424    3.9102 C   0  0  0  0  0  0  0  0  0  0  0  0
   -0.8774   -0.2723    3.4345 O   0  0  0  0  0  0  0  0  0  0  0  0
   -2.2566    0.0600    5.3109 C   0  0  0  0  0  0  0  0  0  0  0  0
   -3.0163   -0.7363    5.3643 H   0  0  0  0  0  0  0  0  0  0  0  0
   -1.4254   -0.2876    5.9452 H   0  0  0  0  0  0  0  0  0  0  0  0
   -2.6947    0.9149    5.8505 H   0  0  0  0  0  0  0  0  0  0  0  0
   -2.5745    1.3149    3.2691 N   0  0  0  0  0  0  0  0  0  0  0  0
   -2.3276    1.7409    1.9167 C   0  0  2  0  0  0  0  0  0  0  0  0
   -0.9926    1.1555    1.4755 C   0  0  0  0  0  0  0  0  0  0  0  0
   -0.1206    0.8028    2.2668 O   0  0  0  0  0  0  0  0  0  0  0  0
   -2.3188    3.2577    1.8072 C   0  0  0  0  0  0  0  0  0  0  0  0
   -3.3395    1.7507    3.7809 H   0  0  0  0  0  0  0  0  0  0  0  0
   -3.1317    1.3224    1.3015 H   0  0  0  0  0  0  0  0  0  0  0  0
   -1.5198    3.6949    2.4169 H   0  0  0  0  0  0  0  0  0  0  0  0
   -2.1594    3.5799    0.7729 H   0  0  0  0  0  0  0  0  0  0  0  0
   -3.2690    3.6789    2.1530 H   0  0  0  0  0  0  0  0  0  0  0  0
   -0.8700    1.1124    0.0921 N   0  0  0  0  0  0  0  0  0  0  0  0
    0.3073    0.6116   -0.5716 C   0  0  2  0  0  0  0  0  0  0  0  0
    0.8667    1.7498   -1.4176 C   0  0  0  0  0  0  0  0  0  0  0  0
    0.7746    2.9320   -1.0937 O   0  0  0  0  0  0  0  0  0  0  0  0
    0.0022   -0.6061   -1.4514 C   0  0  0  0  0  0  0  0  0  0  0  0
   -0.4077   -1.8173   -0.6497 C   0  0  0  0  0  0  0  0  0  0  0  0
    0.5635   -2.6168   -0.0468 C   0  0  0  0  0  0  0  0  0  0  0  0
   -1.7584   -2.1371   -0.5115 C   0  0  0  0  0  0  0  0  0  0  0  0
    0.1840   -3.7359    0.6942 C   0  0  0  0  0  0  0  0  0  0  0  0
   -2.1379   -3.2563    0.2295 C   0  0  0  0  0  0  0  0  0  0  0  0
   -1.1667   -4.0557    0.8324 C   0  0  0  0  0  0  0  0  0  0  0  0
   -1.6531    1.4091   -0.4852 H   0  0  0  0  0  0  0  0  0  0  0  0
    1.0279    0.3624    0.2163 H   0  0  0  0  0  0  0  0  0  0  0  0
    0.8724   -0.8529   -2.0746 H   0  0  0  0  0  0  0  0  0  0  0  0
   -0.8034   -0.3746   -2.1607 H   0  0  0  0  0  0  0  0  0  0  0  0
    1.6182   -2.3752   -0.1490 H   0  0  0  0  0  0  0  0  0  0  0  0
   -2.5220   -1.5200   -0.9776 H   0  0  0  0  0  0  0  0  0  0  0  0
    0.9404   -4.3589    1.1626 H   0  0  0  0  0  0  0  0  0  0  0  0
   -3.1895   -3.5056    0.3359 H   0  0  0  0  0  0  0  0  0  0  0  0
   -1.4619   -4.9279    1.4083 H   0  0  0  0  0  0  0  0  0  0  0  0
    1.5223    1.2831   -2.5484 N   0  0  0  0  0  0  0  0  0  0  0  0
    2.1640    2.1516   -3.5089 C   0  0  2  0  0  0  0  0  0  0  0  0
    1.1709    3.2394   -3.8963 C   0  0  0  0  0  0  0  0  0  0  0  0
   -0.0455    3.1118   -3.7735 O   0  0  0  0  0  0  0  0  0  0  0  0
    2.6265    1.3769   -4.7331 C   0  0  0  0  0  0  0  0  0  0  0  0
    1.5526    0.2805   -2.7090 H   0  0  0  0  0  0  0  0  0  0  0  0
    3.0229    2.6043   -3.0017 H   0  0  0  0  0  0  0  0  0  0  0  0
    1.7795    0.9161   -5.2545 H   0  0  0  0  0  0  0  0  0  0  0  0
    3.1377    2.0312   -5.4470 H   0  0  0  0  0  0  0  0  0  0  0  0
    3.3176    0.5759   -4.4492 H   0  0  0  0  0  0  0  0  0  0  0  0
    1.8003    4.3527   -4.4354 N   0  0  0  0  0  0  0  0  0  0  0  0
    1.0737    5.5146   -4.8914 C   0  0  0  0  0  0  0  0  0  0  0  0
    2.8147    4.3797   -4.4818 H   0  0  0  0  0  0  0  0  0  0  0  0
    0.8558    5.4135   -5.9649 H   0  0  0  0  0  0  0  0  0  0  0  0
    0.1302    5.5997   -4.3323 H   0  0  0  0  0  0  0  0  0  0  0  0
    1.6815    6.4160   -4.7241 H   0  0  0  0  0  0  0  0  0  0  0  0
 25 27  1  0  0  0  0
 26 27  2  0  0  0  0
 23 25  2  0  0  0  0
 24 26  1  0  0  0  0
 22 23  1  0  0  0  0
 22 24  2  0  0  0  0
 21 22  1  0  0  0  0
  1  3  1  0  0  0  0
  1  7  1  0  0  0  0
  1  2  2  0  0  0  0
 38 39  1  0  0  0  0
 39 47  1  0  0  0  0
 39 40  2  0  0  0  0
  8  9  1  0  0  0  0
  9 17  1  0  0  0  0
  9 10  2  0  0  0  0
 18 19  1  0  0  0  0
 19 37  1  0  0  0  0
 19 20  2  0  0  0  0
 38 41  1  0  0  0  0
  8 11  1  0  0  0  0
 47 48  1  0  0  0  0
 18 21  1  0  0  0  0
 37 38  1  0  0  0  0
  7  8  1  0  0  0  0
 17 18  1  0  0  0  0
 27 36  1  0  0  0  0
 25 34  1  0  0  0  0
 26 35  1  0  0  0  0
 23 32  1  0  0  0  0
 24 33  1  0  0  0  0
  3  4  1  0  0  0  0
  3  5  1  0  0  0  0
  3  6  1  0  0  0  0
 41 44  1  0  0  0  0
 41 45  1  0  0  0  0
 41 46  1  0  0  0  0
 11 14  1  0  0  0  0
 11 15  1  0  0  0  0
 11 16  1  0  0  0  0
 48 50  1  0  0  0  0
 48 51  1  0  0  0  0
 48 52  1  0  0  0  0
 21 30  1  0  0  0  0
 21 31  1  0  0  0  0
 38 43  1  0  0  0  0
  8 13  1  0  0  0  0
 18 29  1  0  0  0  0
 47 49  1  0  0  0  0
  7 12  1  0  0  0  0
 37 42  1  0  0  0  0
 17 28  1  0  0  0  0
M  END
$$$$

  -OEChem-05262214473D

 52 52  0     1  0  0  0  0  0999 V2000
   -1.8248    0.3424    3.9102 C   0  0  0  0  0  0  0  0  0  0  0  0
   -0.8774   -0.2723    3.4345 O   0  0  0  0  0  0  0  0  0  0  0  0
   -2.2566    0.0600    5.3109 C   0  0  0  0  0  0  0  0  0  0  0  0
   -3.0163   -0.7363    5.3643 H   0  0  0  0  0  0  0  0  0  0  0  0
   -1.4254   -0.2876    5.9452 H   0  0  0  0  0  0  0  0  0  0  0  0
   -2.6947    0.9149    5.8505 H   0  0  0  0  0  0  0  0  0  0  0  0
   -2.5745    1.3149    3.2691 N   0  0  0  0  0  0  0  0  0  0  0  0
   -2.3276    1.7409    1.9167 C   0  0  2  0  0  0  0  0  0  0  0  0
   -0.9926    1.1555    1.4755 C   0  0  0  0  0  0  0  0  0  0  0  0
   -0.1206    0.8028    2.2668 O   0  0  0  0  0  0  0  0  0  0  0  0
   -2.3188    3.2577    1.8072 C   0  0  0  0  0  0  0  0  0  0  0  0
   -3.3395    1.7507    3.7809 H   0  0  0  0  0  0  0  0  0  0  0  0
   -3.1317    1.3224    1.3015 H   0  0  0  0  0  0  0  0  0  0  0  0
   -1.5198    3.6949    2.4169 H   0  0  0  0  0  0  0  0  0  0  0  0
   -2.1594    3.5799    0.7729 H   0  0  0  0  0  0  0  0  0  0  0  0
   -3.2690    3.6789    2.1530 H   0  0  0  0  0  0  0  0  0  0  0  0
   -0.8700    1.1124    0.0921 N   0  0  0  0  0  0  0  0  0  0  0  0
    0.3073    0.6116   -0.5716 C   0  0  2  0  0  0  0  0  0  0  0  0
    0.8667    1.7498   -1.4176 C   0  0  0  0  0  0  0  0  0  0  0  0
    1.0185    2.8912   -0.9874 O   0  0  0  0  0  0  0  0  0  0  0  0
    0.0022   -0.6061   -1.4514 C   0  0  0  0  0  0  0  0  0  0  0  0
   -0.4077   -1.8173   -0.6497 C   0  0  0  0  0  0  0  0  0  0  0  0
    0.5635   -2.6168   -0.0468 C   0  0  0  0  0  0  0  0  0  0  0  0
   -1.7584   -2.1371   -0.5115 C   0  0  0  0  0  0  0  0  0  0  0  0
    0.1840   -3.7359    0.6942 C   0  0  0  0  0  0  0  0  0  0  0  0
   -2.1379   -3.2563    0.2295 C   0  0  0  0  0  0  0  0  0  0  0  0
   -1.1667   -4.0557    0.8324 C   0  0  0  0  0  0  0  0  0  0  0  0
   -1.6531    1.4091   -0.4852 H   0  0  0  0  0  0  0  0  0  0  0  0
    1.0279    0.3624    0.2163 H   0  0  0  0  0  0  0  0  0  0  0  0
    0.8724   -0.8529   -2.0746 H   0  0  0  0  0  0  0  0  0  0  0  0
   -0.8034   -0.3746   -2.1607 H   0  0  0  0  0  0  0  0  0  0  0  0
    1.6182   -2.3752   -0.1490 H   0  0  0  0  0  0  0  0  0  0  0  0
   -2.5220   -1.5200   -0.9776 H   0  0  0  0  0  0  0  0  0  0  0  0
    0.9404   -4.3589    1.1626 H   0  0  0  0  0  0  0  0  0  0  0  0
   -3.1895   -3.5056    0.3359 H   0  0  0  0  0  0  0  0  0  0  0  0
   -1.4619   -4.9279    1.4083 H   0  0  0  0  0  0  0  0  0  0  0  0
    1.2209    1.3254   -2.6907 N   0  0  0  0  0  0  0  0  0  0  0  0
    1.7976    2.1995   -3.6868 C   0  0  2  0  0  0  0  0  0  0  0  0
    0.9280    3.4465   -3.7783 C   0  0  0  0  0  0  0  0  0  0  0  0
   -0.2492    3.4708   -3.4253 O   0  0  0  0  0  0  0  0  0  0  0  0
    1.8998    1.5078   -5.0373 C   0  0  0  0  0  0  0  0  0  0  0  0
    1.0671    0.3514   -2.9346 H   0  0  0  0  0  0  0  0  0  0  0  0
    2.7949    2.4746   -3.3269 H   0  0  0  0  0  0  0  0  0  0  0  0
    0.9102    1.2247   -5.4141 H   0  0  0  0  0  0  0  0  0  0  0  0
    2.3631    2.1615   -5.7838 H   0  0  0  0  0  0  0  0  0  0  0  0
    2.5009    0.5952   -4.9633 H   0  0  0  0  0  0  0  0  0  0  0  0
    1.6087    4.5173   -4.3407 N   0  0  0  0  0  0  0  0  0  0  0  0
    0.9963    5.8090   -4.5466 C   0  0  0  0  0  0  0  0  0  0  0  0
    2.5886    4.4127   -4.5868 H   0  0  0  0  0  0  0  0  0  0  0  0
    0.5693    5.8557   -5.5593 H   0  0  0  0  0  0  0  0  0  0  0  0
    0.1978    5.9584   -3.8049 H   0  0  0  0  0  0  0  0  0  0  0  0
    1.7553    6.5969   -4.4321 H   0  0  0  0  0  0  0  0  0  0  0  0
 25 27  1  0  0  0  0
 26 27  2  0  0  0  0
 23 25  2  0  0  0  0
 24 26  1  0  0  0  0
 22 23  1  0  0  0  0
 22 24  2  0  0  0  0
 21 22  1  0  0  0  0
  1  3  1  0  0  0  0
  1  7  1  0  0  0  0
  1  2  2  0  0  0  0
 38 39  1  0  0  0  0
 39 47  1  0  0  0  0
 39 40  2  0  0  0  0
  8  9  1  0  0  0  0
  9 17  1  0  0  0  0
  9 10  2  0  0  0  0
 18 19  1  0  0  0  0
 19 37  1  0  0  0  0
 19 20  2  0  0  0  0
 38 41  1  0  0  0  0
  8 11  1  0  0  0  0
 47 48  1  0  0  0  0
 18 21  1  0  0  0  0
 37 38  1  0  0  0  0
  7  8  1  0  0  0  0
 17 18  1  0  0  0  0
 27 36  1  0  0  0  0
 25 34  1  0  0  0  0
 26 35  1  0  0  0  0
 23 32  1  0  0  0  0
 24 33  1  0  0  0  0
  3  4  1  0  0  0  0
  3  5  1  0  0  0  0
  3  6  1  0  0  0  0
 41 44  1  0  0  0  0
 41 45  1  0  0  0  0
 41 46  1  0  0  0  0
 11 14  1  0  0  0  0
 11 15  1  0  0  0  0
 11 16  1  0  0  0  0
 48 50  1  0  0  0  0
 48 51  1  0  0  0  0
 48 52  1  0  0  0  0
 21 30  1  0  0  0  0
 21 31  1  0  0  0  0
 38 43  1  0  0  0  0
  8 13  1  0  0  0  0
 18 29  1  0  0  0  0
 47 49  1  0  0  0  0
  7 12  1  0  0  0  0
 37 42  1  0  0  0  0
 17 28  1  0  0  0  0
M  END
$$$$

  -OEChem-05262214473D

 52 52  0     1  0  0  0  0  0999 V2000
   -1.8248    0.3424    3.9102 C   0  0  0  0  0  0  0  0  0  0  0  0
   -0.8774   -0.2723    3.4345 O   0  0  0  0  0  0  0  0  0  0  0  0
   -2.2566    0.0600    5.3109 C   0  0  0  0  0  0  0  0  0  0  0  0
   -3.0163   -0.7363    5.3643 H   0  0  0  0  0  0  0  0  0  0  0  0
   -1.4254   -0.2876    5.9452 H   0  0  0  0  0  0  0  0  0  0  0  0
   -2.6947    0.9149    5.8505 H   0  0  0  0  0  0  0  0  0  0  0  0
   -2.5745    1.3149    3.2691 N   0  0  0  0  0  0  0  0  0  0  0  0
   -2.3276    1.7409    1.9167 C   0  0  2  0  0  0  0  0  0  0  0  0
   -0.9926    1.1555    1.4755 C   0  0  0  0  0  0  0  0  0  0  0  0
   -0.1206    0.8028    2.2668 O   0  0  0  0  0  0  0  0  0  0  0  0
   -2.3188    3.2577    1.8072 C   0  0  0  0  0  0  0  0  0  0  0  0
   -3.3395    1.7507    3.7809 H   0  0  0  0  0  0  0  0  0  0  0  0
   -3.1317    1.3224    1.3015 H   0  0  0  0  0  0  0  0  0  0  0  0
   -1.5198    3.6949    2.4169 H   0  0  0  0  0  0  0  0  0  0  0  0
   -2.1594    3.5799    0.7729 H   0  0  0  0  0  0  0  0  0  0  0  0
   -3.2690    3.6789    2.1530 H   0  0  0  0  0  0  0  0  0  0  0  0
   -0.8700    1.1124    0.0921 N   0  0  0  0  0  0  0  0  0  0  0  0
    0.3073    0.6116   -0.5716 C   0  0  2  0  0  0  0  0  0  0  0  0
    0.8667    1.7498   -1.4176 C   0  0  0  0  0  0  0  0  0  0  0  0
    1.2687    2.8067   -0.9356 O   0  0  0  0  0  0  0  0  0  0  0  0
    0.0022   -0.6061   -1.4514 C   0  0  0  0  0  0  0  0  0  0  0  0
   -0.4077   -1.8173   -0.6497 C   0  0  0  0  0  0  0  0  0  0  0  0
    0.5635   -2.6168   -0.0468 C   0  0  0  0  0  0  0  0  0  0  0  0
   -1.7584   -2.1371   -0.5115 C   0  0  0  0  0  0  0  0  0  0  0  0
    0.1840   -3.7359    0.6942 C   0  0  0  0  0  0  0  0  0  0  0  0
   -2.1379   -3.2563    0.2295 C   0  0  0  0  0  0  0  0  0  0  0  0
   -1.1667   -4.0557    0.8324 C   0  0  0  0  0  0  0  0  0  0  0  0
   -1.6531    1.4091   -0.4852 H   0  0  0  0  0  0  0  0  0  0  0  0
    1.0279    0.3624    0.2163 H   0  0  0  0  0  0  0  0  0  0  0  0
    0.8724   -0.8529   -2.0746 H   0  0  0  0  0  0  0  0  0  0  0  0
   -0.8034   -0.3746   -2.1607 H   0  0  0  0  0  0  0  0  0  0  0  0
    1.6182   -2.3752   -0.1490 H   0  0  0  0  0  0  0  0  0  0  0  0
   -2.5220   -1.5200   -0.9776 H   0  0  0  0  0  0  0  0  0  0  0  0
    0.9404   -4.3589    1.1626 H   0  0  0  0  0  0  0  0  0  0  0  0
   -3.1895   -3.5056    0.3359 H   0  0  0  0  0  0  0  0  0  0  0  0
   -1.4619   -4.9279    1.4083 H   0  0  0  0  0  0  0  0  0  0  0  0
    0.9083    1.4231   -2.7659 N   0  0  0  0  0  0  0  0  0  0  0  0
    1.4161    2.3152   -3.7833 C   0  0  2  0  0  0  0  0  0  0  0  0
    0.7459    3.6702   -3.5978 C   0  0  0  0  0  0  0  0  0  0  0  0
   -0.3271    3.8137   -3.0154 O   0  0  0  0  0  0  0  0  0  0  0  0
    1.1580    1.7676   -5.1784 C   0  0  0  0  0  0  0  0  0  0  0  0
    0.5647    0.5111   -3.0520 H   0  0  0  0  0  0  0  0  0  0  0  0
    2.4932    2.4130   -3.6092 H   0  0  0  0  0  0  0  0  0  0  0  0
    0.0841    1.6627   -5.3711 H   0  0  0  0  0  0  0  0  0  0  0  0
    1.5685    2.4306   -5.9471 H   0  0  0  0  0  0  0  0  0  0  0  0
    1.6156    0.7799   -5.3001 H   0  0  0  0  0  0  0  0  0  0  0  0
    1.4656    4.6947   -4.1966 N   0  0  0  0  0  0  0  0  0  0  0  0
    1.0304    6.0717   -4.1706 C   0  0  0  0  0  0  0  0  0  0  0  0
    2.3548    4.4870   -4.6415 H   0  0  0  0  0  0  0  0  0  0  0  0
    0.4346    6.2855   -5.0701 H   0  0  0  0  0  0  0  0  0  0  0  0
    0.4165    6.2452   -3.2745 H   0  0  0  0  0  0  0  0  0  0  0  0
    1.9089    6.7333   -4.1470 H   0  0  0  0  0  0  0  0  0  0  0  0
 25 27  1  0  0  0  0
 26 27  2  0  0  0  0
 23 25  2  0  0  0  0
 24 26  1  0  0  0  0
 22 23  1  0  0  0  0
 22 24  2  0  0  0  0
 21 22  1  0  0  0  0
  1  3  1  0  0  0  0
  1  7  1  0  0  0  0
  1  2  2  0  0  0  0
 38 39  1  0  0  0  0
 39 47  1  0  0  0  0
 39 40  2  0  0  0  0
  8  9  1  0  0  0  0
  9 17  1  0  0  0  0
  9 10  2  0  0  0  0
 18 19  1  0  0  0  0
 19 37  1  0  0  0  0
 19 20  2  0  0  0  0
 38 41  1  0  0  0  0
  8 11  1  0  0  0  0
 47 48  1  0  0  0  0
 18 21  1  0  0  0  0
 37 38  1  0  0  0  0
  7  8  1  0  0  0  0
 17 18  1  0  0  0  0
 27 36  1  0  0  0  0
 25 34  1  0  0  0  0
 26 35  1  0  0  0  0
 23 32  1  0  0  0  0
 24 33  1  0  0  0  0
  3  4  1  0  0  0  0
  3  5  1  0  0  0  0
  3  6  1  0  0  0  0
 41 44  1  0  0  0  0
 41 45  1  0  0  0  0
 41 46  1  0  0  0  0
 11 14  1  0  0  0  0
 11 15  1  0  0  0  0
 11 16  1  0  0  0  0
 48 50  1  0  0  0  0
 48 51  1  0  0  0  0
 48 52  1  0  0  0  0
 21 30  1  0  0  0  0
 21 31  1  0  0  0  0
 38 43  1  0  0  0  0
  8 13  1  0  0  0  0
 18 29  1  0  0  0  0
 47 49  1  0  0  0  0
  7 12  1  0  0  0  0
 37 42  1  0  0  0  0
 17 28  1  0  0  0  0
M  END
$$$$

  -OEChem-05262214473D

 52 52  0     1  0  0  0  0  0999 V2000
   -1.8248    0.3424    3.9102 C   0  0  0  0  0  0  0  0  0  0  0  0
   -0.8774   -0.2723    3.4345 O   0  0  0  0  0  0  0  0  0  0  0  0
   -2.2566    0.0600    5.3109 C   0  0  0  0  0  0  0  0  0  0  0  0
   -3.0163   -0.7363    5.3643 H   0  0  0  0  0  0  0  0  0  0  0  0
   -1.4254   -0.2876    5.9452 H   0  0  0  0  0  0  0  0  0  0  0  0
   -2.6947    0.9149    5.8505 H   0  0  0  0  0  0  0  0  0  0  0  0
   -2.5745    1.3149    3.2691 N   0  0  0  0  0  0  0  0  0  0  0  0
   -2.3276    1.7409    1.9167 C   0  0  2  0  0  0  0  0  0  0  0  0
   -0.9926    1.1555    1.4755 C   0  0  0  0  0  0  0  0  0  0  0  0
   -0.1206    0.8028    2.2668 O   0  0  0  0  0  0  0  0  0  0  0  0
   -2.3188    3.2577    1.8072 C   0  0  0  0  0  0  0  0  0  0  0  0
   -3.3395    1.7507    3.7809 H   0  0  0  0  0  0  0  0  0  0  0  0
   -3.1317    1.3224    1.3015 H   0  0  0  0  0  0  0  0  0  0  0  0
   -1.5198    3.6949    2.4169 H   0  0  0  0  0  0  0  0  0  0  0  0
   -2.1594    3.5799    0.7729 H   0  0  0  0  0  0  0  0  0  0  0  0
   -3.2690    3.6789    2.1530 H   0  0  0  0  0  0  0  0  0  0  0  0
   -0.8700    1.1124    0.0921 N   0  0  0  0  0  0  0  0  0  0  0  0
    0.3073    0.6116   -0.5716 C   0  0  2  0  0  0  0  0  0  0  0  0
    0.8667    1.7498   -1.4176 C   0  0  0  0  0  0  0  0  0  0  0  0
    1.5083    2.6842   -0.9420 O   0  0  0  0  0  0  0  0  0  0  0  0
    0.0022   -0.6061   -1.4514 C   0  0  0  0  0  0  0  0  0  0  0  0
   -0.4077   -1.8173   -0.6497 C   0  0  0  0  0  0  0  0  0  0  0  0
    0.5635   -2.6168   -0.0468 C   0  0  0  0  0  0  0  0  0  0  0  0
   -1.7584   -2.1371   -0.5115 C   0  0  0  0  0  0  0  0  0  0  0  0
    0.1840   -3.7359    0.6942 C   0  0  0  0  0  0  0  0  0  0  0  0
   -2.1379   -3.2563    0.2295 C   0  0  0  0  0  0  0  0  0  0  0  0
   -1.1667   -4.0557    0.8324 C   0  0  0  0  0  0  0  0  0  0  0  0
   -1.6531    1.4091   -0.4852 H   0  0  0  0  0  0  0  0  0  0  0  0
    1.0279    0.3624    0.2163 H   0  0  0  0  0  0  0  0  0  0  0  0
    0.8724   -0.8529   -2.0746 H   0  0  0  0  0  0  0  0  0  0  0  0
   -0.8034   -0.3746   -2.1607 H   0  0  0  0  0  0  0  0  0  0  0  0
    1.6182   -2.3752   -0.1490 H   0  0  0  0  0  0  0  0  0  0  0  0
   -2.5220   -1.5200   -0.9776 H   0  0  0  0  0  0  0  0  0  0  0  0
    0.9404   -4.3589    1.1626 H   0  0  0  0  0  0  0  0  0  0  0  0
   -3.1895   -3.5056    0.3359 H   0  0  0  0  0  0  0  0  0  0  0  0
   -1.4619   -4.9279    1.4083 H   0  0  0  0  0  0  0  0  0  0  0  0
    0.6059    1.5695   -2.7689 N   0  0  0  0  0  0  0  0  0  0  0  0
    1.0457    2.4910   -3.7918 C   0  0  2  0  0  0  0  0  0  0  0  0
    0.6371    3.8952   -3.3670 C   0  0  0  0  0  0  0  0  0  0  0  0
   -0.2739    4.1171   -2.5720 O   0  0  0  0  0  0  0  0  0  0  0  0
    0.4515    2.1384   -5.1466 C   0  0  0  0  0  0  0  0  0  0  0  0
    0.0796    0.7486   -3.0532 H   0  0  0  0  0  0  0  0  0  0  0  0
    2.1384    2.4236   -3.8295 H   0  0  0  0  0  0  0  0  0  0  0  0
   -0.6427    2.2003   -5.1282 H   0  0  0  0  0  0  0  0  0  0  0  0
    0.8081    2.8202   -5.9257 H   0  0  0  0  0  0  0  0  0  0  0  0
    0.7218    1.1174   -5.4369 H   0  0  0  0  0  0  0  0  0  0  0  0
    1.3807    4.8730   -4.0129 N   0  0  0  0  0  0  0  0  0  0  0  0
    1.1738    6.2848   -3.7890 C   0  0  0  0  0  0  0  0  0  0  0  0
    2.1290    4.5975   -4.6421 H   0  0  0  0  0  0  0  0  0  0  0  0
    0.4606    6.6735   -4.5308 H   0  0  0  0  0  0  0  0  0  0  0  0
    0.7715    6.4404   -2.7771 H   0  0  0  0  0  0  0  0  0  0  0  0
    2.1320    6.8159   -3.8884 H   0  0  0  0  0  0  0  0  0  0  0  0
 25 27  1  0  0  0  0
 26 27  2  0  0  0  0
 23 25  2  0  0  0  0
 24 26  1  0  0  0  0
 22 23  1  0  0  0  0
 22 24  2  0  0  0  0
 21 22  1  0  0  0  0
  1  3  1  0  0  0  0
  1  7  1  0  0  0  0
  1  2  2  0  0  0  0
 38 39  1  0  0  0  0
 39 47  1  0  0  0  0
 39 40  2  0  0  0  0
  8  9  1  0  0  0  0
  9 17  1  0  0  0  0
  9 10  2  0  0  0  0
 18 19  1  0  0  0  0
 19 37  1  0  0  0  0
 19 20  2  0  0  0  0
 38 41  1  0  0  0  0
  8 11  1  0  0  0  0
 47 48  1  0  0  0  0
 18 21  1  0  0  0  0
 37 38  1  0  0  0  0
  7  8  1  0  0  0  0
 17 18  1  0  0  0  0
 27 36  1  0  0  0  0
 25 34  1  0  0  0  0
 26 35  1  0  0  0  0
 23 32  1  0  0  0  0
 24 33  1  0  0  0  0
  3  4  1  0  0  0  0
  3  5  1  0  0  0  0
  3  6  1  0  0  0  0
 41 44  1  0  0  0  0
 41 45  1  0  0  0  0
 41 46  1  0  0  0  0
 11 14  1  0  0  0  0
 11 15  1  0  0  0  0
 11 16  1  0  0  0  0
 48 50  1  0  0  0  0
 48 51  1  0  0  0  0
 48 52  1  0  0  0  0
 21 30  1  0  0  0  0
 21 31  1  0  0  0  0
 38 43  1  0  0  0  0
  8 13  1  0  0  0  0
 18 29  1  0  0  0  0
 47 49  1  0  0  0  0
  7 12  1  0  0  0  0
 37 42  1  0  0  0  0
 17 28  1  0  0  0  0
M  END
$$$$

  -OEChem-05262214473D

 52 52  0     1  0  0  0  0  0999 V2000
   -1.8248    0.3424    3.9102 C   0  0  0  0  0  0  0  0  0  0  0  0
   -0.8774   -0.2723    3.4345 O   0  0  0  0  0  0  0  0  0  0  0  0
   -2.2566    0.0600    5.3109 C   0  0  0  0  0  0  0  0  0  0  0  0
   -3.0163   -0.7363    5.3643 H   0  0  0  0  0  0  0  0  0  0  0  0
   -1.4254   -0.2876    5.9452 H   0  0  0  0  0  0  0  0  0  0  0  0
   -2.6947    0.9149    5.8505 H   0  0  0  0  0  0  0  0  0  0  0  0
   -2.5745    1.3149    3.2691 N   0  0  0  0  0  0  0  0  0  0  0  0
   -2.3276    1.7409    1.9167 C   0  0  2  0  0  0  0  0  0  0  0  0
   -0.9926    1.1555    1.4755 C   0  0  0  0  0  0  0  0  0  0  0  0
   -0.1206    0.8028    2.2668 O   0  0  0  0  0  0  0  0  0  0  0  0
   -2.3188    3.2577    1.8072 C   0  0  0  0  0  0  0  0  0  0  0  0
   -3.3395    1.7507    3.7809 H   0  0  0  0  0  0  0  0  0  0  0  0
   -3.1317    1.3224    1.3015 H   0  0  0  0  0  0  0  0  0  0  0  0
   -1.5198    3.6949    2.4169 H   0  0  0  0  0  0  0  0  0  0  0  0
   -2.1594    3.5799    0.7729 H   0  0  0  0  0  0  0  0  0  0  0  0
   -3.2690    3.6789    2.1530 H   0  0  0  0  0  0  0  0  0  0  0  0
   -0.8700    1.1124    0.0921 N   0  0  0  0  0  0  0  0  0  0  0  0
    0.3073    0.6116   -0.5716 C   0  0  2  0  0  0  0  0  0  0  0  0
    0.8667    1.7498   -1.4176 C   0  0  0  0  0  0  0  0  0  0  0  0
    1.7209    2.5321   -1.0062 O   0  0  0  0  0  0  0  0  0  0  0  0
    0.0022   -0.6061   -1.4514 C   0  0  0  0  0  0  0  0  0  0  0  0
   -0.4077   -1.8173   -0.6497 C   0  0  0  0  0  0  0  0  0  0  0  0
    0.5635   -2.6168   -0.0468 C   0  0  0  0  0  0  0  0  0  0  0  0
   -1.7584   -2.1371   -0.5115 C   0  0  0  0  0  0  0  0  0  0  0  0
    0.1840   -3.7359    0.6942 C   0  0  0  0  0  0  0  0  0  0  0  0
   -2.1379   -3.2563    0.2295 C   0  0  0  0  0  0  0  0  0  0  0  0
   -1.1667   -4.0557    0.8324 C   0  0  0  0  0  0  0  0  0  0  0  0
   -1.6531    1.4091   -0.4852 H   0  0  0  0  0  0  0  0  0  0  0  0
    1.0279    0.3624    0.2163 H   0  0  0  0  0  0  0  0  0  0  0  0
    0.8724   -0.8529   -2.0746 H   0  0  0  0  0  0  0  0  0  0  0  0
   -0.8034   -0.3746   -2.1607 H   0  0  0  0  0  0  0  0  0  0  0  0
    1.6182   -2.3752   -0.1490 H   0  0  0  0  0  0  0  0  0  0  0  0
   -2.5220   -1.5200   -0.9776 H   0  0  0  0  0  0  0  0  0  0  0  0
    0.9404   -4.3589    1.1626 H   0  0  0  0  0  0  0  0  0  0  0  0
   -3.1895   -3.5056    0.3359 H   0  0  0  0  0  0  0  0  0  0  0  0
   -1.4619   -4.9279    1.4083 H   0  0  0  0  0  0  0  0  0  0  0  0
    0.3343    1.7546   -2.6994 N   0  0  0  0  0  0  0  0  0  0  0  0
    0.7115    2.7147   -3.7117 C   0  0  2  0  0  0  0  0  0  0  0  0
    0.6088    4.1064   -3.1016 C   0  0  0  0  0  0  0  0  0  0  0  0
   -0.0932    4.3605   -2.1250 O   0  0  0  0  0  0  0  0  0  0  0  0
   -0.1715    2.5951   -4.9441 C   0  0  0  0  0  0  0  0  0  0  0  0
   -0.3551    1.0478   -2.9380 H   0  0  0  0  0  0  0  0  0  0  0  0
    1.7546    2.5058   -3.9728 H   0  0  0  0  0  0  0  0  0  0  0  0
   -1.2206    2.8010   -4.7022 H   0  0  0  0  0  0  0  0  0  0  0  0
    0.1337    3.3036   -5.7212 H   0  0  0  0  0  0  0  0  0  0  0  0
   -0.1195    1.5848   -5.3643 H   0  0  0  0  0  0  0  0  0  0  0  0
    1.3597    5.0400   -3.8021 N   0  0  0  0  0  0  0  0  0  0  0  0
    1.4166    6.4338   -3.4280 C   0  0  0  0  0  0  0  0  0  0  0  0
    1.9266    4.7368   -4.5885 H   0  0  0  0  0  0  0  0  0  0  0  0
    0.6458    6.9934   -3.9781 H   0  0  0  0  0  0  0  0  0  0  0  0
    1.2385    6.5308   -2.3468 H   0  0  0  0  0  0  0  0  0  0  0  0
    2.4093    6.8391   -3.6738 H   0  0  0  0  0  0  0  0  0  0  0  0
 25 27  1  0  0  0  0
 26 27  2  0  0  0  0
 23 25  2  0  0  0  0
 24 26  1  0  0  0  0
 22 23  1  0  0  0  0
 22 24  2  0  0  0  0
 21 22  1  0  0  0  0
  1  3  1  0  0  0  0
  1  7  1  0  0  0  0
  1  2  2  0  0  0  0
 38 39  1  0  0  0  0
 39 47  1  0  0  0  0
 39 40  2  0  0  0  0
  8  9  1  0  0  0  0
  9 17  1  0  0  0  0
  9 10  2  0  0  0  0
 18 19  1  0  0  0  0
 19 37  1  0  0  0  0
 19 20  2  0  0  0  0
 38 41  1  0  0  0  0
  8 11  1  0  0  0  0
 47 48  1  0  0  0  0
 18 21  1  0  0  0  0
 37 38  1  0  0  0  0
  7  8  1  0  0  0  0
 17 18  1  0  0  0  0
 27 36  1  0  0  0  0
 25 34  1  0  0  0  0
 26 35  1  0  0  0  0
 23 32  1  0  0  0  0
 24 33  1  0  0  0  0
  3  4  1  0  0  0  0
  3  5  1  0  0  0  0
  3  6  1  0  0  0  0
 41 44  1  0  0  0  0
 41 45  1  0  0  0  0
 41 46  1  0  0  0  0
 11 14  1  0  0  0  0
 11 15  1  0  0  0  0
 11 16  1  0  0  0  0
 48 50  1  0  0  0  0
 48 51  1  0  0  0  0
 48 52  1  0  0  0  0
 21 30  1  0  0  0  0
 21 31  1  0  0  0  0
 38 43  1  0  0  0  0
  8 13  1  0  0  0  0
 18 29  1  0  0  0  0
 47 49  1  0  0  0  0
  7 12  1  0  0  0  0
 37 42  1  0  0  0  0
 17 28  1  0  0  0  0
M  END
$$$$

  -OEChem-05262214473D

 52 52  0     1  0  0  0  0  0999 V2000
   -1.8248    0.3424    3.9102 C   0  0  0  0  0  0  0  0  0  0  0  0
   -0.8774   -0.2723    3.4345 O   0  0  0  0  0  0  0  0  0  0  0  0
   -2.2566    0.0600    5.3109 C   0  0  0  0  0  0  0  0  0  0  0  0
   -3.0163   -0.7363    5.3643 H   0  0  0  0  0  0  0  0  0  0  0  0
   -1.4254   -0.2876    5.9452 H   0  0  0  0  0  0  0  0  0  0  0  0
   -2.6947    0.9149    5.8505 H   0  0  0  0  0  0  0  0  0  0  0  0
   -2.5745    1.3149    3.2691 N   0  0  0  0  0  0  0  0  0  0  0  0
   -2.3276    1.7409    1.9167 C   0  0  2  0  0  0  0  0  0  0  0  0
   -0.9926    1.1555    1.4755 C   0  0  0  0  0  0  0  0  0  0  0  0
   -0.1206    0.8028    2.2668 O   0  0  0  0  0  0  0  0  0  0  0  0
   -2.3188    3.2577    1.8072 C   0  0  0  0  0  0  0  0  0  0  0  0
   -3.3395    1.7507    3.7809 H   0  0  0  0  0  0  0  0  0  0  0  0
   -3.1317    1.3224    1.3015 H   0  0  0  0  0  0  0  0  0  0  0  0
   -1.5198    3.6949    2.4169 H   0  0  0  0  0  0  0  0  0  0  0  0
   -2.1594    3.5799    0.7729 H   0  0  0  0  0  0  0  0  0  0  0  0
   -3.2690    3.6789    2.1530 H   0  0  0  0  0  0  0  0  0  0  0  0
   -0.8700    1.1124    0.0921 N   0  0  0  0  0  0  0  0  0  0  0  0
    0.3073    0.6116   -0.5716 C   0  0  2  0  0  0  0  0  0  0  0  0
    0.8667    1.7498   -1.4176 C   0  0  0  0  0  0  0  0  0  0  0  0
    1.8920    2.3607   -1.1236 O   0  0  0  0  0  0  0  0  0  0  0  0
    0.0022   -0.6061   -1.4514 C   0  0  0  0  0  0  0  0  0  0  0  0
   -0.4077   -1.8173   -0.6497 C   0  0  0  0  0  0  0  0  0  0  0  0
    0.5635   -2.6168   -0.0468 C   0  0  0  0  0  0  0  0  0  0  0  0
   -1.7584   -2.1371   -0.5115 C   0  0  0  0  0  0  0  0  0  0  0  0
    0.1840   -3.7359    0.6942 C   0  0  0  0  0  0  0  0  0  0  0  0
   -2.1379   -3.2563    0.2295 C   0  0  0  0  0  0  0  0  0  0  0  0
   -1.1667   -4.0557    0.8324 C   0  0  0  0  0  0  0  0  0  0  0  0
   -1.6531    1.4091   -0.4852 H   0  0  0  0  0  0  0  0  0  0  0  0
    1.0279    0.3624    0.2163 H   0  0  0  0  0  0  0  0  0  0  0  0
    0.8724   -0.8529   -2.0746 H   0  0  0  0  0  0  0  0  0  0  0  0
   -0.8034   -0.3746   -2.1607 H   0  0  0  0  0  0  0  0  0  0  0  0
    1.6182   -2.3752   -0.1490 H   0  0  0  0  0  0  0  0  0  0  0  0
   -2.5220   -1.5200   -0.9776 H   0  0  0  0  0  0  0  0  0  0  0  0
    0.9404   -4.3589    1.1626 H   0  0  0  0  0  0  0  0  0  0  0  0
   -3.1895   -3.5056    0.3359 H   0  0  0  0  0  0  0  0  0  0  0  0
   -1.4619   -4.9279    1.4083 H   0  0  0  0  0  0  0  0  0  0  0  0
    0.1119    1.9659   -2.5622 N   0  0  0  0  0  0  0  0  0  0  0  0
    0.4362    2.9713   -3.5486 C   0  0  2  0  0  0  0  0  0  0  0  0
    0.6632    4.2891   -2.8197 C   0  0  0  0  0  0  0  0  0  0  0  0
    0.2027    4.5272   -1.7052 O   0  0  0  0  0  0  0  0  0  0  0  0
   -0.6686    3.1064   -4.5848 C   0  0  0  0  0  0  0  0  0  0  0  0
   -0.7097    1.3883   -2.7143 H   0  0  0  0  0  0  0  0  0  0  0  0
    1.3681    2.6538   -4.0291 H   0  0  0  0  0  0  0  0  0  0  0  0
   -1.6102    3.4237   -4.1219 H   0  0  0  0  0  0  0  0  0  0  0  0
   -0.4088    3.8481   -5.3473 H   0  0  0  0  0  0  0  0  0  0  0  0
   -0.8509    2.1503   -5.0871 H   0  0  0  0  0  0  0  0  0  0  0  0
    1.4042    5.1842   -3.5785 N   0  0  0  0  0  0  0  0  0  0  0  0
    1.7424    6.5086   -3.1120 C   0  0  0  0  0  0  0  0  0  0  0  0
    1.7615    4.8953   -4.4844 H   0  0  0  0  0  0  0  0  0  0  0  0
    0.9773    7.2233   -3.4496 H   0  0  0  0  0  0  0  0  0  0  0  0
    1.7857    6.5101   -2.0128 H   0  0  0  0  0  0  0  0  0  0  0  0
    2.7219    6.8013   -3.5180 H   0  0  0  0  0  0  0  0  0  0  0  0
 25 27  1  0  0  0  0
 26 27  2  0  0  0  0
 23 25  2  0  0  0  0
 24 26  1  0  0  0  0
 22 23  1  0  0  0  0
 22 24  2  0  0  0  0
 21 22  1  0  0  0  0
  1  3  1  0  0  0  0
  1  7  1  0  0  0  0
  1  2  2  0  0  0  0
 38 39  1  0  0  0  0
 39 47  1  0  0  0  0
 39 40  2  0  0  0  0
  8  9  1  0  0  0  0
  9 17  1  0  0  0  0
  9 10  2  0  0  0  0
 18 19  1  0  0  0  0
 19 37  1  0  0  0  0
 19 20  2  0  0  0  0
 38 41  1  0  0  0  0
  8 11  1  0  0  0  0
 47 48  1  0  0  0  0
 18 21  1  0  0  0  0
 37 38  1  0  0  0  0
  7  8  1  0  0  0  0
 17 18  1  0  0  0  0
 27 36  1  0  0  0  0
 25 34  1  0  0  0  0
 26 35  1  0  0  0  0
 23 32  1  0  0  0  0
 24 33  1  0  0  0  0
  3  4  1  0  0  0  0
  3  5  1  0  0  0  0
  3  6  1  0  0  0  0
 41 44  1  0  0  0  0
 41 45  1  0  0  0  0
 41 46  1  0  0  0  0
 11 14  1  0  0  0  0
 11 15  1  0  0  0  0
 11 16  1  0  0  0  0
 48 50  1  0  0  0  0
 48 51  1  0  0  0  0
 48 52  1  0  0  0  0
 21 30  1  0  0  0  0
 21 31  1  0  0  0  0
 38 43  1  0  0  0  0
  8 13  1  0  0  0  0
 18 29  1  0  0  0  0
 47 49  1  0  0  0  0
  7 12  1  0  0  0  0
 37 42  1  0  0  0  0
 17 28  1  0  0  0  0
M  END
$$$$

  -OEChem-05262214473D

 52 52  0     1  0  0  0  0  0999 V2000
   -1.8248    0.3424    3.9102 C   0  0  0  0  0  0  0  0  0  0  0  0
   -0.8774   -0.2723    3.4345 O   0  0  0  0  0  0  0  0  0  0  0  0
   -2.2566    0.0600    5.3109 C   0  0  0  0  0  0  0  0  0  0  0  0
   -3.0163   -0.7363    5.3643 H   0  0  0  0  0  0  0  0  0  0  0  0
   -1.4254   -0.2876    5.9452 H   0  0  0  0  0  0  0  0  0  0  0  0
   -2.6947    0.9149    5.8505 H   0  0  0  0  0  0  0  0  0  0  0  0
   -2.5745    1.3149    3.2691 N   0  0  0  0  0  0  0  0  0  0  0  0
   -2.3276    1.7409    1.9167 C   0  0  2  0  0  0  0  0  0  0  0  0
   -0.9926    1.1555    1.4755 C   0  0  0  0  0  0  0  0  0  0  0  0
   -0.1206    0.8028    2.2668 O   0  0  0  0  0  0  0  0  0  0  0  0
   -2.3188    3.2577    1.8072 C   0  0  0  0  0  0  0  0  0  0  0  0
   -3.3395    1.7507    3.7809 H   0  0  0  0  0  0  0  0  0  0  0  0
   -3.1317    1.3224    1.3015 H   0  0  0  0  0  0  0  0  0  0  0  0
   -1.5198    3.6949    2.4169 H   0  0  0  0  0  0  0  0  0  0  0  0
   -2.1594    3.5799    0.7729 H   0  0  0  0  0  0  0  0  0  0  0  0
   -3.2690    3.6789    2.1530 H   0  0  0  0  0  0  0  0  0  0  0  0
   -0.8700    1.1124    0.0921 N   0  0  0  0  0  0  0  0  0  0  0  0
    0.3073    0.6116   -0.5716 C   0  0  2  0  0  0  0  0  0  0  0  0
    0.8667    1.7498   -1.4176 C   0  0  0  0  0  0  0  0  0  0  0  0
    2.0100    2.1817   -1.2864 O   0  0  0  0  0  0  0  0  0  0  0  0
    0.0022   -0.6061   -1.4514 C   0  0  0  0  0  0  0  0  0  0  0  0
   -0.4077   -1.8173   -0.6497 C   0  0  0  0  0  0  0  0  0  0  0  0
    0.5635   -2.6168   -0.0468 C   0  0  0  0  0  0  0  0  0  0  0  0
   -1.7584   -2.1371   -0.5115 C   0  0  0  0  0  0  0  0  0  0  0  0
    0.1840   -3.7359    0.6942 C   0  0  0  0  0  0  0  0  0  0  0  0
   -2.1379   -3.2563    0.2295 C   0  0  0  0  0  0  0  0  0  0  0  0
   -1.1667   -4.0557    0.8324 C   0  0  0  0  0  0  0  0  0  0  0  0
   -1.6531    1.4091   -0.4852 H   0  0  0  0  0  0  0  0  0  0  0  0
    1.0279    0.3624    0.2163 H   0  0  0  0  0  0  0  0  0  0  0  0
    0.8724   -0.8529   -2.0746 H   0  0  0  0  0  0  0  0  0  0  0  0
   -0.8034   -0.3746   -2.1607 H   0  0  0  0  0  0  0  0  0  0  0  0
    1.6182   -2.3752   -0.1490 H   0  0  0  0  0  0  0  0  0  0  0  0
   -2.5220   -1.5200   -0.9776 H   0  0  0  0  0  0  0  0  0  0  0  0
    0.9404   -4.3589    1.1626 H   0  0  0  0  0  0  0  0  0  0  0  0
   -3.1895   -3.5056    0.3359 H   0  0  0  0  0  0  0  0  0  0  0  0
   -1.4619   -4.9279    1.4083 H   0  0  0  0  0  0  0  0  0  0  0  0
   -0.0460    2.1888   -2.3667 N   0  0  0  0  0  0  0  0  0  0  0  0
    0.2388    3.2431   -3.3134 C   0  0  2  0  0  0  0  0  0  0  0  0
    0.7964    4.4311   -2.5407 C   0  0  0  0  0  0  0  0  0  0  0  0
    0.5935    4.6059   -1.3409 O   0  0  0  0  0  0  0  0  0  0  0  0
   -1.0059    3.6376   -4.0931 C   0  0  0  0  0  0  0  0  0  0  0  0
   -0.9601    1.7469   -2.3974 H   0  0  0  0  0  0  0  0  0  0  0  0
    1.0050    2.8577   -3.9948 H   0  0  0  0  0  0  0  0  0  0  0  0
   -1.7849    4.0261   -3.4270 H   0  0  0  0  0  0  0  0  0  0  0  0
   -0.7823    4.4164   -4.8297 H   0  0  0  0  0  0  0  0  0  0  0  0
   -1.4226    2.7752   -4.6244 H   0  0  0  0  0  0  0  0  0  0  0  0
    1.5111    5.2960   -3.3575 N   0  0  0  0  0  0  0  0  0  0  0  0
    2.1288    6.5041   -2.8626 C   0  0  0  0  0  0  0  0  0  0  0  0
    1.6449    5.0622   -4.3369 H   0  0  0  0  0  0  0  0  0  0  0  0
    1.4328    7.3476   -2.9813 H   0  0  0  0  0  0  0  0  0  0  0  0
    2.3759    6.3798   -1.7979 H   0  0  0  0  0  0  0  0  0  0  0  0
    3.0486    6.7051   -3.4314 H   0  0  0  0  0  0  0  0  0  0  0  0
 25 27  1  0  0  0  0
 26 27  2  0  0  0  0
 23 25  2  0  0  0  0
 24 26  1  0  0  0  0
 22 23  1  0  0  0  0
 22 24  2  0  0  0  0
 21 22  1  0  0  0  0
  1  3  1  0  0  0  0
  1  7  1  0  0  0  0
  1  2  2  0  0  0  0
 38 39  1  0  0  0  0
 39 47  1  0  0  0  0
 39 40  2  0  0  0  0
  8  9  1  0  0  0  0
  9 17  1  0  0  0  0
  9 10  2  0  0  0  0
 18 19  1  0  0  0  0
 19 37  1  0  0  0  0
 19 20  2  0  0  0  0
 38 41  1  0  0  0  0
  8 11  1  0  0  0  0
 47 48  1  0  0  0  0
 18 21  1  0  0  0  0
 37 38  1  0  0  0  0
  7  8  1  0  0  0  0
 17 18  1  0  0  0  0
 27 36  1  0  0  0  0
 25 34  1  0  0  0  0
 26 35  1  0  0  0  0
 23 32  1  0  0  0  0
 24 33  1  0  0  0  0
  3  4  1  0  0  0  0
  3  5  1  0  0  0  0
  3  6  1  0  0  0  0
 41 44  1  0  0  0  0
 41 45  1  0  0  0  0
 41 46  1  0  0  0  0
 11 14  1  0  0  0  0
 11 15  1  0  0  0  0
 11 16  1  0  0  0  0
 48 50  1  0  0  0  0
 48 51  1  0  0  0  0
 48 52  1  0  0  0  0
 21 30  1  0  0  0  0
 21 31  1  0  0  0  0
 38 43  1  0  0  0  0
  8 13  1  0  0  0  0
 18 29  1  0  0  0  0
 47 49  1  0  0  0  0
  7 12  1  0  0  0  0
 37 42  1  0  0  0  0
 17 28  1  0  0  0  0
M  END
$$$$

  -OEChem-05262214473D

 52 52  0     1  0  0  0  0  0999 V2000
   -1.8248    0.3424    3.9102 C   0  0  0  0  0  0  0  0  0  0  0  0
   -0.8774   -0.2723    3.4345 O   0  0  0  0  0  0  0  0  0  0  0  0
   -2.2566    0.0600    5.3109 C   0  0  0  0  0  0  0  0  0  0  0  0
   -3.0163   -0.7363    5.3643 H   0  0  0  0  0  0  0  0  0  0  0  0
   -1.4254   -0.2876    5.9452 H   0  0  0  0  0  0  0  0  0  0  0  0
   -2.6947    0.9149    5.8505 H   0  0  0  0  0  0  0  0  0  0  0  0
   -2.5745    1.3149    3.2691 N   0  0  0  0  0  0  0  0  0  0  0  0
   -2.3276    1.7409    1.9167 C   0  0  2  0  0  0  0  0  0  0  0  0
   -0.9926    1.1555    1.4755 C   0  0  0  0  0  0  0  0  0  0  0  0
   -0.1206    0.8028    2.2668 O   0  0  0  0  0  0  0  0  0  0  0  0
   -2.3188    3.2577    1.8072 C   0  0  0  0  0  0  0  0  0  0  0  0
   -3.3395    1.7507    3.7809 H   0  0  0  0  0  0  0  0  0  0  0  0
   -3.1317    1.3224    1.3015 H   0  0  0  0  0  0  0  0  0  0  0  0
   -1.5198    3.6949    2.4169 H   0  0  0  0  0  0  0  0  0  0  0  0
   -2.1594    3.5799    0.7729 H   0  0  0  0  0  0  0  0  0  0  0  0
   -3.2690    3.6789    2.1530 H   0  0  0  0  0  0  0  0  0  0  0  0
   -0.8700    1.1124    0.0921 N   0  0  0  0  0  0  0  0  0  0  0  0
    0.3073    0.6116   -0.5716 C   0  0  2  0  0  0  0  0  0  0  0  0
    0.8667    1.7498   -1.4176 C   0  0  0  0  0  0  0  0  0  0  0  0
    2.0668    2.0073   -1.4835 O   0  0  0  0  0  0  0  0  0  0  0  0
    0.0022   -0.6061   -1.4514 C   0  0  0  0  0  0  0  0  0  0  0  0
   -0.4077   -1.8173   -0.6497 C   0  0  0  0  0  0  0  0  0  0  0  0
    0.5635   -2.6168   -0.0468 C   0  0  0  0  0  0  0  0  0  0  0  0
   -1.7584   -2.1371   -0.5115 C   0  0  0  0  0  0  0  0  0  0  0  0
    0.1840   -3.7359    0.6942 C   0  0  0  0  0  0  0  0  0  0  0  0
   -2.1379   -3.2563    0.2295 C   0  0  0  0  0  0  0  0  0  0  0  0
   -1.1667   -4.0557    0.8324 C   0  0  0  0  0  0  0  0  0  0  0  0
   -1.6531    1.4091   -0.4852 H   0  0  0  0  0  0  0  0  0  0  0  0
    1.0279    0.3624    0.2163 H   0  0  0  0  0  0  0  0  0  0  0  0
    0.8724   -0.8529   -2.0746 H   0  0  0  0  0  0  0  0  0  0  0  0
   -0.8034   -0.3746   -2.1607 H   0  0  0  0  0  0  0  0  0  0  0  0
    1.6182   -2.3752   -0.1490 H   0  0  0  0  0  0  0  0  0  0  0  0
   -2.5220   -1.5200   -0.9776 H   0  0  0  0  0  0  0  0  0  0  0  0
    0.9404   -4.3589    1.1626 H   0  0  0  0  0  0  0  0  0  0  0  0
   -3.1895   -3.5056    0.3359 H   0  0  0  0  0  0  0  0  0  0  0  0
   -1.4619   -4.9279    1.4083 H   0  0  0  0  0  0  0  0  0  0  0  0
   -0.1287    2.4083   -2.1261 N   0  0  0  0  0  0  0  0  0  0  0  0
    0.1325    3.5117   -3.0223 C   0  0  2  0  0  0  0  0  0  0  0  0
    0.9994    4.5226   -2.2833 C   0  0  0  0  0  0  0  0  0  0  0  0
    1.0527    4.5911   -1.0571 O   0  0  0  0  0  0  0  0  0  0  0  0
   -1.1603    4.1525   -3.5026 C   0  0  0  0  0  0  0  0  0  0  0  0
   -1.0892    2.0992   -2.0089 H   0  0  0  0  0  0  0  0  0  0  0  0
    0.6903    3.1036   -3.8722 H   0  0  0  0  0  0  0  0  0  0  0  0
   -1.7329    4.5671   -2.6649 H   0  0  0  0  0  0  0  0  0  0  0  0
   -0.9615    4.9698   -4.2036 H   0  0  0  0  0  0  0  0  0  0  0  0
   -1.7957    3.4169   -4.0077 H   0  0  0  0  0  0  0  0  0  0  0  0
    1.6732    5.3676   -3.1541 N   0  0  0  0  0  0  0  0  0  0  0  0
    2.5496    6.4205   -2.6968 C   0  0  0  0  0  0  0  0  0  0  0  0
    1.5848    5.2262   -4.1561 H   0  0  0  0  0  0  0  0  0  0  0  0
    1.9810    7.3577   -2.6052 H   0  0  0  0  0  0  0  0  0  0  0  0
    2.9687    6.1488   -1.7167 H   0  0  0  0  0  0  0  0  0  0  0  0
    3.3671    6.5570   -3.4201 H   0  0  0  0  0  0  0  0  0  0  0  0
 25 27  1  0  0  0  0
 26 27  2  0  0  0  0
 23 25  2  0  0  0  0
 24 26  1  0  0  0  0
 22 23  1  0  0  0  0
 22 24  2  0  0  0  0
 21 22  1  0  0  0  0
  1  3  1  0  0  0  0
  1  7  1  0  0  0  0
  1  2  2  0  0  0  0
 38 39  1  0  0  0  0
 39 47  1  0  0  0  0
 39 40  2  0  0  0  0
  8  9  1  0  0  0  0
  9 17  1  0  0  0  0
  9 10  2  0  0  0  0
 18 19  1  0  0  0  0
 19 37  1  0  0  0  0
 19 20  2  0  0  0  0
 38 41  1  0  0  0  0
  8 11  1  0  0  0  0
 47 48  1  0  0  0  0
 18 21  1  0  0  0  0
 37 38  1  0  0  0  0
  7  8  1  0  0  0  0
 17 18  1  0  0  0  0
 27 36  1  0  0  0  0
 25 34  1  0  0  0  0
 26 35  1  0  0  0  0
 23 32  1  0  0  0  0
 24 33  1  0  0  0  0
  3  4  1  0  0  0  0
  3  5  1  0  0  0  0
  3  6  1  0  0  0  0
 41 44  1  0  0  0  0
 41 45  1  0  0  0  0
 41 46  1  0  0  0  0
 11 14  1  0  0  0  0
 11 15  1  0  0  0  0
 11 16  1  0  0  0  0
 48 50  1  0  0  0  0
 48 51  1  0  0  0  0
 48 52  1  0  0  0  0
 21 30  1  0  0  0  0
 21 31  1  0  0  0  0
 38 43  1  0  0  0  0
  8 13  1  0  0  0  0
 18 29  1  0  0  0  0
 47 49  1  0  0  0  0
  7 12  1  0  0  0  0
 37 42  1  0  0  0  0
 17 28  1  0  0  0  0
M  END
$$$$

  -OEChem-05262214473D

 52 52  0     1  0  0  0  0  0999 V2000
   -1.8248    0.3424    3.9102 C   0  0  0  0  0  0  0  0  0  0  0  0
   -0.8774   -0.2723    3.4345 O   0  0  0  0  0  0  0  0  0  0  0  0
   -2.2566    0.0600    5.3109 C   0  0  0  0  0  0  0  0  0  0  0  0
   -3.0163   -0.7363    5.3643 H   0  0  0  0  0  0  0  0  0  0  0  0
   -1.4254   -0.2876    5.9452 H   0  0  0  0  0  0  0  0  0  0  0  0
   -2.6947    0.9149    5.8505 H   0  0  0  0  0  0  0  0  0  0  0  0
   -2.5745    1.3149    3.2691 N   0  0  0  0  0  0  0  0  0  0  0  0
   -2.3276    1.7409    1.9167 C   0  0  2  0  0  0  0  0  0  0  0  0
   -0.9926    1.1555    1.4755 C   0  0  0  0  0  0  0  0  0  0  0  0
   -0.1206    0.8028    2.2668 O   0  0  0  0  0  0  0  0  0  0  0  0
   -2.3188    3.2577    1.8072 C   0  0  0  0  0  0  0  0  0  0  0  0
   -3.3395    1.7507    3.7809 H   0  0  0  0  0  0  0  0  0  0  0  0
   -3.1317    1.3224    1.3015 H   0  0  0  0  0  0  0  0  0  0  0  0
   -1.5198    3.6949    2.4169 H   0  0  0  0  0  0  0  0  0  0  0  0
   -2.1594    3.5799    0.7729 H   0  0  0  0  0  0  0  0  0  0  0  0
   -3.2690    3.6789    2.1530 H   0  0  0  0  0  0  0  0  0  0  0  0
   -0.8700    1.1124    0.0921 N   0  0  0  0  0  0  0  0  0  0  0  0
    0.3073    0.6116   -0.5716 C   0  0  2  0  0  0  0  0  0  0  0  0
    0.8667    1.7498   -1.4176 C   0  0  0  0  0  0  0  0  0  0  0  0
    2.0585    1.8494   -1.7013 O   0  0  0  0  0  0  0  0  0  0  0  0
    0.0022   -0.6061   -1.4514 C   0  0  0  0  0  0  0  0  0  0  0  0
   -0.4077   -1.8173   -0.6497 C   0  0  0  0  0  0  0  0  0  0  0  0
    0.5635   -2.6168   -0.0468 C   0  0  0  0  0  0  0  0  0  0  0  0
   -1.7584   -2.1371   -0.5115 C   0  0  0  0  0  0  0  0  0  0  0  0
    0.1840   -3.7359    0.6942 C   0  0  0  0  0  0  0  0  0  0  0  0
   -2.1379   -3.2563    0.2295 C   0  0  0  0  0  0  0  0  0  0  0  0
   -1.1667   -4.0557    0.8324 C   0  0  0  0  0  0  0  0  0  0  0  0
   -1.6531    1.4091   -0.4852 H   0  0  0  0  0  0  0  0  0  0  0  0
    1.0279    0.3624    0.2163 H   0  0  0  0  0  0  0  0  0  0  0  0
    0.8724   -0.8529   -2.0746 H   0  0  0  0  0  0  0  0  0  0  0  0
   -0.8034   -0.3746   -2.1607 H   0  0  0  0  0  0  0  0  0  0  0  0
    1.6182   -2.3752   -0.1490 H   0  0  0  0  0  0  0  0  0  0  0  0
   -2.5220   -1.5200   -0.9776 H   0  0  0  0  0  0  0  0  0  0  0  0
    0.9404   -4.3589    1.1626 H   0  0  0  0  0  0  0  0  0  0  0  0
   -3.1895   -3.5056    0.3359 H   0  0  0  0  0  0  0  0  0  0  0  0
   -1.4619   -4.9279    1.4083 H   0  0  0  0  0  0  0  0  0  0  0  0
   -0.1307    2.6094   -1.8569 N   0  0  0  0  0  0  0  0  0  0  0  0
    0.1247    3.7588   -2.6950 C   0  0  2  0  0  0  0  0  0  0  0  0
    1.2583    4.5574   -2.0653 C   0  0  0  0  0  0  0  0  0  0  0  0
    1.5490    4.4840   -0.8732 O   0  0  0  0  0  0  0  0  0  0  0  0
   -1.1215    4.6159   -2.8534 C   0  0  0  0  0  0  0  0  0  0  0  0
   -1.0882    2.4211   -1.5752 H   0  0  0  0  0  0  0  0  0  0  0  0
    0.4453    3.3746   -3.6696 H   0  0  0  0  0  0  0  0  0  0  0  0
   -1.4577    5.0097   -1.8873 H   0  0  0  0  0  0  0  0  0  0  0  0
   -0.9341    5.4707   -3.5116 H   0  0  0  0  0  0  0  0  0  0  0  0
   -1.9447    4.0319   -3.2789 H   0  0  0  0  0  0  0  0  0  0  0  0
    1.8793    5.3941   -2.9821 N   0  0  0  0  0  0  0  0  0  0  0  0
    2.9761    6.2636   -2.6259 C   0  0  0  0  0  0  0  0  0  0  0  0
    1.5852    5.3760   -3.9542 H   0  0  0  0  0  0  0  0  0  0  0  0
    2.5847    7.2530   -2.3469 H   0  0  0  0  0  0  0  0  0  0  0  0
    3.5239    5.8328   -1.7748 H   0  0  0  0  0  0  0  0  0  0  0  0
    3.6556    6.3671   -3.4847 H   0  0  0  0  0  0  0  0  0  0  0  0
 25 27  1  0  0  0  0
 26 27  2  0  0  0  0
 23 25  2  0  0  0  0
 24 26  1  0  0  0  0
 22 23  1  0  0  0  0
 22 24  2  0  0  0  0
 21 22  1  0  0  0  0
  1  3  1  0  0  0  0
  1  7  1  0  0  0  0
  1  2  2  0  0  0  0
 38 39  1  0  0  0  0
 39 47  1  0  0  0  0
 39 40  2  0  0  0  0
  8  9  1  0  0  0  0
  9 17  1  0  0  0  0
  9 10  2  0  0  0  0
 18 19  1  0  0  0  0
 19 37  1  0  0  0  0
 19 20  2  0  0  0  0
 38 41  1  0  0  0  0
  8 11  1  0  0  0  0
 47 48  1  0  0  0  0
 18 21  1  0  0  0  0
 37 38  1  0  0  0  0
  7  8  1  0  0  0  0
 17 18  1  0  0  0  0
 27 36  1  0  0  0  0
 25 34  1  0  0  0  0
 26 35  1  0  0  0  0
 23 32  1  0  0  0  0
 24 33  1  0  0  0  0
  3  4  1  0  0  0  0
  3  5  1  0  0  0  0
  3  6  1  0  0  0  0
 41 44  1  0  0  0  0
 41 45  1  0  0  0  0
 41 46  1  0  0  0  0
 11 14  1  0  0  0  0
 11 15  1  0  0  0  0
 11 16  1  0  0  0  0
 48 50  1  0  0  0  0
 48 51  1  0  0  0  0
 48 52  1  0  0  0  0
 21 30  1  0  0  0  0
 21 31  1  0  0  0  0
 38 43  1  0  0  0  0
  8 13  1  0  0  0  0
 18 29  1  0  0  0  0
 47 49  1  0  0  0  0
  7 12  1  0  0  0  0
 37 42  1  0  0  0  0
 17 28  1  0  0  0  0
M  END
$$$$

  -OEChem-05262214473D

 52 52  0     1  0  0  0  0  0999 V2000
   -1.8248    0.3424    3.9102 C   0  0  0  0  0  0  0  0  0  0  0  0
   -0.8774   -0.2723    3.4345 O   0  0  0  0  0  0  0  0  0  0  0  0
   -2.2566    0.0600    5.3109 C   0  0  0  0  0  0  0  0  0  0  0  0
   -3.0163   -0.7363    5.3643 H   0  0  0  0  0  0  0  0  0  0  0  0
   -1.4254   -0.2876    5.9452 H   0  0  0  0  0  0  0  0  0  0  0  0
   -2.6947    0.9149    5.8505 H   0  0  0  0  0  0  0  0  0  0  0  0
   -2.5745    1.3149    3.2691 N   0  0  0  0  0  0  0  0  0  0  0  0
   -2.3276    1.7409    1.9167 C   0  0  2  0  0  0  0  0  0  0  0  0
   -0.9926    1.1555    1.4755 C   0  0  0  0  0  0  0  0  0  0  0  0
   -0.1206    0.8028    2.2668 O   0  0  0  0  0  0  0  0  0  0  0  0
   -2.3188    3.2577    1.8072 C   0  0  0  0  0  0  0  0  0  0  0  0
   -3.3395    1.7507    3.7809 H   0  0  0  0  0  0  0  0  0  0  0  0
   -3.1317    1.3224    1.3015 H   0  0  0  0  0  0  0  0  0  0  0  0
   -1.5198    3.6949    2.4169 H   0  0  0  0  0  0  0  0  0  0  0  0
   -2.1594    3.5799    0.7729 H   0  0  0  0  0  0  0  0  0  0  0  0
   -3.2690    3.6789    2.1530 H   0  0  0  0  0  0  0  0  0  0  0  0
   -0.8700    1.1124    0.0921 N   0  0  0  0  0  0  0  0  0  0  0  0
    0.3073    0.6116   -0.5716 C   0  0  2  0  0  0  0  0  0  0  0  0
    0.8667    1.7498   -1.4176 C   0  0  0  0  0  0  0  0  0  0  0  0
    1.9857    1.7188   -1.9252 O   0  0  0  0  0  0  0  0  0  0  0  0
    0.0022   -0.6061   -1.4514 C   0  0  0  0  0  0  0  0  0  0  0  0
   -0.4077   -1.8173   -0.6497 C   0  0  0  0  0  0  0  0  0  0  0  0
    0.5635   -2.6168   -0.0468 C   0  0  0  0  0  0  0  0  0  0  0  0
   -1.7584   -2.1371   -0.5115 C   0  0  0  0  0  0  0  0  0  0  0  0
    0.1840   -3.7359    0.6942 C   0  0  0  0  0  0  0  0  0  0  0  0
   -2.1379   -3.2563    0.2295 C   0  0  0  0  0  0  0  0  0  0  0  0
   -1.1667   -4.0557    0.8324 C   0  0  0  0  0  0  0  0  0  0  0  0
   -1.6531    1.4091   -0.4852 H   0  0  0  0  0  0  0  0  0  0  0  0
    1.0279    0.3624    0.2163 H   0  0  0  0  0  0  0  0  0  0  0  0
    0.8724   -0.8529   -2.0746 H   0  0  0  0  0  0  0  0  0  0  0  0
   -0.8034   -0.3746   -2.1607 H   0  0  0  0  0  0  0  0  0  0  0  0
    1.6182   -2.3752   -0.1490 H   0  0  0  0  0  0  0  0  0  0  0  0
   -2.5220   -1.5200   -0.9776 H   0  0  0  0  0  0  0  0  0  0  0  0
    0.9404   -4.3589    1.1626 H   0  0  0  0  0  0  0  0  0  0  0  0
   -3.1895   -3.5056    0.3359 H   0  0  0  0  0  0  0  0  0  0  0  0
   -1.4619   -4.9279    1.4083 H   0  0  0  0  0  0  0  0  0  0  0  0
   -0.0516    2.7782   -1.5774 N   0  0  0  0  0  0  0  0  0  0  0  0
    0.2159    3.9674   -2.3540 C   0  0  2  0  0  0  0  0  0  0  0  0
    1.5555    4.5332   -1.9014 C   0  0  0  0  0  0  0  0  0  0  0  0
    2.0485    4.2917   -0.8016 O   0  0  0  0  0  0  0  0  0  0  0  0
   -0.8919    4.9963   -2.1899 C   0  0  0  0  0  0  0  0  0  0  0  0
   -0.9573    2.6907   -1.1259 H   0  0  0  0  0  0  0  0  0  0  0  0
    0.2867    3.6523   -3.4007 H   0  0  0  0  0  0  0  0  0  0  0  0
   -0.9780    5.3240   -1.1474 H   0  0  0  0  0  0  0  0  0  0  0  0
   -0.7020    5.8848   -2.8010 H   0  0  0  0  0  0  0  0  0  0  0  0
   -1.8595    4.5780   -2.4877 H   0  0  0  0  0  0  0  0  0  0  0  0
    2.1154    5.3738   -2.8533 N   0  0  0  0  0  0  0  0  0  0  0  0
    3.3792    6.0441   -2.6548 C   0  0  0  0  0  0  0  0  0  0  0  0
    1.6461    5.5016   -3.7450 H   0  0  0  0  0  0  0  0  0  0  0  0
    3.2027    7.0407   -2.2239 H   0  0  0  0  0  0  0  0  0  0  0  0
    4.0035    5.4533   -1.9682 H   0  0  0  0  0  0  0  0  0  0  0  0
    3.8945    6.1485   -3.6210 H   0  0  0  0  0  0  0  0  0  0  0  0
 25 27  1  0  0  0  0
 26 27  2  0  0  0  0
 23 25  2  0  0  0  0
 24 26  1  0  0  0  0
 22 23  1  0  0  0  0
 22 24  2  0  0  0  0
 21 22  1  0  0  0  0
  1  3  1  0  0  0  0
  1  7  1  0  0  0  0
  1  2  2  0  0  0  0
 38 39  1  0  0  0  0
 39 47  1  0  0  0  0
 39 40  2  0  0  0  0
  8  9  1  0  0  0  0
  9 17  1  0  0  0  0
  9 10  2  0  0  0  0
 18 19  1  0  0  0  0
 19 37  1  0  0  0  0
 19 20  2  0  0  0  0
 38 41  1  0  0  0  0
  8 11  1  0  0  0  0
 47 48  1  0  0  0  0
 18 21  1  0  0  0  0
 37 38  1  0  0  0  0
  7  8  1  0  0  0  0
 17 18  1  0  0  0  0
 27 36  1  0  0  0  0
 25 34  1  0  0  0  0
 26 35  1  0  0  0  0
 23 32  1  0  0  0  0
 24 33  1  0  0  0  0
  3  4  1  0  0  0  0
  3  5  1  0  0  0  0
  3  6  1  0  0  0  0
 41 44  1  0  0  0  0
 41 45  1  0  0  0  0
 41 46  1  0  0  0  0
 11 14  1  0  0  0  0
 11 15  1  0  0  0  0
 11 16  1  0  0  0  0
 48 50  1  0  0  0  0
 48 51  1  0  0  0  0
 48 52  1  0  0  0  0
 21 30  1  0  0  0  0
 21 31  1  0  0  0  0
 38 43  1  0  0  0  0
  8 13  1  0  0  0  0
 18 29  1  0  0  0  0
 47 49  1  0  0  0  0
  7 12  1  0  0  0  0
 37 42  1  0  0  0  0
 17 28  1  0  0  0  0
M  END
$$$$

  -OEChem-05262214473D

 52 52  0     1  0  0  0  0  0999 V2000
   -1.8248    0.3424    3.9102 C   0  0  0  0  0  0  0  0  0  0  0  0
   -0.8774   -0.2723    3.4345 O   0  0  0  0  0  0  0  0  0  0  0  0
   -2.2566    0.0600    5.3109 C   0  0  0  0  0  0  0  0  0  0  0  0
   -3.0163   -0.7363    5.3643 H   0  0  0  0  0  0  0  0  0  0  0  0
   -1.4254   -0.2876    5.9452 H   0  0  0  0  0  0  0  0  0  0  0  0
   -2.6947    0.9149    5.8505 H   0  0  0  0  0  0  0  0  0  0  0  0
   -2.5745    1.3149    3.2691 N   0  0  0  0  0  0  0  0  0  0  0  0
   -2.3276    1.7409    1.9167 C   0  0  2  0  0  0  0  0  0  0  0  0
   -0.9926    1.1555    1.4755 C   0  0  0  0  0  0  0  0  0  0  0  0
   -0.1206    0.8028    2.2668 O   0  0  0  0  0  0  0  0  0  0  0  0
   -2.3188    3.2577    1.8072 C   0  0  0  0  0  0  0  0  0  0  0  0
   -3.3395    1.7507    3.7809 H   0  0  0  0  0  0  0  0  0  0  0  0
   -3.1317    1.3224    1.3015 H   0  0  0  0  0  0  0  0  0  0  0  0
   -1.5198    3.6949    2.4169 H   0  0  0  0  0  0  0  0  0  0  0  0
   -2.1594    3.5799    0.7729 H   0  0  0  0  0  0  0  0  0  0  0  0
   -3.2690    3.6789    2.1530 H   0  0  0  0  0  0  0  0  0  0  0  0
   -0.8700    1.1124    0.0921 N   0  0  0  0  0  0  0  0  0  0  0  0
    0.3073    0.6116   -0.5716 C   0  0  2  0  0  0  0  0  0  0  0  0
    0.8667    1.7498   -1.4176 C   0  0  0  0  0  0  0  0  0  0  0  0
    1.8534    1.6244   -2.1397 O   0  0  0  0  0  0  0  0  0  0  0  0
    0.0022   -0.6061   -1.4514 C   0  0  0  0  0  0  0  0  0  0  0  0
   -0.4077   -1.8173   -0.6497 C   0  0  0  0  0  0  0  0  0  0  0  0
    0.5635   -2.6168   -0.0468 C   0  0  0  0  0  0  0  0  0  0  0  0
   -1.7584   -2.1371   -0.5115 C   0  0  0  0  0  0  0  0  0  0  0  0
    0.1840   -3.7359    0.6942 C   0  0  0  0  0  0  0  0  0  0  0  0
   -2.1379   -3.2563    0.2295 C   0  0  0  0  0  0  0  0  0  0  0  0
   -1.1667   -4.0557    0.8324 C   0  0  0  0  0  0  0  0  0  0  0  0
   -1.6531    1.4091   -0.4852 H   0  0  0  0  0  0  0  0  0  0  0  0
    1.0279    0.3624    0.2163 H   0  0  0  0  0  0  0  0  0  0  0  0
    0.8724   -0.8529   -2.0746 H   0  0  0  0  0  0  0  0  0  0  0  0
   -0.8034   -0.3746   -2.1607 H   0  0  0  0  0  0  0  0  0  0  0  0
    1.6182   -2.3752   -0.1490 H   0  0  0  0  0  0  0  0  0  0  0  0
   -2.5220   -1.5200   -0.9776 H   0  0  0  0  0  0  0  0  0  0  0  0
    0.9404   -4.3589    1.1626 H   0  0  0  0  0  0  0  0  0  0  0  0
   -3.1895   -3.5056    0.3359 H   0  0  0  0  0  0  0  0  0  0  0  0
   -1.4619   -4.9279    1.4083 H   0  0  0  0  0  0  0  0  0  0  0  0
    0.1030    2.9035   -1.3067 N   0  0  0  0  0  0  0  0  0  0  0  0
    0.3998    4.1235   -2.0223 C   0  0  2  0  0  0  0  0  0  0  0  0
    1.8708    4.4515   -1.8029 C   0  0  0  0  0  0  0  0  0  0  0  0
    2.5173    4.0275   -0.8472 O   0  0  0  0  0  0  0  0  0  0  0  0
   -0.4874    5.2677   -1.5572 C   0  0  0  0  0  0  0  0  0  0  0  0
   -0.7052    2.8896   -0.6916 H   0  0  0  0  0  0  0  0  0  0  0  0
    0.2253    3.9179   -3.0841 H   0  0  0  0  0  0  0  0  0  0  0  0
   -0.3266    5.4883   -0.4956 H   0  0  0  0  0  0  0  0  0  0  0  0
   -0.2809    6.1840   -2.1201 H   0  0  0  0  0  0  0  0  0  0  0  0
   -1.5459    5.0182   -1.6881 H   0  0  0  0  0  0  0  0  0  0  0  0
    2.3654    5.3081   -2.7764 N   0  0  0  0  0  0  0  0  0  0  0  0
    3.7315    5.7768   -2.7814 C   0  0  0  0  0  0  0  0  0  0  0  0
    1.7634    5.5942   -3.5429 H   0  0  0  0  0  0  0  0  0  0  0  0
    3.7929    6.7351   -2.2448 H   0  0  0  0  0  0  0  0  0  0  0  0
    4.3749    5.0363   -2.2838 H   0  0  0  0  0  0  0  0  0  0  0  0
    4.0676    5.9158   -3.8195 H   0  0  0  0  0  0  0  0  0  0  0  0
 25 27  1  0  0  0  0
 26 27  2  0  0  0  0
 23 25  2  0  0  0  0
 24 26  1  0  0  0  0
 22 23  1  0  0  0  0
 22 24  2  0  0  0  0
 21 22  1  0  0  0  0
  1  3  1  0  0  0  0
  1  7  1  0  0  0  0
  1  2  2  0  0  0  0
 38 39  1  0  0  0  0
 39 47  1  0  0  0  0
 39 40  2  0  0  0  0
  8  9  1  0  0  0  0
  9 17  1  0  0  0  0
  9 10  2  0  0  0  0
 18 19  1  0  0  0  0
 19 37  1  0  0  0  0
 19 20  2  0  0  0  0
 38 41  1  0  0  0  0
  8 11  1  0  0  0  0
 47 48  1  0  0  0  0
 18 21  1  0  0  0  0
 37 38  1  0  0  0  0
  7  8  1  0  0  0  0
 17 18  1  0  0  0  0
 27 36  1  0  0  0  0
 25 34  1  0  0  0  0
 26 35  1  0  0  0  0
 23 32  1  0  0  0  0
 24 33  1  0  0  0  0
  3  4  1  0  0  0  0
  3  5  1  0  0  0  0
  3  6  1  0  0  0  0
 41 44  1  0  0  0  0
 41 45  1  0  0  0  0
 41 46  1  0  0  0  0
 11 14  1  0  0  0  0
 11 15  1  0  0  0  0
 11 16  1  0  0  0  0
 48 50  1  0  0  0  0
 48 51  1  0  0  0  0
 48 52  1  0  0  0  0
 21 30  1  0  0  0  0
 21 31  1  0  0  0  0
 38 43  1  0  0  0  0
  8 13  1  0  0  0  0
 18 29  1  0  0  0  0
 47 49  1  0  0  0  0
  7 12  1  0  0  0  0
 37 42  1  0  0  0  0
 17 28  1  0  0  0  0
M  END
$$$$

  -OEChem-05262214473D

 52 52  0     1  0  0  0  0  0999 V2000
   -1.8248    0.3424    3.9102 C   0  0  0  0  0  0  0  0  0  0  0  0
   -0.8774   -0.2723    3.4345 O   0  0  0  0  0  0  0  0  0  0  0  0
   -2.2566    0.0600    5.3109 C   0  0  0  0  0  0  0  0  0  0  0  0
   -3.0163   -0.7363    5.3643 H   0  0  0  0  0  0  0  0  0  0  0  0
   -1.4254   -0.2876    5.9452 H   0  0  0  0  0  0  0  0  0  0  0  0
   -2.6947    0.9149    5.8505 H   0  0  0  0  0  0  0  0  0  0  0  0
   -2.5745    1.3149    3.2691 N   0  0  0  0  0  0  0  0  0  0  0  0
   -2.3276    1.7409    1.9167 C   0  0  2  0  0  0  0  0  0  0  0  0
   -0.9926    1.1555    1.4755 C   0  0  0  0  0  0  0  0  0  0  0  0
   -0.1206    0.8028    2.2668 O   0  0  0  0  0  0  0  0  0  0  0  0
   -2.3188    3.2577    1.8072 C   0  0  0  0  0  0  0  0  0  0  0  0
   -3.3395    1.7507    3.7809 H   0  0  0  0  0  0  0  0  0  0  0  0
   -3.1317    1.3224    1.3015 H   0  0  0  0  0  0  0  0  0  0  0  0
   -1.5198    3.6949    2.4169 H   0  0  0  0  0  0  0  0  0  0  0  0
   -2.1594    3.5799    0.7729 H   0  0  0  0  0  0  0  0  0  0  0  0
   -3.2690    3.6789    2.1530 H   0  0  0  0  0  0  0  0  0  0  0  0
   -0.8700    1.1124    0.0921 N   0  0  0  0  0  0  0  0  0  0  0  0
    0.3073    0.6116   -0.5716 C   0  0  2  0  0  0  0  0  0  0  0  0
    0.8667    1.7498   -1.4176 C   0  0  0  0  0  0  0  0  0  0  0  0
    1.6706    1.5725   -2.3303 O   0  0  0  0  0  0  0  0  0  0  0  0
    0.0022   -0.6061   -1.4514 C   0  0  0  0  0  0  0  0  0  0  0  0
   -0.4077   -1.8173   -0.6497 C   0  0  0  0  0  0  0  0  0  0  0  0
    0.5635   -2.6168   -0.0468 C   0  0  0  0  0  0  0  0  0  0  0  0
   -1.7584   -2.1371   -0.5115 C   0  0  0  0  0  0  0  0  0  0  0  0
    0.1840   -3.7359    0.6942 C   0  0  0  0  0  0  0  0  0  0  0  0
   -2.1379   -3.2563    0.2295 C   0  0  0  0  0  0  0  0  0  0  0  0
   -1.1667   -4.0557    0.8324 C   0  0  0  0  0  0  0  0  0  0  0  0
   -1.6531    1.4091   -0.4852 H   0  0  0  0  0  0  0  0  0  0  0  0
    1.0279    0.3624    0.2163 H   0  0  0  0  0  0  0  0  0  0  0  0
    0.8724   -0.8529   -2.0746 H   0  0  0  0  0  0  0  0  0  0  0  0
   -0.8034   -0.3746   -2.1607 H   0  0  0  0  0  0  0  0  0  0  0  0
    1.6182   -2.3752   -0.1490 H   0  0  0  0  0  0  0  0  0  0  0  0
   -2.5220   -1.5200   -0.9776 H   0  0  0  0  0  0  0  0  0  0  0  0
    0.9404   -4.3589    1.1626 H   0  0  0  0  0  0  0  0  0  0  0  0
   -3.1895   -3.5056    0.3359 H   0  0  0  0  0  0  0  0  0  0  0  0
   -1.4619   -4.9279    1.4083 H   0  0  0  0  0  0  0  0  0  0  0  0
    0.3226    2.9766   -1.0632 N   0  0  0  0  0  0  0  0  0  0  0  0
    0.6640    4.2164   -1.7227 C   0  0  2  0  0  0  0  0  0  0  0  0
    2.1827    4.3179   -1.7764 C   0  0  0  0  0  0  0  0  0  0  0  0
    2.9233    3.7093   -1.0069 O   0  0  0  0  0  0  0  0  0  0  0  0
    0.0647    5.4118   -0.9984 C   0  0  0  0  0  0  0  0  0  0  0  0
   -0.3493    3.0043   -0.3019 H   0  0  0  0  0  0  0  0  0  0  0  0
    0.2654    4.1531   -2.7411 H   0  0  0  0  0  0  0  0  0  0  0  0
    0.4522    5.4916    0.0238 H   0  0  0  0  0  0  0  0  0  0  0  0
    0.3003    6.3479   -1.5153 H   0  0  0  0  0  0  0  0  0  0  0  0
   -1.0252    5.3224   -0.9346 H   0  0  0  0  0  0  0  0  0  0  0  0
    2.6124    5.2014   -2.7567 N   0  0  0  0  0  0  0  0  0  0  0  0
    4.0090    5.4801   -2.9971 C   0  0  0  0  0  0  0  0  0  0  0  0
    1.9291    5.6476   -3.3615 H   0  0  0  0  0  0  0  0  0  0  0  0
    4.3150    6.3572   -2.4080 H   0  0  0  0  0  0  0  0  0  0  0  0
    4.6128    4.6101   -2.6999 H   0  0  0  0  0  0  0  0  0  0  0  0
    4.1630    5.6852   -4.0668 H   0  0  0  0  0  0  0  0  0  0  0  0
 25 27  1  0  0  0  0
 26 27  2  0  0  0  0
 23 25  2  0  0  0  0
 24 26  1  0  0  0  0
 22 23  1  0  0  0  0
 22 24  2  0  0  0  0
 21 22  1  0  0  0  0
  1  3  1  0  0  0  0
  1  7  1  0  0  0  0
  1  2  2  0  0  0  0
 38 39  1  0  0  0  0
 39 47  1  0  0  0  0
 39 40  2  0  0  0  0
  8  9  1  0  0  0  0
  9 17  1  0  0  0  0
  9 10  2  0  0  0  0
 18 19  1  0  0  0  0
 19 37  1  0  0  0  0
 19 20  2  0  0  0  0
 38 41  1  0  0  0  0
  8 11  1  0  0  0  0
 47 48  1  0  0  0  0
 18 21  1  0  0  0  0
 37 38  1  0  0  0  0
  7  8  1  0  0  0  0
 17 18  1  0  0  0  0
 27 36  1  0  0  0  0
 25 34  1  0  0  0  0
 26 35  1  0  0  0  0
 23 32  1  0  0  0  0
 24 33  1  0  0  0  0
  3  4  1  0  0  0  0
  3  5  1  0  0  0  0
  3  6  1  0  0  0  0
 41 44  1  0  0  0  0
 41 45  1  0  0  0  0
 41 46  1  0  0  0  0
 11 14  1  0  0  0  0
 11 15  1  0  0  0  0
 11 16  1  0  0  0  0
 48 50  1  0  0  0  0
 48 51  1  0  0  0  0
 48 52  1  0  0  0  0
 21 30  1  0  0  0  0
 21 31  1  0  0  0  0
 38 43  1  0  0  0  0
  8 13  1  0  0  0  0
 18 29  1  0  0  0  0
 47 49  1  0  0  0  0
  7 12  1  0  0  0  0
 37 42  1  0  0  0  0
 17 28  1  0  0  0  0
M  END
$$$$

  -OEChem-05262214473D

 52 52  0     1  0  0  0  0  0999 V2000
   -1.8248    0.3424    3.9102 C   0  0  0  0  0  0  0  0  0  0  0  0
   -0.8774   -0.2723    3.4345 O   0  0  0  0  0  0  0  0  0  0  0  0
   -2.2566    0.0600    5.3109 C   0  0  0  0  0  0  0  0  0  0  0  0
   -3.0163   -0.7363    5.3643 H   0  0  0  0  0  0  0  0  0  0  0  0
   -1.4254   -0.2876    5.9452 H   0  0  0  0  0  0  0  0  0  0  0  0
   -2.6947    0.9149    5.8505 H   0  0  0  0  0  0  0  0  0  0  0  0
   -2.5745    1.3149    3.2691 N   0  0  0  0  0  0  0  0  0  0  0  0
   -2.3276    1.7409    1.9167 C   0  0  2  0  0  0  0  0  0  0  0  0
   -0.9926    1.1555    1.4755 C   0  0  0  0  0  0  0  0  0  0  0  0
   -0.1206    0.8028    2.2668 O   0  0  0  0  0  0  0  0  0  0  0  0
   -2.3188    3.2577    1.8072 C   0  0  0  0  0  0  0  0  0  0  0  0
   -3.3395    1.7507    3.7809 H   0  0  0  0  0  0  0  0  0  0  0  0
   -3.1317    1.3224    1.3015 H   0  0  0  0  0  0  0  0  0  0  0  0
   -1.5198    3.6949    2.4169 H   0  0  0  0  0  0  0  0  0  0  0  0
   -2.1594    3.5799    0.7729 H   0  0  0  0  0  0  0  0  0  0  0  0
   -3.2690    3.6789    2.1530 H   0  0  0  0  0  0  0  0  0  0  0  0
   -0.8700    1.1124    0.0921 N   0  0  0  0  0  0  0  0  0  0  0  0
    0.3073    0.6116   -0.5716 C   0  0  2  0  0  0  0  0  0  0  0  0
    0.8667    1.7498   -1.4176 C   0  0  0  0  0  0  0  0  0  0  0  0
    1.4498    1.5668   -2.4841 O   0  0  0  0  0  0  0  0  0  0  0  0
    0.0022   -0.6061   -1.4514 C   0  0  0  0  0  0  0  0  0  0  0  0
   -0.4077   -1.8173   -0.6497 C   0  0  0  0  0  0  0  0  0  0  0  0
    0.5635   -2.6168   -0.0468 C   0  0  0  0  0  0  0  0  0  0  0  0
   -1.7584   -2.1371   -0.5115 C   0  0  0  0  0  0  0  0  0  0  0  0
    0.1840   -3.7359    0.6942 C   0  0  0  0  0  0  0  0  0  0  0  0
   -2.1379   -3.2563    0.2295 C   0  0  0  0  0  0  0  0  0  0  0  0
   -1.1667   -4.0557    0.8324 C   0  0  0  0  0  0  0  0  0  0  0  0
   -1.6531    1.4091   -0.4852 H   0  0  0  0  0  0  0  0  0  0  0  0
    1.0279    0.3624    0.2163 H   0  0  0  0  0  0  0  0  0  0  0  0
    0.8724   -0.8529   -2.0746 H   0  0  0  0  0  0  0  0  0  0  0  0
   -0.8034   -0.3746   -2.1607 H   0  0  0  0  0  0  0  0  0  0  0  0
    1.6182   -2.3752   -0.1490 H   0  0  0  0  0  0  0  0  0  0  0  0
   -2.5220   -1.5200   -0.9776 H   0  0  0  0  0  0  0  0  0  0  0  0
    0.9404   -4.3589    1.1626 H   0  0  0  0  0  0  0  0  0  0  0  0
   -3.1895   -3.5056    0.3359 H   0  0  0  0  0  0  0  0  0  0  0  0
   -1.4619   -4.9279    1.4083 H   0  0  0  0  0  0  0  0  0  0  0  0
    0.5923    2.9925   -0.8635 N   0  0  0  0  0  0  0  0  0  0  0  0
    0.9904    4.2397   -1.4756 C   0  0  2  0  0  0  0  0  0  0  0  0
    2.4698    4.1416   -1.8238 C   0  0  0  0  0  0  0  0  0  0  0  0
    3.2388    3.3587   -1.2698 O   0  0  0  0  0  0  0  0  0  0  0  0
    0.7265    5.4185   -0.5517 C   0  0  0  0  0  0  0  0  0  0  0  0
    0.0863    3.0270    0.0166 H   0  0  0  0  0  0  0  0  0  0  0  0
    0.4042    4.3420   -2.3953 H   0  0  0  0  0  0  0  0  0  0  0  0
    1.3053    5.3336    0.3752 H   0  0  0  0  0  0  0  0  0  0  0  0
    1.0021    6.3653   -1.0279 H   0  0  0  0  0  0  0  0  0  0  0  0
   -0.3329    5.4699   -0.2785 H   0  0  0  0  0  0  0  0  0  0  0  0
    2.8394    5.0610   -2.7955 N   0  0  0  0  0  0  0  0  0  0  0  0
    4.1926    5.1742   -3.2873 C   0  0  0  0  0  0  0  0  0  0  0  0
    2.1318    5.6582   -3.2132 H   0  0  0  0  0  0  0  0  0  0  0  0
    4.7336    5.9327   -2.7025 H   0  0  0  0  0  0  0  0  0  0  0  0
    4.7010    4.2037   -3.1883 H   0  0  0  0  0  0  0  0  0  0  0  0
    4.1742    5.4721   -4.3460 H   0  0  0  0  0  0  0  0  0  0  0  0
 25 27  1  0  0  0  0
 26 27  2  0  0  0  0
 23 25  2  0  0  0  0
 24 26  1  0  0  0  0
 22 23  1  0  0  0  0
 22 24  2  0  0  0  0
 21 22  1  0  0  0  0
  1  3  1  0  0  0  0
  1  7  1  0  0  0  0
  1  2  2  0  0  0  0
 38 39  1  0  0  0  0
 39 47  1  0  0  0  0
 39 40  2  0  0  0  0
  8  9  1  0  0  0  0
  9 17  1  0  0  0  0
  9 10  2  0  0  0  0
 18 19  1  0  0  0  0
 19 37  1  0  0  0  0
 19 20  2  0  0  0  0
 38 41  1  0  0  0  0
  8 11  1  0  0  0  0
 47 48  1  0  0  0  0
 18 21  1  0  0  0  0
 37 38  1  0  0  0  0
  7  8  1  0  0  0  0
 17 18  1  0  0  0  0
 27 36  1  0  0  0  0
 25 34  1  0  0  0  0
 26 35  1  0  0  0  0
 23 32  1  0  0  0  0
 24 33  1  0  0  0  0
  3  4  1  0  0  0  0
  3  5  1  0  0  0  0
  3  6  1  0  0  0  0
 41 44  1  0  0  0  0
 41 45  1  0  0  0  0
 41 46  1  0  0  0  0
 11 14  1  0  0  0  0
 11 15  1  0  0  0  0
 11 16  1  0  0  0  0
 48 50  1  0  0  0  0
 48 51  1  0  0  0  0
 48 52  1  0  0  0  0
 21 30  1  0  0  0  0
 21 31  1  0  0  0  0
 38 43  1  0  0  0  0
  8 13  1  0  0  0  0
 18 29  1  0  0  0  0
 47 49  1  0  0  0  0
  7 12  1  0  0  0  0
 37 42  1  0  0  0  0
 17 28  1  0  0  0  0
M  END
$$$$

  -OEChem-05262214473D

 52 52  0     1  0  0  0  0  0999 V2000
   -1.8248    0.3424    3.9102 C   0  0  0  0  0  0  0  0  0  0  0  0
   -0.8774   -0.2723    3.4345 O   0  0  0  0  0  0  0  0  0  0  0  0
   -2.2566    0.0600    5.3109 C   0  0  0  0  0  0  0  0  0  0  0  0
   -3.0163   -0.7363    5.3643 H   0  0  0  0  0  0  0  0  0  0  0  0
   -1.4254   -0.2876    5.9452 H   0  0  0  0  0  0  0  0  0  0  0  0
   -2.6947    0.9149    5.8505 H   0  0  0  0  0  0  0  0  0  0  0  0
   -2.5745    1.3149    3.2691 N   0  0  0  0  0  0  0  0  0  0  0  0
   -2.3276    1.7409    1.9167 C   0  0  2  0  0  0  0  0  0  0  0  0
   -0.9926    1.1555    1.4755 C   0  0  0  0  0  0  0  0  0  0  0  0
   -0.1206    0.8028    2.2668 O   0  0  0  0  0  0  0  0  0  0  0  0
   -2.3188    3.2577    1.8072 C   0  0  0  0  0  0  0  0  0  0  0  0
   -3.3395    1.7507    3.7809 H   0  0  0  0  0  0  0  0  0  0  0  0
   -3.1317    1.3224    1.3015 H   0  0  0  0  0  0  0  0  0  0  0  0
   -1.5198    3.6949    2.4169 H   0  0  0  0  0  0  0  0  0  0  0  0
   -2.1594    3.5799    0.7729 H   0  0  0  0  0  0  0  0  0  0  0  0
   -3.2690    3.6789    2.1530 H   0  0  0  0  0  0  0  0  0  0  0  0
   -0.8700    1.1124    0.0921 N   0  0  0  0  0  0  0  0  0  0  0  0
    0.3073    0.6116   -0.5716 C   0  0  2  0  0  0  0  0  0  0  0  0
    0.8667    1.7498   -1.4176 C   0  0  0  0  0  0  0  0  0  0  0  0
    1.2059    1.6076   -2.5905 O   0  0  0  0  0  0  0  0  0  0  0  0
    0.0022   -0.6061   -1.4514 C   0  0  0  0  0  0  0  0  0  0  0  0
   -0.4077   -1.8173   -0.6497 C   0  0  0  0  0  0  0  0  0  0  0  0
    0.5635   -2.6168   -0.0468 C   0  0  0  0  0  0  0  0  0  0  0  0
   -1.7584   -2.1371   -0.5115 C   0  0  0  0  0  0  0  0  0  0  0  0
    0.1840   -3.7359    0.6942 C   0  0  0  0  0  0  0  0  0  0  0  0
   -2.1379   -3.2563    0.2295 C   0  0  0  0  0  0  0  0  0  0  0  0
   -1.1667   -4.0557    0.8324 C   0  0  0  0  0  0  0  0  0  0  0  0
   -1.6531    1.4091   -0.4852 H   0  0  0  0  0  0  0  0  0  0  0  0
    1.0279    0.3624    0.2163 H   0  0  0  0  0  0  0  0  0  0  0  0
    0.8724   -0.8529   -2.0746 H   0  0  0  0  0  0  0  0  0  0  0  0
   -0.8034   -0.3746   -2.1607 H   0  0  0  0  0  0  0  0  0  0  0  0
    1.6182   -2.3752   -0.1490 H   0  0  0  0  0  0  0  0  0  0  0  0
   -2.5220   -1.5200   -0.9776 H   0  0  0  0  0  0  0  0  0  0  0  0
    0.9404   -4.3589    1.1626 H   0  0  0  0  0  0  0  0  0  0  0  0
   -3.1895   -3.5056    0.3359 H   0  0  0  0  0  0  0  0  0  0  0  0
   -1.4619   -4.9279    1.4083 H   0  0  0  0  0  0  0  0  0  0  0  0
    0.8937    2.9501   -0.7211 N   0  0  0  0  0  0  0  0  0  0  0  0
    1.3569    4.1919   -1.2977 C   0  0  2  0  0  0  0  0  0  0  0  0
    2.7127    3.9345   -1.9417 C   0  0  0  0  0  0  0  0  0  0  0  0
    3.4425    2.9998   -1.6181 O   0  0  0  0  0  0  0  0  0  0  0  0
    1.4531    5.2876   -0.2475 C   0  0  0  0  0  0  0  0  0  0  0  0
    0.5719    2.9561    0.2422 H   0  0  0  0  0  0  0  0  0  0  0  0
    0.6322    4.4716   -2.0701 H   0  0  0  0  0  0  0  0  0  0  0  0
    2.1746    5.0251    0.5349 H   0  0  0  0  0  0  0  0  0  0  0  0
    1.7767    6.2350   -0.6911 H   0  0  0  0  0  0  0  0  0  0  0  0
    0.4837    5.4507    0.2356 H   0  0  0  0  0  0  0  0  0  0  0  0
    3.0310    4.8964   -2.8902 N   0  0  0  0  0  0  0  0  0  0  0  0
    4.2700    4.8798   -3.6321 C   0  0  0  0  0  0  0  0  0  0  0  0
    2.3578    5.6252   -3.1081 H   0  0  0  0  0  0  0  0  0  0  0  0
    5.0200    5.4904   -3.1081 H   0  0  0  0  0  0  0  0  0  0  0  0
    4.6334    3.8449   -3.7157 H   0  0  0  0  0  0  0  0  0  0  0  0
    4.1005    5.2912   -4.6381 H   0  0  0  0  0  0  0  0  0  0  0  0
 25 27  1  0  0  0  0
 26 27  2  0  0  0  0
 23 25  2  0  0  0  0
 24 26  1  0  0  0  0
 22 23  1  0  0  0  0
 22 24  2  0  0  0  0
 21 22  1  0  0  0  0
  1  3  1  0  0  0  0
  1  7  1  0  0  0  0
  1  2  2  0  0  0  0
 38 39  1  0  0  0  0
 39 47  1  0  0  0  0
 39 40  2  0  0  0  0
  8  9  1  0  0  0  0
  9 17  1  0  0  0  0
  9 10  2  0  0  0  0
 18 19  1  0  0  0  0
 19 37  1  0  0  0  0
 19 20  2  0  0  0  0
 38 41  1  0  0  0  0
  8 11  1  0  0  0  0
 47 48  1  0  0  0  0
 18 21  1  0  0  0  0
 37 38  1  0  0  0  0
  7  8  1  0  0  0  0
 17 18  1  0  0  0  0
 27 36  1  0  0  0  0
 25 34  1  0  0  0  0
 26 35  1  0  0  0  0
 23 32  1  0  0  0  0
 24 33  1  0  0  0  0
  3  4  1  0  0  0  0
  3  5  1  0  0  0  0
  3  6  1  0  0  0  0
 41 44  1  0  0  0  0
 41 45  1  0  0  0  0
 41 46  1  0  0  0  0
 11 14  1  0  0  0  0
 11 15  1  0  0  0  0
 11 16  1  0  0  0  0
 48 50  1  0  0  0  0
 48 51  1  0  0  0  0
 48 52  1  0  0  0  0
 21 30  1  0  0  0  0
 21 31  1  0  0  0  0
 38 43  1  0  0  0  0
  8 13  1  0  0  0  0
 18 29  1  0  0  0  0
 47 49  1  0  0  0  0
  7 12  1  0  0  0  0
 37 42  1  0  0  0  0
 17 28  1  0  0  0  0
M  END
$$$$

  -OEChem-05262214473D

 52 52  0     1  0  0  0  0  0999 V2000
   -1.8248    0.3424    3.9102 C   0  0  0  0  0  0  0  0  0  0  0  0
   -0.8774   -0.2723    3.4345 O   0  0  0  0  0  0  0  0  0  0  0  0
   -2.2566    0.0600    5.3109 C   0  0  0  0  0  0  0  0  0  0  0  0
   -3.0163   -0.7363    5.3643 H   0  0  0  0  0  0  0  0  0  0  0  0
   -1.4254   -0.2876    5.9452 H   0  0  0  0  0  0  0  0  0  0  0  0
   -2.6947    0.9149    5.8505 H   0  0  0  0  0  0  0  0  0  0  0  0
   -2.5745    1.3149    3.2691 N   0  0  0  0  0  0  0  0  0  0  0  0
   -2.3276    1.7409    1.9167 C   0  0  2  0  0  0  0  0  0  0  0  0
   -0.9926    1.1555    1.4755 C   0  0  0  0  0  0  0  0  0  0  0  0
   -0.1206    0.8028    2.2668 O   0  0  0  0  0  0  0  0  0  0  0  0
   -2.3188    3.2577    1.8072 C   0  0  0  0  0  0  0  0  0  0  0  0
   -3.3395    1.7507    3.7809 H   0  0  0  0  0  0  0  0  0  0  0  0
   -3.1317    1.3224    1.3015 H   0  0  0  0  0  0  0  0  0  0  0  0
   -1.5198    3.6949    2.4169 H   0  0  0  0  0  0  0  0  0  0  0  0
   -2.1594    3.5799    0.7729 H   0  0  0  0  0  0  0  0  0  0  0  0
   -3.2690    3.6789    2.1530 H   0  0  0  0  0  0  0  0  0  0  0  0
   -0.8700    1.1124    0.0921 N   0  0  0  0  0  0  0  0  0  0  0  0
    0.3073    0.6116   -0.5716 C   0  0  2  0  0  0  0  0  0  0  0  0
    0.8667    1.7498   -1.4176 C   0  0  0  0  0  0  0  0  0  0  0  0
    0.9556    1.6921   -2.6422 O   0  0  0  0  0  0  0  0  0  0  0  0
    0.0022   -0.6061   -1.4514 C   0  0  0  0  0  0  0  0  0  0  0  0
   -0.4077   -1.8173   -0.6497 C   0  0  0  0  0  0  0  0  0  0  0  0
    0.5635   -2.6168   -0.0468 C   0  0  0  0  0  0  0  0  0  0  0  0
   -1.7584   -2.1371   -0.5115 C   0  0  0  0  0  0  0  0  0  0  0  0
    0.1840   -3.7359    0.6942 C   0  0  0  0  0  0  0  0  0  0  0  0
   -2.1379   -3.2563    0.2295 C   0  0  0  0  0  0  0  0  0  0  0  0
   -1.1667   -4.0557    0.8324 C   0  0  0  0  0  0  0  0  0  0  0  0
   -1.6531    1.4091   -0.4852 H   0  0  0  0  0  0  0  0  0  0  0  0
    1.0279    0.3624    0.2163 H   0  0  0  0  0  0  0  0  0  0  0  0
    0.8724   -0.8529   -2.0746 H   0  0  0  0  0  0  0  0  0  0  0  0
   -0.8034   -0.3746   -2.1607 H   0  0  0  0  0  0  0  0  0  0  0  0
    1.6182   -2.3752   -0.1490 H   0  0  0  0  0  0  0  0  0  0  0  0
   -2.5220   -1.5200   -0.9776 H   0  0  0  0  0  0  0  0  0  0  0  0
    0.9404   -4.3589    1.1626 H   0  0  0  0  0  0  0  0  0  0  0  0
   -3.1895   -3.5056    0.3359 H   0  0  0  0  0  0  0  0  0  0  0  0
   -1.4619   -4.9279    1.4083 H   0  0  0  0  0  0  0  0  0  0  0  0
    1.2063    2.8524   -0.6459 N   0  0  0  0  0  0  0  0  0  0  0  0
    1.7383    4.0761   -1.2012 C   0  0  2  0  0  0  0  0  0  0  0  0
    2.8948    3.7108   -2.1223 C   0  0  0  0  0  0  0  0  0  0  0  0
    3.5204    2.6569   -2.0279 O   0  0  0  0  0  0  0  0  0  0  0  0
    2.1950    5.0278   -0.1065 C   0  0  0  0  0  0  0  0  0  0  0  0
    1.0743    2.7965    0.3596 H   0  0  0  0  0  0  0  0  0  0  0  0
    0.9339    4.5332   -1.7877 H   0  0  0  0  0  0  0  0  0  0  0  0
    3.0008    4.5871    0.4918 H   0  0  0  0  0  0  0  0  0  0  0  0
    2.5713    5.9659   -0.5278 H   0  0  0  0  0  0  0  0  0  0  0  0
    1.3691    5.2660    0.5724 H   0  0  0  0  0  0  0  0  0  0  0  0
    3.1741    4.7190   -3.0344 N   0  0  0  0  0  0  0  0  0  0  0  0
    4.2359    4.6171   -4.0081 C   0  0  0  0  0  0  0  0  0  0  0  0
    2.5917    5.5509   -3.0534 H   0  0  0  0  0  0  0  0  0  0  0  0
    5.1548    5.0606   -3.5972 H   0  0  0  0  0  0  0  0  0  0  0  0
    4.4147    3.5582   -4.2461 H   0  0  0  0  0  0  0  0  0  0  0  0
    3.9468    5.1549   -4.9232 H   0  0  0  0  0  0  0  0  0  0  0  0
 25 27  1  0  0  0  0
 26 27  2  0  0  0  0
 23 25  2  0  0  0  0
 24 26  1  0  0  0  0
 22 23  1  0  0  0  0
 22 24  2  0  0  0  0
 21 22  1  0  0  0  0
  1  3  1  0  0  0  0
  1  7  1  0  0  0  0
  1  2  2  0  0  0  0
 38 39  1  0  0  0  0
 39 47  1  0  0  0  0
 39 40  2  0  0  0  0
  8  9  1  0  0  0  0
  9 17  1  0  0  0  0
  9 10  2  0  0  0  0
 18 19  1  0  0  0  0
 19 37  1  0  0  0  0
 19 20  2  0  0  0  0
 38 41  1  0  0  0  0
  8 11  1  0  0  0  0
 47 48  1  0  0  0  0
 18 21  1  0  0  0  0
 37 38  1  0  0  0  0
  7  8  1  0  0  0  0
 17 18  1  0  0  0  0
 27 36  1  0  0  0  0
 25 34  1  0  0  0  0
 26 35  1  0  0  0  0
 23 32  1  0  0  0  0
 24 33  1  0  0  0  0
  3  4  1  0  0  0  0
  3  5  1  0  0  0  0
  3  6  1  0  0  0  0
 41 44  1  0  0  0  0
 41 45  1  0  0  0  0
 41 46  1  0  0  0  0
 11 14  1  0  0  0  0
 11 15  1  0  0  0  0
 11 16  1  0  0  0  0
 48 50  1  0  0  0  0
 48 51  1  0  0  0  0
 48 52  1  0  0  0  0
 21 30  1  0  0  0  0
 21 31  1  0  0  0  0
 38 43  1  0  0  0  0
  8 13  1  0  0  0  0
 18 29  1  0  0  0  0
 47 49  1  0  0  0  0
  7 12  1  0  0  0  0
 37 42  1  0  0  0  0
 17 28  1  0  0  0  0
M  END
$$$$

  -OEChem-05262214473D

 52 52  0     1  0  0  0  0  0999 V2000
   -1.8248    0.3424    3.9102 C   0  0  0  0  0  0  0  0  0  0  0  0
   -0.8774   -0.2723    3.4345 O   0  0  0  0  0  0  0  0  0  0  0  0
   -2.2566    0.0600    5.3109 C   0  0  0  0  0  0  0  0  0  0  0  0
   -3.0163   -0.7363    5.3643 H   0  0  0  0  0  0  0  0  0  0  0  0
   -1.4254   -0.2876    5.9452 H   0  0  0  0  0  0  0  0  0  0  0  0
   -2.6947    0.9149    5.8505 H   0  0  0  0  0  0  0  0  0  0  0  0
   -2.5745    1.3149    3.2691 N   0  0  0  0  0  0  0  0  0  0  0  0
   -2.3276    1.7409    1.9167 C   0  0  2  0  0  0  0  0  0  0  0  0
   -0.9926    1.1555    1.4755 C   0  0  0  0  0  0  0  0  0  0  0  0
   -0.1206    0.8028    2.2668 O   0  0  0  0  0  0  0  0  0  0  0  0
   -2.3188    3.2577    1.8072 C   0  0  0  0  0  0  0  0  0  0  0  0
   -3.3395    1.7507    3.7809 H   0  0  0  0  0  0  0  0  0  0  0  0
   -3.1317    1.3224    1.3015 H   0  0  0  0  0  0  0  0  0  0  0  0
   -1.5198    3.6949    2.4169 H   0  0  0  0  0  0  0  0  0  0  0  0
   -2.1594    3.5799    0.7729 H   0  0  0  0  0  0  0  0  0  0  0  0
   -3.2690    3.6789    2.1530 H   0  0  0  0  0  0  0  0  0  0  0  0
   -0.8700    1.1124    0.0921 N   0  0  0  0  0  0  0  0  0  0  0  0
    0.3073    0.6116   -0.5716 C   0  0  2  0  0  0  0  0  0  0  0  0
    0.8667    1.7498   -1.4176 C   0  0  0  0  0  0  0  0  0  0  0  0
    0.7160    1.8146   -2.6358 O   0  0  0  0  0  0  0  0  0  0  0  0
    0.0022   -0.6061   -1.4514 C   0  0  0  0  0  0  0  0  0  0  0  0
   -0.4077   -1.8173   -0.6497 C   0  0  0  0  0  0  0  0  0  0  0  0
    0.5635   -2.6168   -0.0468 C   0  0  0  0  0  0  0  0  0  0  0  0
   -1.7584   -2.1371   -0.5115 C   0  0  0  0  0  0  0  0  0  0  0  0
    0.1840   -3.7359    0.6942 C   0  0  0  0  0  0  0  0  0  0  0  0
   -2.1379   -3.2563    0.2295 C   0  0  0  0  0  0  0  0  0  0  0  0
   -1.1667   -4.0557    0.8324 C   0  0  0  0  0  0  0  0  0  0  0  0
   -1.6531    1.4091   -0.4852 H   0  0  0  0  0  0  0  0  0  0  0  0
    1.0279    0.3624    0.2163 H   0  0  0  0  0  0  0  0  0  0  0  0
    0.8724   -0.8529   -2.0746 H   0  0  0  0  0  0  0  0  0  0  0  0
   -0.8034   -0.3746   -2.1607 H   0  0  0  0  0  0  0  0  0  0  0  0
    1.6182   -2.3752   -0.1490 H   0  0  0  0  0  0  0  0  0  0  0  0
   -2.5220   -1.5200   -0.9776 H   0  0  0  0  0  0  0  0  0  0  0  0
    0.9404   -4.3589    1.1626 H   0  0  0  0  0  0  0  0  0  0  0  0
   -3.1895   -3.5056    0.3359 H   0  0  0  0  0  0  0  0  0  0  0  0
   -1.4619   -4.9279    1.4083 H   0  0  0  0  0  0  0  0  0  0  0  0
    1.5087    2.7060   -0.6430 N   0  0  0  0  0  0  0  0  0  0  0  0
    2.1087    3.9004   -1.1927 C   0  0  2  0  0  0  0  0  0  0  0  0
    3.0037    3.4858   -2.3531 C   0  0  0  0  0  0  0  0  0  0  0  0
    3.4672    2.3534   -2.4714 O   0  0  0  0  0  0  0  0  0  0  0  0
    2.9015    4.6570   -0.1383 C   0  0  0  0  0  0  0  0  0  0  0  0
    1.5594    2.5589    0.3608 H   0  0  0  0  0  0  0  0  0  0  0  0
    1.2887    4.5226   -1.5674 H   0  0  0  0  0  0  0  0  0  0  0  0
    3.7275    4.0494    0.2490 H   0  0  0  0  0  0  0  0  0  0  0  0
    3.3317    5.5763   -0.5491 H   0  0  0  0  0  0  0  0  0  0  0  0
    2.2628    4.9284    0.7092 H   0  0  0  0  0  0  0  0  0  0  0  0
    3.2590    4.5407   -3.2181 N   0  0  0  0  0  0  0  0  0  0  0  0
    4.0925    4.4040   -4.3897 C   0  0  0  0  0  0  0  0  0  0  0  0
    2.8175    5.4404   -3.0529 H   0  0  0  0  0  0  0  0  0  0  0  0
    5.1287    4.6726   -4.1365 H   0  0  0  0  0  0  0  0  0  0  0  0
    4.0597    3.3630   -4.7435 H   0  0  0  0  0  0  0  0  0  0  0  0
    3.7238    5.0722   -5.1818 H   0  0  0  0  0  0  0  0  0  0  0  0
 25 27  1  0  0  0  0
 26 27  2  0  0  0  0
 23 25  2  0  0  0  0
 24 26  1  0  0  0  0
 22 23  1  0  0  0  0
 22 24  2  0  0  0  0
 21 22  1  0  0  0  0
  1  3  1  0  0  0  0
  1  7  1  0  0  0  0
  1  2  2  0  0  0  0
 38 39  1  0  0  0  0
 39 47  1  0  0  0  0
 39 40  2  0  0  0  0
  8  9  1  0  0  0  0
  9 17  1  0  0  0  0
  9 10  2  0  0  0  0
 18 19  1  0  0  0  0
 19 37  1  0  0  0  0
 19 20  2  0  0  0  0
 38 41  1  0  0  0  0
  8 11  1  0  0  0  0
 47 48  1  0  0  0  0
 18 21  1  0  0  0  0
 37 38  1  0  0  0  0
  7  8  1  0  0  0  0
 17 18  1  0  0  0  0
 27 36  1  0  0  0  0
 25 34  1  0  0  0  0
 26 35  1  0  0  0  0
 23 32  1  0  0  0  0
 24 33  1  0  0  0  0
  3  4  1  0  0  0  0
  3  5  1  0  0  0  0
  3  6  1  0  0  0  0
 41 44  1  0  0  0  0
 41 45  1  0  0  0  0
 41 46  1  0  0  0  0
 11 14  1  0  0  0  0
 11 15  1  0  0  0  0
 11 16  1  0  0  0  0
 48 50  1  0  0  0  0
 48 51  1  0  0  0  0
 48 52  1  0  0  0  0
 21 30  1  0  0  0  0
 21 31  1  0  0  0  0
 38 43  1  0  0  0  0
  8 13  1  0  0  0  0
 18 29  1  0  0  0  0
 47 49  1  0  0  0  0
  7 12  1  0  0  0  0
 37 42  1  0  0  0  0
 17 28  1  0  0  0  0
M  END
$$$$

  -OEChem-05262214473D

 52 52  0     1  0  0  0  0  0999 V2000
   -1.8248    0.3424    3.9102 C   0  0  0  0  0  0  0  0  0  0  0  0
   -0.8774   -0.2723    3.4345 O   0  0  0  0  0  0  0  0  0  0  0  0
   -2.2566    0.0600    5.3109 C   0  0  0  0  0  0  0  0  0  0  0  0
   -3.0163   -0.7363    5.3643 H   0  0  0  0  0  0  0  0  0  0  0  0
   -1.4254   -0.2876    5.9452 H   0  0  0  0  0  0  0  0  0  0  0  0
   -2.6947    0.9149    5.8505 H   0  0  0  0  0  0  0  0  0  0  0  0
   -2.5745    1.3149    3.2691 N   0  0  0  0  0  0  0  0  0  0  0  0
   -2.3276    1.7409    1.9167 C   0  0  2  0  0  0  0  0  0  0  0  0
   -0.9926    1.1555    1.4755 C   0  0  0  0  0  0  0  0  0  0  0  0
   -0.1206    0.8028    2.2668 O   0  0  0  0  0  0  0  0  0  0  0  0
   -2.3188    3.2577    1.8072 C   0  0  0  0  0  0  0  0  0  0  0  0
   -3.3395    1.7507    3.7809 H   0  0  0  0  0  0  0  0  0  0  0  0
   -3.1317    1.3224    1.3015 H   0  0  0  0  0  0  0  0  0  0  0  0
   -1.5198    3.6949    2.4169 H   0  0  0  0  0  0  0  0  0  0  0  0
   -2.1594    3.5799    0.7729 H   0  0  0  0  0  0  0  0  0  0  0  0
   -3.2690    3.6789    2.1530 H   0  0  0  0  0  0  0  0  0  0  0  0
   -0.8700    1.1124    0.0921 N   0  0  0  0  0  0  0  0  0  0  0  0
    0.3073    0.6116   -0.5716 C   0  0  2  0  0  0  0  0  0  0  0  0
    0.8667    1.7498   -1.4176 C   0  0  0  0  0  0  0  0  0  0  0  0
    0.5034    1.9668   -2.5717 O   0  0  0  0  0  0  0  0  0  0  0  0
    0.0022   -0.6061   -1.4514 C   0  0  0  0  0  0  0  0  0  0  0  0
   -0.4077   -1.8173   -0.6497 C   0  0  0  0  0  0  0  0  0  0  0  0
    0.5635   -2.6168   -0.0468 C   0  0  0  0  0  0  0  0  0  0  0  0
   -1.7584   -2.1371   -0.5115 C   0  0  0  0  0  0  0  0  0  0  0  0
    0.1840   -3.7359    0.6942 C   0  0  0  0  0  0  0  0  0  0  0  0
   -2.1379   -3.2563    0.2295 C   0  0  0  0  0  0  0  0  0  0  0  0
   -1.1667   -4.0557    0.8324 C   0  0  0  0  0  0  0  0  0  0  0  0
   -1.6531    1.4091   -0.4852 H   0  0  0  0  0  0  0  0  0  0  0  0
    1.0279    0.3624    0.2163 H   0  0  0  0  0  0  0  0  0  0  0  0
    0.8724   -0.8529   -2.0746 H   0  0  0  0  0  0  0  0  0  0  0  0
   -0.8034   -0.3746   -2.1607 H   0  0  0  0  0  0  0  0  0  0  0  0
    1.6182   -2.3752   -0.1490 H   0  0  0  0  0  0  0  0  0  0  0  0
   -2.5220   -1.5200   -0.9776 H   0  0  0  0  0  0  0  0  0  0  0  0
    0.9404   -4.3589    1.1626 H   0  0  0  0  0  0  0  0  0  0  0  0
   -3.1895   -3.5056    0.3359 H   0  0  0  0  0  0  0  0  0  0  0  0
   -1.4619   -4.9279    1.4083 H   0  0  0  0  0  0  0  0  0  0  0  0
    1.7803    2.5209   -0.7125 N   0  0  0  0  0  0  0  0  0  0  0  0
    2.4430    3.6766   -1.2728 C   0  0  2  0  0  0  0  0  0  0  0  0
    3.0319    3.2746   -2.6185 C   0  0  0  0  0  0  0  0  0  0  0  0
    3.2865    2.1100   -2.9183 O   0  0  0  0  0  0  0  0  0  0  0  0
    3.5245    4.2003   -0.3407 C   0  0  0  0  0  0  0  0  0  0  0  0
    1.9940    2.2597    0.2456 H   0  0  0  0  0  0  0  0  0  0  0  0
    1.6725    4.4405   -1.4242 H   0  0  0  0  0  0  0  0  0  0  0  0
    4.3054    3.4488   -0.1771 H   0  0  0  0  0  0  0  0  0  0  0  0
    4.0061    5.0928   -0.7537 H   0  0  0  0  0  0  0  0  0  0  0  0
    3.1041    4.4610    0.6366 H   0  0  0  0  0  0  0  0  0  0  0  0
    3.2800    4.3737   -3.4289 N   0  0  0  0  0  0  0  0  0  0  0  0
    3.8497    4.2550   -4.7507 C   0  0  0  0  0  0  0  0  0  0  0  0
    3.0199    5.3011   -3.1064 H   0  0  0  0  0  0  0  0  0  0  0  0
    4.9436    4.3527   -4.6892 H   0  0  0  0  0  0  0  0  0  0  0  0
    3.5927    3.2726   -5.1738 H   0  0  0  0  0  0  0  0  0  0  0  0
    3.4464    5.0491   -5.3964 H   0  0  0  0  0  0  0  0  0  0  0  0
 25 27  1  0  0  0  0
 26 27  2  0  0  0  0
 23 25  2  0  0  0  0
 24 26  1  0  0  0  0
 22 23  1  0  0  0  0
 22 24  2  0  0  0  0
 21 22  1  0  0  0  0
  1  3  1  0  0  0  0
  1  7  1  0  0  0  0
  1  2  2  0  0  0  0
 38 39  1  0  0  0  0
 39 47  1  0  0  0  0
 39 40  2  0  0  0  0
  8  9  1  0  0  0  0
  9 17  1  0  0  0  0
  9 10  2  0  0  0  0
 18 19  1  0  0  0  0
 19 37  1  0  0  0  0
 19 20  2  0  0  0  0
 38 41  1  0  0  0  0
  8 11  1  0  0  0  0
 47 48  1  0  0  0  0
 18 21  1  0  0  0  0
 37 38  1  0  0  0  0
  7  8  1  0  0  0  0
 17 18  1  0  0  0  0
 27 36  1  0  0  0  0
 25 34  1  0  0  0  0
 26 35  1  0  0  0  0
 23 32  1  0  0  0  0
 24 33  1  0  0  0  0
  3  4  1  0  0  0  0
  3  5  1  0  0  0  0
  3  6  1  0  0  0  0
 41 44  1  0  0  0  0
 41 45  1  0  0  0  0
 41 46  1  0  0  0  0
 11 14  1  0  0  0  0
 11 15  1  0  0  0  0
 11 16  1  0  0  0  0
 48 50  1  0  0  0  0
 48 51  1  0  0  0  0
 48 52  1  0  0  0  0
 21 30  1  0  0  0  0
 21 31  1  0  0  0  0
 38 43  1  0  0  0  0
  8 13  1  0  0  0  0
 18 29  1  0  0  0  0
 47 49  1  0  0  0  0
  7 12  1  0  0  0  0
 37 42  1  0  0  0  0
 17 28  1  0  0  0  0
M  END
$$$$

  -OEChem-05262214473D

 52 52  0     1  0  0  0  0  0999 V2000
   -1.8248    0.3424    3.9102 C   0  0  0  0  0  0  0  0  0  0  0  0
   -0.8774   -0.2723    3.4345 O   0  0  0  0  0  0  0  0  0  0  0  0
   -2.2566    0.0600    5.3109 C   0  0  0  0  0  0  0  0  0  0  0  0
   -3.0163   -0.7363    5.3643 H   0  0  0  0  0  0  0  0  0  0  0  0
   -1.4254   -0.2876    5.9452 H   0  0  0  0  0  0  0  0  0  0  0  0
   -2.6947    0.9149    5.8505 H   0  0  0  0  0  0  0  0  0  0  0  0
   -2.5745    1.3149    3.2691 N   0  0  0  0  0  0  0  0  0  0  0  0
   -2.3276    1.7409    1.9167 C   0  0  2  0  0  0  0  0  0  0  0  0
   -0.9926    1.1555    1.4755 C   0  0  0  0  0  0  0  0  0  0  0  0
   -0.1206    0.8028    2.2668 O   0  0  0  0  0  0  0  0  0  0  0  0
   -2.3188    3.2577    1.8072 C   0  0  0  0  0  0  0  0  0  0  0  0
   -3.3395    1.7507    3.7809 H   0  0  0  0  0  0  0  0  0  0  0  0
   -3.1317    1.3224    1.3015 H   0  0  0  0  0  0  0  0  0  0  0  0
   -1.5198    3.6949    2.4169 H   0  0  0  0  0  0  0  0  0  0  0  0
   -2.1594    3.5799    0.7729 H   0  0  0  0  0  0  0  0  0  0  0  0
   -3.2690    3.6789    2.1530 H   0  0  0  0  0  0  0  0  0  0  0  0
   -0.8700    1.1124    0.0921 N   0  0  0  0  0  0  0  0  0  0  0  0
    0.3073    0.6116   -0.5716 C   0  0  2  0  0  0  0  0  0  0  0  0
    0.8667    1.7498   -1.4176 C   0  0  0  0  0  0  0  0  0  0  0  0
    0.3323    2.1382   -2.4542 O   0  0  0  0  0  0  0  0  0  0  0  0
    0.0022   -0.6061   -1.4514 C   0  0  0  0  0  0  0  0  0  0  0  0
   -0.4077   -1.8173   -0.6497 C   0  0  0  0  0  0  0  0  0  0  0  0
    0.5635   -2.6168   -0.0468 C   0  0  0  0  0  0  0  0  0  0  0  0
   -1.7584   -2.1371   -0.5115 C   0  0  0  0  0  0  0  0  0  0  0  0
    0.1840   -3.7359    0.6942 C   0  0  0  0  0  0  0  0  0  0  0  0
   -2.1379   -3.2563    0.2295 C   0  0  0  0  0  0  0  0  0  0  0  0
   -1.1667   -4.0557    0.8324 C   0  0  0  0  0  0  0  0  0  0  0  0
   -1.6531    1.4091   -0.4852 H   0  0  0  0  0  0  0  0  0  0  0  0
    1.0279    0.3624    0.2163 H   0  0  0  0  0  0  0  0  0  0  0  0
    0.8724   -0.8529   -2.0746 H   0  0  0  0  0  0  0  0  0  0  0  0
   -0.8034   -0.3746   -2.1607 H   0  0  0  0  0  0  0  0  0  0  0  0
    1.6182   -2.3752   -0.1490 H   0  0  0  0  0  0  0  0  0  0  0  0
   -2.5220   -1.5200   -0.9776 H   0  0  0  0  0  0  0  0  0  0  0  0
    0.9404   -4.3589    1.1626 H   0  0  0  0  0  0  0  0  0  0  0  0
   -3.1895   -3.5056    0.3359 H   0  0  0  0  0  0  0  0  0  0  0  0
   -1.4619   -4.9279    1.4083 H   0  0  0  0  0  0  0  0  0  0  0  0
    2.0027    2.3096   -0.8496 N   0  0  0  0  0  0  0  0  0  0  0  0
    2.7182    3.4201   -1.4359 C   0  0  2  0  0  0  0  0  0  0  0  0
    2.9776    3.0919   -2.9003 C   0  0  0  0  0  0  0  0  0  0  0  0
    2.9907    1.9433   -3.3382 O   0  0  0  0  0  0  0  0  0  0  0  0
    4.0216    3.6890   -0.7000 C   0  0  0  0  0  0  0  0  0  0  0  0
    2.3486    1.9192    0.0219 H   0  0  0  0  0  0  0  0  0  0  0  0
    2.0590    4.2924   -1.3678 H   0  0  0  0  0  0  0  0  0  0  0  0
    4.6950    2.8260   -0.7573 H   0  0  0  0  0  0  0  0  0  0  0  0
    4.5486    4.5484   -1.1275 H   0  0  0  0  0  0  0  0  0  0  0  0
    3.8355    3.8956    0.3594 H   0  0  0  0  0  0  0  0  0  0  0  0
    3.2354    4.2294   -3.6524 N   0  0  0  0  0  0  0  0  0  0  0  0
    3.5240    4.1802   -5.0667 C   0  0  0  0  0  0  0  0  0  0  0  0
    3.1849    5.1426   -3.2105 H   0  0  0  0  0  0  0  0  0  0  0  0
    4.6120    4.1228   -5.2178 H   0  0  0  0  0  0  0  0  0  0  0  0
    3.0455    3.2933   -5.5078 H   0  0  0  0  0  0  0  0  0  0  0  0
    3.1338    5.0869   -5.5522 H   0  0  0  0  0  0  0  0  0  0  0  0
 25 27  1  0  0  0  0
 26 27  2  0  0  0  0
 23 25  2  0  0  0  0
 24 26  1  0  0  0  0
 22 23  1  0  0  0  0
 22 24  2  0  0  0  0
 21 22  1  0  0  0  0
  1  3  1  0  0  0  0
  1  7  1  0  0  0  0
  1  2  2  0  0  0  0
 38 39  1  0  0  0  0
 39 47  1  0  0  0  0
 39 40  2  0  0  0  0
  8  9  1  0  0  0  0
  9 17  1  0  0  0  0
  9 10  2  0  0  0  0
 18 19  1  0  0  0  0
 19 37  1  0  0  0  0
 19 20  2  0  0  0  0
 38 41  1  0  0  0  0
  8 11  1  0  0  0  0
 47 48  1  0  0  0  0
 18 21  1  0  0  0  0
 37 38  1  0  0  0  0
  7  8  1  0  0  0  0
 17 18  1  0  0  0  0
 27 36  1  0  0  0  0
 25 34  1  0  0  0  0
 26 35  1  0  0  0  0
 23 32  1  0  0  0  0
 24 33  1  0  0  0  0
  3  4  1  0  0  0  0
  3  5  1  0  0  0  0
  3  6  1  0  0  0  0
 41 44  1  0  0  0  0
 41 45  1  0  0  0  0
 41 46  1  0  0  0  0
 11 14  1  0  0  0  0
 11 15  1  0  0  0  0
 11 16  1  0  0  0  0
 48 50  1  0  0  0  0
 48 51  1  0  0  0  0
 48 52  1  0  0  0  0
 21 30  1  0  0  0  0
 21 31  1  0  0  0  0
 38 43  1  0  0  0  0
  8 13  1  0  0  0  0
 18 29  1  0  0  0  0
 47 49  1  0  0  0  0
  7 12  1  0  0  0  0
 37 42  1  0  0  0  0
 17 28  1  0  0  0  0
M  END
$$$$

  -OEChem-05262214473D

 52 52  0     1  0  0  0  0  0999 V2000
   -1.8248    0.3424    3.9102 C   0  0  0  0  0  0  0  0  0  0  0  0
   -0.8774   -0.2723    3.4345 O   0  0  0  0  0  0  0  0  0  0  0  0
   -2.2566    0.0600    5.3109 C   0  0  0  0  0  0  0  0  0  0  0  0
   -3.0163   -0.7363    5.3643 H   0  0  0  0  0  0  0  0  0  0  0  0
   -1.4254   -0.2876    5.9452 H   0  0  0  0  0  0  0  0  0  0  0  0
   -2.6947    0.9149    5.8505 H   0  0  0  0  0  0  0  0  0  0  0  0
   -2.5745    1.3149    3.2691 N   0  0  0  0  0  0  0  0  0  0  0  0
   -2.3276    1.7409    1.9167 C   0  0  2  0  0  0  0  0  0  0  0  0
   -0.9926    1.1555    1.4755 C   0  0  0  0  0  0  0  0  0  0  0  0
   -0.1206    0.8028    2.2668 O   0  0  0  0  0  0  0  0  0  0  0  0
   -2.3188    3.2577    1.8072 C   0  0  0  0  0  0  0  0  0  0  0  0
   -3.3395    1.7507    3.7809 H   0  0  0  0  0  0  0  0  0  0  0  0
   -3.1317    1.3224    1.3015 H   0  0  0  0  0  0  0  0  0  0  0  0
   -1.5198    3.6949    2.4169 H   0  0  0  0  0  0  0  0  0  0  0  0
   -2.1594    3.5799    0.7729 H   0  0  0  0  0  0  0  0  0  0  0  0
   -3.2690    3.6789    2.1530 H   0  0  0  0  0  0  0  0  0  0  0  0
   -0.8700    1.1124    0.0921 N   0  0  0  0  0  0  0  0  0  0  0  0
    0.3073    0.6116   -0.5716 C   0  0  2  0  0  0  0  0  0  0  0  0
    0.8667    1.7498   -1.4176 C   0  0  0  0  0  0  0  0  0  0  0  0
    0.2144    2.3171   -2.2914 O   0  0  0  0  0  0  0  0  0  0  0  0
    0.0022   -0.6061   -1.4514 C   0  0  0  0  0  0  0  0  0  0  0  0
   -0.4077   -1.8173   -0.6497 C   0  0  0  0  0  0  0  0  0  0  0  0
    0.5635   -2.6168   -0.0468 C   0  0  0  0  0  0  0  0  0  0  0  0
   -1.7584   -2.1371   -0.5115 C   0  0  0  0  0  0  0  0  0  0  0  0
    0.1840   -3.7359    0.6942 C   0  0  0  0  0  0  0  0  0  0  0  0
   -2.1379   -3.2563    0.2295 C   0  0  0  0  0  0  0  0  0  0  0  0
   -1.1667   -4.0557    0.8324 C   0  0  0  0  0  0  0  0  0  0  0  0
   -1.6531    1.4091   -0.4852 H   0  0  0  0  0  0  0  0  0  0  0  0
    1.0279    0.3624    0.2163 H   0  0  0  0  0  0  0  0  0  0  0  0
    0.8724   -0.8529   -2.0746 H   0  0  0  0  0  0  0  0  0  0  0  0
   -0.8034   -0.3746   -2.1607 H   0  0  0  0  0  0  0  0  0  0  0  0
    1.6182   -2.3752   -0.1490 H   0  0  0  0  0  0  0  0  0  0  0  0
   -2.5220   -1.5200   -0.9776 H   0  0  0  0  0  0  0  0  0  0  0  0
    0.9404   -4.3589    1.1626 H   0  0  0  0  0  0  0  0  0  0  0  0
   -3.1895   -3.5056    0.3359 H   0  0  0  0  0  0  0  0  0  0  0  0
   -1.4619   -4.9279    1.4083 H   0  0  0  0  0  0  0  0  0  0  0  0
    2.1606    2.0867   -1.0452 N   0  0  0  0  0  0  0  0  0  0  0  0
    2.9157    3.1483   -1.6711 C   0  0  2  0  0  0  0  0  0  0  0  0
    2.8444    2.9499   -3.1794 C   0  0  0  0  0  0  0  0  0  0  0  0
    2.5998    1.8646   -3.7024 O   0  0  0  0  0  0  0  0  0  0  0  0
    4.3588    3.1578   -1.1917 C   0  0  0  0  0  0  0  0  0  0  0  0
    2.5990    1.5606   -0.2949 H   0  0  0  0  0  0  0  0  0  0  0  0
    2.4221    4.0885   -1.4021 H   0  0  0  0  0  0  0  0  0  0  0  0
    4.8697    2.2236   -1.4522 H   0  0  0  0  0  0  0  0  0  0  0  0
    4.9221    3.9801   -1.6451 H   0  0  0  0  0  0  0  0  0  0  0  0
    4.4072    3.2707   -0.1033 H   0  0  0  0  0  0  0  0  0  0  0  0
    3.1285    4.1177   -3.8734 N   0  0  0  0  0  0  0  0  0  0  0  0
    3.1375    4.1847   -5.3161 C   0  0  0  0  0  0  0  0  0  0  0  0
    3.3015    4.9757   -3.3580 H   0  0  0  0  0  0  0  0  0  0  0  0
    4.1566    3.9986   -5.6860 H   0  0  0  0  0  0  0  0  0  0  0  0
    2.4553    3.4236   -5.7227 H   0  0  0  0  0  0  0  0  0  0  0  0
    2.8071    5.1831   -5.6388 H   0  0  0  0  0  0  0  0  0  0  0  0
 25 27  1  0  0  0  0
 26 27  2  0  0  0  0
 23 25  2  0  0  0  0
 24 26  1  0  0  0  0
 22 23  1  0  0  0  0
 22 24  2  0  0  0  0
 21 22  1  0  0  0  0
  1  3  1  0  0  0  0
  1  7  1  0  0  0  0
  1  2  2  0  0  0  0
 38 39  1  0  0  0  0
 39 47  1  0  0  0  0
 39 40  2  0  0  0  0
  8  9  1  0  0  0  0
  9 17  1  0  0  0  0
  9 10  2  0  0  0  0
 18 19  1  0  0  0  0
 19 37  1  0  0  0  0
 19 20  2  0  0  0  0
 38 41  1  0  0  0  0
  8 11  1  0  0  0  0
 47 48  1  0  0  0  0
 18 21  1  0  0  0  0
 37 38  1  0  0  0  0
  7  8  1  0  0  0  0
 17 18  1  0  0  0  0
 27 36  1  0  0  0  0
 25 34  1  0  0  0  0
 26 35  1  0  0  0  0
 23 32  1  0  0  0  0
 24 33  1  0  0  0  0
  3  4  1  0  0  0  0
  3  5  1  0  0  0  0
  3  6  1  0  0  0  0
 41 44  1  0  0  0  0
 41 45  1  0  0  0  0
 41 46  1  0  0  0  0
 11 14  1  0  0  0  0
 11 15  1  0  0  0  0
 11 16  1  0  0  0  0
 48 50  1  0  0  0  0
 48 51  1  0  0  0  0
 48 52  1  0  0  0  0
 21 30  1  0  0  0  0
 21 31  1  0  0  0  0
 38 43  1  0  0  0  0
  8 13  1  0  0  0  0
 18 29  1  0  0  0  0
 47 49  1  0  0  0  0
  7 12  1  0  0  0  0
 37 42  1  0  0  0  0
 17 28  1  0  0  0  0
M  END
$$$$

  -OEChem-05262214473D

 52 52  0     1  0  0  0  0  0999 V2000
   -1.8248    0.3424    3.9102 C   0  0  0  0  0  0  0  0  0  0  0  0
   -0.8774   -0.2723    3.4345 O   0  0  0  0  0  0  0  0  0  0  0  0
   -2.2566    0.0600    5.3109 C   0  0  0  0  0  0  0  0  0  0  0  0
   -3.0163   -0.7363    5.3643 H   0  0  0  0  0  0  0  0  0  0  0  0
   -1.4254   -0.2876    5.9452 H   0  0  0  0  0  0  0  0  0  0  0  0
   -2.6947    0.9149    5.8505 H   0  0  0  0  0  0  0  0  0  0  0  0
   -2.5745    1.3149    3.2691 N   0  0  0  0  0  0  0  0  0  0  0  0
   -2.3276    1.7409    1.9167 C   0  0  2  0  0  0  0  0  0  0  0  0
   -0.9926    1.1555    1.4755 C   0  0  0  0  0  0  0  0  0  0  0  0
   -0.1206    0.8028    2.2668 O   0  0  0  0  0  0  0  0  0  0  0  0
   -2.3188    3.2577    1.8072 C   0  0  0  0  0  0  0  0  0  0  0  0
   -3.3395    1.7507    3.7809 H   0  0  0  0  0  0  0  0  0  0  0  0
   -3.1317    1.3224    1.3015 H   0  0  0  0  0  0  0  0  0  0  0  0
   -1.5198    3.6949    2.4169 H   0  0  0  0  0  0  0  0  0  0  0  0
   -2.1594    3.5799    0.7729 H   0  0  0  0  0  0  0  0  0  0  0  0
   -3.2690    3.6789    2.1530 H   0  0  0  0  0  0  0  0  0  0  0  0
   -0.8700    1.1124    0.0921 N   0  0  0  0  0  0  0  0  0  0  0  0
    0.3073    0.6116   -0.5716 C   0  0  2  0  0  0  0  0  0  0  0  0
    0.8667    1.7498   -1.4176 C   0  0  0  0  0  0  0  0  0  0  0  0
    0.1576    2.4915   -2.0944 O   0  0  0  0  0  0  0  0  0  0  0  0
    0.0022   -0.6061   -1.4514 C   0  0  0  0  0  0  0  0  0  0  0  0
   -0.4077   -1.8173   -0.6497 C   0  0  0  0  0  0  0  0  0  0  0  0
    0.5635   -2.6168   -0.0468 C   0  0  0  0  0  0  0  0  0  0  0  0
   -1.7584   -2.1371   -0.5115 C   0  0  0  0  0  0  0  0  0  0  0  0
    0.1840   -3.7359    0.6942 C   0  0  0  0  0  0  0  0  0  0  0  0
   -2.1379   -3.2563    0.2295 C   0  0  0  0  0  0  0  0  0  0  0  0
   -1.1667   -4.0557    0.8324 C   0  0  0  0  0  0  0  0  0  0  0  0
   -1.6531    1.4091   -0.4852 H   0  0  0  0  0  0  0  0  0  0  0  0
    1.0279    0.3624    0.2163 H   0  0  0  0  0  0  0  0  0  0  0  0
    0.8724   -0.8529   -2.0746 H   0  0  0  0  0  0  0  0  0  0  0  0
   -0.8034   -0.3746   -2.1607 H   0  0  0  0  0  0  0  0  0  0  0  0
    1.6182   -2.3752   -0.1490 H   0  0  0  0  0  0  0  0  0  0  0  0
   -2.5220   -1.5200   -0.9776 H   0  0  0  0  0  0  0  0  0  0  0  0
    0.9404   -4.3589    1.1626 H   0  0  0  0  0  0  0  0  0  0  0  0
   -3.1895   -3.5056    0.3359 H   0  0  0  0  0  0  0  0  0  0  0  0
   -1.4619   -4.9279    1.4083 H   0  0  0  0  0  0  0  0  0  0  0  0
    2.2434    1.8672   -1.2857 N   0  0  0  0  0  0  0  0  0  0  0  0
    3.0219    2.8797   -1.9622 C   0  0  2  0  0  0  0  0  0  0  0  0
    2.6414    2.8584   -3.4368 C   0  0  0  0  0  0  0  0  0  0  0  0
    2.1406    1.8794   -3.9862 O   0  0  0  0  0  0  0  0  0  0  0  0
    4.5133    2.6429   -1.7823 C   0  0  0  0  0  0  0  0  0  0  0  0
    2.7281    1.2084   -0.6835 H   0  0  0  0  0  0  0  0  0  0  0  0
    2.7368    3.8427   -1.5248 H   0  0  0  0  0  0  0  0  0  0  0  0
    4.8177    1.6827   -2.2144 H   0  0  0  0  0  0  0  0  0  0  0  0
    5.1013    3.4266   -2.2713 H   0  0  0  0  0  0  0  0  0  0  0  0
    4.7803    2.6289   -0.7200 H   0  0  0  0  0  0  0  0  0  0  0  0
    2.9665    4.0461   -4.0768 N   0  0  0  0  0  0  0  0  0  0  0  0
    2.7167    4.2683   -5.4819 C   0  0  0  0  0  0  0  0  0  0  0  0
    3.3617    4.8117   -3.5389 H   0  0  0  0  0  0  0  0  0  0  0  0
    3.6084    3.9885   -6.0621 H   0  0  0  0  0  0  0  0  0  0  0  0
    1.8625    3.6546   -5.8038 H   0  0  0  0  0  0  0  0  0  0  0  0
    2.4887    5.3312   -5.6501 H   0  0  0  0  0  0  0  0  0  0  0  0
 25 27  1  0  0  0  0
 26 27  2  0  0  0  0
 23 25  2  0  0  0  0
 24 26  1  0  0  0  0
 22 23  1  0  0  0  0
 22 24  2  0  0  0  0
 21 22  1  0  0  0  0
  1  3  1  0  0  0  0
  1  7  1  0  0  0  0
  1  2  2  0  0  0  0
 38 39  1  0  0  0  0
 39 47  1  0  0  0  0
 39 40  2  0  0  0  0
  8  9  1  0  0  0  0
  9 17  1  0  0  0  0
  9 10  2  0  0  0  0
 18 19  1  0  0  0  0
 19 37  1  0  0  0  0
 19 20  2  0  0  0  0
 38 41  1  0  0  0  0
  8 11  1  0  0  0  0
 47 48  1  0  0  0  0
 18 21  1  0  0  0  0
 37 38  1  0  0  0  0
  7  8  1  0  0  0  0
 17 18  1  0  0  0  0
 27 36  1  0  0  0  0
 25 34  1  0  0  0  0
 26 35  1  0  0  0  0
 23 32  1  0  0  0  0
 24 33  1  0  0  0  0
  3  4  1  0  0  0  0
  3  5  1  0  0  0  0
  3  6  1  0  0  0  0
 41 44  1  0  0  0  0
 41 45  1  0  0  0  0
 41 46  1  0  0  0  0
 11 14  1  0  0  0  0
 11 15  1  0  0  0  0
 11 16  1  0  0  0  0
 48 50  1  0  0  0  0
 48 51  1  0  0  0  0
 48 52  1  0  0  0  0
 21 30  1  0  0  0  0
 21 31  1  0  0  0  0
 38 43  1  0  0  0  0
  8 13  1  0  0  0  0
 18 29  1  0  0  0  0
 47 49  1  0  0  0  0
  7 12  1  0  0  0  0
 37 42  1  0  0  0  0
 17 28  1  0  0  0  0
M  END
$$$$

  -OEChem-05262214473D

 52 52  0     1  0  0  0  0  0999 V2000
   -1.8248    0.3424    3.9102 C   0  0  0  0  0  0  0  0  0  0  0  0
   -0.8774   -0.2723    3.4345 O   0  0  0  0  0  0  0  0  0  0  0  0
   -2.2566    0.0600    5.3109 C   0  0  0  0  0  0  0  0  0  0  0  0
   -3.0163   -0.7363    5.3643 H   0  0  0  0  0  0  0  0  0  0  0  0
   -1.4254   -0.2876    5.9452 H   0  0  0  0  0  0  0  0  0  0  0  0
   -2.6947    0.9149    5.8505 H   0  0  0  0  0  0  0  0  0  0  0  0
   -2.5745    1.3149    3.2691 N   0  0  0  0  0  0  0  0  0  0  0  0
   -2.3276    1.7409    1.9167 C   0  0  2  0  0  0  0  0  0  0  0  0
   -0.9926    1.1555    1.4755 C   0  0  0  0  0  0  0  0  0  0  0  0
   -0.1206    0.8028    2.2668 O   0  0  0  0  0  0  0  0  0  0  0  0
   -2.3188    3.2577    1.8072 C   0  0  0  0  0  0  0  0  0  0  0  0
   -3.3395    1.7507    3.7809 H   0  0  0  0  0  0  0  0  0  0  0  0
   -3.1317    1.3224    1.3015 H   0  0  0  0  0  0  0  0  0  0  0  0
   -1.5198    3.6949    2.4169 H   0  0  0  0  0  0  0  0  0  0  0  0
   -2.1594    3.5799    0.7729 H   0  0  0  0  0  0  0  0  0  0  0  0
   -3.2690    3.6789    2.1530 H   0  0  0  0  0  0  0  0  0  0  0  0
   -0.8700    1.1124    0.0921 N   0  0  0  0  0  0  0  0  0  0  0  0
    0.3073    0.6116   -0.5716 C   0  0  2  0  0  0  0  0  0  0  0  0
    0.8667    1.7498   -1.4176 C   0  0  0  0  0  0  0  0  0  0  0  0
    0.1659    2.6494   -1.8765 O   0  0  0  0  0  0  0  0  0  0  0  0
    0.0022   -0.6061   -1.4514 C   0  0  0  0  0  0  0  0  0  0  0  0
   -0.4077   -1.8173   -0.6497 C   0  0  0  0  0  0  0  0  0  0  0  0
    0.5635   -2.6168   -0.0468 C   0  0  0  0  0  0  0  0  0  0  0  0
   -1.7584   -2.1371   -0.5115 C   0  0  0  0  0  0  0  0  0  0  0  0
    0.1840   -3.7359    0.6942 C   0  0  0  0  0  0  0  0  0  0  0  0
   -2.1379   -3.2563    0.2295 C   0  0  0  0  0  0  0  0  0  0  0  0
   -1.1667   -4.0557    0.8324 C   0  0  0  0  0  0  0  0  0  0  0  0
   -1.6531    1.4091   -0.4852 H   0  0  0  0  0  0  0  0  0  0  0  0
    1.0279    0.3624    0.2163 H   0  0  0  0  0  0  0  0  0  0  0  0
    0.8724   -0.8529   -2.0746 H   0  0  0  0  0  0  0  0  0  0  0  0
   -0.8034   -0.3746   -2.1607 H   0  0  0  0  0  0  0  0  0  0  0  0
    1.6182   -2.3752   -0.1490 H   0  0  0  0  0  0  0  0  0  0  0  0
   -2.5220   -1.5200   -0.9776 H   0  0  0  0  0  0  0  0  0  0  0  0
    0.9404   -4.3589    1.1626 H   0  0  0  0  0  0  0  0  0  0  0  0
   -3.1895   -3.5056    0.3359 H   0  0  0  0  0  0  0  0  0  0  0  0
   -1.4619   -4.9279    1.4083 H   0  0  0  0  0  0  0  0  0  0  0  0
    2.2453    1.6662   -1.5549 N   0  0  0  0  0  0  0  0  0  0  0  0
    3.0297    2.6326   -2.2895 C   0  0  2  0  0  0  0  0  0  0  0  0
    2.3825    2.8236   -3.6548 C   0  0  0  0  0  0  0  0  0  0  0  0
    1.6443    1.9865   -4.1702 O   0  0  0  0  0  0  0  0  0  0  0  0
    4.4745    2.1795   -2.4314 C   0  0  0  0  0  0  0  0  0  0  0  0
    2.7272    0.8865   -1.1172 H   0  0  0  0  0  0  0  0  0  0  0  0
    2.9818    3.5716   -1.7274 H   0  0  0  0  0  0  0  0  0  0  0  0
    4.5425    1.2400   -2.9919 H   0  0  0  0  0  0  0  0  0  0  0  0
    5.0739    2.9258   -2.9632 H   0  0  0  0  0  0  0  0  0  0  0  0
    4.9293    2.0140   -1.4488 H   0  0  0  0  0  0  0  0  0  0  0  0
    2.7604    4.0196   -4.2488 N   0  0  0  0  0  0  0  0  0  0  0  0
    2.2902    4.4252   -5.5528 C   0  0  0  0  0  0  0  0  0  0  0  0
    3.3613    4.6619   -3.7407 H   0  0  0  0  0  0  0  0  0  0  0  0
    3.0047    4.0931   -6.3204 H   0  0  0  0  0  0  0  0  0  0  0  0
    1.3073    3.9706   -5.7458 H   0  0  0  0  0  0  0  0  0  0  0  0
    2.2001    5.5210   -5.5854 H   0  0  0  0  0  0  0  0  0  0  0  0
 25 27  1  0  0  0  0
 26 27  2  0  0  0  0
 23 25  2  0  0  0  0
 24 26  1  0  0  0  0
 22 23  1  0  0  0  0
 22 24  2  0  0  0  0
 21 22  1  0  0  0  0
  1  3  1  0  0  0  0
  1  7  1  0  0  0  0
  1  2  2  0  0  0  0
 38 39  1  0  0  0  0
 39 47  1  0  0  0  0
 39 40  2  0  0  0  0
  8  9  1  0  0  0  0
  9 17  1  0  0  0  0
  9 10  2  0  0  0  0
 18 19  1  0  0  0  0
 19 37  1  0  0  0  0
 19 20  2  0  0  0  0
 38 41  1  0  0  0  0
  8 11  1  0  0  0  0
 47 48  1  0  0  0  0
 18 21  1  0  0  0  0
 37 38  1  0  0  0  0
  7  8  1  0  0  0  0
 17 18  1  0  0  0  0
 27 36  1  0  0  0  0
 25 34  1  0  0  0  0
 26 35  1  0  0  0  0
 23 32  1  0  0  0  0
 24 33  1  0  0  0  0
  3  4  1  0  0  0  0
  3  5  1  0  0  0  0
  3  6  1  0  0  0  0
 41 44  1  0  0  0  0
 41 45  1  0  0  0  0
 41 46  1  0  0  0  0
 11 14  1  0  0  0  0
 11 15  1  0  0  0  0
 11 16  1  0  0  0  0
 48 50  1  0  0  0  0
 48 51  1  0  0  0  0
 48 52  1  0  0  0  0
 21 30  1  0  0  0  0
 21 31  1  0  0  0  0
 38 43  1  0  0  0  0
  8 13  1  0  0  0  0
 18 29  1  0  0  0  0
 47 49  1  0  0  0  0
  7 12  1  0  0  0  0
 37 42  1  0  0  0  0
 17 28  1  0  0  0  0
M  END
$$$$

  -OEChem-05262214473D

 52 52  0     1  0  0  0  0  0999 V2000
   -1.8248    0.3424    3.9102 C   0  0  0  0  0  0  0  0  0  0  0  0
   -0.8774   -0.2723    3.4345 O   0  0  0  0  0  0  0  0  0  0  0  0
   -2.2566    0.0600    5.3109 C   0  0  0  0  0  0  0  0  0  0  0  0
   -3.0163   -0.7363    5.3643 H   0  0  0  0  0  0  0  0  0  0  0  0
   -1.4254   -0.2876    5.9452 H   0  0  0  0  0  0  0  0  0  0  0  0
   -2.6947    0.9149    5.8505 H   0  0  0  0  0  0  0  0  0  0  0  0
   -2.5745    1.3149    3.2691 N   0  0  0  0  0  0  0  0  0  0  0  0
   -2.3276    1.7409    1.9167 C   0  0  2  0  0  0  0  0  0  0  0  0
   -0.9926    1.1555    1.4755 C   0  0  0  0  0  0  0  0  0  0  0  0
   -0.1206    0.8028    2.2668 O   0  0  0  0  0  0  0  0  0  0  0  0
   -2.3188    3.2577    1.8072 C   0  0  0  0  0  0  0  0  0  0  0  0
   -3.3395    1.7507    3.7809 H   0  0  0  0  0  0  0  0  0  0  0  0
   -3.1317    1.3224    1.3015 H   0  0  0  0  0  0  0  0  0  0  0  0
   -1.5198    3.6949    2.4169 H   0  0  0  0  0  0  0  0  0  0  0  0
   -2.1594    3.5799    0.7729 H   0  0  0  0  0  0  0  0  0  0  0  0
   -3.2690    3.6789    2.1530 H   0  0  0  0  0  0  0  0  0  0  0  0
   -0.8700    1.1124    0.0921 N   0  0  0  0  0  0  0  0  0  0  0  0
    0.3073    0.6116   -0.5716 C   0  0  2  0  0  0  0  0  0  0  0  0
    0.8667    1.7498   -1.4176 C   0  0  0  0  0  0  0  0  0  0  0  0
    0.2386    2.7800   -1.6527 O   0  0  0  0  0  0  0  0  0  0  0  0
    0.0022   -0.6061   -1.4514 C   0  0  0  0  0  0  0  0  0  0  0  0
   -0.4077   -1.8173   -0.6497 C   0  0  0  0  0  0  0  0  0  0  0  0
    0.5635   -2.6168   -0.0468 C   0  0  0  0  0  0  0  0  0  0  0  0
   -1.7584   -2.1371   -0.5115 C   0  0  0  0  0  0  0  0  0  0  0  0
    0.1840   -3.7359    0.6942 C   0  0  0  0  0  0  0  0  0  0  0  0
   -2.1379   -3.2563    0.2295 C   0  0  0  0  0  0  0  0  0  0  0  0
   -1.1667   -4.0557    0.8324 C   0  0  0  0  0  0  0  0  0  0  0  0
   -1.6531    1.4091   -0.4852 H   0  0  0  0  0  0  0  0  0  0  0  0
    1.0279    0.3624    0.2163 H   0  0  0  0  0  0  0  0  0  0  0  0
    0.8724   -0.8529   -2.0746 H   0  0  0  0  0  0  0  0  0  0  0  0
   -0.8034   -0.3746   -2.1607 H   0  0  0  0  0  0  0  0  0  0  0  0
    1.6182   -2.3752   -0.1490 H   0  0  0  0  0  0  0  0  0  0  0  0
   -2.5220   -1.5200   -0.9776 H   0  0  0  0  0  0  0  0  0  0  0  0
    0.9404   -4.3589    1.1626 H   0  0  0  0  0  0  0  0  0  0  0  0
   -3.1895   -3.5056    0.3359 H   0  0  0  0  0  0  0  0  0  0  0  0
   -1.4619   -4.9279    1.4083 H   0  0  0  0  0  0  0  0  0  0  0  0
    2.1663    1.4973   -1.8344 N   0  0  0  0  0  0  0  0  0  0  0  0
    2.9385    2.4239   -2.6305 C   0  0  2  0  0  0  0  0  0  0  0  0
    2.0852    2.8478   -3.8186 C   0  0  0  0  0  0  0  0  0  0  0  0
    1.1448    2.1788   -4.2418 O   0  0  0  0  0  0  0  0  0  0  0  0
    4.2449    1.7991   -3.0950 C   0  0  0  0  0  0  0  0  0  0  0  0
    2.5962    0.6169   -1.5665 H   0  0  0  0  0  0  0  0  0  0  0  0
    3.1404    3.2939   -1.9962 H   0  0  0  0  0  0  0  0  0  0  0  0
    4.0628    0.9258   -3.7318 H   0  0  0  0  0  0  0  0  0  0  0  0
    4.8418    2.5116   -3.6739 H   0  0  0  0  0  0  0  0  0  0  0  0
    4.8441    1.4678   -2.2400 H   0  0  0  0  0  0  0  0  0  0  0  0
    2.5243    4.0398   -4.3776 N   0  0  0  0  0  0  0  0  0  0  0  0
    1.8871    4.6447   -5.5240 C   0  0  0  0  0  0  0  0  0  0  0  0
    3.3004    4.5364   -3.9499 H   0  0  0  0  0  0  0  0  0  0  0  0
    2.3867    4.3055   -6.4434 H   0  0  0  0  0  0  0  0  0  0  0  0
    0.8277    4.3500   -5.5524 H   0  0  0  0  0  0  0  0  0  0  0  0
    1.9612    5.7397   -5.4492 H   0  0  0  0  0  0  0  0  0  0  0  0
 25 27  1  0  0  0  0
 26 27  2  0  0  0  0
 23 25  2  0  0  0  0
 24 26  1  0  0  0  0
 22 23  1  0  0  0  0
 22 24  2  0  0  0  0
 21 22  1  0  0  0  0
  1  3  1  0  0  0  0
  1  7  1  0  0  0  0
  1  2  2  0  0  0  0
 38 39  1  0  0  0  0
 39 47  1  0  0  0  0
 39 40  2  0  0  0  0
  8  9  1  0  0  0  0
  9 17  1  0  0  0  0
  9 10  2  0  0  0  0
 18 19  1  0  0  0  0
 19 37  1  0  0  0  0
 19 20  2  0  0  0  0
 38 41  1  0  0  0  0
  8 11  1  0  0  0  0
 47 48  1  0  0  0  0
 18 21  1  0  0  0  0
 37 38  1  0  0  0  0
  7  8  1  0  0  0  0
 17 18  1  0  0  0  0
 27 36  1  0  0  0  0
 25 34  1  0  0  0  0
 26 35  1  0  0  0  0
 23 32  1  0  0  0  0
 24 33  1  0  0  0  0
  3  4  1  0  0  0  0
  3  5  1  0  0  0  0
  3  6  1  0  0  0  0
 41 44  1  0  0  0  0
 41 45  1  0  0  0  0
 41 46  1  0  0  0  0
 11 14  1  0  0  0  0
 11 15  1  0  0  0  0
 11 16  1  0  0  0  0
 48 50  1  0  0  0  0
 48 51  1  0  0  0  0
 48 52  1  0  0  0  0
 21 30  1  0  0  0  0
 21 31  1  0  0  0  0
 38 43  1  0  0  0  0
  8 13  1  0  0  0  0
 18 29  1  0  0  0  0
 47 49  1  0  0  0  0
  7 12  1  0  0  0  0
 37 42  1  0  0  0  0
 17 28  1  0  0  0  0
M  END
$$$$

  -OEChem-05262214473D

 52 52  0     1  0  0  0  0  0999 V2000
   -1.8248    0.3424    3.9102 C   0  0  0  0  0  0  0  0  0  0  0  0
   -0.8774   -0.2723    3.4345 O   0  0  0  0  0  0  0  0  0  0  0  0
   -2.2566    0.0600    5.3109 C   0  0  0  0  0  0  0  0  0  0  0  0
   -3.0163   -0.7363    5.3643 H   0  0  0  0  0  0  0  0  0  0  0  0
   -1.4254   -0.2876    5.9452 H   0  0  0  0  0  0  0  0  0  0  0  0
   -2.6947    0.9149    5.8505 H   0  0  0  0  0  0  0  0  0  0  0  0
   -2.5745    1.3149    3.2691 N   0  0  0  0  0  0  0  0  0  0  0  0
   -2.3276    1.7409    1.9167 C   0  0  2  0  0  0  0  0  0  0  0  0
   -0.9926    1.1555    1.4755 C   0  0  0  0  0  0  0  0  0  0  0  0
   -0.1206    0.8028    2.2668 O   0  0  0  0  0  0  0  0  0  0  0  0
   -2.3188    3.2577    1.8072 C   0  0  0  0  0  0  0  0  0  0  0  0
   -3.3395    1.7507    3.7809 H   0  0  0  0  0  0  0  0  0  0  0  0
   -3.1317    1.3224    1.3015 H   0  0  0  0  0  0  0  0  0  0  0  0
   -1.5198    3.6949    2.4169 H   0  0  0  0  0  0  0  0  0  0  0  0
   -2.1594    3.5799    0.7729 H   0  0  0  0  0  0  0  0  0  0  0  0
   -3.2690    3.6789    2.1530 H   0  0  0  0  0  0  0  0  0  0  0  0
   -0.8700    1.1124    0.0921 N   0  0  0  0  0  0  0  0  0  0  0  0
    0.3073    0.6116   -0.5716 C   0  0  2  0  0  0  0  0  0  0  0  0
    1.0719    1.8179   -1.1049 C   0  0  0  0  0  0  0  0  0  0  0  0
    0.7070    2.9769   -0.9192 O   0  0  0  0  0  0  0  0  0  0  0  0
   -0.0373   -0.3491   -1.7154 C   0  0  0  0  0  0  0  0  0  0  0  0
   -0.6576   -1.6363   -1.2295 C   0  0  0  0  0  0  0  0  0  0  0  0
    0.1531   -2.6611   -0.7413 C   0  0  0  0  0  0  0  0  0  0  0  0
   -2.0421   -1.8010   -1.2686 C   0  0  0  0  0  0  0  0  0  0  0  0
   -0.4208   -3.8505   -0.2922 C   0  0  0  0  0  0  0  0  0  0  0  0
   -2.6160   -2.9903   -0.8194 C   0  0  0  0  0  0  0  0  0  0  0  0
   -1.8053   -4.0151   -0.3312 C   0  0  0  0  0  0  0  0  0  0  0  0
   -1.6531    1.4091   -0.4852 H   0  0  0  0  0  0  0  0  0  0  0  0
    0.9115    0.1148    0.1966 H   0  0  0  0  0  0  0  0  0  0  0  0
    0.8601   -0.5722   -2.3083 H   0  0  0  0  0  0  0  0  0  0  0  0
   -0.7356    0.1253   -2.4176 H   0  0  0  0  0  0  0  0  0  0  0  0
    1.2328   -2.5417   -0.7070 H   0  0  0  0  0  0  0  0  0  0  0  0
   -2.6816   -1.0080   -1.6472 H   0  0  0  0  0  0  0  0  0  0  0  0
    0.2107   -4.6487    0.0870 H   0  0  0  0  0  0  0  0  0  0  0  0
   -3.6939   -3.1186   -0.8510 H   0  0  0  0  0  0  0  0  0  0  0  0
   -2.2519   -4.9418    0.0173 H   0  0  0  0  0  0  0  0  0  0  0  0
    2.2332    1.4455   -1.7677 N   0  0  0  0  0  0  0  0  0  0  0  0
    3.1538    2.3952   -2.3501 C   0  0  2  0  0  0  0  0  0  0  0  0
    2.3509    3.3607   -3.2119 C   0  0  0  0  0  0  0  0  0  0  0  0
    1.2449    3.0872   -3.6733 O   0  0  0  0  0  0  0  0  0  0  0  0
    4.2249    1.6950   -3.1718 C   0  0  0  0  0  0  0  0  0  0  0  0
    2.4467    0.4557   -1.8473 H   0  0  0  0  0  0  0  0  0  0  0  0
    3.6125    2.9417   -1.5188 H   0  0  0  0  0  0  0  0  0  0  0  0
    3.7843    1.1421   -4.0095 H   0  0  0  0  0  0  0  0  0  0  0  0
    4.9381    2.4137   -3.5888 H   0  0  0  0  0  0  0  0  0  0  0  0
    4.7817    0.9793   -2.5574 H   0  0  0  0  0  0  0  0  0  0  0  0
    3.0335    4.5472   -3.4409 N   0  0  0  0  0  0  0  0  0  0  0  0
    2.4876    5.6189   -4.2405 C   0  0  0  0  0  0  0  0  0  0  0  0
    3.9380    4.6958   -3.0031 H   0  0  0  0  0  0  0  0  0  0  0  0
    2.8187    5.5044   -5.2832 H   0  0  0  0  0  0  0  0  0  0  0  0
    1.3890    5.5843   -4.1989 H   0  0  0  0  0  0  0  0  0  0  0  0
    2.8392    6.5846   -3.8483 H   0  0  0  0  0  0  0  0  0  0  0  0
 25 27  1  0  0  0  0
 26 27  2  0  0  0  0
 23 25  2  0  0  0  0
 24 26  1  0  0  0  0
 22 23  1  0  0  0  0
 22 24  2  0  0  0  0
 21 22  1  0  0  0  0
  1  3  1  0  0  0  0
  1  7  1  0  0  0  0
  1  2  2  0  0  0  0
 38 39  1  0  0  0  0
 39 47  1  0  0  0  0
 39 40  2  0  0  0  0
  8  9  1  0  0  0  0
  9 17  1  0  0  0  0
  9 10  2  0  0  0  0
 18 19  1  0  0  0  0
 19 37  1  0  0  0  0
 19 20  2  0  0  0  0
 38 41  1  0  0  0  0
  8 11  1  0  0  0  0
 47 48  1  0  0  0  0
 18 21  1  0  0  0  0
 37 38  1  0  0  0  0
  7  8  1  0  0  0  0
 17 18  1  0  0  0  0
 27 36  1  0  0  0  0
 25 34  1  0  0  0  0
 26 35  1  0  0  0  0
 23 32  1  0  0  0  0
 24 33  1  0  0  0  0
  3  4  1  0  0  0  0
  3  5  1  0  0  0  0
  3  6  1  0  0  0  0
 41 44  1  0  0  0  0
 41 45  1  0  0  0  0
 41 46  1  0  0  0  0
 11 14  1  0  0  0  0
 11 15  1  0  0  0  0
 11 16  1  0  0  0  0
 48 50  1  0  0  0  0
 48 51  1  0  0  0  0
 48 52  1  0  0  0  0
 21 30  1  0  0  0  0
 21 31  1  0  0  0  0
 38 43  1  0  0  0  0
  8 13  1  0  0  0  0
 18 29  1  0  0  0  0
 47 49  1  0  0  0  0
  7 12  1  0  0  0  0
 37 42  1  0  0  0  0
 17 28  1  0  0  0  0
M  END
$$$$

  -OEChem-05262214473D

 52 52  0     1  0  0  0  0  0999 V2000
   -1.8248    0.3424    3.9102 C   0  0  0  0  0  0  0  0  0  0  0  0
   -0.8774   -0.2723    3.4345 O   0  0  0  0  0  0  0  0  0  0  0  0
   -2.2566    0.0600    5.3109 C   0  0  0  0  0  0  0  0  0  0  0  0
   -3.0163   -0.7363    5.3643 H   0  0  0  0  0  0  0  0  0  0  0  0
   -1.4254   -0.2876    5.9452 H   0  0  0  0  0  0  0  0  0  0  0  0
   -2.6947    0.9149    5.8505 H   0  0  0  0  0  0  0  0  0  0  0  0
   -2.5745    1.3149    3.2691 N   0  0  0  0  0  0  0  0  0  0  0  0
   -2.3276    1.7409    1.9167 C   0  0  2  0  0  0  0  0  0  0  0  0
   -0.9926    1.1555    1.4755 C   0  0  0  0  0  0  0  0  0  0  0  0
   -0.1206    0.8028    2.2668 O   0  0  0  0  0  0  0  0  0  0  0  0
   -2.3188    3.2577    1.8072 C   0  0  0  0  0  0  0  0  0  0  0  0
   -3.3395    1.7507    3.7809 H   0  0  0  0  0  0  0  0  0  0  0  0
   -3.1317    1.3224    1.3015 H   0  0  0  0  0  0  0  0  0  0  0  0
   -1.5198    3.6949    2.4169 H   0  0  0  0  0  0  0  0  0  0  0  0
   -2.1594    3.5799    0.7729 H   0  0  0  0  0  0  0  0  0  0  0  0
   -3.2690    3.6789    2.1530 H   0  0  0  0  0  0  0  0  0  0  0  0
   -0.8700    1.1124    0.0921 N   0  0  0  0  0  0  0  0  0  0  0  0
    0.3073    0.6116   -0.5716 C   0  0  2  0  0  0  0  0  0  0  0  0
    1.0719    1.8179   -1.1049 C   0  0  0  0  0  0  0  0  0  0  0  0
    0.8739    2.9644   -0.7084 O   0  0  0  0  0  0  0  0  0  0  0  0
   -0.0373   -0.3491   -1.7154 C   0  0  0  0  0  0  0  0  0  0  0  0
   -0.6576   -1.6363   -1.2295 C   0  0  0  0  0  0  0  0  0  0  0  0
    0.1531   -2.6611   -0.7413 C   0  0  0  0  0  0  0  0  0  0  0  0
   -2.0421   -1.8010   -1.2686 C   0  0  0  0  0  0  0  0  0  0  0  0
   -0.4208   -3.8505   -0.2922 C   0  0  0  0  0  0  0  0  0  0  0  0
   -2.6160   -2.9903   -0.8194 C   0  0  0  0  0  0  0  0  0  0  0  0
   -1.8053   -4.0151   -0.3312 C   0  0  0  0  0  0  0  0  0  0  0  0
   -1.6531    1.4091   -0.4852 H   0  0  0  0  0  0  0  0  0  0  0  0
    0.9115    0.1148    0.1966 H   0  0  0  0  0  0  0  0  0  0  0  0
    0.8601   -0.5722   -2.3083 H   0  0  0  0  0  0  0  0  0  0  0  0
   -0.7356    0.1253   -2.4176 H   0  0  0  0  0  0  0  0  0  0  0  0
    1.2328   -2.5417   -0.7070 H   0  0  0  0  0  0  0  0  0  0  0  0
   -2.6816   -1.0080   -1.6472 H   0  0  0  0  0  0  0  0  0  0  0  0
    0.2107   -4.6487    0.0870 H   0  0  0  0  0  0  0  0  0  0  0  0
   -3.6939   -3.1186   -0.8510 H   0  0  0  0  0  0  0  0  0  0  0  0
   -2.2519   -4.9418    0.0173 H   0  0  0  0  0  0  0  0  0  0  0  0
    2.0330    1.4531   -2.0374 N   0  0  0  0  0  0  0  0  0  0  0  0
    2.9132    2.4009   -2.6822 C   0  0  2  0  0  0  0  0  0  0  0  0
    2.0600    3.5359   -3.2327 C   0  0  0  0  0  0  0  0  0  0  0  0
    0.8619    3.4153   -3.4801 O   0  0  0  0  0  0  0  0  0  0  0  0
    3.7208    1.7415   -3.7894 C   0  0  0  0  0  0  0  0  0  0  0  0
    2.1223    0.4705   -2.2789 H   0  0  0  0  0  0  0  0  0  0  0  0
    3.5824    2.7893   -1.9066 H   0  0  0  0  0  0  0  0  0  0  0  0
    3.0673    1.3463   -4.5756 H   0  0  0  0  0  0  0  0  0  0  0  0
    4.4076    2.4542   -4.2577 H   0  0  0  0  0  0  0  0  0  0  0  0
    4.3111    0.9065   -3.3969 H   0  0  0  0  0  0  0  0  0  0  0  0
    2.8031    4.6866   -3.4559 N   0  0  0  0  0  0  0  0  0  0  0  0
    2.2237    5.8980   -3.9876 C   0  0  0  0  0  0  0  0  0  0  0  0
    3.7870    4.7027   -3.2040 H   0  0  0  0  0  0  0  0  0  0  0  0
    2.3271    5.9047   -5.0827 H   0  0  0  0  0  0  0  0  0  0  0  0
    1.1577    5.9427   -3.7198 H   0  0  0  0  0  0  0  0  0  0  0  0
    2.7447    6.7697   -3.5649 H   0  0  0  0  0  0  0  0  0  0  0  0
 25 27  1  0  0  0  0
 26 27  2  0  0  0  0
 23 25  2  0  0  0  0
 24 26  1  0  0  0  0
 22 23  1  0  0  0  0
 22 24  2  0  0  0  0
 21 22  1  0  0  0  0
  1  3  1  0  0  0  0
  1  7  1  0  0  0  0
  1  2  2  0  0  0  0
 38 39  1  0  0  0  0
 39 47  1  0  0  0  0
 39 40  2  0  0  0  0
  8  9  1  0  0  0  0
  9 17  1  0  0  0  0
  9 10  2  0  0  0  0
 18 19  1  0  0  0  0
 19 37  1  0  0  0  0
 19 20  2  0  0  0  0
 38 41  1  0  0  0  0
  8 11  1  0  0  0  0
 47 48  1  0  0  0  0
 18 21  1  0  0  0  0
 37 38  1  0  0  0  0
  7  8  1  0  0  0  0
 17 18  1  0  0  0  0
 27 36  1  0  0  0  0
 25 34  1  0  0  0  0
 26 35  1  0  0  0  0
 23 32  1  0  0  0  0
 24 33  1  0  0  0  0
  3  4  1  0  0  0  0
  3  5  1  0  0  0  0
  3  6  1  0  0  0  0
 41 44  1  0  0  0  0
 41 45  1  0  0  0  0
 41 46  1  0  0  0  0
 11 14  1  0  0  0  0
 11 15  1  0  0  0  0
 11 16  1  0  0  0  0
 48 50  1  0  0  0  0
 48 51  1  0  0  0  0
 48 52  1  0  0  0  0
 21 30  1  0  0  0  0
 21 31  1  0  0  0  0
 38 43  1  0  0  0  0
  8 13  1  0  0  0  0
 18 29  1  0  0  0  0
 47 49  1  0  0  0  0
  7 12  1  0  0  0  0
 37 42  1  0  0  0  0
 17 28  1  0  0  0  0
M  END
$$$$

  -OEChem-05262214473D

 52 52  0     1  0  0  0  0  0999 V2000
   -1.8248    0.3424    3.9102 C   0  0  0  0  0  0  0  0  0  0  0  0
   -0.8774   -0.2723    3.4345 O   0  0  0  0  0  0  0  0  0  0  0  0
   -2.2566    0.0600    5.3109 C   0  0  0  0  0  0  0  0  0  0  0  0
   -3.0163   -0.7363    5.3643 H   0  0  0  0  0  0  0  0  0  0  0  0
   -1.4254   -0.2876    5.9452 H   0  0  0  0  0  0  0  0  0  0  0  0
   -2.6947    0.9149    5.8505 H   0  0  0  0  0  0  0  0  0  0  0  0
   -2.5745    1.3149    3.2691 N   0  0  0  0  0  0  0  0  0  0  0  0
   -2.3276    1.7409    1.9167 C   0  0  2  0  0  0  0  0  0  0  0  0
   -0.9926    1.1555    1.4755 C   0  0  0  0  0  0  0  0  0  0  0  0
   -0.1206    0.8028    2.2668 O   0  0  0  0  0  0  0  0  0  0  0  0
   -2.3188    3.2577    1.8072 C   0  0  0  0  0  0  0  0  0  0  0  0
   -3.3395    1.7507    3.7809 H   0  0  0  0  0  0  0  0  0  0  0  0
   -3.1317    1.3224    1.3015 H   0  0  0  0  0  0  0  0  0  0  0  0
   -1.5198    3.6949    2.4169 H   0  0  0  0  0  0  0  0  0  0  0  0
   -2.1594    3.5799    0.7729 H   0  0  0  0  0  0  0  0  0  0  0  0
   -3.2690    3.6789    2.1530 H   0  0  0  0  0  0  0  0  0  0  0  0
   -0.8700    1.1124    0.0921 N   0  0  0  0  0  0  0  0  0  0  0  0
    0.3073    0.6116   -0.5716 C   0  0  2  0  0  0  0  0  0  0  0  0
    1.0719    1.8179   -1.1049 C   0  0  0  0  0  0  0  0  0  0  0  0
    1.0771    2.9098   -0.5405 O   0  0  0  0  0  0  0  0  0  0  0  0
   -0.0373   -0.3491   -1.7154 C   0  0  0  0  0  0  0  0  0  0  0  0
   -0.6576   -1.6363   -1.2295 C   0  0  0  0  0  0  0  0  0  0  0  0
    0.1531   -2.6611   -0.7413 C   0  0  0  0  0  0  0  0  0  0  0  0
   -2.0421   -1.8010   -1.2686 C   0  0  0  0  0  0  0  0  0  0  0  0
   -0.4208   -3.8505   -0.2922 C   0  0  0  0  0  0  0  0  0  0  0  0
   -2.6160   -2.9903   -0.8194 C   0  0  0  0  0  0  0  0  0  0  0  0
   -1.8053   -4.0151   -0.3312 C   0  0  0  0  0  0  0  0  0  0  0  0
   -1.6531    1.4091   -0.4852 H   0  0  0  0  0  0  0  0  0  0  0  0
    0.9115    0.1148    0.1966 H   0  0  0  0  0  0  0  0  0  0  0  0
    0.8601   -0.5722   -2.3083 H   0  0  0  0  0  0  0  0  0  0  0  0
   -0.7356    0.1253   -2.4176 H   0  0  0  0  0  0  0  0  0  0  0  0
    1.2328   -2.5417   -0.7070 H   0  0  0  0  0  0  0  0  0  0  0  0
   -2.6816   -1.0080   -1.6472 H   0  0  0  0  0  0  0  0  0  0  0  0
    0.2107   -4.6487    0.0870 H   0  0  0  0  0  0  0  0  0  0  0  0
   -3.6939   -3.1186   -0.8510 H   0  0  0  0  0  0  0  0  0  0  0  0
   -2.2519   -4.9418    0.0173 H   0  0  0  0  0  0  0  0  0  0  0  0
    1.7852    1.5135   -2.2560 N   0  0  0  0  0  0  0  0  0  0  0  0
    2.6134    2.4713   -2.9529 C   0  0  2  0  0  0  0  0  0  0  0  0
    1.7905    3.7342   -3.1706 C   0  0  0  0  0  0  0  0  0  0  0  0
    0.5613    3.7418   -3.1726 O   0  0  0  0  0  0  0  0  0  0  0  0
    3.1115    1.9123   -4.2766 C   0  0  0  0  0  0  0  0  0  0  0  0
    1.7219    0.5702   -2.6274 H   0  0  0  0  0  0  0  0  0  0  0  0
    3.4600    2.6952   -2.2949 H   0  0  0  0  0  0  0  0  0  0  0  0
    2.2773    1.6818   -4.9492 H   0  0  0  0  0  0  0  0  0  0  0  0
    3.7620    2.6281   -4.7899 H   0  0  0  0  0  0  0  0  0  0  0  0
    3.6779    0.9878   -4.1207 H   0  0  0  0  0  0  0  0  0  0  0  0
    2.5901    4.8441   -3.4052 N   0  0  0  0  0  0  0  0  0  0  0  0
    2.0458    6.1587   -3.6530 C   0  0  0  0  0  0  0  0  0  0  0  0
    3.6006    4.7491   -3.3662 H   0  0  0  0  0  0  0  0  0  0  0  0
    1.9295    6.3098   -4.7364 H   0  0  0  0  0  0  0  0  0  0  0  0
    1.0648    6.2476   -3.1632 H   0  0  0  0  0  0  0  0  0  0  0  0
    2.7283    6.9203   -3.2479 H   0  0  0  0  0  0  0  0  0  0  0  0
 25 27  1  0  0  0  0
 26 27  2  0  0  0  0
 23 25  2  0  0  0  0
 24 26  1  0  0  0  0
 22 23  1  0  0  0  0
 22 24  2  0  0  0  0
 21 22  1  0  0  0  0
  1  3  1  0  0  0  0
  1  7  1  0  0  0  0
  1  2  2  0  0  0  0
 38 39  1  0  0  0  0
 39 47  1  0  0  0  0
 39 40  2  0  0  0  0
  8  9  1  0  0  0  0
  9 17  1  0  0  0  0
  9 10  2  0  0  0  0
 18 19  1  0  0  0  0
 19 37  1  0  0  0  0
 19 20  2  0  0  0  0
 38 41  1  0  0  0  0
  8 11  1  0  0  0  0
 47 48  1  0  0  0  0
 18 21  1  0  0  0  0
 37 38  1  0  0  0  0
  7  8  1  0  0  0  0
 17 18  1  0  0  0  0
 27 36  1  0  0  0  0
 25 34  1  0  0  0  0
 26 35  1  0  0  0  0
 23 32  1  0  0  0  0
 24 33  1  0  0  0  0
  3  4  1  0  0  0  0
  3  5  1  0  0  0  0
  3  6  1  0  0  0  0
 41 44  1  0  0  0  0
 41 45  1  0  0  0  0
 41 46  1  0  0  0  0
 11 14  1  0  0  0  0
 11 15  1  0  0  0  0
 11 16  1  0  0  0  0
 48 50  1  0  0  0  0
 48 51  1  0  0  0  0
 48 52  1  0  0  0  0
 21 30  1  0  0  0  0
 21 31  1  0  0  0  0
 38 43  1  0  0  0  0
  8 13  1  0  0  0  0
 18 29  1  0  0  0  0
 47 49  1  0  0  0  0
  7 12  1  0  0  0  0
 37 42  1  0  0  0  0
 17 28  1  0  0  0  0
M  END
$$$$

  -OEChem-05262214473D

 52 52  0     1  0  0  0  0  0999 V2000
   -1.8248    0.3424    3.9102 C   0  0  0  0  0  0  0  0  0  0  0  0
   -0.8774   -0.2723    3.4345 O   0  0  0  0  0  0  0  0  0  0  0  0
   -2.2566    0.0600    5.3109 C   0  0  0  0  0  0  0  0  0  0  0  0
   -3.0163   -0.7363    5.3643 H   0  0  0  0  0  0  0  0  0  0  0  0
   -1.4254   -0.2876    5.9452 H   0  0  0  0  0  0  0  0  0  0  0  0
   -2.6947    0.9149    5.8505 H   0  0  0  0  0  0  0  0  0  0  0  0
   -2.5745    1.3149    3.2691 N   0  0  0  0  0  0  0  0  0  0  0  0
   -2.3276    1.7409    1.9167 C   0  0  2  0  0  0  0  0  0  0  0  0
   -0.9926    1.1555    1.4755 C   0  0  0  0  0  0  0  0  0  0  0  0
   -0.1206    0.8028    2.2668 O   0  0  0  0  0  0  0  0  0  0  0  0
   -2.3188    3.2577    1.8072 C   0  0  0  0  0  0  0  0  0  0  0  0
   -3.3395    1.7507    3.7809 H   0  0  0  0  0  0  0  0  0  0  0  0
   -3.1317    1.3224    1.3015 H   0  0  0  0  0  0  0  0  0  0  0  0
   -1.5198    3.6949    2.4169 H   0  0  0  0  0  0  0  0  0  0  0  0
   -2.1594    3.5799    0.7729 H   0  0  0  0  0  0  0  0  0  0  0  0
   -3.2690    3.6789    2.1530 H   0  0  0  0  0  0  0  0  0  0  0  0
   -0.8700    1.1124    0.0921 N   0  0  0  0  0  0  0  0  0  0  0  0
    0.3073    0.6116   -0.5716 C   0  0  2  0  0  0  0  0  0  0  0  0
    1.0719    1.8179   -1.1049 C   0  0  0  0  0  0  0  0  0  0  0  0
    1.3028    2.8169   -0.4270 O   0  0  0  0  0  0  0  0  0  0  0  0
   -0.0373   -0.3491   -1.7154 C   0  0  0  0  0  0  0  0  0  0  0  0
   -0.6576   -1.6363   -1.2295 C   0  0  0  0  0  0  0  0  0  0  0  0
    0.1531   -2.6611   -0.7413 C   0  0  0  0  0  0  0  0  0  0  0  0
   -2.0421   -1.8010   -1.2686 C   0  0  0  0  0  0  0  0  0  0  0  0
   -0.4208   -3.8505   -0.2922 C   0  0  0  0  0  0  0  0  0  0  0  0
   -2.6160   -2.9903   -0.8194 C   0  0  0  0  0  0  0  0  0  0  0  0
   -1.8053   -4.0151   -0.3312 C   0  0  0  0  0  0  0  0  0  0  0  0
   -1.6531    1.4091   -0.4852 H   0  0  0  0  0  0  0  0  0  0  0  0
    0.9115    0.1148    0.1966 H   0  0  0  0  0  0  0  0  0  0  0  0
    0.8601   -0.5722   -2.3083 H   0  0  0  0  0  0  0  0  0  0  0  0
   -0.7356    0.1253   -2.4176 H   0  0  0  0  0  0  0  0  0  0  0  0
    1.2328   -2.5417   -0.7070 H   0  0  0  0  0  0  0  0  0  0  0  0
   -2.6816   -1.0080   -1.6472 H   0  0  0  0  0  0  0  0  0  0  0  0
    0.2107   -4.6487    0.0870 H   0  0  0  0  0  0  0  0  0  0  0  0
   -3.6939   -3.1186   -0.8510 H   0  0  0  0  0  0  0  0  0  0  0  0
   -2.2519   -4.9418    0.0173 H   0  0  0  0  0  0  0  0  0  0  0  0
    1.5064    1.6228   -2.4086 N   0  0  0  0  0  0  0  0  0  0  0  0
    2.2746    2.6015   -3.1439 C   0  0  2  0  0  0  0  0  0  0  0  0
    1.5609    3.9420   -3.0296 C   0  0  0  0  0  0  0  0  0  0  0  0
    0.3634    4.0446   -2.7715 O   0  0  0  0  0  0  0  0  0  0  0  0
    2.4388    2.1956   -4.6003 C   0  0  0  0  0  0  0  0  0  0  0  0
    1.2728    0.7480   -2.8690 H   0  0  0  0  0  0  0  0  0  0  0  0
    3.2538    2.6658   -2.6570 H   0  0  0  0  0  0  0  0  0  0  0  0
    1.4681    2.1260   -5.1047 H   0  0  0  0  0  0  0  0  0  0  0  0
    3.0450    2.9237   -5.1492 H   0  0  0  0  0  0  0  0  0  0  0  0
    2.9255    1.2175   -4.6798 H   0  0  0  0  0  0  0  0  0  0  0  0
    2.4089    5.0089   -3.2922 N   0  0  0  0  0  0  0  0  0  0  0  0
    1.9660    6.3832   -3.2596 C   0  0  0  0  0  0  0  0  0  0  0  0
    3.3916    4.8319   -3.4788 H   0  0  0  0  0  0  0  0  0  0  0  0
    1.6531    6.6921   -4.2679 H   0  0  0  0  0  0  0  0  0  0  0  0
    1.1168    6.4783   -2.5670 H   0  0  0  0  0  0  0  0  0  0  0  0
    2.7909    7.0261   -2.9187 H   0  0  0  0  0  0  0  0  0  0  0  0
 25 27  1  0  0  0  0
 26 27  2  0  0  0  0
 23 25  2  0  0  0  0
 24 26  1  0  0  0  0
 22 23  1  0  0  0  0
 22 24  2  0  0  0  0
 21 22  1  0  0  0  0
  1  3  1  0  0  0  0
  1  7  1  0  0  0  0
  1  2  2  0  0  0  0
 38 39  1  0  0  0  0
 39 47  1  0  0  0  0
 39 40  2  0  0  0  0
  8  9  1  0  0  0  0
  9 17  1  0  0  0  0
  9 10  2  0  0  0  0
 18 19  1  0  0  0  0
 19 37  1  0  0  0  0
 19 20  2  0  0  0  0
 38 41  1  0  0  0  0
  8 11  1  0  0  0  0
 47 48  1  0  0  0  0
 18 21  1  0  0  0  0
 37 38  1  0  0  0  0
  7  8  1  0  0  0  0
 17 18  1  0  0  0  0
 27 36  1  0  0  0  0
 25 34  1  0  0  0  0
 26 35  1  0  0  0  0
 23 32  1  0  0  0  0
 24 33  1  0  0  0  0
  3  4  1  0  0  0  0
  3  5  1  0  0  0  0
  3  6  1  0  0  0  0
 41 44  1  0  0  0  0
 41 45  1  0  0  0  0
 41 46  1  0  0  0  0
 11 14  1  0  0  0  0
 11 15  1  0  0  0  0
 11 16  1  0  0  0  0
 48 50  1  0  0  0  0
 48 51  1  0  0  0  0
 48 52  1  0  0  0  0
 21 30  1  0  0  0  0
 21 31  1  0  0  0  0
 38 43  1  0  0  0  0
  8 13  1  0  0  0  0
 18 29  1  0  0  0  0
 47 49  1  0  0  0  0
  7 12  1  0  0  0  0
 37 42  1  0  0  0  0
 17 28  1  0  0  0  0
M  END
$$$$

  -OEChem-05262214473D

 52 52  0     1  0  0  0  0  0999 V2000
   -1.8248    0.3424    3.9102 C   0  0  0  0  0  0  0  0  0  0  0  0
   -0.8774   -0.2723    3.4345 O   0  0  0  0  0  0  0  0  0  0  0  0
   -2.2566    0.0600    5.3109 C   0  0  0  0  0  0  0  0  0  0  0  0
   -3.0163   -0.7363    5.3643 H   0  0  0  0  0  0  0  0  0  0  0  0
   -1.4254   -0.2876    5.9452 H   0  0  0  0  0  0  0  0  0  0  0  0
   -2.6947    0.9149    5.8505 H   0  0  0  0  0  0  0  0  0  0  0  0
   -2.5745    1.3149    3.2691 N   0  0  0  0  0  0  0  0  0  0  0  0
   -2.3276    1.7409    1.9167 C   0  0  2  0  0  0  0  0  0  0  0  0
   -0.9926    1.1555    1.4755 C   0  0  0  0  0  0  0  0  0  0  0  0
   -0.1206    0.8028    2.2668 O   0  0  0  0  0  0  0  0  0  0  0  0
   -2.3188    3.2577    1.8072 C   0  0  0  0  0  0  0  0  0  0  0  0
   -3.3395    1.7507    3.7809 H   0  0  0  0  0  0  0  0  0  0  0  0
   -3.1317    1.3224    1.3015 H   0  0  0  0  0  0  0  0  0  0  0  0
   -1.5198    3.6949    2.4169 H   0  0  0  0  0  0  0  0  0  0  0  0
   -2.1594    3.5799    0.7729 H   0  0  0  0  0  0  0  0  0  0  0  0
   -3.2690    3.6789    2.1530 H   0  0  0  0  0  0  0  0  0  0  0  0
   -0.8700    1.1124    0.0921 N   0  0  0  0  0  0  0  0  0  0  0  0
    0.3073    0.6116   -0.5716 C   0  0  2  0  0  0  0  0  0  0  0  0
    1.0719    1.8179   -1.1049 C   0  0  0  0  0  0  0  0  0  0  0  0
    1.5356    2.6920   -0.3757 O   0  0  0  0  0  0  0  0  0  0  0  0
   -0.0373   -0.3491   -1.7154 C   0  0  0  0  0  0  0  0  0  0  0  0
   -0.6576   -1.6363   -1.2295 C   0  0  0  0  0  0  0  0  0  0  0  0
    0.1531   -2.6611   -0.7413 C   0  0  0  0  0  0  0  0  0  0  0  0
   -2.0421   -1.8010   -1.2686 C   0  0  0  0  0  0  0  0  0  0  0  0
   -0.4208   -3.8505   -0.2922 C   0  0  0  0  0  0  0  0  0  0  0  0
   -2.6160   -2.9903   -0.8194 C   0  0  0  0  0  0  0  0  0  0  0  0
   -1.8053   -4.0151   -0.3312 C   0  0  0  0  0  0  0  0  0  0  0  0
   -1.6531    1.4091   -0.4852 H   0  0  0  0  0  0  0  0  0  0  0  0
    0.9115    0.1148    0.1966 H   0  0  0  0  0  0  0  0  0  0  0  0
    0.8601   -0.5722   -2.3083 H   0  0  0  0  0  0  0  0  0  0  0  0
   -0.7356    0.1253   -2.4176 H   0  0  0  0  0  0  0  0  0  0  0  0
    1.2328   -2.5417   -0.7070 H   0  0  0  0  0  0  0  0  0  0  0  0
   -2.6816   -1.0080   -1.6472 H   0  0  0  0  0  0  0  0  0  0  0  0
    0.2107   -4.6487    0.0870 H   0  0  0  0  0  0  0  0  0  0  0  0
   -3.6939   -3.1186   -0.8510 H   0  0  0  0  0  0  0  0  0  0  0  0
   -2.2519   -4.9418    0.0173 H   0  0  0  0  0  0  0  0  0  0  0  0
    1.2159    1.7733   -2.4847 N   0  0  0  0  0  0  0  0  0  0  0  0
    1.9201    2.7828   -3.2421 C   0  0  2  0  0  0  0  0  0  0  0  0
    1.3868    4.1453   -2.8194 C   0  0  0  0  0  0  0  0  0  0  0  0
    0.2819    4.3028   -2.3043 O   0  0  0  0  0  0  0  0  0  0  0  0
    1.7483    2.5722   -4.7384 C   0  0  0  0  0  0  0  0  0  0  0  0
    0.8056    0.9918   -2.9874 H   0  0  0  0  0  0  0  0  0  0  0  0
    2.9778    2.7030   -2.9685 H   0  0  0  0  0  0  0  0  0  0  0  0
    0.6948    2.6485   -5.0315 H   0  0  0  0  0  0  0  0  0  0  0  0
    2.3057    3.3207   -5.3110 H   0  0  0  0  0  0  0  0  0  0  0  0
    2.1050    1.5802   -5.0358 H   0  0  0  0  0  0  0  0  0  0  0  0
    2.2720    5.1698   -3.1244 N   0  0  0  0  0  0  0  0  0  0  0  0
    1.9899    6.5562   -2.8341 C   0  0  0  0  0  0  0  0  0  0  0  0
    3.1741    4.9453   -3.5339 H   0  0  0  0  0  0  0  0  0  0  0  0
    1.5167    7.0256   -3.7091 H   0  0  0  0  0  0  0  0  0  0  0  0
    1.3099    6.6190   -1.9717 H   0  0  0  0  0  0  0  0  0  0  0  0
    2.9285    7.0799   -2.5999 H   0  0  0  0  0  0  0  0  0  0  0  0
 25 27  1  0  0  0  0
 26 27  2  0  0  0  0
 23 25  2  0  0  0  0
 24 26  1  0  0  0  0
 22 23  1  0  0  0  0
 22 24  2  0  0  0  0
 21 22  1  0  0  0  0
  1  3  1  0  0  0  0
  1  7  1  0  0  0  0
  1  2  2  0  0  0  0
 38 39  1  0  0  0  0
 39 47  1  0  0  0  0
 39 40  2  0  0  0  0
  8  9  1  0  0  0  0
  9 17  1  0  0  0  0
  9 10  2  0  0  0  0
 18 19  1  0  0  0  0
 19 37  1  0  0  0  0
 19 20  2  0  0  0  0
 38 41  1  0  0  0  0
  8 11  1  0  0  0  0
 47 48  1  0  0  0  0
 18 21  1  0  0  0  0
 37 38  1  0  0  0  0
  7  8  1  0  0  0  0
 17 18  1  0  0  0  0
 27 36  1  0  0  0  0
 25 34  1  0  0  0  0
 26 35  1  0  0  0  0
 23 32  1  0  0  0  0
 24 33  1  0  0  0  0
  3  4  1  0  0  0  0
  3  5  1  0  0  0  0
  3  6  1  0  0  0  0
 41 44  1  0  0  0  0
 41 45  1  0  0  0  0
 41 46  1  0  0  0  0
 11 14  1  0  0  0  0
 11 15  1  0  0  0  0
 11 16  1  0  0  0  0
 48 50  1  0  0  0  0
 48 51  1  0  0  0  0
 48 52  1  0  0  0  0
 21 30  1  0  0  0  0
 21 31  1  0  0  0  0
 38 43  1  0  0  0  0
  8 13  1  0  0  0  0
 18 29  1  0  0  0  0
 47 49  1  0  0  0  0
  7 12  1  0  0  0  0
 37 42  1  0  0  0  0
 17 28  1  0  0  0  0
M  END
$$$$

  -OEChem-05262214473D

 52 52  0     1  0  0  0  0  0999 V2000
   -1.8248    0.3424    3.9102 C   0  0  0  0  0  0  0  0  0  0  0  0
   -0.8774   -0.2723    3.4345 O   0  0  0  0  0  0  0  0  0  0  0  0
   -2.2566    0.0600    5.3109 C   0  0  0  0  0  0  0  0  0  0  0  0
   -3.0163   -0.7363    5.3643 H   0  0  0  0  0  0  0  0  0  0  0  0
   -1.4254   -0.2876    5.9452 H   0  0  0  0  0  0  0  0  0  0  0  0
   -2.6947    0.9149    5.8505 H   0  0  0  0  0  0  0  0  0  0  0  0
   -2.5745    1.3149    3.2691 N   0  0  0  0  0  0  0  0  0  0  0  0
   -2.3276    1.7409    1.9167 C   0  0  2  0  0  0  0  0  0  0  0  0
   -0.9926    1.1555    1.4755 C   0  0  0  0  0  0  0  0  0  0  0  0
   -0.1206    0.8028    2.2668 O   0  0  0  0  0  0  0  0  0  0  0  0
   -2.3188    3.2577    1.8072 C   0  0  0  0  0  0  0  0  0  0  0  0
   -3.3395    1.7507    3.7809 H   0  0  0  0  0  0  0  0  0  0  0  0
   -3.1317    1.3224    1.3015 H   0  0  0  0  0  0  0  0  0  0  0  0
   -1.5198    3.6949    2.4169 H   0  0  0  0  0  0  0  0  0  0  0  0
   -2.1594    3.5799    0.7729 H   0  0  0  0  0  0  0  0  0  0  0  0
   -3.2690    3.6789    2.1530 H   0  0  0  0  0  0  0  0  0  0  0  0
   -0.8700    1.1124    0.0921 N   0  0  0  0  0  0  0  0  0  0  0  0
    0.3073    0.6116   -0.5716 C   0  0  2  0  0  0  0  0  0  0  0  0
    1.0719    1.8179   -1.1049 C   0  0  0  0  0  0  0  0  0  0  0  0
    1.7597    2.5436   -0.3900 O   0  0  0  0  0  0  0  0  0  0  0  0
   -0.0373   -0.3491   -1.7154 C   0  0  0  0  0  0  0  0  0  0  0  0
   -0.6576   -1.6363   -1.2295 C   0  0  0  0  0  0  0  0  0  0  0  0
    0.1531   -2.6611   -0.7413 C   0  0  0  0  0  0  0  0  0  0  0  0
   -2.0421   -1.8010   -1.2686 C   0  0  0  0  0  0  0  0  0  0  0  0
   -0.4208   -3.8505   -0.2922 C   0  0  0  0  0  0  0  0  0  0  0  0
   -2.6160   -2.9903   -0.8194 C   0  0  0  0  0  0  0  0  0  0  0  0
   -1.8053   -4.0151   -0.3312 C   0  0  0  0  0  0  0  0  0  0  0  0
   -1.6531    1.4091   -0.4852 H   0  0  0  0  0  0  0  0  0  0  0  0
    0.9115    0.1148    0.1966 H   0  0  0  0  0  0  0  0  0  0  0  0
    0.8601   -0.5722   -2.3083 H   0  0  0  0  0  0  0  0  0  0  0  0
   -0.7356    0.1253   -2.4176 H   0  0  0  0  0  0  0  0  0  0  0  0
    1.2328   -2.5417   -0.7070 H   0  0  0  0  0  0  0  0  0  0  0  0
   -2.6816   -1.0080   -1.6472 H   0  0  0  0  0  0  0  0  0  0  0  0
    0.2107   -4.6487    0.0870 H   0  0  0  0  0  0  0  0  0  0  0  0
   -3.6939   -3.1186   -0.8510 H   0  0  0  0  0  0  0  0  0  0  0  0
   -2.2519   -4.9418    0.0173 H   0  0  0  0  0  0  0  0  0  0  0  0
    0.9332    1.9549   -2.4791 N   0  0  0  0  0  0  0  0  0  0  0  0
    1.5740    3.0028   -3.2408 C   0  0  2  0  0  0  0  0  0  0  0  0
    1.2801    4.3301   -2.5544 C   0  0  0  0  0  0  0  0  0  0  0  0
    0.3221    4.4990   -1.8028 O   0  0  0  0  0  0  0  0  0  0  0  0
    1.0871    3.0164   -4.6815 C   0  0  0  0  0  0  0  0  0  0  0  0
    0.3521    1.2850   -2.9744 H   0  0  0  0  0  0  0  0  0  0  0  0
    2.6508    2.8044   -3.2079 H   0  0  0  0  0  0  0  0  0  0  0  0
    0.0102    3.2136   -4.7346 H   0  0  0  0  0  0  0  0  0  0  0  0
    1.5944    3.7922   -5.2644 H   0  0  0  0  0  0  0  0  0  0  0  0
    1.2724    2.0509   -5.1646 H   0  0  0  0  0  0  0  0  0  0  0  0
    2.1887    5.3158   -2.9135 N   0  0  0  0  0  0  0  0  0  0  0  0
    2.1158    6.6658   -2.4055 C   0  0  0  0  0  0  0  0  0  0  0  0
    2.9630    5.0818   -3.5279 H   0  0  0  0  0  0  0  0  0  0  0  0
    1.5295    7.2876   -3.0981 H   0  0  0  0  0  0  0  0  0  0  0  0
    1.6312    6.6602   -1.4181 H   0  0  0  0  0  0  0  0  0  0  0  0
    3.1315    7.0780   -2.3131 H   0  0  0  0  0  0  0  0  0  0  0  0
 25 27  1  0  0  0  0
 26 27  2  0  0  0  0
 23 25  2  0  0  0  0
 24 26  1  0  0  0  0
 22 23  1  0  0  0  0
 22 24  2  0  0  0  0
 21 22  1  0  0  0  0
  1  3  1  0  0  0  0
  1  7  1  0  0  0  0
  1  2  2  0  0  0  0
 38 39  1  0  0  0  0
 39 47  1  0  0  0  0
 39 40  2  0  0  0  0
  8  9  1  0  0  0  0
  9 17  1  0  0  0  0
  9 10  2  0  0  0  0
 18 19  1  0  0  0  0
 19 37  1  0  0  0  0
 19 20  2  0  0  0  0
 38 41  1  0  0  0  0
  8 11  1  0  0  0  0
 47 48  1  0  0  0  0
 18 21  1  0  0  0  0
 37 38  1  0  0  0  0
  7  8  1  0  0  0  0
 17 18  1  0  0  0  0
 27 36  1  0  0  0  0
 25 34  1  0  0  0  0
 26 35  1  0  0  0  0
 23 32  1  0  0  0  0
 24 33  1  0  0  0  0
  3  4  1  0  0  0  0
  3  5  1  0  0  0  0
  3  6  1  0  0  0  0
 41 44  1  0  0  0  0
 41 45  1  0  0  0  0
 41 46  1  0  0  0  0
 11 14  1  0  0  0  0
 11 15  1  0  0  0  0
 11 16  1  0  0  0  0
 48 50  1  0  0  0  0
 48 51  1  0  0  0  0
 48 52  1  0  0  0  0
 21 30  1  0  0  0  0
 21 31  1  0  0  0  0
 38 43  1  0  0  0  0
  8 13  1  0  0  0  0
 18 29  1  0  0  0  0
 47 49  1  0  0  0  0
  7 12  1  0  0  0  0
 37 42  1  0  0  0  0
 17 28  1  0  0  0  0
M  END
$$$$

  -OEChem-05262214473D

 52 52  0     1  0  0  0  0  0999 V2000
   -1.8248    0.3424    3.9102 C   0  0  0  0  0  0  0  0  0  0  0  0
   -0.8774   -0.2723    3.4345 O   0  0  0  0  0  0  0  0  0  0  0  0
   -2.2566    0.0600    5.3109 C   0  0  0  0  0  0  0  0  0  0  0  0
   -3.0163   -0.7363    5.3643 H   0  0  0  0  0  0  0  0  0  0  0  0
   -1.4254   -0.2876    5.9452 H   0  0  0  0  0  0  0  0  0  0  0  0
   -2.6947    0.9149    5.8505 H   0  0  0  0  0  0  0  0  0  0  0  0
   -2.5745    1.3149    3.2691 N   0  0  0  0  0  0  0  0  0  0  0  0
   -2.3276    1.7409    1.9167 C   0  0  2  0  0  0  0  0  0  0  0  0
   -0.9926    1.1555    1.4755 C   0  0  0  0  0  0  0  0  0  0  0  0
   -0.1206    0.8028    2.2668 O   0  0  0  0  0  0  0  0  0  0  0  0
   -2.3188    3.2577    1.8072 C   0  0  0  0  0  0  0  0  0  0  0  0
   -3.3395    1.7507    3.7809 H   0  0  0  0  0  0  0  0  0  0  0  0
   -3.1317    1.3224    1.3015 H   0  0  0  0  0  0  0  0  0  0  0  0
   -1.5198    3.6949    2.4169 H   0  0  0  0  0  0  0  0  0  0  0  0
   -2.1594    3.5799    0.7729 H   0  0  0  0  0  0  0  0  0  0  0  0
   -3.2690    3.6789    2.1530 H   0  0  0  0  0  0  0  0  0  0  0  0
   -0.8700    1.1124    0.0921 N   0  0  0  0  0  0  0  0  0  0  0  0
    0.3073    0.6116   -0.5716 C   0  0  2  0  0  0  0  0  0  0  0  0
    1.0719    1.8179   -1.1049 C   0  0  0  0  0  0  0  0  0  0  0  0
    1.9599    2.3819   -0.4690 O   0  0  0  0  0  0  0  0  0  0  0  0
   -0.0373   -0.3491   -1.7154 C   0  0  0  0  0  0  0  0  0  0  0  0
   -0.6576   -1.6363   -1.2295 C   0  0  0  0  0  0  0  0  0  0  0  0
    0.1531   -2.6611   -0.7413 C   0  0  0  0  0  0  0  0  0  0  0  0
   -2.0421   -1.8010   -1.2686 C   0  0  0  0  0  0  0  0  0  0  0  0
   -0.4208   -3.8505   -0.2922 C   0  0  0  0  0  0  0  0  0  0  0  0
   -2.6160   -2.9903   -0.8194 C   0  0  0  0  0  0  0  0  0  0  0  0
   -1.8053   -4.0151   -0.3312 C   0  0  0  0  0  0  0  0  0  0  0  0
   -1.6531    1.4091   -0.4852 H   0  0  0  0  0  0  0  0  0  0  0  0
    0.9115    0.1148    0.1966 H   0  0  0  0  0  0  0  0  0  0  0  0
    0.8601   -0.5722   -2.3083 H   0  0  0  0  0  0  0  0  0  0  0  0
   -0.7356    0.1253   -2.4176 H   0  0  0  0  0  0  0  0  0  0  0  0
    1.2328   -2.5417   -0.7070 H   0  0  0  0  0  0  0  0  0  0  0  0
   -2.6816   -1.0080   -1.6472 H   0  0  0  0  0  0  0  0  0  0  0  0
    0.2107   -4.6487    0.0870 H   0  0  0  0  0  0  0  0  0  0  0  0
   -3.6939   -3.1186   -0.8510 H   0  0  0  0  0  0  0  0  0  0  0  0
   -2.2519   -4.9418    0.0173 H   0  0  0  0  0  0  0  0  0  0  0  0
    0.6778    2.1552   -2.3923 N   0  0  0  0  0  0  0  0  0  0  0  0
    1.2598    3.2464   -3.1402 C   0  0  2  0  0  0  0  0  0  0  0  0
    1.2481    4.4839   -2.2525 C   0  0  0  0  0  0  0  0  0  0  0  0
    0.4815    4.6198   -1.3012 O   0  0  0  0  0  0  0  0  0  0  0  0
    0.5004    3.4979   -4.4335 C   0  0  0  0  0  0  0  0  0  0  0  0
   -0.0566    1.6075   -2.8309 H   0  0  0  0  0  0  0  0  0  0  0  0
    2.2951    2.9631   -3.3591 H   0  0  0  0  0  0  0  0  0  0  0  0
   -0.5391    3.7830   -4.2343 H   0  0  0  0  0  0  0  0  0  0  0  0
    0.9595    4.3060   -5.0125 H   0  0  0  0  0  0  0  0  0  0  0  0
    0.4844    2.5978   -5.0574 H   0  0  0  0  0  0  0  0  0  0  0  0
    2.1647    5.4371   -2.6738 N   0  0  0  0  0  0  0  0  0  0  0  0
    2.3351    6.7048   -2.0031 C   0  0  0  0  0  0  0  0  0  0  0  0
    2.7727    5.2319   -3.4612 H   0  0  0  0  0  0  0  0  0  0  0  0
    1.6908    7.4602   -2.4765 H   0  0  0  0  0  0  0  0  0  0  0  0
    2.0585    6.5991   -0.9437 H   0  0  0  0  0  0  0  0  0  0  0  0
    3.3861    7.0206   -2.0779 H   0  0  0  0  0  0  0  0  0  0  0  0
 25 27  1  0  0  0  0
 26 27  2  0  0  0  0
 23 25  2  0  0  0  0
 24 26  1  0  0  0  0
 22 23  1  0  0  0  0
 22 24  2  0  0  0  0
 21 22  1  0  0  0  0
  1  3  1  0  0  0  0
  1  7  1  0  0  0  0
  1  2  2  0  0  0  0
 38 39  1  0  0  0  0
 39 47  1  0  0  0  0
 39 40  2  0  0  0  0
  8  9  1  0  0  0  0
  9 17  1  0  0  0  0
  9 10  2  0  0  0  0
 18 19  1  0  0  0  0
 19 37  1  0  0  0  0
 19 20  2  0  0  0  0
 38 41  1  0  0  0  0
  8 11  1  0  0  0  0
 47 48  1  0  0  0  0
 18 21  1  0  0  0  0
 37 38  1  0  0  0  0
  7  8  1  0  0  0  0
 17 18  1  0  0  0  0
 27 36  1  0  0  0  0
 25 34  1  0  0  0  0
 26 35  1  0  0  0  0
 23 32  1  0  0  0  0
 24 33  1  0  0  0  0
  3  4  1  0  0  0  0
  3  5  1  0  0  0  0
  3  6  1  0  0  0  0
 41 44  1  0  0  0  0
 41 45  1  0  0  0  0
 41 46  1  0  0  0  0
 11 14  1  0  0  0  0
 11 15  1  0  0  0  0
 11 16  1  0  0  0  0
 48 50  1  0  0  0  0
 48 51  1  0  0  0  0
 48 52  1  0  0  0  0
 21 30  1  0  0  0  0
 21 31  1  0  0  0  0
 38 43  1  0  0  0  0
  8 13  1  0  0  0  0
 18 29  1  0  0  0  0
 47 49  1  0  0  0  0
  7 12  1  0  0  0  0
 37 42  1  0  0  0  0
 17 28  1  0  0  0  0
M  END
$$$$

  -OEChem-05262214473D

 52 52  0     1  0  0  0  0  0999 V2000
   -1.8248    0.3424    3.9102 C   0  0  0  0  0  0  0  0  0  0  0  0
   -0.8774   -0.2723    3.4345 O   0  0  0  0  0  0  0  0  0  0  0  0
   -2.2566    0.0600    5.3109 C   0  0  0  0  0  0  0  0  0  0  0  0
   -3.0163   -0.7363    5.3643 H   0  0  0  0  0  0  0  0  0  0  0  0
   -1.4254   -0.2876    5.9452 H   0  0  0  0  0  0  0  0  0  0  0  0
   -2.6947    0.9149    5.8505 H   0  0  0  0  0  0  0  0  0  0  0  0
   -2.5745    1.3149    3.2691 N   0  0  0  0  0  0  0  0  0  0  0  0
   -2.3276    1.7409    1.9167 C   0  0  2  0  0  0  0  0  0  0  0  0
   -0.9926    1.1555    1.4755 C   0  0  0  0  0  0  0  0  0  0  0  0
   -0.1206    0.8028    2.2668 O   0  0  0  0  0  0  0  0  0  0  0  0
   -2.3188    3.2577    1.8072 C   0  0  0  0  0  0  0  0  0  0  0  0
   -3.3395    1.7507    3.7809 H   0  0  0  0  0  0  0  0  0  0  0  0
   -3.1317    1.3224    1.3015 H   0  0  0  0  0  0  0  0  0  0  0  0
   -1.5198    3.6949    2.4169 H   0  0  0  0  0  0  0  0  0  0  0  0
   -2.1594    3.5799    0.7729 H   0  0  0  0  0  0  0  0  0  0  0  0
   -3.2690    3.6789    2.1530 H   0  0  0  0  0  0  0  0  0  0  0  0
   -0.8700    1.1124    0.0921 N   0  0  0  0  0  0  0  0  0  0  0  0
    0.3073    0.6116   -0.5716 C   0  0  2  0  0  0  0  0  0  0  0  0
    1.0719    1.8179   -1.1049 C   0  0  0  0  0  0  0  0  0  0  0  0
    2.1223    2.2178   -0.6073 O   0  0  0  0  0  0  0  0  0  0  0  0
   -0.0373   -0.3491   -1.7154 C   0  0  0  0  0  0  0  0  0  0  0  0
   -0.6576   -1.6363   -1.2295 C   0  0  0  0  0  0  0  0  0  0  0  0
    0.1531   -2.6611   -0.7413 C   0  0  0  0  0  0  0  0  0  0  0  0
   -2.0421   -1.8010   -1.2686 C   0  0  0  0  0  0  0  0  0  0  0  0
   -0.4208   -3.8505   -0.2922 C   0  0  0  0  0  0  0  0  0  0  0  0
   -2.6160   -2.9903   -0.8194 C   0  0  0  0  0  0  0  0  0  0  0  0
   -1.8053   -4.0151   -0.3312 C   0  0  0  0  0  0  0  0  0  0  0  0
   -1.6531    1.4091   -0.4852 H   0  0  0  0  0  0  0  0  0  0  0  0
    0.9115    0.1148    0.1966 H   0  0  0  0  0  0  0  0  0  0  0  0
    0.8601   -0.5722   -2.3083 H   0  0  0  0  0  0  0  0  0  0  0  0
   -0.7356    0.1253   -2.4176 H   0  0  0  0  0  0  0  0  0  0  0  0
    1.2328   -2.5417   -0.7070 H   0  0  0  0  0  0  0  0  0  0  0  0
   -2.6816   -1.0080   -1.6472 H   0  0  0  0  0  0  0  0  0  0  0  0
    0.2107   -4.6487    0.0870 H   0  0  0  0  0  0  0  0  0  0  0  0
   -3.6939   -3.1186   -0.8510 H   0  0  0  0  0  0  0  0  0  0  0  0
   -2.2519   -4.9418    0.0173 H   0  0  0  0  0  0  0  0  0  0  0  0
    0.4670    2.3605   -2.2301 N   0  0  0  0  0  0  0  0  0  0  0  0
    0.9990    3.4971   -2.9470 C   0  0  2  0  0  0  0  0  0  0  0  0
    1.2928    4.5961   -1.9344 C   0  0  0  0  0  0  0  0  0  0  0  0
    0.7491    4.6569   -0.8336 O   0  0  0  0  0  0  0  0  0  0  0  0
    0.0280    3.9840   -4.0113 C   0  0  0  0  0  0  0  0  0  0  0  0
   -0.3929    1.9374   -2.5668 H   0  0  0  0  0  0  0  0  0  0  0  0
    1.9349    3.1681   -3.4116 H   0  0  0  0  0  0  0  0  0  0  0  0
   -0.9157    4.3178   -3.5646 H   0  0  0  0  0  0  0  0  0  0  0  0
    0.4444    4.8270   -4.5725 H   0  0  0  0  0  0  0  0  0  0  0  0
   -0.2053    3.1834   -4.7215 H   0  0  0  0  0  0  0  0  0  0  0  0
    2.2015    5.5252   -2.4216 N   0  0  0  0  0  0  0  0  0  0  0  0
    2.6329    6.6703   -1.6542 C   0  0  0  0  0  0  0  0  0  0  0  0
    2.6162    5.3855   -3.3382 H   0  0  0  0  0  0  0  0  0  0  0  0
    1.9895    7.5316   -1.8868 H   0  0  0  0  0  0  0  0  0  0  0  0
    2.5630    6.4397   -0.5809 H   0  0  0  0  0  0  0  0  0  0  0  0
    3.6751    6.9116   -1.9103 H   0  0  0  0  0  0  0  0  0  0  0  0
 25 27  1  0  0  0  0
 26 27  2  0  0  0  0
 23 25  2  0  0  0  0
 24 26  1  0  0  0  0
 22 23  1  0  0  0  0
 22 24  2  0  0  0  0
 21 22  1  0  0  0  0
  1  3  1  0  0  0  0
  1  7  1  0  0  0  0
  1  2  2  0  0  0  0
 38 39  1  0  0  0  0
 39 47  1  0  0  0  0
 39 40  2  0  0  0  0
  8  9  1  0  0  0  0
  9 17  1  0  0  0  0
  9 10  2  0  0  0  0
 18 19  1  0  0  0  0
 19 37  1  0  0  0  0
 19 20  2  0  0  0  0
 38 41  1  0  0  0  0
  8 11  1  0  0  0  0
 47 48  1  0  0  0  0
 18 21  1  0  0  0  0
 37 38  1  0  0  0  0
  7  8  1  0  0  0  0
 17 18  1  0  0  0  0
 27 36  1  0  0  0  0
 25 34  1  0  0  0  0
 26 35  1  0  0  0  0
 23 32  1  0  0  0  0
 24 33  1  0  0  0  0
  3  4  1  0  0  0  0
  3  5  1  0  0  0  0
  3  6  1  0  0  0  0
 41 44  1  0  0  0  0
 41 45  1  0  0  0  0
 41 46  1  0  0  0  0
 11 14  1  0  0  0  0
 11 15  1  0  0  0  0
 11 16  1  0  0  0  0
 48 50  1  0  0  0  0
 48 51  1  0  0  0  0
 48 52  1  0  0  0  0
 21 30  1  0  0  0  0
 21 31  1  0  0  0  0
 38 43  1  0  0  0  0
  8 13  1  0  0  0  0
 18 29  1  0  0  0  0
 47 49  1  0  0  0  0
  7 12  1  0  0  0  0
 37 42  1  0  0  0  0
 17 28  1  0  0  0  0
M  END
$$$$

  -OEChem-05262214473D

 52 52  0     1  0  0  0  0  0999 V2000
   -1.8248    0.3424    3.9102 C   0  0  0  0  0  0  0  0  0  0  0  0
   -0.8774   -0.2723    3.4345 O   0  0  0  0  0  0  0  0  0  0  0  0
   -2.2566    0.0600    5.3109 C   0  0  0  0  0  0  0  0  0  0  0  0
   -3.0163   -0.7363    5.3643 H   0  0  0  0  0  0  0  0  0  0  0  0
   -1.4254   -0.2876    5.9452 H   0  0  0  0  0  0  0  0  0  0  0  0
   -2.6947    0.9149    5.8505 H   0  0  0  0  0  0  0  0  0  0  0  0
   -2.5745    1.3149    3.2691 N   0  0  0  0  0  0  0  0  0  0  0  0
   -2.3276    1.7409    1.9167 C   0  0  2  0  0  0  0  0  0  0  0  0
   -0.9926    1.1555    1.4755 C   0  0  0  0  0  0  0  0  0  0  0  0
   -0.1206    0.8028    2.2668 O   0  0  0  0  0  0  0  0  0  0  0  0
   -2.3188    3.2577    1.8072 C   0  0  0  0  0  0  0  0  0  0  0  0
   -3.3395    1.7507    3.7809 H   0  0  0  0  0  0  0  0  0  0  0  0
   -3.1317    1.3224    1.3015 H   0  0  0  0  0  0  0  0  0  0  0  0
   -1.5198    3.6949    2.4169 H   0  0  0  0  0  0  0  0  0  0  0  0
   -2.1594    3.5799    0.7729 H   0  0  0  0  0  0  0  0  0  0  0  0
   -3.2690    3.6789    2.1530 H   0  0  0  0  0  0  0  0  0  0  0  0
   -0.8700    1.1124    0.0921 N   0  0  0  0  0  0  0  0  0  0  0  0
    0.3073    0.6116   -0.5716 C   0  0  2  0  0  0  0  0  0  0  0  0
    1.0719    1.8179   -1.1049 C   0  0  0  0  0  0  0  0  0  0  0  0
    2.2361    2.0625   -0.7954 O   0  0  0  0  0  0  0  0  0  0  0  0
   -0.0373   -0.3491   -1.7154 C   0  0  0  0  0  0  0  0  0  0  0  0
   -0.6576   -1.6363   -1.2295 C   0  0  0  0  0  0  0  0  0  0  0  0
    0.1531   -2.6611   -0.7413 C   0  0  0  0  0  0  0  0  0  0  0  0
   -2.0421   -1.8010   -1.2686 C   0  0  0  0  0  0  0  0  0  0  0  0
   -0.4208   -3.8505   -0.2922 C   0  0  0  0  0  0  0  0  0  0  0  0
   -2.6160   -2.9903   -0.8194 C   0  0  0  0  0  0  0  0  0  0  0  0
   -1.8053   -4.0151   -0.3312 C   0  0  0  0  0  0  0  0  0  0  0  0
   -1.6531    1.4091   -0.4852 H   0  0  0  0  0  0  0  0  0  0  0  0
    0.9115    0.1148    0.1966 H   0  0  0  0  0  0  0  0  0  0  0  0
    0.8601   -0.5722   -2.3083 H   0  0  0  0  0  0  0  0  0  0  0  0
   -0.7356    0.1253   -2.4176 H   0  0  0  0  0  0  0  0  0  0  0  0
    1.2328   -2.5417   -0.7070 H   0  0  0  0  0  0  0  0  0  0  0  0
   -2.6816   -1.0080   -1.6472 H   0  0  0  0  0  0  0  0  0  0  0  0
    0.2107   -4.6487    0.0870 H   0  0  0  0  0  0  0  0  0  0  0  0
   -3.6939   -3.1186   -0.8510 H   0  0  0  0  0  0  0  0  0  0  0  0
   -2.2519   -4.9418    0.0173 H   0  0  0  0  0  0  0  0  0  0  0  0
    0.3152    2.5568   -2.0037 N   0  0  0  0  0  0  0  0  0  0  0  0
    0.8094    3.7378   -2.6744 C   0  0  2  0  0  0  0  0  0  0  0  0
    1.4114    4.6592   -1.6218 C   0  0  0  0  0  0  0  0  0  0  0  0
    1.1067    4.6078   -0.4320 O   0  0  0  0  0  0  0  0  0  0  0  0
   -0.2978    4.4415   -3.4436 C   0  0  0  0  0  0  0  0  0  0  0  0
   -0.6338    2.2523   -2.1999 H   0  0  0  0  0  0  0  0  0  0  0  0
    1.5948    3.4056   -3.3620 H   0  0  0  0  0  0  0  0  0  0  0  0
   -1.0939    4.7815   -2.7712 H   0  0  0  0  0  0  0  0  0  0  0  0
    0.0842    5.3198   -3.9743 H   0  0  0  0  0  0  0  0  0  0  0  0
   -0.7496    3.7680   -4.1798 H   0  0  0  0  0  0  0  0  0  0  0  0
    2.2967    5.5743   -2.1740 N   0  0  0  0  0  0  0  0  0  0  0  0
    2.9888    6.5647   -1.3827 C   0  0  0  0  0  0  0  0  0  0  0  0
    2.5040    5.5321   -3.1675 H   0  0  0  0  0  0  0  0  0  0  0  0
    2.4052    7.4970   -1.3690 H   0  0  0  0  0  0  0  0  0  0  0  0
    3.1101    6.1930   -0.3546 H   0  0  0  0  0  0  0  0  0  0  0  0
    3.9786    6.7583   -1.8218 H   0  0  0  0  0  0  0  0  0  0  0  0
 25 27  1  0  0  0  0
 26 27  2  0  0  0  0
 23 25  2  0  0  0  0
 24 26  1  0  0  0  0
 22 23  1  0  0  0  0
 22 24  2  0  0  0  0
 21 22  1  0  0  0  0
  1  3  1  0  0  0  0
  1  7  1  0  0  0  0
  1  2  2  0  0  0  0
 38 39  1  0  0  0  0
 39 47  1  0  0  0  0
 39 40  2  0  0  0  0
  8  9  1  0  0  0  0
  9 17  1  0  0  0  0
  9 10  2  0  0  0  0
 18 19  1  0  0  0  0
 19 37  1  0  0  0  0
 19 20  2  0  0  0  0
 38 41  1  0  0  0  0
  8 11  1  0  0  0  0
 47 48  1  0  0  0  0
 18 21  1  0  0  0  0
 37 38  1  0  0  0  0
  7  8  1  0  0  0  0
 17 18  1  0  0  0  0
 27 36  1  0  0  0  0
 25 34  1  0  0  0  0
 26 35  1  0  0  0  0
 23 32  1  0  0  0  0
 24 33  1  0  0  0  0
  3  4  1  0  0  0  0
  3  5  1  0  0  0  0
  3  6  1  0  0  0  0
 41 44  1  0  0  0  0
 41 45  1  0  0  0  0
 41 46  1  0  0  0  0
 11 14  1  0  0  0  0
 11 15  1  0  0  0  0
 11 16  1  0  0  0  0
 48 50  1  0  0  0  0
 48 51  1  0  0  0  0
 48 52  1  0  0  0  0
 21 30  1  0  0  0  0
 21 31  1  0  0  0  0
 38 43  1  0  0  0  0
  8 13  1  0  0  0  0
 18 29  1  0  0  0  0
 47 49  1  0  0  0  0
  7 12  1  0  0  0  0
 37 42  1  0  0  0  0
 17 28  1  0  0  0  0
M  END
$$$$

  -OEChem-05262214473D

 52 52  0     1  0  0  0  0  0999 V2000
   -1.8248    0.3424    3.9102 C   0  0  0  0  0  0  0  0  0  0  0  0
   -0.8774   -0.2723    3.4345 O   0  0  0  0  0  0  0  0  0  0  0  0
   -2.2566    0.0600    5.3109 C   0  0  0  0  0  0  0  0  0  0  0  0
   -3.0163   -0.7363    5.3643 H   0  0  0  0  0  0  0  0  0  0  0  0
   -1.4254   -0.2876    5.9452 H   0  0  0  0  0  0  0  0  0  0  0  0
   -2.6947    0.9149    5.8505 H   0  0  0  0  0  0  0  0  0  0  0  0
   -2.5745    1.3149    3.2691 N   0  0  0  0  0  0  0  0  0  0  0  0
   -2.3276    1.7409    1.9167 C   0  0  2  0  0  0  0  0  0  0  0  0
   -0.9926    1.1555    1.4755 C   0  0  0  0  0  0  0  0  0  0  0  0
   -0.1206    0.8028    2.2668 O   0  0  0  0  0  0  0  0  0  0  0  0
   -2.3188    3.2577    1.8072 C   0  0  0  0  0  0  0  0  0  0  0  0
   -3.3395    1.7507    3.7809 H   0  0  0  0  0  0  0  0  0  0  0  0
   -3.1317    1.3224    1.3015 H   0  0  0  0  0  0  0  0  0  0  0  0
   -1.5198    3.6949    2.4169 H   0  0  0  0  0  0  0  0  0  0  0  0
   -2.1594    3.5799    0.7729 H   0  0  0  0  0  0  0  0  0  0  0  0
   -3.2690    3.6789    2.1530 H   0  0  0  0  0  0  0  0  0  0  0  0
   -0.8700    1.1124    0.0921 N   0  0  0  0  0  0  0  0  0  0  0  0
    0.3073    0.6116   -0.5716 C   0  0  2  0  0  0  0  0  0  0  0  0
    1.0719    1.8179   -1.1049 C   0  0  0  0  0  0  0  0  0  0  0  0
    2.2934    1.9266   -1.0206 O   0  0  0  0  0  0  0  0  0  0  0  0
   -0.0373   -0.3491   -1.7154 C   0  0  0  0  0  0  0  0  0  0  0  0
   -0.6576   -1.6363   -1.2295 C   0  0  0  0  0  0  0  0  0  0  0  0
    0.1531   -2.6611   -0.7413 C   0  0  0  0  0  0  0  0  0  0  0  0
   -2.0421   -1.8010   -1.2686 C   0  0  0  0  0  0  0  0  0  0  0  0
   -0.4208   -3.8505   -0.2922 C   0  0  0  0  0  0  0  0  0  0  0  0
   -2.6160   -2.9903   -0.8194 C   0  0  0  0  0  0  0  0  0  0  0  0
   -1.8053   -4.0151   -0.3312 C   0  0  0  0  0  0  0  0  0  0  0  0
   -1.6531    1.4091   -0.4852 H   0  0  0  0  0  0  0  0  0  0  0  0
    0.9115    0.1148    0.1966 H   0  0  0  0  0  0  0  0  0  0  0  0
    0.8601   -0.5722   -2.3083 H   0  0  0  0  0  0  0  0  0  0  0  0
   -0.7356    0.1253   -2.4176 H   0  0  0  0  0  0  0  0  0  0  0  0
    1.2328   -2.5417   -0.7070 H   0  0  0  0  0  0  0  0  0  0  0  0
   -2.6816   -1.0080   -1.6472 H   0  0  0  0  0  0  0  0  0  0  0  0
    0.2107   -4.6487    0.0870 H   0  0  0  0  0  0  0  0  0  0  0  0
   -3.6939   -3.1186   -0.8510 H   0  0  0  0  0  0  0  0  0  0  0  0
   -2.2519   -4.9418    0.0173 H   0  0  0  0  0  0  0  0  0  0  0  0
    0.2327    2.7309   -1.7284 N   0  0  0  0  0  0  0  0  0  0  0  0
    0.7039    3.9521   -2.3410 C   0  0  2  0  0  0  0  0  0  0  0  0
    1.5957    4.6688   -1.3358 C   0  0  0  0  0  0  0  0  0  0  0  0
    1.5299    4.4759   -0.1236 O   0  0  0  0  0  0  0  0  0  0  0  0
   -0.4548    4.8392   -2.7692 C   0  0  0  0  0  0  0  0  0  0  0  0
   -0.7628    2.5306   -1.7554 H   0  0  0  0  0  0  0  0  0  0  0  0
    1.2980    3.6594   -3.2136 H   0  0  0  0  0  0  0  0  0  0  0  0
   -1.0615    5.1426   -1.9082 H   0  0  0  0  0  0  0  0  0  0  0  0
   -0.0967    5.7508   -3.2588 H   0  0  0  0  0  0  0  0  0  0  0  0
   -1.1116    4.3116   -3.4692 H   0  0  0  0  0  0  0  0  0  0  0  0
    2.4438    5.5810   -1.9480 N   0  0  0  0  0  0  0  0  0  0  0  0
    3.3787    6.3953   -1.2071 C   0  0  0  0  0  0  0  0  0  0  0  0
    2.4439    5.6616   -2.9606 H   0  0  0  0  0  0  0  0  0  0  0  0
    2.9097    7.3588   -0.9585 H   0  0  0  0  0  0  0  0  0  0  0  0
    3.6626    5.8758   -0.2799 H   0  0  0  0  0  0  0  0  0  0  0  0
    4.2761    6.5713   -1.8183 H   0  0  0  0  0  0  0  0  0  0  0  0
 25 27  1  0  0  0  0
 26 27  2  0  0  0  0
 23 25  2  0  0  0  0
 24 26  1  0  0  0  0
 22 23  1  0  0  0  0
 22 24  2  0  0  0  0
 21 22  1  0  0  0  0
  1  3  1  0  0  0  0
  1  7  1  0  0  0  0
  1  2  2  0  0  0  0
 38 39  1  0  0  0  0
 39 47  1  0  0  0  0
 39 40  2  0  0  0  0
  8  9  1  0  0  0  0
  9 17  1  0  0  0  0
  9 10  2  0  0  0  0
 18 19  1  0  0  0  0
 19 37  1  0  0  0  0
 19 20  2  0  0  0  0
 38 41  1  0  0  0  0
  8 11  1  0  0  0  0
 47 48  1  0  0  0  0
 18 21  1  0  0  0  0
 37 38  1  0  0  0  0
  7  8  1  0  0  0  0
 17 18  1  0  0  0  0
 27 36  1  0  0  0  0
 25 34  1  0  0  0  0
 26 35  1  0  0  0  0
 23 32  1  0  0  0  0
 24 33  1  0  0  0  0
  3  4  1  0  0  0  0
  3  5  1  0  0  0  0
  3  6  1  0  0  0  0
 41 44  1  0  0  0  0
 41 45  1  0  0  0  0
 41 46  1  0  0  0  0
 11 14  1  0  0  0  0
 11 15  1  0  0  0  0
 11 16  1  0  0  0  0
 48 50  1  0  0  0  0
 48 51  1  0  0  0  0
 48 52  1  0  0  0  0
 21 30  1  0  0  0  0
 21 31  1  0  0  0  0
 38 43  1  0  0  0  0
  8 13  1  0  0  0  0
 18 29  1  0  0  0  0
 47 49  1  0  0  0  0
  7 12  1  0  0  0  0
 37 42  1  0  0  0  0
 17 28  1  0  0  0  0
M  END
$$$$

  -OEChem-05262214473D

 52 52  0     1  0  0  0  0  0999 V2000
   -1.8248    0.3424    3.9102 C   0  0  0  0  0  0  0  0  0  0  0  0
   -0.8774   -0.2723    3.4345 O   0  0  0  0  0  0  0  0  0  0  0  0
   -2.2566    0.0600    5.3109 C   0  0  0  0  0  0  0  0  0  0  0  0
   -3.0163   -0.7363    5.3643 H   0  0  0  0  0  0  0  0  0  0  0  0
   -1.4254   -0.2876    5.9452 H   0  0  0  0  0  0  0  0  0  0  0  0
   -2.6947    0.9149    5.8505 H   0  0  0  0  0  0  0  0  0  0  0  0
   -2.5745    1.3149    3.2691 N   0  0  0  0  0  0  0  0  0  0  0  0
   -2.3276    1.7409    1.9167 C   0  0  2  0  0  0  0  0  0  0  0  0
   -0.9926    1.1555    1.4755 C   0  0  0  0  0  0  0  0  0  0  0  0
   -0.1206    0.8028    2.2668 O   0  0  0  0  0  0  0  0  0  0  0  0
   -2.3188    3.2577    1.8072 C   0  0  0  0  0  0  0  0  0  0  0  0
   -3.3395    1.7507    3.7809 H   0  0  0  0  0  0  0  0  0  0  0  0
   -3.1317    1.3224    1.3015 H   0  0  0  0  0  0  0  0  0  0  0  0
   -1.5198    3.6949    2.4169 H   0  0  0  0  0  0  0  0  0  0  0  0
   -2.1594    3.5799    0.7729 H   0  0  0  0  0  0  0  0  0  0  0  0
   -3.2690    3.6789    2.1530 H   0  0  0  0  0  0  0  0  0  0  0  0
   -0.8700    1.1124    0.0921 N   0  0  0  0  0  0  0  0  0  0  0  0
    0.3073    0.6116   -0.5716 C   0  0  2  0  0  0  0  0  0  0  0  0
    1.0719    1.8179   -1.1049 C   0  0  0  0  0  0  0  0  0  0  0  0
    2.2903    1.8194   -1.2675 O   0  0  0  0  0  0  0  0  0  0  0  0
   -0.0373   -0.3491   -1.7154 C   0  0  0  0  0  0  0  0  0  0  0  0
   -0.6576   -1.6363   -1.2295 C   0  0  0  0  0  0  0  0  0  0  0  0
    0.1531   -2.6611   -0.7413 C   0  0  0  0  0  0  0  0  0  0  0  0
   -2.0421   -1.8010   -1.2686 C   0  0  0  0  0  0  0  0  0  0  0  0
   -0.4208   -3.8505   -0.2922 C   0  0  0  0  0  0  0  0  0  0  0  0
   -2.6160   -2.9903   -0.8194 C   0  0  0  0  0  0  0  0  0  0  0  0
   -1.8053   -4.0151   -0.3312 C   0  0  0  0  0  0  0  0  0  0  0  0
   -1.6531    1.4091   -0.4852 H   0  0  0  0  0  0  0  0  0  0  0  0
    0.9115    0.1148    0.1966 H   0  0  0  0  0  0  0  0  0  0  0  0
    0.8601   -0.5722   -2.3083 H   0  0  0  0  0  0  0  0  0  0  0  0
   -0.7356    0.1253   -2.4176 H   0  0  0  0  0  0  0  0  0  0  0  0
    1.2328   -2.5417   -0.7070 H   0  0  0  0  0  0  0  0  0  0  0  0
   -2.6816   -1.0080   -1.6472 H   0  0  0  0  0  0  0  0  0  0  0  0
    0.2107   -4.6487    0.0870 H   0  0  0  0  0  0  0  0  0  0  0  0
   -3.6939   -3.1186   -0.8510 H   0  0  0  0  0  0  0  0  0  0  0  0
   -2.2519   -4.9418    0.0173 H   0  0  0  0  0  0  0  0  0  0  0  0
    0.2251    2.8707   -1.4229 N   0  0  0  0  0  0  0  0  0  0  0  0
    0.6896    4.1253   -1.9696 C   0  0  2  0  0  0  0  0  0  0  0  0
    1.8331    4.6243   -1.0962 C   0  0  0  0  0  0  0  0  0  0  0  0
    1.9900    4.2701    0.0705 O   0  0  0  0  0  0  0  0  0  0  0  0
   -0.4323    5.1500   -2.0339 C   0  0  0  0  0  0  0  0  0  0  0  0
   -0.7711    2.7534   -1.2635 H   0  0  0  0  0  0  0  0  0  0  0  0
    1.0646    3.9121   -2.9765 H   0  0  0  0  0  0  0  0  0  0  0  0
   -0.8208    5.3764   -1.0343 H   0  0  0  0  0  0  0  0  0  0  0  0
   -0.0858    6.0906   -2.4747 H   0  0  0  0  0  0  0  0  0  0  0  0
   -1.2665    4.7772   -2.6381 H   0  0  0  0  0  0  0  0  0  0  0  0
    2.6328    5.5448   -1.7590 N   0  0  0  0  0  0  0  0  0  0  0  0
    3.7759    6.1735   -1.1392 C   0  0  0  0  0  0  0  0  0  0  0  0
    2.4400    5.7653   -2.7316 H   0  0  0  0  0  0  0  0  0  0  0  0
    3.4685    7.1262   -0.6833 H   0  0  0  0  0  0  0  0  0  0  0  0
    4.1828    5.5097   -0.3622 H   0  0  0  0  0  0  0  0  0  0  0  0
    4.5472    6.3633   -1.9002 H   0  0  0  0  0  0  0  0  0  0  0  0
 25 27  1  0  0  0  0
 26 27  2  0  0  0  0
 23 25  2  0  0  0  0
 24 26  1  0  0  0  0
 22 23  1  0  0  0  0
 22 24  2  0  0  0  0
 21 22  1  0  0  0  0
  1  3  1  0  0  0  0
  1  7  1  0  0  0  0
  1  2  2  0  0  0  0
 38 39  1  0  0  0  0
 39 47  1  0  0  0  0
 39 40  2  0  0  0  0
  8  9  1  0  0  0  0
  9 17  1  0  0  0  0
  9 10  2  0  0  0  0
 18 19  1  0  0  0  0
 19 37  1  0  0  0  0
 19 20  2  0  0  0  0
 38 41  1  0  0  0  0
  8 11  1  0  0  0  0
 47 48  1  0  0  0  0
 18 21  1  0  0  0  0
 37 38  1  0  0  0  0
  7  8  1  0  0  0  0
 17 18  1  0  0  0  0
 27 36  1  0  0  0  0
 25 34  1  0  0  0  0
 26 35  1  0  0  0  0
 23 32  1  0  0  0  0
 24 33  1  0  0  0  0
  3  4  1  0  0  0  0
  3  5  1  0  0  0  0
  3  6  1  0  0  0  0
 41 44  1  0  0  0  0
 41 45  1  0  0  0  0
 41 46  1  0  0  0  0
 11 14  1  0  0  0  0
 11 15  1  0  0  0  0
 11 16  1  0  0  0  0
 48 50  1  0  0  0  0
 48 51  1  0  0  0  0
 48 52  1  0  0  0  0
 21 30  1  0  0  0  0
 21 31  1  0  0  0  0
 38 43  1  0  0  0  0
  8 13  1  0  0  0  0
 18 29  1  0  0  0  0
 47 49  1  0  0  0  0
  7 12  1  0  0  0  0
 37 42  1  0  0  0  0
 17 28  1  0  0  0  0
M  END
$$$$

  -OEChem-05262214473D

 52 52  0     1  0  0  0  0  0999 V2000
   -1.8248    0.3424    3.9102 C   0  0  0  0  0  0  0  0  0  0  0  0
   -0.8774   -0.2723    3.4345 O   0  0  0  0  0  0  0  0  0  0  0  0
   -2.2566    0.0600    5.3109 C   0  0  0  0  0  0  0  0  0  0  0  0
   -3.0163   -0.7363    5.3643 H   0  0  0  0  0  0  0  0  0  0  0  0
   -1.4254   -0.2876    5.9452 H   0  0  0  0  0  0  0  0  0  0  0  0
   -2.6947    0.9149    5.8505 H   0  0  0  0  0  0  0  0  0  0  0  0
   -2.5745    1.3149    3.2691 N   0  0  0  0  0  0  0  0  0  0  0  0
   -2.3276    1.7409    1.9167 C   0  0  2  0  0  0  0  0  0  0  0  0
   -0.9926    1.1555    1.4755 C   0  0  0  0  0  0  0  0  0  0  0  0
   -0.1206    0.8028    2.2668 O   0  0  0  0  0  0  0  0  0  0  0  0
   -2.3188    3.2577    1.8072 C   0  0  0  0  0  0  0  0  0  0  0  0
   -3.3395    1.7507    3.7809 H   0  0  0  0  0  0  0  0  0  0  0  0
   -3.1317    1.3224    1.3015 H   0  0  0  0  0  0  0  0  0  0  0  0
   -1.5198    3.6949    2.4169 H   0  0  0  0  0  0  0  0  0  0  0  0
   -2.1594    3.5799    0.7729 H   0  0  0  0  0  0  0  0  0  0  0  0
   -3.2690    3.6789    2.1530 H   0  0  0  0  0  0  0  0  0  0  0  0
   -0.8700    1.1124    0.0921 N   0  0  0  0  0  0  0  0  0  0  0  0
    0.3073    0.6116   -0.5716 C   0  0  2  0  0  0  0  0  0  0  0  0
    1.0719    1.8179   -1.1049 C   0  0  0  0  0  0  0  0  0  0  0  0
    2.2270    1.7482   -1.5193 O   0  0  0  0  0  0  0  0  0  0  0  0
   -0.0373   -0.3491   -1.7154 C   0  0  0  0  0  0  0  0  0  0  0  0
   -0.6576   -1.6363   -1.2295 C   0  0  0  0  0  0  0  0  0  0  0  0
    0.1531   -2.6611   -0.7413 C   0  0  0  0  0  0  0  0  0  0  0  0
   -2.0421   -1.8010   -1.2686 C   0  0  0  0  0  0  0  0  0  0  0  0
   -0.4208   -3.8505   -0.2922 C   0  0  0  0  0  0  0  0  0  0  0  0
   -2.6160   -2.9903   -0.8194 C   0  0  0  0  0  0  0  0  0  0  0  0
   -1.8053   -4.0151   -0.3312 C   0  0  0  0  0  0  0  0  0  0  0  0
   -1.6531    1.4091   -0.4852 H   0  0  0  0  0  0  0  0  0  0  0  0
    0.9115    0.1148    0.1966 H   0  0  0  0  0  0  0  0  0  0  0  0
    0.8601   -0.5722   -2.3083 H   0  0  0  0  0  0  0  0  0  0  0  0
   -0.7356    0.1253   -2.4176 H   0  0  0  0  0  0  0  0  0  0  0  0
    1.2328   -2.5417   -0.7070 H   0  0  0  0  0  0  0  0  0  0  0  0
   -2.6816   -1.0080   -1.6472 H   0  0  0  0  0  0  0  0  0  0  0  0
    0.2107   -4.6487    0.0870 H   0  0  0  0  0  0  0  0  0  0  0  0
   -3.6939   -3.1186   -0.8510 H   0  0  0  0  0  0  0  0  0  0  0  0
   -2.2519   -4.9418    0.0173 H   0  0  0  0  0  0  0  0  0  0  0  0
    0.2931    2.9668   -1.1082 N   0  0  0  0  0  0  0  0  0  0  0  0
    0.7675    4.2458   -1.5854 C   0  0  2  0  0  0  0  0  0  0  0  0
    2.1075    4.5287   -0.9190 C   0  0  0  0  0  0  0  0  0  0  0  0
    2.4554    4.0045    0.1370 O   0  0  0  0  0  0  0  0  0  0  0  0
   -0.2319    5.3528   -1.2880 C   0  0  0  0  0  0  0  0  0  0  0  0
   -0.6583    2.9055   -0.7577 H   0  0  0  0  0  0  0  0  0  0  0  0
    0.9106    4.1466   -2.6669 H   0  0  0  0  0  0  0  0  0  0  0  0
   -0.3882    5.4670   -0.2091 H   0  0  0  0  0  0  0  0  0  0  0  0
    0.1160    6.3160   -1.6754 H   0  0  0  0  0  0  0  0  0  0  0  0
   -1.2037    5.1330   -1.7432 H   0  0  0  0  0  0  0  0  0  0  0  0
    2.8508    5.4681   -1.6198 N   0  0  0  0  0  0  0  0  0  0  0  0
    4.1533    5.9145   -1.1838 C   0  0  0  0  0  0  0  0  0  0  0  0
    2.4925    5.8362   -2.4961 H   0  0  0  0  0  0  0  0  0  0  0  0
    4.0437    6.8153   -0.5621 H   0  0  0  0  0  0  0  0  0  0  0  0
    4.6353    5.1197   -0.5957 H   0  0  0  0  0  0  0  0  0  0  0  0
    4.7735    6.1484   -2.0617 H   0  0  0  0  0  0  0  0  0  0  0  0
 25 27  1  0  0  0  0
 26 27  2  0  0  0  0
 23 25  2  0  0  0  0
 24 26  1  0  0  0  0
 22 23  1  0  0  0  0
 22 24  2  0  0  0  0
 21 22  1  0  0  0  0
  1  3  1  0  0  0  0
  1  7  1  0  0  0  0
  1  2  2  0  0  0  0
 38 39  1  0  0  0  0
 39 47  1  0  0  0  0
 39 40  2  0  0  0  0
  8  9  1  0  0  0  0
  9 17  1  0  0  0  0
  9 10  2  0  0  0  0
 18 19  1  0  0  0  0
 19 37  1  0  0  0  0
 19 20  2  0  0  0  0
 38 41  1  0  0  0  0
  8 11  1  0  0  0  0
 47 48  1  0  0  0  0
 18 21  1  0  0  0  0
 37 38  1  0  0  0  0
  7  8  1  0  0  0  0
 17 18  1  0  0  0  0
 27 36  1  0  0  0  0
 25 34  1  0  0  0  0
 26 35  1  0  0  0  0
 23 32  1  0  0  0  0
 24 33  1  0  0  0  0
  3  4  1  0  0  0  0
  3  5  1  0  0  0  0
  3  6  1  0  0  0  0
 41 44  1  0  0  0  0
 41 45  1  0  0  0  0
 41 46  1  0  0  0  0
 11 14  1  0  0  0  0
 11 15  1  0  0  0  0
 11 16  1  0  0  0  0
 48 50  1  0  0  0  0
 48 51  1  0  0  0  0
 48 52  1  0  0  0  0
 21 30  1  0  0  0  0
 21 31  1  0  0  0  0
 38 43  1  0  0  0  0
  8 13  1  0  0  0  0
 18 29  1  0  0  0  0
 47 49  1  0  0  0  0
  7 12  1  0  0  0  0
 37 42  1  0  0  0  0
 17 28  1  0  0  0  0
M  END
$$$$

  -OEChem-05262214473D

 52 52  0     1  0  0  0  0  0999 V2000
   -1.8248    0.3424    3.9102 C   0  0  0  0  0  0  0  0  0  0  0  0
   -0.8774   -0.2723    3.4345 O   0  0  0  0  0  0  0  0  0  0  0  0
   -2.2566    0.0600    5.3109 C   0  0  0  0  0  0  0  0  0  0  0  0
   -3.0163   -0.7363    5.3643 H   0  0  0  0  0  0  0  0  0  0  0  0
   -1.4254   -0.2876    5.9452 H   0  0  0  0  0  0  0  0  0  0  0  0
   -2.6947    0.9149    5.8505 H   0  0  0  0  0  0  0  0  0  0  0  0
   -2.5745    1.3149    3.2691 N   0  0  0  0  0  0  0  0  0  0  0  0
   -2.3276    1.7409    1.9167 C   0  0  2  0  0  0  0  0  0  0  0  0
   -0.9926    1.1555    1.4755 C   0  0  0  0  0  0  0  0  0  0  0  0
   -0.1206    0.8028    2.2668 O   0  0  0  0  0  0  0  0  0  0  0  0
   -2.3188    3.2577    1.8072 C   0  0  0  0  0  0  0  0  0  0  0  0
   -3.3395    1.7507    3.7809 H   0  0  0  0  0  0  0  0  0  0  0  0
   -3.1317    1.3224    1.3015 H   0  0  0  0  0  0  0  0  0  0  0  0
   -1.5198    3.6949    2.4169 H   0  0  0  0  0  0  0  0  0  0  0  0
   -2.1594    3.5799    0.7729 H   0  0  0  0  0  0  0  0  0  0  0  0
   -3.2690    3.6789    2.1530 H   0  0  0  0  0  0  0  0  0  0  0  0
   -0.8700    1.1124    0.0921 N   0  0  0  0  0  0  0  0  0  0  0  0
    0.3073    0.6116   -0.5716 C   0  0  2  0  0  0  0  0  0  0  0  0
    1.0719    1.8179   -1.1049 C   0  0  0  0  0  0  0  0  0  0  0  0
    2.1079    1.7178   -1.7587 O   0  0  0  0  0  0  0  0  0  0  0  0
   -0.0373   -0.3491   -1.7154 C   0  0  0  0  0  0  0  0  0  0  0  0
   -0.6576   -1.6363   -1.2295 C   0  0  0  0  0  0  0  0  0  0  0  0
    0.1531   -2.6611   -0.7413 C   0  0  0  0  0  0  0  0  0  0  0  0
   -2.0421   -1.8010   -1.2686 C   0  0  0  0  0  0  0  0  0  0  0  0
   -0.4208   -3.8505   -0.2922 C   0  0  0  0  0  0  0  0  0  0  0  0
   -2.6160   -2.9903   -0.8194 C   0  0  0  0  0  0  0  0  0  0  0  0
   -1.8053   -4.0151   -0.3312 C   0  0  0  0  0  0  0  0  0  0  0  0
   -1.6531    1.4091   -0.4852 H   0  0  0  0  0  0  0  0  0  0  0  0
    0.9115    0.1148    0.1966 H   0  0  0  0  0  0  0  0  0  0  0  0
    0.8601   -0.5722   -2.3083 H   0  0  0  0  0  0  0  0  0  0  0  0
   -0.7356    0.1253   -2.4176 H   0  0  0  0  0  0  0  0  0  0  0  0
    1.2328   -2.5417   -0.7070 H   0  0  0  0  0  0  0  0  0  0  0  0
   -2.6816   -1.0080   -1.6472 H   0  0  0  0  0  0  0  0  0  0  0  0
    0.2107   -4.6487    0.0870 H   0  0  0  0  0  0  0  0  0  0  0  0
   -3.6939   -3.1186   -0.8510 H   0  0  0  0  0  0  0  0  0  0  0  0
   -2.2519   -4.9418    0.0173 H   0  0  0  0  0  0  0  0  0  0  0  0
    0.4318    3.0126   -0.8057 N   0  0  0  0  0  0  0  0  0  0  0  0
    0.9324    4.3052   -1.2146 C   0  0  2  0  0  0  0  0  0  0  0  0
    2.4001    4.3886   -0.8166 C   0  0  0  0  0  0  0  0  0  0  0  0
    2.8946    3.6972    0.0714 O   0  0  0  0  0  0  0  0  0  0  0  0
    0.1328    5.4336   -0.5822 C   0  0  0  0  0  0  0  0  0  0  0  0
   -0.4320    2.9765   -0.2724 H   0  0  0  0  0  0  0  0  0  0  0  0
    0.8465    4.3469   -2.3059 H   0  0  0  0  0  0  0  0  0  0  0  0
    0.2069    5.4082    0.5111 H   0  0  0  0  0  0  0  0  0  0  0  0
    0.4951    6.4118   -0.9154 H   0  0  0  0  0  0  0  0  0  0  0  0
   -0.9276    5.3549   -0.8454 H   0  0  0  0  0  0  0  0  0  0  0  0
    3.0829    5.3563   -1.5400 N   0  0  0  0  0  0  0  0  0  0  0  0
    4.4854    5.6360   -1.3378 C   0  0  0  0  0  0  0  0  0  0  0  0
    2.5978    5.8693   -2.2703 H   0  0  0  0  0  0  0  0  0  0  0  0
    4.5958    6.4472   -0.6031 H   0  0  0  0  0  0  0  0  0  0  0  0
    4.9893    4.7322   -0.9646 H   0  0  0  0  0  0  0  0  0  0  0  0
    4.9395    5.9414   -2.2920 H   0  0  0  0  0  0  0  0  0  0  0  0
 25 27  1  0  0  0  0
 26 27  2  0  0  0  0
 23 25  2  0  0  0  0
 24 26  1  0  0  0  0
 22 23  1  0  0  0  0
 22 24  2  0  0  0  0
 21 22  1  0  0  0  0
  1  3  1  0  0  0  0
  1  7  1  0  0  0  0
  1  2  2  0  0  0  0
 38 39  1  0  0  0  0
 39 47  1  0  0  0  0
 39 40  2  0  0  0  0
  8  9  1  0  0  0  0
  9 17  1  0  0  0  0
  9 10  2  0  0  0  0
 18 19  1  0  0  0  0
 19 37  1  0  0  0  0
 19 20  2  0  0  0  0
 38 41  1  0  0  0  0
  8 11  1  0  0  0  0
 47 48  1  0  0  0  0
 18 21  1  0  0  0  0
 37 38  1  0  0  0  0
  7  8  1  0  0  0  0
 17 18  1  0  0  0  0
 27 36  1  0  0  0  0
 25 34  1  0  0  0  0
 26 35  1  0  0  0  0
 23 32  1  0  0  0  0
 24 33  1  0  0  0  0
  3  4  1  0  0  0  0
  3  5  1  0  0  0  0
  3  6  1  0  0  0  0
 41 44  1  0  0  0  0
 41 45  1  0  0  0  0
 41 46  1  0  0  0  0
 11 14  1  0  0  0  0
 11 15  1  0  0  0  0
 11 16  1  0  0  0  0
 48 50  1  0  0  0  0
 48 51  1  0  0  0  0
 48 52  1  0  0  0  0
 21 30  1  0  0  0  0
 21 31  1  0  0  0  0
 38 43  1  0  0  0  0
  8 13  1  0  0  0  0
 18 29  1  0  0  0  0
 47 49  1  0  0  0  0
  7 12  1  0  0  0  0
 37 42  1  0  0  0  0
 17 28  1  0  0  0  0
M  END
$$$$

  -OEChem-05262214473D

 52 52  0     1  0  0  0  0  0999 V2000
   -1.8248    0.3424    3.9102 C   0  0  0  0  0  0  0  0  0  0  0  0
   -0.8774   -0.2723    3.4345 O   0  0  0  0  0  0  0  0  0  0  0  0
   -2.2566    0.0600    5.3109 C   0  0  0  0  0  0  0  0  0  0  0  0
   -3.0163   -0.7363    5.3643 H   0  0  0  0  0  0  0  0  0  0  0  0
   -1.4254   -0.2876    5.9452 H   0  0  0  0  0  0  0  0  0  0  0  0
   -2.6947    0.9149    5.8505 H   0  0  0  0  0  0  0  0  0  0  0  0
   -2.5745    1.3149    3.2691 N   0  0  0  0  0  0  0  0  0  0  0  0
   -2.3276    1.7409    1.9167 C   0  0  2  0  0  0  0  0  0  0  0  0
   -0.9926    1.1555    1.4755 C   0  0  0  0  0  0  0  0  0  0  0  0
   -0.1206    0.8028    2.2668 O   0  0  0  0  0  0  0  0  0  0  0  0
   -2.3188    3.2577    1.8072 C   0  0  0  0  0  0  0  0  0  0  0  0
   -3.3395    1.7507    3.7809 H   0  0  0  0  0  0  0  0  0  0  0  0
   -3.1317    1.3224    1.3015 H   0  0  0  0  0  0  0  0  0  0  0  0
   -1.5198    3.6949    2.4169 H   0  0  0  0  0  0  0  0  0  0  0  0
   -2.1594    3.5799    0.7729 H   0  0  0  0  0  0  0  0  0  0  0  0
   -3.2690    3.6789    2.1530 H   0  0  0  0  0  0  0  0  0  0  0  0
   -0.8700    1.1124    0.0921 N   0  0  0  0  0  0  0  0  0  0  0  0
    0.3073    0.6116   -0.5716 C   0  0  2  0  0  0  0  0  0  0  0  0
    1.0719    1.8179   -1.1049 C   0  0  0  0  0  0  0  0  0  0  0  0
    1.9411    1.7303   -1.9696 O   0  0  0  0  0  0  0  0  0  0  0  0
   -0.0373   -0.3491   -1.7154 C   0  0  0  0  0  0  0  0  0  0  0  0
   -0.6576   -1.6363   -1.2295 C   0  0  0  0  0  0  0  0  0  0  0  0
    0.1531   -2.6611   -0.7413 C   0  0  0  0  0  0  0  0  0  0  0  0
   -2.0421   -1.8010   -1.2686 C   0  0  0  0  0  0  0  0  0  0  0  0
   -0.4208   -3.8505   -0.2922 C   0  0  0  0  0  0  0  0  0  0  0  0
   -2.6160   -2.9903   -0.8194 C   0  0  0  0  0  0  0  0  0  0  0  0
   -1.8053   -4.0151   -0.3312 C   0  0  0  0  0  0  0  0  0  0  0  0
   -1.6531    1.4091   -0.4852 H   0  0  0  0  0  0  0  0  0  0  0  0
    0.9115    0.1148    0.1966 H   0  0  0  0  0  0  0  0  0  0  0  0
    0.8601   -0.5722   -2.3083 H   0  0  0  0  0  0  0  0  0  0  0  0
   -0.7356    0.1253   -2.4176 H   0  0  0  0  0  0  0  0  0  0  0  0
    1.2328   -2.5417   -0.7070 H   0  0  0  0  0  0  0  0  0  0  0  0
   -2.6816   -1.0080   -1.6472 H   0  0  0  0  0  0  0  0  0  0  0  0
    0.2107   -4.6487    0.0870 H   0  0  0  0  0  0  0  0  0  0  0  0
   -3.6939   -3.1186   -0.8510 H   0  0  0  0  0  0  0  0  0  0  0  0
   -2.2519   -4.9418    0.0173 H   0  0  0  0  0  0  0  0  0  0  0  0
    0.6319    3.0050   -0.5359 N   0  0  0  0  0  0  0  0  0  0  0  0
    1.1730    4.2995   -0.8826 C   0  0  2  0  0  0  0  0  0  0  0  0
    2.6911    4.2134   -0.7957 C   0  0  0  0  0  0  0  0  0  0  0  0
    3.2775    3.3690   -0.1217 O   0  0  0  0  0  0  0  0  0  0  0  0
    0.6369    5.3871    0.0353 C   0  0  0  0  0  0  0  0  0  0  0  0
   -0.1075    2.9617    0.1591 H   0  0  0  0  0  0  0  0  0  0  0  0
    0.8766    4.4992   -1.9181 H   0  0  0  0  0  0  0  0  0  0  0  0
    0.9238    5.2041    1.0773 H   0  0  0  0  0  0  0  0  0  0  0  0
    1.0255    6.3713   -0.2465 H   0  0  0  0  0  0  0  0  0  0  0  0
   -0.4569    5.4278   -0.0060 H   0  0  0  0  0  0  0  0  0  0  0  0
    3.3134    5.2169   -1.5249 N   0  0  0  0  0  0  0  0  0  0  0  0
    4.7493    5.3569   -1.5907 C   0  0  0  0  0  0  0  0  0  0  0  0
    2.7488    5.8624   -2.0694 H   0  0  0  0  0  0  0  0  0  0  0  0
    5.0875    6.0469   -0.8036 H   0  0  0  0  0  0  0  0  0  0  0  0
    5.2206    4.3739   -1.4436 H   0  0  0  0  0  0  0  0  0  0  0  0
    5.0340    5.7562   -2.5754 H   0  0  0  0  0  0  0  0  0  0  0  0
 25 27  1  0  0  0  0
 26 27  2  0  0  0  0
 23 25  2  0  0  0  0
 24 26  1  0  0  0  0
 22 23  1  0  0  0  0
 22 24  2  0  0  0  0
 21 22  1  0  0  0  0
  1  3  1  0  0  0  0
  1  7  1  0  0  0  0
  1  2  2  0  0  0  0
 38 39  1  0  0  0  0
 39 47  1  0  0  0  0
 39 40  2  0  0  0  0
  8  9  1  0  0  0  0
  9 17  1  0  0  0  0
  9 10  2  0  0  0  0
 18 19  1  0  0  0  0
 19 37  1  0  0  0  0
 19 20  2  0  0  0  0
 38 41  1  0  0  0  0
  8 11  1  0  0  0  0
 47 48  1  0  0  0  0
 18 21  1  0  0  0  0
 37 38  1  0  0  0  0
  7  8  1  0  0  0  0
 17 18  1  0  0  0  0
 27 36  1  0  0  0  0
 25 34  1  0  0  0  0
 26 35  1  0  0  0  0
 23 32  1  0  0  0  0
 24 33  1  0  0  0  0
  3  4  1  0  0  0  0
  3  5  1  0  0  0  0
  3  6  1  0  0  0  0
 41 44  1  0  0  0  0
 41 45  1  0  0  0  0
 41 46  1  0  0  0  0
 11 14  1  0  0  0  0
 11 15  1  0  0  0  0
 11 16  1  0  0  0  0
 48 50  1  0  0  0  0
 48 51  1  0  0  0  0
 48 52  1  0  0  0  0
 21 30  1  0  0  0  0
 21 31  1  0  0  0  0
 38 43  1  0  0  0  0
  8 13  1  0  0  0  0
 18 29  1  0  0  0  0
 47 49  1  0  0  0  0
  7 12  1  0  0  0  0
 37 42  1  0  0  0  0
 17 28  1  0  0  0  0
M  END
$$$$

  -OEChem-05262214473D

 52 52  0     1  0  0  0  0  0999 V2000
   -1.8248    0.3424    3.9102 C   0  0  0  0  0  0  0  0  0  0  0  0
   -0.8774   -0.2723    3.4345 O   0  0  0  0  0  0  0  0  0  0  0  0
   -2.2566    0.0600    5.3109 C   0  0  0  0  0  0  0  0  0  0  0  0
   -3.0163   -0.7363    5.3643 H   0  0  0  0  0  0  0  0  0  0  0  0
   -1.4254   -0.2876    5.9452 H   0  0  0  0  0  0  0  0  0  0  0  0
   -2.6947    0.9149    5.8505 H   0  0  0  0  0  0  0  0  0  0  0  0
   -2.5745    1.3149    3.2691 N   0  0  0  0  0  0  0  0  0  0  0  0
   -2.3276    1.7409    1.9167 C   0  0  2  0  0  0  0  0  0  0  0  0
   -0.9926    1.1555    1.4755 C   0  0  0  0  0  0  0  0  0  0  0  0
   -0.1206    0.8028    2.2668 O   0  0  0  0  0  0  0  0  0  0  0  0
   -2.3188    3.2577    1.8072 C   0  0  0  0  0  0  0  0  0  0  0  0
   -3.3395    1.7507    3.7809 H   0  0  0  0  0  0  0  0  0  0  0  0
   -3.1317    1.3224    1.3015 H   0  0  0  0  0  0  0  0  0  0  0  0
   -1.5198    3.6949    2.4169 H   0  0  0  0  0  0  0  0  0  0  0  0
   -2.1594    3.5799    0.7729 H   0  0  0  0  0  0  0  0  0  0  0  0
   -3.2690    3.6789    2.1530 H   0  0  0  0  0  0  0  0  0  0  0  0
   -0.8700    1.1124    0.0921 N   0  0  0  0  0  0  0  0  0  0  0  0
    0.3073    0.6116   -0.5716 C   0  0  2  0  0  0  0  0  0  0  0  0
    1.0719    1.8179   -1.1049 C   0  0  0  0  0  0  0  0  0  0  0  0
    1.7379    1.7849   -2.1375 O   0  0  0  0  0  0  0  0  0  0  0  0
   -0.0373   -0.3491   -1.7154 C   0  0  0  0  0  0  0  0  0  0  0  0
   -0.6576   -1.6363   -1.2295 C   0  0  0  0  0  0  0  0  0  0  0  0
    0.1531   -2.6611   -0.7413 C   0  0  0  0  0  0  0  0  0  0  0  0
   -2.0421   -1.8010   -1.2686 C   0  0  0  0  0  0  0  0  0  0  0  0
   -0.4208   -3.8505   -0.2922 C   0  0  0  0  0  0  0  0  0  0  0  0
   -2.6160   -2.9903   -0.8194 C   0  0  0  0  0  0  0  0  0  0  0  0
   -1.8053   -4.0151   -0.3312 C   0  0  0  0  0  0  0  0  0  0  0  0
   -1.6531    1.4091   -0.4852 H   0  0  0  0  0  0  0  0  0  0  0  0
    0.9115    0.1148    0.1966 H   0  0  0  0  0  0  0  0  0  0  0  0
    0.8601   -0.5722   -2.3083 H   0  0  0  0  0  0  0  0  0  0  0  0
   -0.7356    0.1253   -2.4176 H   0  0  0  0  0  0  0  0  0  0  0  0
    1.2328   -2.5417   -0.7070 H   0  0  0  0  0  0  0  0  0  0  0  0
   -2.6816   -1.0080   -1.6472 H   0  0  0  0  0  0  0  0  0  0  0  0
    0.2107   -4.6487    0.0870 H   0  0  0  0  0  0  0  0  0  0  0  0
   -3.6939   -3.1186   -0.8510 H   0  0  0  0  0  0  0  0  0  0  0  0
   -2.2519   -4.9418    0.0173 H   0  0  0  0  0  0  0  0  0  0  0  0
    0.8798    2.9445   -0.3173 N   0  0  0  0  0  0  0  0  0  0  0  0
    1.4729    4.2292   -0.6118 C   0  0  2  0  0  0  0  0  0  0  0  0
    2.9605    4.0151   -0.8579 C   0  0  0  0  0  0  0  0  0  0  0  0
    3.5782    3.0425   -0.4293 O   0  0  0  0  0  0  0  0  0  0  0  0
    1.2461    5.2164    0.5225 C   0  0  0  0  0  0  0  0  0  0  0  0
    0.2929    2.8620    0.5076 H   0  0  0  0  0  0  0  0  0  0  0  0
    0.9990    4.5933   -1.5299 H   0  0  0  0  0  0  0  0  0  0  0  0
    1.7138    4.8685    1.4508 H   0  0  0  0  0  0  0  0  0  0  0  0
    1.6712    6.1973    0.2857 H   0  0  0  0  0  0  0  0  0  0  0  0
    0.1762    5.3465    0.7179 H   0  0  0  0  0  0  0  0  0  0  0  0
    3.5264    5.0595   -1.5756 N   0  0  0  0  0  0  0  0  0  0  0  0
    4.9272    5.0962   -1.9253 C   0  0  0  0  0  0  0  0  0  0  0  0
    2.9352    5.8160   -1.9071 H   0  0  0  0  0  0  0  0  0  0  0  0
    5.4851    5.6418   -1.1500 H   0  0  0  0  0  0  0  0  0  0  0  0
    5.3134    4.0689   -2.0002 H   0  0  0  0  0  0  0  0  0  0  0  0
    5.0504    5.6056   -2.8924 H   0  0  0  0  0  0  0  0  0  0  0  0
 25 27  1  0  0  0  0
 26 27  2  0  0  0  0
 23 25  2  0  0  0  0
 24 26  1  0  0  0  0
 22 23  1  0  0  0  0
 22 24  2  0  0  0  0
 21 22  1  0  0  0  0
  1  3  1  0  0  0  0
  1  7  1  0  0  0  0
  1  2  2  0  0  0  0
 38 39  1  0  0  0  0
 39 47  1  0  0  0  0
 39 40  2  0  0  0  0
  8  9  1  0  0  0  0
  9 17  1  0  0  0  0
  9 10  2  0  0  0  0
 18 19  1  0  0  0  0
 19 37  1  0  0  0  0
 19 20  2  0  0  0  0
 38 41  1  0  0  0  0
  8 11  1  0  0  0  0
 47 48  1  0  0  0  0
 18 21  1  0  0  0  0
 37 38  1  0  0  0  0
  7  8  1  0  0  0  0
 17 18  1  0  0  0  0
 27 36  1  0  0  0  0
 25 34  1  0  0  0  0
 26 35  1  0  0  0  0
 23 32  1  0  0  0  0
 24 33  1  0  0  0  0
  3  4  1  0  0  0  0
  3  5  1  0  0  0  0
  3  6  1  0  0  0  0
 41 44  1  0  0  0  0
 41 45  1  0  0  0  0
 41 46  1  0  0  0  0
 11 14  1  0  0  0  0
 11 15  1  0  0  0  0
 11 16  1  0  0  0  0
 48 50  1  0  0  0  0
 48 51  1  0  0  0  0
 48 52  1  0  0  0  0
 21 30  1  0  0  0  0
 21 31  1  0  0  0  0
 38 43  1  0  0  0  0
  8 13  1  0  0  0  0
 18 29  1  0  0  0  0
 47 49  1  0  0  0  0
  7 12  1  0  0  0  0
 37 42  1  0  0  0  0
 17 28  1  0  0  0  0
M  END
$$$$

  -OEChem-05262214473D

 52 52  0     1  0  0  0  0  0999 V2000
   -1.8248    0.3424    3.9102 C   0  0  0  0  0  0  0  0  0  0  0  0
   -0.8774   -0.2723    3.4345 O   0  0  0  0  0  0  0  0  0  0  0  0
   -2.2566    0.0600    5.3109 C   0  0  0  0  0  0  0  0  0  0  0  0
   -3.0163   -0.7363    5.3643 H   0  0  0  0  0  0  0  0  0  0  0  0
   -1.4254   -0.2876    5.9452 H   0  0  0  0  0  0  0  0  0  0  0  0
   -2.6947    0.9149    5.8505 H   0  0  0  0  0  0  0  0  0  0  0  0
   -2.5745    1.3149    3.2691 N   0  0  0  0  0  0  0  0  0  0  0  0
   -2.3276    1.7409    1.9167 C   0  0  2  0  0  0  0  0  0  0  0  0
   -0.9926    1.1555    1.4755 C   0  0  0  0  0  0  0  0  0  0  0  0
   -0.1206    0.8028    2.2668 O   0  0  0  0  0  0  0  0  0  0  0  0
   -2.3188    3.2577    1.8072 C   0  0  0  0  0  0  0  0  0  0  0  0
   -3.3395    1.7507    3.7809 H   0  0  0  0  0  0  0  0  0  0  0  0
   -3.1317    1.3224    1.3015 H   0  0  0  0  0  0  0  0  0  0  0  0
   -1.5198    3.6949    2.4169 H   0  0  0  0  0  0  0  0  0  0  0  0
   -2.1594    3.5799    0.7729 H   0  0  0  0  0  0  0  0  0  0  0  0
   -3.2690    3.6789    2.1530 H   0  0  0  0  0  0  0  0  0  0  0  0
   -0.8700    1.1124    0.0921 N   0  0  0  0  0  0  0  0  0  0  0  0
    0.3073    0.6116   -0.5716 C   0  0  2  0  0  0  0  0  0  0  0  0
    1.0719    1.8179   -1.1049 C   0  0  0  0  0  0  0  0  0  0  0  0
    1.5122    1.8778   -2.2510 O   0  0  0  0  0  0  0  0  0  0  0  0
   -0.0373   -0.3491   -1.7154 C   0  0  0  0  0  0  0  0  0  0  0  0
   -0.6576   -1.6363   -1.2295 C   0  0  0  0  0  0  0  0  0  0  0  0
    0.1531   -2.6611   -0.7413 C   0  0  0  0  0  0  0  0  0  0  0  0
   -2.0421   -1.8010   -1.2686 C   0  0  0  0  0  0  0  0  0  0  0  0
   -0.4208   -3.8505   -0.2922 C   0  0  0  0  0  0  0  0  0  0  0  0
   -2.6160   -2.9903   -0.8194 C   0  0  0  0  0  0  0  0  0  0  0  0
   -1.8053   -4.0151   -0.3312 C   0  0  0  0  0  0  0  0  0  0  0  0
   -1.6531    1.4091   -0.4852 H   0  0  0  0  0  0  0  0  0  0  0  0
    0.9115    0.1148    0.1966 H   0  0  0  0  0  0  0  0  0  0  0  0
    0.8601   -0.5722   -2.3083 H   0  0  0  0  0  0  0  0  0  0  0  0
   -0.7356    0.1253   -2.4176 H   0  0  0  0  0  0  0  0  0  0  0  0
    1.2328   -2.5417   -0.7070 H   0  0  0  0  0  0  0  0  0  0  0  0
   -2.6816   -1.0080   -1.6472 H   0  0  0  0  0  0  0  0  0  0  0  0
    0.2107   -4.6487    0.0870 H   0  0  0  0  0  0  0  0  0  0  0  0
   -3.6939   -3.1186   -0.8510 H   0  0  0  0  0  0  0  0  0  0  0  0
   -2.2519   -4.9418    0.0173 H   0  0  0  0  0  0  0  0  0  0  0  0
    1.1585    2.8353   -0.1648 N   0  0  0  0  0  0  0  0  0  0  0  0
    1.8116    4.0989   -0.4208 C   0  0  2  0  0  0  0  0  0  0  0  0
    3.1901    3.8072   -0.9988 C   0  0  0  0  0  0  0  0  0  0  0  0
    3.7760    2.7398   -0.8303 O   0  0  0  0  0  0  0  0  0  0  0  0
    1.9189    4.9331    0.8462 C   0  0  0  0  0  0  0  0  0  0  0  0
    0.7420    2.6842    0.7492 H   0  0  0  0  0  0  0  0  0  0  0  0
    1.2052    4.6227   -1.1677 H   0  0  0  0  0  0  0  0  0  0  0  0
    2.5230    4.4244    1.6063 H   0  0  0  0  0  0  0  0  0  0  0  0
    2.3881    5.9018    0.6450 H   0  0  0  0  0  0  0  0  0  0  0  0
    0.9287    5.1167    1.2769 H   0  0  0  0  0  0  0  0  0  0  0  0
    3.7075    4.8947   -1.6887 N   0  0  0  0  0  0  0  0  0  0  0  0
    5.0070    4.8717   -2.3188 C   0  0  0  0  0  0  0  0  0  0  0  0
    3.1442    5.7332   -1.7946 H   0  0  0  0  0  0  0  0  0  0  0  0
    5.7615    5.2594   -1.6185 H   0  0  0  0  0  0  0  0  0  0  0  0
    5.2615    3.8382   -2.5965 H   0  0  0  0  0  0  0  0  0  0  0  0
    4.9877    5.4998   -3.2216 H   0  0  0  0  0  0  0  0  0  0  0  0
 25 27  1  0  0  0  0
 26 27  2  0  0  0  0
 23 25  2  0  0  0  0
 24 26  1  0  0  0  0
 22 23  1  0  0  0  0
 22 24  2  0  0  0  0
 21 22  1  0  0  0  0
  1  3  1  0  0  0  0
  1  7  1  0  0  0  0
  1  2  2  0  0  0  0
 38 39  1  0  0  0  0
 39 47  1  0  0  0  0
 39 40  2  0  0  0  0
  8  9  1  0  0  0  0
  9 17  1  0  0  0  0
  9 10  2  0  0  0  0
 18 19  1  0  0  0  0
 19 37  1  0  0  0  0
 19 20  2  0  0  0  0
 38 41  1  0  0  0  0
  8 11  1  0  0  0  0
 47 48  1  0  0  0  0
 18 21  1  0  0  0  0
 37 38  1  0  0  0  0
  7  8  1  0  0  0  0
 17 18  1  0  0  0  0
 27 36  1  0  0  0  0
 25 34  1  0  0  0  0
 26 35  1  0  0  0  0
 23 32  1  0  0  0  0
 24 33  1  0  0  0  0
  3  4  1  0  0  0  0
  3  5  1  0  0  0  0
  3  6  1  0  0  0  0
 41 44  1  0  0  0  0
 41 45  1  0  0  0  0
 41 46  1  0  0  0  0
 11 14  1  0  0  0  0
 11 15  1  0  0  0  0
 11 16  1  0  0  0  0
 48 50  1  0  0  0  0
 48 51  1  0  0  0  0
 48 52  1  0  0  0  0
 21 30  1  0  0  0  0
 21 31  1  0  0  0  0
 38 43  1  0  0  0  0
  8 13  1  0  0  0  0
 18 29  1  0  0  0  0
 47 49  1  0  0  0  0
  7 12  1  0  0  0  0
 37 42  1  0  0  0  0
 17 28  1  0  0  0  0
M  END
$$$$

  -OEChem-05262214473D

 52 52  0     1  0  0  0  0  0999 V2000
   -1.8248    0.3424    3.9102 C   0  0  0  0  0  0  0  0  0  0  0  0
   -0.8774   -0.2723    3.4345 O   0  0  0  0  0  0  0  0  0  0  0  0
   -2.2566    0.0600    5.3109 C   0  0  0  0  0  0  0  0  0  0  0  0
   -3.0163   -0.7363    5.3643 H   0  0  0  0  0  0  0  0  0  0  0  0
   -1.4254   -0.2876    5.9452 H   0  0  0  0  0  0  0  0  0  0  0  0
   -2.6947    0.9149    5.8505 H   0  0  0  0  0  0  0  0  0  0  0  0
   -2.5745    1.3149    3.2691 N   0  0  0  0  0  0  0  0  0  0  0  0
   -2.3276    1.7409    1.9167 C   0  0  2  0  0  0  0  0  0  0  0  0
   -0.9926    1.1555    1.4755 C   0  0  0  0  0  0  0  0  0  0  0  0
   -0.1206    0.8028    2.2668 O   0  0  0  0  0  0  0  0  0  0  0  0
   -2.3188    3.2577    1.8072 C   0  0  0  0  0  0  0  0  0  0  0  0
   -3.3395    1.7507    3.7809 H   0  0  0  0  0  0  0  0  0  0  0  0
   -3.1317    1.3224    1.3015 H   0  0  0  0  0  0  0  0  0  0  0  0
   -1.5198    3.6949    2.4169 H   0  0  0  0  0  0  0  0  0  0  0  0
   -2.1594    3.5799    0.7729 H   0  0  0  0  0  0  0  0  0  0  0  0
   -3.2690    3.6789    2.1530 H   0  0  0  0  0  0  0  0  0  0  0  0
   -0.8700    1.1124    0.0921 N   0  0  0  0  0  0  0  0  0  0  0  0
    0.3073    0.6116   -0.5716 C   0  0  2  0  0  0  0  0  0  0  0  0
    1.0719    1.8179   -1.1049 C   0  0  0  0  0  0  0  0  0  0  0  0
    1.2793    2.0027   -2.3023 O   0  0  0  0  0  0  0  0  0  0  0  0
   -0.0373   -0.3491   -1.7154 C   0  0  0  0  0  0  0  0  0  0  0  0
   -0.6576   -1.6363   -1.2295 C   0  0  0  0  0  0  0  0  0  0  0  0
    0.1531   -2.6611   -0.7413 C   0  0  0  0  0  0  0  0  0  0  0  0
   -2.0421   -1.8010   -1.2686 C   0  0  0  0  0  0  0  0  0  0  0  0
   -0.4208   -3.8505   -0.2922 C   0  0  0  0  0  0  0  0  0  0  0  0
   -2.6160   -2.9903   -0.8194 C   0  0  0  0  0  0  0  0  0  0  0  0
   -1.8053   -4.0151   -0.3312 C   0  0  0  0  0  0  0  0  0  0  0  0
   -1.6531    1.4091   -0.4852 H   0  0  0  0  0  0  0  0  0  0  0  0
    0.9115    0.1148    0.1966 H   0  0  0  0  0  0  0  0  0  0  0  0
    0.8601   -0.5722   -2.3083 H   0  0  0  0  0  0  0  0  0  0  0  0
   -0.7356    0.1253   -2.4176 H   0  0  0  0  0  0  0  0  0  0  0  0
    1.2328   -2.5417   -0.7070 H   0  0  0  0  0  0  0  0  0  0  0  0
   -2.6816   -1.0080   -1.6472 H   0  0  0  0  0  0  0  0  0  0  0  0
    0.2107   -4.6487    0.0870 H   0  0  0  0  0  0  0  0  0  0  0  0
   -3.6939   -3.1186   -0.8510 H   0  0  0  0  0  0  0  0  0  0  0  0
   -2.2519   -4.9418    0.0173 H   0  0  0  0  0  0  0  0  0  0  0  0
    1.4491    2.6848   -0.0887 N   0  0  0  0  0  0  0  0  0  0  0  0
    2.1661    3.9176   -0.3226 C   0  0  2  0  0  0  0  0  0  0  0  0
    3.3642    3.6040   -1.2090 C   0  0  0  0  0  0  0  0  0  0  0  0
    3.8576    2.4815   -1.2975 O   0  0  0  0  0  0  0  0  0  0  0  0
    2.6094    4.5565    0.9843 C   0  0  0  0  0  0  0  0  0  0  0  0
    1.2092    2.4404    0.8676 H   0  0  0  0  0  0  0  0  0  0  0  0
    1.4812    4.5855   -0.8563 H   0  0  0  0  0  0  0  0  0  0  0  0
    3.2963    3.9019    1.5331 H   0  0  0  0  0  0  0  0  0  0  0  0
    3.1275    5.5047    0.8068 H   0  0  0  0  0  0  0  0  0  0  0  0
    1.7492    4.7541    1.6330 H   0  0  0  0  0  0  0  0  0  0  0  0
    3.8444    4.7338   -1.8564 N   0  0  0  0  0  0  0  0  0  0  0  0
    4.9831    4.6987   -2.7443 C   0  0  0  0  0  0  0  0  0  0  0  0
    3.3617    5.6198   -1.7395 H   0  0  0  0  0  0  0  0  0  0  0  0
    5.8979    4.9259   -2.1773 H   0  0  0  0  0  0  0  0  0  0  0  0
    5.0683    3.6975   -3.1917 H   0  0  0  0  0  0  0  0  0  0  0  0
    4.8502    5.4461   -3.5404 H   0  0  0  0  0  0  0  0  0  0  0  0
 25 27  1  0  0  0  0
 26 27  2  0  0  0  0
 23 25  2  0  0  0  0
 24 26  1  0  0  0  0
 22 23  1  0  0  0  0
 22 24  2  0  0  0  0
 21 22  1  0  0  0  0
  1  3  1  0  0  0  0
  1  7  1  0  0  0  0
  1  2  2  0  0  0  0
 38 39  1  0  0  0  0
 39 47  1  0  0  0  0
 39 40  2  0  0  0  0
  8  9  1  0  0  0  0
  9 17  1  0  0  0  0
  9 10  2  0  0  0  0
 18 19  1  0  0  0  0
 19 37  1  0  0  0  0
 19 20  2  0  0  0  0
 38 41  1  0  0  0  0
  8 11  1  0  0  0  0
 47 48  1  0  0  0  0
 18 21  1  0  0  0  0
 37 38  1  0  0  0  0
  7  8  1  0  0  0  0
 17 18  1  0  0  0  0
 27 36  1  0  0  0  0
 25 34  1  0  0  0  0
 26 35  1  0  0  0  0
 23 32  1  0  0  0  0
 24 33  1  0  0  0  0
  3  4  1  0  0  0  0
  3  5  1  0  0  0  0
  3  6  1  0  0  0  0
 41 44  1  0  0  0  0
 41 45  1  0  0  0  0
 41 46  1  0  0  0  0
 11 14  1  0  0  0  0
 11 15  1  0  0  0  0
 11 16  1  0  0  0  0
 48 50  1  0  0  0  0
 48 51  1  0  0  0  0
 48 52  1  0  0  0  0
 21 30  1  0  0  0  0
 21 31  1  0  0  0  0
 38 43  1  0  0  0  0
  8 13  1  0  0  0  0
 18 29  1  0  0  0  0
 47 49  1  0  0  0  0
  7 12  1  0  0  0  0
 37 42  1  0  0  0  0
 17 28  1  0  0  0  0
M  END
$$$$

  -OEChem-05262214473D

 52 52  0     1  0  0  0  0  0999 V2000
   -1.8248    0.3424    3.9102 C   0  0  0  0  0  0  0  0  0  0  0  0
   -0.8774   -0.2723    3.4345 O   0  0  0  0  0  0  0  0  0  0  0  0
   -2.2566    0.0600    5.3109 C   0  0  0  0  0  0  0  0  0  0  0  0
   -3.0163   -0.7363    5.3643 H   0  0  0  0  0  0  0  0  0  0  0  0
   -1.4254   -0.2876    5.9452 H   0  0  0  0  0  0  0  0  0  0  0  0
   -2.6947    0.9149    5.8505 H   0  0  0  0  0  0  0  0  0  0  0  0
   -2.5745    1.3149    3.2691 N   0  0  0  0  0  0  0  0  0  0  0  0
   -2.3276    1.7409    1.9167 C   0  0  2  0  0  0  0  0  0  0  0  0
   -0.9926    1.1555    1.4755 C   0  0  0  0  0  0  0  0  0  0  0  0
   -0.1206    0.8028    2.2668 O   0  0  0  0  0  0  0  0  0  0  0  0
   -2.3188    3.2577    1.8072 C   0  0  0  0  0  0  0  0  0  0  0  0
   -3.3395    1.7507    3.7809 H   0  0  0  0  0  0  0  0  0  0  0  0
   -3.1317    1.3224    1.3015 H   0  0  0  0  0  0  0  0  0  0  0  0
   -1.5198    3.6949    2.4169 H   0  0  0  0  0  0  0  0  0  0  0  0
   -2.1594    3.5799    0.7729 H   0  0  0  0  0  0  0  0  0  0  0  0
   -3.2690    3.6789    2.1530 H   0  0  0  0  0  0  0  0  0  0  0  0
   -0.8700    1.1124    0.0921 N   0  0  0  0  0  0  0  0  0  0  0  0
    0.3073    0.6116   -0.5716 C   0  0  2  0  0  0  0  0  0  0  0  0
    1.0719    1.8179   -1.1049 C   0  0  0  0  0  0  0  0  0  0  0  0
    1.0552    2.1511   -2.2880 O   0  0  0  0  0  0  0  0  0  0  0  0
   -0.0373   -0.3491   -1.7154 C   0  0  0  0  0  0  0  0  0  0  0  0
   -0.6576   -1.6363   -1.2295 C   0  0  0  0  0  0  0  0  0  0  0  0
    0.1531   -2.6611   -0.7413 C   0  0  0  0  0  0  0  0  0  0  0  0
   -2.0421   -1.8010   -1.2686 C   0  0  0  0  0  0  0  0  0  0  0  0
   -0.4208   -3.8505   -0.2922 C   0  0  0  0  0  0  0  0  0  0  0  0
   -2.6160   -2.9903   -0.8194 C   0  0  0  0  0  0  0  0  0  0  0  0
   -1.8053   -4.0151   -0.3312 C   0  0  0  0  0  0  0  0  0  0  0  0
   -1.6531    1.4091   -0.4852 H   0  0  0  0  0  0  0  0  0  0  0  0
    0.9115    0.1148    0.1966 H   0  0  0  0  0  0  0  0  0  0  0  0
    0.8601   -0.5722   -2.3083 H   0  0  0  0  0  0  0  0  0  0  0  0
   -0.7356    0.1253   -2.4176 H   0  0  0  0  0  0  0  0  0  0  0  0
    1.2328   -2.5417   -0.7070 H   0  0  0  0  0  0  0  0  0  0  0  0
   -2.6816   -1.0080   -1.6472 H   0  0  0  0  0  0  0  0  0  0  0  0
    0.2107   -4.6487    0.0870 H   0  0  0  0  0  0  0  0  0  0  0  0
   -3.6939   -3.1186   -0.8510 H   0  0  0  0  0  0  0  0  0  0  0  0
   -2.2519   -4.9418    0.0173 H   0  0  0  0  0  0  0  0  0  0  0  0
    1.7318    2.5032   -0.0942 N   0  0  0  0  0  0  0  0  0  0  0  0
    2.5123    3.6977   -0.3239 C   0  0  2  0  0  0  0  0  0  0  0  0
    3.4709    3.4191   -1.4741 C   0  0  0  0  0  0  0  0  0  0  0  0
    3.8173    2.2853   -1.7990 O   0  0  0  0  0  0  0  0  0  0  0  0
    3.2705    4.1123    0.9274 C   0  0  0  0  0  0  0  0  0  0  0  0
    1.6626    2.1472    0.8546 H   0  0  0  0  0  0  0  0  0  0  0  0
    1.8082    4.4841   -0.6168 H   0  0  0  0  0  0  0  0  0  0  0  0
    3.9809    3.3367    1.2362 H   0  0  0  0  0  0  0  0  0  0  0  0
    3.8388    5.0332    0.7602 H   0  0  0  0  0  0  0  0  0  0  0  0
    2.5818    4.2833    1.7618 H   0  0  0  0  0  0  0  0  0  0  0  0
    3.9277    4.5877   -2.0673 N   0  0  0  0  0  0  0  0  0  0  0  0
    4.8572    4.5890   -3.1728 C   0  0  0  0  0  0  0  0  0  0  0  0
    3.5728    5.4833   -1.7455 H   0  0  0  0  0  0  0  0  0  0  0  0
    5.8851    4.6639   -2.7883 H   0  0  0  0  0  0  0  0  0  0  0  0
    4.7471    3.6563   -3.7454 H   0  0  0  0  0  0  0  0  0  0  0  0
    4.6472    5.4479   -3.8272 H   0  0  0  0  0  0  0  0  0  0  0  0
 25 27  1  0  0  0  0
 26 27  2  0  0  0  0
 23 25  2  0  0  0  0
 24 26  1  0  0  0  0
 22 23  1  0  0  0  0
 22 24  2  0  0  0  0
 21 22  1  0  0  0  0
  1  3  1  0  0  0  0
  1  7  1  0  0  0  0
  1  2  2  0  0  0  0
 38 39  1  0  0  0  0
 39 47  1  0  0  0  0
 39 40  2  0  0  0  0
  8  9  1  0  0  0  0
  9 17  1  0  0  0  0
  9 10  2  0  0  0  0
 18 19  1  0  0  0  0
 19 37  1  0  0  0  0
 19 20  2  0  0  0  0
 38 41  1  0  0  0  0
  8 11  1  0  0  0  0
 47 48  1  0  0  0  0
 18 21  1  0  0  0  0
 37 38  1  0  0  0  0
  7  8  1  0  0  0  0
 17 18  1  0  0  0  0
 27 36  1  0  0  0  0
 25 34  1  0  0  0  0
 26 35  1  0  0  0  0
 23 32  1  0  0  0  0
 24 33  1  0  0  0  0
  3  4  1  0  0  0  0
  3  5  1  0  0  0  0
  3  6  1  0  0  0  0
 41 44  1  0  0  0  0
 41 45  1  0  0  0  0
 41 46  1  0  0  0  0
 11 14  1  0  0  0  0
 11 15  1  0  0  0  0
 11 16  1  0  0  0  0
 48 50  1  0  0  0  0
 48 51  1  0  0  0  0
 48 52  1  0  0  0  0
 21 30  1  0  0  0  0
 21 31  1  0  0  0  0
 38 43  1  0  0  0  0
  8 13  1  0  0  0  0
 18 29  1  0  0  0  0
 47 49  1  0  0  0  0
  7 12  1  0  0  0  0
 37 42  1  0  0  0  0
 17 28  1  0  0  0  0
M  END
$$$$

  -OEChem-05262214473D

 52 52  0     1  0  0  0  0  0999 V2000
   -1.8248    0.3424    3.9102 C   0  0  0  0  0  0  0  0  0  0  0  0
   -0.8774   -0.2723    3.4345 O   0  0  0  0  0  0  0  0  0  0  0  0
   -2.2566    0.0600    5.3109 C   0  0  0  0  0  0  0  0  0  0  0  0
   -3.0163   -0.7363    5.3643 H   0  0  0  0  0  0  0  0  0  0  0  0
   -1.4254   -0.2876    5.9452 H   0  0  0  0  0  0  0  0  0  0  0  0
   -2.6947    0.9149    5.8505 H   0  0  0  0  0  0  0  0  0  0  0  0
   -2.5745    1.3149    3.2691 N   0  0  0  0  0  0  0  0  0  0  0  0
   -2.3276    1.7409    1.9167 C   0  0  2  0  0  0  0  0  0  0  0  0
   -0.9926    1.1555    1.4755 C   0  0  0  0  0  0  0  0  0  0  0  0
   -0.1206    0.8028    2.2668 O   0  0  0  0  0  0  0  0  0  0  0  0
   -2.3188    3.2577    1.8072 C   0  0  0  0  0  0  0  0  0  0  0  0
   -3.3395    1.7507    3.7809 H   0  0  0  0  0  0  0  0  0  0  0  0
   -3.1317    1.3224    1.3015 H   0  0  0  0  0  0  0  0  0  0  0  0
   -1.5198    3.6949    2.4169 H   0  0  0  0  0  0  0  0  0  0  0  0
   -2.1594    3.5799    0.7729 H   0  0  0  0  0  0  0  0  0  0  0  0
   -3.2690    3.6789    2.1530 H   0  0  0  0  0  0  0  0  0  0  0  0
   -0.8700    1.1124    0.0921 N   0  0  0  0  0  0  0  0  0  0  0  0
    0.3073    0.6116   -0.5716 C   0  0  2  0  0  0  0  0  0  0  0  0
    1.0719    1.8179   -1.1049 C   0  0  0  0  0  0  0  0  0  0  0  0
    0.8551    2.3128   -2.2090 O   0  0  0  0  0  0  0  0  0  0  0  0
   -0.0373   -0.3491   -1.7154 C   0  0  0  0  0  0  0  0  0  0  0  0
   -0.6576   -1.6363   -1.2295 C   0  0  0  0  0  0  0  0  0  0  0  0
    0.1531   -2.6611   -0.7413 C   0  0  0  0  0  0  0  0  0  0  0  0
   -2.0421   -1.8010   -1.2686 C   0  0  0  0  0  0  0  0  0  0  0  0
   -0.4208   -3.8505   -0.2922 C   0  0  0  0  0  0  0  0  0  0  0  0
   -2.6160   -2.9903   -0.8194 C   0  0  0  0  0  0  0  0  0  0  0  0
   -1.8053   -4.0151   -0.3312 C   0  0  0  0  0  0  0  0  0  0  0  0
   -1.6531    1.4091   -0.4852 H   0  0  0  0  0  0  0  0  0  0  0  0
    0.9115    0.1148    0.1966 H   0  0  0  0  0  0  0  0  0  0  0  0
    0.8601   -0.5722   -2.3083 H   0  0  0  0  0  0  0  0  0  0  0  0
   -0.7356    0.1253   -2.4176 H   0  0  0  0  0  0  0  0  0  0  0  0
    1.2328   -2.5417   -0.7070 H   0  0  0  0  0  0  0  0  0  0  0  0
   -2.6816   -1.0080   -1.6472 H   0  0  0  0  0  0  0  0  0  0  0  0
    0.2107   -4.6487    0.0870 H   0  0  0  0  0  0  0  0  0  0  0  0
   -3.6939   -3.1186   -0.8510 H   0  0  0  0  0  0  0  0  0  0  0  0
   -2.2519   -4.9418    0.0173 H   0  0  0  0  0  0  0  0  0  0  0  0
    1.9872    2.3029   -0.1810 N   0  0  0  0  0  0  0  0  0  0  0  0
    2.8264    3.4540   -0.4246 C   0  0  2  0  0  0  0  0  0  0  0  0
    3.5030    3.2654   -1.7759 C   0  0  0  0  0  0  0  0  0  0  0  0
    3.6579    2.1646   -2.3006 O   0  0  0  0  0  0  0  0  0  0  0  0
    3.8573    3.6307    0.6794 C   0  0  0  0  0  0  0  0  0  0  0  0
    2.0714    1.8247    0.7112 H   0  0  0  0  0  0  0  0  0  0  0  0
    2.1639    4.3255   -0.4657 H   0  0  0  0  0  0  0  0  0  0  0  0
    4.5302    2.7673    0.7359 H   0  0  0  0  0  0  0  0  0  0  0  0
    4.4736    4.5195    0.5083 H   0  0  0  0  0  0  0  0  0  0  0  0
    3.3698    3.7365    1.6546 H   0  0  0  0  0  0  0  0  0  0  0  0
    3.9518    4.4665   -2.3071 N   0  0  0  0  0  0  0  0  0  0  0  0
    4.6379    4.5501   -3.5753 C   0  0  0  0  0  0  0  0  0  0  0  0
    3.7631    5.3332   -1.8122 H   0  0  0  0  0  0  0  0  0  0  0  0
    5.7238    4.4913   -3.4098 H   0  0  0  0  0  0  0  0  0  0  0  0
    4.3197    3.7175   -4.2198 H   0  0  0  0  0  0  0  0  0  0  0  0
    4.3925    5.5054   -4.0624 H   0  0  0  0  0  0  0  0  0  0  0  0
 25 27  1  0  0  0  0
 26 27  2  0  0  0  0
 23 25  2  0  0  0  0
 24 26  1  0  0  0  0
 22 23  1  0  0  0  0
 22 24  2  0  0  0  0
 21 22  1  0  0  0  0
  1  3  1  0  0  0  0
  1  7  1  0  0  0  0
  1  2  2  0  0  0  0
 38 39  1  0  0  0  0
 39 47  1  0  0  0  0
 39 40  2  0  0  0  0
  8  9  1  0  0  0  0
  9 17  1  0  0  0  0
  9 10  2  0  0  0  0
 18 19  1  0  0  0  0
 19 37  1  0  0  0  0
 19 20  2  0  0  0  0
 38 41  1  0  0  0  0
  8 11  1  0  0  0  0
 47 48  1  0  0  0  0
 18 21  1  0  0  0  0
 37 38  1  0  0  0  0
  7  8  1  0  0  0  0
 17 18  1  0  0  0  0
 27 36  1  0  0  0  0
 25 34  1  0  0  0  0
 26 35  1  0  0  0  0
 23 32  1  0  0  0  0
 24 33  1  0  0  0  0
  3  4  1  0  0  0  0
  3  5  1  0  0  0  0
  3  6  1  0  0  0  0
 41 44  1  0  0  0  0
 41 45  1  0  0  0  0
 41 46  1  0  0  0  0
 11 14  1  0  0  0  0
 11 15  1  0  0  0  0
 11 16  1  0  0  0  0
 48 50  1  0  0  0  0
 48 51  1  0  0  0  0
 48 52  1  0  0  0  0
 21 30  1  0  0  0  0
 21 31  1  0  0  0  0
 38 43  1  0  0  0  0
  8 13  1  0  0  0  0
 18 29  1  0  0  0  0
 47 49  1  0  0  0  0
  7 12  1  0  0  0  0
 37 42  1  0  0  0  0
 17 28  1  0  0  0  0
M  END
$$$$

  -OEChem-05262214473D

 52 52  0     1  0  0  0  0  0999 V2000
   -1.8248    0.3424    3.9102 C   0  0  0  0  0  0  0  0  0  0  0  0
   -0.8774   -0.2723    3.4345 O   0  0  0  0  0  0  0  0  0  0  0  0
   -2.2566    0.0600    5.3109 C   0  0  0  0  0  0  0  0  0  0  0  0
   -3.0163   -0.7363    5.3643 H   0  0  0  0  0  0  0  0  0  0  0  0
   -1.4254   -0.2876    5.9452 H   0  0  0  0  0  0  0  0  0  0  0  0
   -2.6947    0.9149    5.8505 H   0  0  0  0  0  0  0  0  0  0  0  0
   -2.5745    1.3149    3.2691 N   0  0  0  0  0  0  0  0  0  0  0  0
   -2.3276    1.7409    1.9167 C   0  0  2  0  0  0  0  0  0  0  0  0
   -0.9926    1.1555    1.4755 C   0  0  0  0  0  0  0  0  0  0  0  0
   -0.1206    0.8028    2.2668 O   0  0  0  0  0  0  0  0  0  0  0  0
   -2.3188    3.2577    1.8072 C   0  0  0  0  0  0  0  0  0  0  0  0
   -3.3395    1.7507    3.7809 H   0  0  0  0  0  0  0  0  0  0  0  0
   -3.1317    1.3224    1.3015 H   0  0  0  0  0  0  0  0  0  0  0  0
   -1.5198    3.6949    2.4169 H   0  0  0  0  0  0  0  0  0  0  0  0
   -2.1594    3.5799    0.7729 H   0  0  0  0  0  0  0  0  0  0  0  0
   -3.2690    3.6789    2.1530 H   0  0  0  0  0  0  0  0  0  0  0  0
   -0.8700    1.1124    0.0921 N   0  0  0  0  0  0  0  0  0  0  0  0
    0.3073    0.6116   -0.5716 C   0  0  2  0  0  0  0  0  0  0  0  0
    1.0719    1.8179   -1.1049 C   0  0  0  0  0  0  0  0  0  0  0  0
    0.6926    2.4770   -2.0707 O   0  0  0  0  0  0  0  0  0  0  0  0
   -0.0373   -0.3491   -1.7154 C   0  0  0  0  0  0  0  0  0  0  0  0
   -0.6576   -1.6363   -1.2295 C   0  0  0  0  0  0  0  0  0  0  0  0
    0.1531   -2.6611   -0.7413 C   0  0  0  0  0  0  0  0  0  0  0  0
   -2.0421   -1.8010   -1.2686 C   0  0  0  0  0  0  0  0  0  0  0  0
   -0.4208   -3.8505   -0.2922 C   0  0  0  0  0  0  0  0  0  0  0  0
   -2.6160   -2.9903   -0.8194 C   0  0  0  0  0  0  0  0  0  0  0  0
   -1.8053   -4.0151   -0.3312 C   0  0  0  0  0  0  0  0  0  0  0  0
   -1.6531    1.4091   -0.4852 H   0  0  0  0  0  0  0  0  0  0  0  0
    0.9115    0.1148    0.1966 H   0  0  0  0  0  0  0  0  0  0  0  0
    0.8601   -0.5722   -2.3083 H   0  0  0  0  0  0  0  0  0  0  0  0
   -0.7356    0.1253   -2.4176 H   0  0  0  0  0  0  0  0  0  0  0  0
    1.2328   -2.5417   -0.7070 H   0  0  0  0  0  0  0  0  0  0  0  0
   -2.6816   -1.0080   -1.6472 H   0  0  0  0  0  0  0  0  0  0  0  0
    0.2107   -4.6487    0.0870 H   0  0  0  0  0  0  0  0  0  0  0  0
   -3.6939   -3.1186   -0.8510 H   0  0  0  0  0  0  0  0  0  0  0  0
   -2.2519   -4.9418    0.0173 H   0  0  0  0  0  0  0  0  0  0  0  0
    2.1980    2.0976   -0.3432 N   0  0  0  0  0  0  0  0  0  0  0  0
    3.0872    3.2033   -0.6178 C   0  0  2  0  0  0  0  0  0  0  0  0
    3.4582    3.1531   -2.0940 C   0  0  0  0  0  0  0  0  0  0  0  0
    3.3903    2.1275   -2.7682 O   0  0  0  0  0  0  0  0  0  0  0  0
    4.3297    3.1447    0.2572 C   0  0  0  0  0  0  0  0  0  0  0  0
    2.4077    1.4948    0.4470 H   0  0  0  0  0  0  0  0  0  0  0  0
    2.5241    4.1204   -0.4131 H   0  0  0  0  0  0  0  0  0  0  0  0
    4.9068    2.2326    0.0662 H   0  0  0  0  0  0  0  0  0  0  0  0
    4.9887    3.9985    0.0682 H   0  0  0  0  0  0  0  0  0  0  0  0
    4.0594    3.1508    1.3187 H   0  0  0  0  0  0  0  0  0  0  0  0
    3.9150    4.3783   -2.5593 N   0  0  0  0  0  0  0  0  0  0  0  0
    4.3401    4.5846   -3.9241 C   0  0  0  0  0  0  0  0  0  0  0  0
    3.9196    5.1796   -1.9351 H   0  0  0  0  0  0  0  0  0  0  0  0
    5.4251    4.4199   -3.9996 H   0  0  0  0  0  0  0  0  0  0  0  0
    3.8153    3.8768   -4.5825 H   0  0  0  0  0  0  0  0  0  0  0  0
    4.1036    5.6144   -4.2300 H   0  0  0  0  0  0  0  0  0  0  0  0
 25 27  1  0  0  0  0
 26 27  2  0  0  0  0
 23 25  2  0  0  0  0
 24 26  1  0  0  0  0
 22 23  1  0  0  0  0
 22 24  2  0  0  0  0
 21 22  1  0  0  0  0
  1  3  1  0  0  0  0
  1  7  1  0  0  0  0
  1  2  2  0  0  0  0
 38 39  1  0  0  0  0
 39 47  1  0  0  0  0
 39 40  2  0  0  0  0
  8  9  1  0  0  0  0
  9 17  1  0  0  0  0
  9 10  2  0  0  0  0
 18 19  1  0  0  0  0
 19 37  1  0  0  0  0
 19 20  2  0  0  0  0
 38 41  1  0  0  0  0
  8 11  1  0  0  0  0
 47 48  1  0  0  0  0
 18 21  1  0  0  0  0
 37 38  1  0  0  0  0
  7  8  1  0  0  0  0
 17 18  1  0  0  0  0
 27 36  1  0  0  0  0
 25 34  1  0  0  0  0
 26 35  1  0  0  0  0
 23 32  1  0  0  0  0
 24 33  1  0  0  0  0
  3  4  1  0  0  0  0
  3  5  1  0  0  0  0
  3  6  1  0  0  0  0
 41 44  1  0  0  0  0
 41 45  1  0  0  0  0
 41 46  1  0  0  0  0
 11 14  1  0  0  0  0
 11 15  1  0  0  0  0
 11 16  1  0  0  0  0
 48 50  1  0  0  0  0
 48 51  1  0  0  0  0
 48 52  1  0  0  0  0
 21 30  1  0  0  0  0
 21 31  1  0  0  0  0
 38 43  1  0  0  0  0
  8 13  1  0  0  0  0
 18 29  1  0  0  0  0
 47 49  1  0  0  0  0
  7 12  1  0  0  0  0
 37 42  1  0  0  0  0
 17 28  1  0  0  0  0
M  END
$$$$

  -OEChem-05262214473D

 52 52  0     1  0  0  0  0  0999 V2000
   -1.8248    0.3424    3.9102 C   0  0  0  0  0  0  0  0  0  0  0  0
   -0.8774   -0.2723    3.4345 O   0  0  0  0  0  0  0  0  0  0  0  0
   -2.2566    0.0600    5.3109 C   0  0  0  0  0  0  0  0  0  0  0  0
   -3.0163   -0.7363    5.3643 H   0  0  0  0  0  0  0  0  0  0  0  0
   -1.4254   -0.2876    5.9452 H   0  0  0  0  0  0  0  0  0  0  0  0
   -2.6947    0.9149    5.8505 H   0  0  0  0  0  0  0  0  0  0  0  0
   -2.5745    1.3149    3.2691 N   0  0  0  0  0  0  0  0  0  0  0  0
   -2.3276    1.7409    1.9167 C   0  0  2  0  0  0  0  0  0  0  0  0
   -0.9926    1.1555    1.4755 C   0  0  0  0  0  0  0  0  0  0  0  0
   -0.1206    0.8028    2.2668 O   0  0  0  0  0  0  0  0  0  0  0  0
   -2.3188    3.2577    1.8072 C   0  0  0  0  0  0  0  0  0  0  0  0
   -3.3395    1.7507    3.7809 H   0  0  0  0  0  0  0  0  0  0  0  0
   -3.1317    1.3224    1.3015 H   0  0  0  0  0  0  0  0  0  0  0  0
   -1.5198    3.6949    2.4169 H   0  0  0  0  0  0  0  0  0  0  0  0
   -2.1594    3.5799    0.7729 H   0  0  0  0  0  0  0  0  0  0  0  0
   -3.2690    3.6789    2.1530 H   0  0  0  0  0  0  0  0  0  0  0  0
   -0.8700    1.1124    0.0921 N   0  0  0  0  0  0  0  0  0  0  0  0
    0.3073    0.6116   -0.5716 C   0  0  2  0  0  0  0  0  0  0  0  0
    1.0719    1.8179   -1.1049 C   0  0  0  0  0  0  0  0  0  0  0  0
    0.5789    2.6322   -1.8825 O   0  0  0  0  0  0  0  0  0  0  0  0
   -0.0373   -0.3491   -1.7154 C   0  0  0  0  0  0  0  0  0  0  0  0
   -0.6576   -1.6363   -1.2295 C   0  0  0  0  0  0  0  0  0  0  0  0
    0.1531   -2.6611   -0.7413 C   0  0  0  0  0  0  0  0  0  0  0  0
   -2.0421   -1.8010   -1.2686 C   0  0  0  0  0  0  0  0  0  0  0  0
   -0.4208   -3.8505   -0.2922 C   0  0  0  0  0  0  0  0  0  0  0  0
   -2.6160   -2.9903   -0.8194 C   0  0  0  0  0  0  0  0  0  0  0  0
   -1.8053   -4.0151   -0.3312 C   0  0  0  0  0  0  0  0  0  0  0  0
   -1.6531    1.4091   -0.4852 H   0  0  0  0  0  0  0  0  0  0  0  0
    0.9115    0.1148    0.1966 H   0  0  0  0  0  0  0  0  0  0  0  0
    0.8601   -0.5722   -2.3083 H   0  0  0  0  0  0  0  0  0  0  0  0
   -0.7356    0.1253   -2.4176 H   0  0  0  0  0  0  0  0  0  0  0  0
    1.2328   -2.5417   -0.7070 H   0  0  0  0  0  0  0  0  0  0  0  0
   -2.6816   -1.0080   -1.6472 H   0  0  0  0  0  0  0  0  0  0  0  0
    0.2107   -4.6487    0.0870 H   0  0  0  0  0  0  0  0  0  0  0  0
   -3.6939   -3.1186   -0.8510 H   0  0  0  0  0  0  0  0  0  0  0  0
   -2.2519   -4.9418    0.0173 H   0  0  0  0  0  0  0  0  0  0  0  0
    2.3498    1.9012   -0.5697 N   0  0  0  0  0  0  0  0  0  0  0  0
    3.2768    2.9626   -0.8903 C   0  0  2  0  0  0  0  0  0  0  0  0
    3.3396    3.0900   -2.4067 C   0  0  0  0  0  0  0  0  0  0  0  0
    3.0327    2.1766   -3.1699 O   0  0  0  0  0  0  0  0  0  0  0  0
    4.6555    2.6872   -0.3105 C   0  0  0  0  0  0  0  0  0  0  0  0
    2.6485    1.1799    0.0802 H   0  0  0  0  0  0  0  0  0  0  0  0
    2.8642    3.8829   -0.4627 H   0  0  0  0  0  0  0  0  0  0  0  0
    5.0850    1.7689   -0.7272 H   0  0  0  0  0  0  0  0  0  0  0  0
    5.3490    3.5057   -0.5299 H   0  0  0  0  0  0  0  0  0  0  0  0
    4.6038    2.5663    0.7770 H   0  0  0  0  0  0  0  0  0  0  0  0
    3.8197    4.3292   -2.8069 N   0  0  0  0  0  0  0  0  0  0  0  0
    3.9842    4.6902   -4.1956 C   0  0  0  0  0  0  0  0  0  0  0  0
    4.0318    5.0331   -2.1059 H   0  0  0  0  0  0  0  0  0  0  0  0
    5.0094    4.4545   -4.5173 H   0  0  0  0  0  0  0  0  0  0  0  0
    3.2681    4.1235   -4.8089 H   0  0  0  0  0  0  0  0  0  0  0  0
    3.8000    5.7677   -4.3185 H   0  0  0  0  0  0  0  0  0  0  0  0
 25 27  1  0  0  0  0
 26 27  2  0  0  0  0
 23 25  2  0  0  0  0
 24 26  1  0  0  0  0
 22 23  1  0  0  0  0
 22 24  2  0  0  0  0
 21 22  1  0  0  0  0
  1  3  1  0  0  0  0
  1  7  1  0  0  0  0
  1  2  2  0  0  0  0
 38 39  1  0  0  0  0
 39 47  1  0  0  0  0
 39 40  2  0  0  0  0
  8  9  1  0  0  0  0
  9 17  1  0  0  0  0
  9 10  2  0  0  0  0
 18 19  1  0  0  0  0
 19 37  1  0  0  0  0
 19 20  2  0  0  0  0
 38 41  1  0  0  0  0
  8 11  1  0  0  0  0
 47 48  1  0  0  0  0
 18 21  1  0  0  0  0
 37 38  1  0  0  0  0
  7  8  1  0  0  0  0
 17 18  1  0  0  0  0
 27 36  1  0  0  0  0
 25 34  1  0  0  0  0
 26 35  1  0  0  0  0
 23 32  1  0  0  0  0
 24 33  1  0  0  0  0
  3  4  1  0  0  0  0
  3  5  1  0  0  0  0
  3  6  1  0  0  0  0
 41 44  1  0  0  0  0
 41 45  1  0  0  0  0
 41 46  1  0  0  0  0
 11 14  1  0  0  0  0
 11 15  1  0  0  0  0
 11 16  1  0  0  0  0
 48 50  1  0  0  0  0
 48 51  1  0  0  0  0
 48 52  1  0  0  0  0
 21 30  1  0  0  0  0
 21 31  1  0  0  0  0
 38 43  1  0  0  0  0
  8 13  1  0  0  0  0
 18 29  1  0  0  0  0
 47 49  1  0  0  0  0
  7 12  1  0  0  0  0
 37 42  1  0  0  0  0
 17 28  1  0  0  0  0
M  END
$$$$

  -OEChem-05262214473D

 52 52  0     1  0  0  0  0  0999 V2000
   -1.8248    0.3424    3.9102 C   0  0  0  0  0  0  0  0  0  0  0  0
   -0.8774   -0.2723    3.4345 O   0  0  0  0  0  0  0  0  0  0  0  0
   -2.2566    0.0600    5.3109 C   0  0  0  0  0  0  0  0  0  0  0  0
   -3.0163   -0.7363    5.3643 H   0  0  0  0  0  0  0  0  0  0  0  0
   -1.4254   -0.2876    5.9452 H   0  0  0  0  0  0  0  0  0  0  0  0
   -2.6947    0.9149    5.8505 H   0  0  0  0  0  0  0  0  0  0  0  0
   -2.5745    1.3149    3.2691 N   0  0  0  0  0  0  0  0  0  0  0  0
   -2.3276    1.7409    1.9167 C   0  0  2  0  0  0  0  0  0  0  0  0
   -0.9926    1.1555    1.4755 C   0  0  0  0  0  0  0  0  0  0  0  0
   -0.1206    0.8028    2.2668 O   0  0  0  0  0  0  0  0  0  0  0  0
   -2.3188    3.2577    1.8072 C   0  0  0  0  0  0  0  0  0  0  0  0
   -3.3395    1.7507    3.7809 H   0  0  0  0  0  0  0  0  0  0  0  0
   -3.1317    1.3224    1.3015 H   0  0  0  0  0  0  0  0  0  0  0  0
   -1.5198    3.6949    2.4169 H   0  0  0  0  0  0  0  0  0  0  0  0
   -2.1594    3.5799    0.7729 H   0  0  0  0  0  0  0  0  0  0  0  0
   -3.2690    3.6789    2.1530 H   0  0  0  0  0  0  0  0  0  0  0  0
   -0.8700    1.1124    0.0921 N   0  0  0  0  0  0  0  0  0  0  0  0
    0.3073    0.6116   -0.5716 C   0  0  2  0  0  0  0  0  0  0  0  0
    1.0719    1.8179   -1.1049 C   0  0  0  0  0  0  0  0  0  0  0  0
    0.5216    2.7681   -1.6573 O   0  0  0  0  0  0  0  0  0  0  0  0
   -0.0373   -0.3491   -1.7154 C   0  0  0  0  0  0  0  0  0  0  0  0
   -0.6576   -1.6363   -1.2295 C   0  0  0  0  0  0  0  0  0  0  0  0
    0.1531   -2.6611   -0.7413 C   0  0  0  0  0  0  0  0  0  0  0  0
   -2.0421   -1.8010   -1.2686 C   0  0  0  0  0  0  0  0  0  0  0  0
   -0.4208   -3.8505   -0.2922 C   0  0  0  0  0  0  0  0  0  0  0  0
   -2.6160   -2.9903   -0.8194 C   0  0  0  0  0  0  0  0  0  0  0  0
   -1.8053   -4.0151   -0.3312 C   0  0  0  0  0  0  0  0  0  0  0  0
   -1.6531    1.4091   -0.4852 H   0  0  0  0  0  0  0  0  0  0  0  0
    0.9115    0.1148    0.1966 H   0  0  0  0  0  0  0  0  0  0  0  0
    0.8601   -0.5722   -2.3083 H   0  0  0  0  0  0  0  0  0  0  0  0
   -0.7356    0.1253   -2.4176 H   0  0  0  0  0  0  0  0  0  0  0  0
    1.2328   -2.5417   -0.7070 H   0  0  0  0  0  0  0  0  0  0  0  0
   -2.6816   -1.0080   -1.6472 H   0  0  0  0  0  0  0  0  0  0  0  0
    0.2107   -4.6487    0.0870 H   0  0  0  0  0  0  0  0  0  0  0  0
   -3.6939   -3.1186   -0.8510 H   0  0  0  0  0  0  0  0  0  0  0  0
   -2.2519   -4.9418    0.0173 H   0  0  0  0  0  0  0  0  0  0  0  0
    2.4323    1.7272   -0.8450 N   0  0  0  0  0  0  0  0  0  0  0  0
    3.3824    2.7483   -1.2237 C   0  0  2  0  0  0  0  0  0  0  0  0
    3.1554    3.0804   -2.6926 C   0  0  0  0  0  0  0  0  0  0  0  0
    2.6095    2.3085   -3.4782 O   0  0  0  0  0  0  0  0  0  0  0  0
    4.8125    2.2895   -0.9849 C   0  0  0  0  0  0  0  0  0  0  0  0
    2.7775    0.9016   -0.3644 H   0  0  0  0  0  0  0  0  0  0  0  0
    3.1610    3.6291   -0.6111 H   0  0  0  0  0  0  0  0  0  0  0  0
    5.0527    1.4078   -1.5902 H   0  0  0  0  0  0  0  0  0  0  0  0
    5.5298    3.0747   -1.2454 H   0  0  0  0  0  0  0  0  0  0  0  0
    4.9658    2.0227    0.0664 H   0  0  0  0  0  0  0  0  0  0  0  0
    3.6726    4.3225   -3.0328 N   0  0  0  0  0  0  0  0  0  0  0  0
    3.5943    4.8596   -4.3713 C   0  0  0  0  0  0  0  0  0  0  0  0
    4.0919    4.9035   -2.3128 H   0  0  0  0  0  0  0  0  0  0  0  0
    4.5049    4.5928   -4.9278 H   0  0  0  0  0  0  0  0  0  0  0  0
    2.7157    4.4407   -4.8835 H   0  0  0  0  0  0  0  0  0  0  0  0
    3.5025    5.9547   -4.3220 H   0  0  0  0  0  0  0  0  0  0  0  0
 25 27  1  0  0  0  0
 26 27  2  0  0  0  0
 23 25  2  0  0  0  0
 24 26  1  0  0  0  0
 22 23  1  0  0  0  0
 22 24  2  0  0  0  0
 21 22  1  0  0  0  0
  1  3  1  0  0  0  0
  1  7  1  0  0  0  0
  1  2  2  0  0  0  0
 38 39  1  0  0  0  0
 39 47  1  0  0  0  0
 39 40  2  0  0  0  0
  8  9  1  0  0  0  0
  9 17  1  0  0  0  0
  9 10  2  0  0  0  0
 18 19  1  0  0  0  0
 19 37  1  0  0  0  0
 19 20  2  0  0  0  0
 38 41  1  0  0  0  0
  8 11  1  0  0  0  0
 47 48  1  0  0  0  0
 18 21  1  0  0  0  0
 37 38  1  0  0  0  0
  7  8  1  0  0  0  0
 17 18  1  0  0  0  0
 27 36  1  0  0  0  0
 25 34  1  0  0  0  0
 26 35  1  0  0  0  0
 23 32  1  0  0  0  0
 24 33  1  0  0  0  0
  3  4  1  0  0  0  0
  3  5  1  0  0  0  0
  3  6  1  0  0  0  0
 41 44  1  0  0  0  0
 41 45  1  0  0  0  0
 41 46  1  0  0  0  0
 11 14  1  0  0  0  0
 11 15  1  0  0  0  0
 11 16  1  0  0  0  0
 48 50  1  0  0  0  0
 48 51  1  0  0  0  0
 48 52  1  0  0  0  0
 21 30  1  0  0  0  0
 21 31  1  0  0  0  0
 38 43  1  0  0  0  0
  8 13  1  0  0  0  0
 18 29  1  0  0  0  0
 47 49  1  0  0  0  0
  7 12  1  0  0  0  0
 37 42  1  0  0  0  0
 17 28  1  0  0  0  0
M  END
$$$$

  -OEChem-05262214473D

 52 52  0     1  0  0  0  0  0999 V2000
   -1.8248    0.3424    3.9102 C   0  0  0  0  0  0  0  0  0  0  0  0
   -0.8774   -0.2723    3.4345 O   0  0  0  0  0  0  0  0  0  0  0  0
   -2.2566    0.0600    5.3109 C   0  0  0  0  0  0  0  0  0  0  0  0
   -3.0163   -0.7363    5.3643 H   0  0  0  0  0  0  0  0  0  0  0  0
   -1.4254   -0.2876    5.9452 H   0  0  0  0  0  0  0  0  0  0  0  0
   -2.6947    0.9149    5.8505 H   0  0  0  0  0  0  0  0  0  0  0  0
   -2.5745    1.3149    3.2691 N   0  0  0  0  0  0  0  0  0  0  0  0
   -2.3276    1.7409    1.9167 C   0  0  2  0  0  0  0  0  0  0  0  0
   -0.9926    1.1555    1.4755 C   0  0  0  0  0  0  0  0  0  0  0  0
   -0.1206    0.8028    2.2668 O   0  0  0  0  0  0  0  0  0  0  0  0
   -2.3188    3.2577    1.8072 C   0  0  0  0  0  0  0  0  0  0  0  0
   -3.3395    1.7507    3.7809 H   0  0  0  0  0  0  0  0  0  0  0  0
   -3.1317    1.3224    1.3015 H   0  0  0  0  0  0  0  0  0  0  0  0
   -1.5198    3.6949    2.4169 H   0  0  0  0  0  0  0  0  0  0  0  0
   -2.1594    3.5799    0.7729 H   0  0  0  0  0  0  0  0  0  0  0  0
   -3.2690    3.6789    2.1530 H   0  0  0  0  0  0  0  0  0  0  0  0
   -0.8700    1.1124    0.0921 N   0  0  0  0  0  0  0  0  0  0  0  0
    0.3073    0.6116   -0.5716 C   0  0  2  0  0  0  0  0  0  0  0  0
    1.0719    1.8179   -1.1049 C   0  0  0  0  0  0  0  0  0  0  0  0
    0.5247    2.8753   -1.4104 O   0  0  0  0  0  0  0  0  0  0  0  0
   -0.0373   -0.3491   -1.7154 C   0  0  0  0  0  0  0  0  0  0  0  0
   -0.6576   -1.6363   -1.2295 C   0  0  0  0  0  0  0  0  0  0  0  0
    0.1531   -2.6611   -0.7413 C   0  0  0  0  0  0  0  0  0  0  0  0
   -2.0421   -1.8010   -1.2686 C   0  0  0  0  0  0  0  0  0  0  0  0
   -0.4208   -3.8505   -0.2922 C   0  0  0  0  0  0  0  0  0  0  0  0
   -2.6160   -2.9903   -0.8194 C   0  0  0  0  0  0  0  0  0  0  0  0
   -1.8053   -4.0151   -0.3312 C   0  0  0  0  0  0  0  0  0  0  0  0
   -1.6531    1.4091   -0.4852 H   0  0  0  0  0  0  0  0  0  0  0  0
    0.9115    0.1148    0.1966 H   0  0  0  0  0  0  0  0  0  0  0  0
    0.8601   -0.5722   -2.3083 H   0  0  0  0  0  0  0  0  0  0  0  0
   -0.7356    0.1253   -2.4176 H   0  0  0  0  0  0  0  0  0  0  0  0
    1.2328   -2.5417   -0.7070 H   0  0  0  0  0  0  0  0  0  0  0  0
   -2.6816   -1.0080   -1.6472 H   0  0  0  0  0  0  0  0  0  0  0  0
    0.2107   -4.6487    0.0870 H   0  0  0  0  0  0  0  0  0  0  0  0
   -3.6939   -3.1186   -0.8510 H   0  0  0  0  0  0  0  0  0  0  0  0
   -2.2519   -4.9418    0.0173 H   0  0  0  0  0  0  0  0  0  0  0  0
    2.4398    1.5874   -1.1504 N   0  0  0  0  0  0  0  0  0  0  0  0
    3.3967    2.5751   -1.5951 C   0  0  2  0  0  0  0  0  0  0  0  0
    2.9179    3.1249   -2.9323 C   0  0  0  0  0  0  0  0  0  0  0  0
    2.1495    2.5143   -3.6723 O   0  0  0  0  0  0  0  0  0  0  0  0
    4.7900    1.9787   -1.7201 C   0  0  0  0  0  0  0  0  0  0  0  0
    2.7859    0.6788   -0.8563 H   0  0  0  0  0  0  0  0  0  0  0  0
    3.3944    3.3764   -0.8482 H   0  0  0  0  0  0  0  0  0  0  0  0
    4.8120    1.1740   -2.4641 H   0  0  0  0  0  0  0  0  0  0  0  0
    5.5190    2.7349   -2.0296 H   0  0  0  0  0  0  0  0  0  0  0  0
    5.1206    1.5571   -0.7647 H   0  0  0  0  0  0  0  0  0  0  0  0
    3.4836    4.3587   -3.2219 N   0  0  0  0  0  0  0  0  0  0  0  0
    3.1971    5.0814   -4.4391 C   0  0  0  0  0  0  0  0  0  0  0  0
    4.0958    4.7998   -2.5418 H   0  0  0  0  0  0  0  0  0  0  0  0
    3.9460    4.8253   -5.2031 H   0  0  0  0  0  0  0  0  0  0  0  0
    2.1954    4.8068   -4.8013 H   0  0  0  0  0  0  0  0  0  0  0  0
    3.2314    6.1627   -4.2402 H   0  0  0  0  0  0  0  0  0  0  0  0
 25 27  1  0  0  0  0
 26 27  2  0  0  0  0
 23 25  2  0  0  0  0
 24 26  1  0  0  0  0
 22 23  1  0  0  0  0
 22 24  2  0  0  0  0
 21 22  1  0  0  0  0
  1  3  1  0  0  0  0
  1  7  1  0  0  0  0
  1  2  2  0  0  0  0
 38 39  1  0  0  0  0
 39 47  1  0  0  0  0
 39 40  2  0  0  0  0
  8  9  1  0  0  0  0
  9 17  1  0  0  0  0
  9 10  2  0  0  0  0
 18 19  1  0  0  0  0
 19 37  1  0  0  0  0
 19 20  2  0  0  0  0
 38 41  1  0  0  0  0
  8 11  1  0  0  0  0
 47 48  1  0  0  0  0
 18 21  1  0  0  0  0
 37 38  1  0  0  0  0
  7  8  1  0  0  0  0
 17 18  1  0  0  0  0
 27 36  1  0  0  0  0
 25 34  1  0  0  0  0
 26 35  1  0  0  0  0
 23 32  1  0  0  0  0
 24 33  1  0  0  0  0
  3  4  1  0  0  0  0
  3  5  1  0  0  0  0
  3  6  1  0  0  0  0
 41 44  1  0  0  0  0
 41 45  1  0  0  0  0
 41 46  1  0  0  0  0
 11 14  1  0  0  0  0
 11 15  1  0  0  0  0
 11 16  1  0  0  0  0
 48 50  1  0  0  0  0
 48 51  1  0  0  0  0
 48 52  1  0  0  0  0
 21 30  1  0  0  0  0
 21 31  1  0  0  0  0
 38 43  1  0  0  0  0
  8 13  1  0  0  0  0
 18 29  1  0  0  0  0
 47 49  1  0  0  0  0
  7 12  1  0  0  0  0
 37 42  1  0  0  0  0
 17 28  1  0  0  0  0
M  END
$$$$

  -OEChem-05262214473D

 52 52  0     1  0  0  0  0  0999 V2000
   -1.8248    0.3424    3.9102 C   0  0  0  0  0  0  0  0  0  0  0  0
   -0.8774   -0.2723    3.4345 O   0  0  0  0  0  0  0  0  0  0  0  0
   -2.2566    0.0600    5.3109 C   0  0  0  0  0  0  0  0  0  0  0  0
   -3.0163   -0.7363    5.3643 H   0  0  0  0  0  0  0  0  0  0  0  0
   -1.4254   -0.2876    5.9452 H   0  0  0  0  0  0  0  0  0  0  0  0
   -2.6947    0.9149    5.8505 H   0  0  0  0  0  0  0  0  0  0  0  0
   -2.5745    1.3149    3.2691 N   0  0  0  0  0  0  0  0  0  0  0  0
   -2.3276    1.7409    1.9167 C   0  0  2  0  0  0  0  0  0  0  0  0
   -0.9926    1.1555    1.4755 C   0  0  0  0  0  0  0  0  0  0  0  0
   -0.1206    0.8028    2.2668 O   0  0  0  0  0  0  0  0  0  0  0  0
   -2.3188    3.2577    1.8072 C   0  0  0  0  0  0  0  0  0  0  0  0
   -3.3395    1.7507    3.7809 H   0  0  0  0  0  0  0  0  0  0  0  0
   -3.1317    1.3224    1.3015 H   0  0  0  0  0  0  0  0  0  0  0  0
   -1.5198    3.6949    2.4169 H   0  0  0  0  0  0  0  0  0  0  0  0
   -2.1594    3.5799    0.7729 H   0  0  0  0  0  0  0  0  0  0  0  0
   -3.2690    3.6789    2.1530 H   0  0  0  0  0  0  0  0  0  0  0  0
   -0.8700    1.1124    0.0921 N   0  0  0  0  0  0  0  0  0  0  0  0
    0.3073    0.6116   -0.5716 C   0  0  2  0  0  0  0  0  0  0  0  0
    1.0719    1.8179   -1.1049 C   0  0  0  0  0  0  0  0  0  0  0  0
    0.5879    2.9465   -1.1587 O   0  0  0  0  0  0  0  0  0  0  0  0
   -0.0373   -0.3491   -1.7154 C   0  0  0  0  0  0  0  0  0  0  0  0
   -0.6576   -1.6363   -1.2295 C   0  0  0  0  0  0  0  0  0  0  0  0
    0.1531   -2.6611   -0.7413 C   0  0  0  0  0  0  0  0  0  0  0  0
   -2.0421   -1.8010   -1.2686 C   0  0  0  0  0  0  0  0  0  0  0  0
   -0.4208   -3.8505   -0.2922 C   0  0  0  0  0  0  0  0  0  0  0  0
   -2.6160   -2.9903   -0.8194 C   0  0  0  0  0  0  0  0  0  0  0  0
   -1.8053   -4.0151   -0.3312 C   0  0  0  0  0  0  0  0  0  0  0  0
   -1.6531    1.4091   -0.4852 H   0  0  0  0  0  0  0  0  0  0  0  0
    0.9115    0.1148    0.1966 H   0  0  0  0  0  0  0  0  0  0  0  0
    0.8601   -0.5722   -2.3083 H   0  0  0  0  0  0  0  0  0  0  0  0
   -0.7356    0.1253   -2.4176 H   0  0  0  0  0  0  0  0  0  0  0  0
    1.2328   -2.5417   -0.7070 H   0  0  0  0  0  0  0  0  0  0  0  0
   -2.6816   -1.0080   -1.6472 H   0  0  0  0  0  0  0  0  0  0  0  0
    0.2107   -4.6487    0.0870 H   0  0  0  0  0  0  0  0  0  0  0  0
   -3.6939   -3.1186   -0.8510 H   0  0  0  0  0  0  0  0  0  0  0  0
   -2.2519   -4.9418    0.0173 H   0  0  0  0  0  0  0  0  0  0  0  0
    2.3719    1.4913   -1.4651 N   0  0  0  0  0  0  0  0  0  0  0  0
    3.3187    2.4546   -1.9793 C   0  0  2  0  0  0  0  0  0  0  0  0
    2.6436    3.2205   -3.1094 C   0  0  0  0  0  0  0  0  0  0  0  0
    1.6840    2.7799   -3.7388 O   0  0  0  0  0  0  0  0  0  0  0  0
    4.5896    1.7759   -2.4660 C   0  0  0  0  0  0  0  0  0  0  0  0
    2.6731    0.5267   -1.3621 H   0  0  0  0  0  0  0  0  0  0  0  0
    3.5484    3.1419   -1.1578 H   0  0  0  0  0  0  0  0  0  0  0  0
    4.3793    1.0834   -3.2893 H   0  0  0  0  0  0  0  0  0  0  0  0
    5.3172    2.5094   -2.8289 H   0  0  0  0  0  0  0  0  0  0  0  0
    5.0579    1.2012   -1.6597 H   0  0  0  0  0  0  0  0  0  0  0  0
    3.2657    4.4354   -3.3610 N   0  0  0  0  0  0  0  0  0  0  0  0
    2.8197    5.3404   -4.3945 C   0  0  0  0  0  0  0  0  0  0  0  0
    4.0433    4.7289   -2.7772 H   0  0  0  0  0  0  0  0  0  0  0  0
    3.3709    5.1362   -5.3243 H   0  0  0  0  0  0  0  0  0  0  0  0
    1.7429    5.1968   -4.5678 H   0  0  0  0  0  0  0  0  0  0  0  0
    3.0052    6.3776   -4.0786 H   0  0  0  0  0  0  0  0  0  0  0  0
 25 27  1  0  0  0  0
 26 27  2  0  0  0  0
 23 25  2  0  0  0  0
 24 26  1  0  0  0  0
 22 23  1  0  0  0  0
 22 24  2  0  0  0  0
 21 22  1  0  0  0  0
  1  3  1  0  0  0  0
  1  7  1  0  0  0  0
  1  2  2  0  0  0  0
 38 39  1  0  0  0  0
 39 47  1  0  0  0  0
 39 40  2  0  0  0  0
  8  9  1  0  0  0  0
  9 17  1  0  0  0  0
  9 10  2  0  0  0  0
 18 19  1  0  0  0  0
 19 37  1  0  0  0  0
 19 20  2  0  0  0  0
 38 41  1  0  0  0  0
  8 11  1  0  0  0  0
 47 48  1  0  0  0  0
 18 21  1  0  0  0  0
 37 38  1  0  0  0  0
  7  8  1  0  0  0  0
 17 18  1  0  0  0  0
 27 36  1  0  0  0  0
 25 34  1  0  0  0  0
 26 35  1  0  0  0  0
 23 32  1  0  0  0  0
 24 33  1  0  0  0  0
  3  4  1  0  0  0  0
  3  5  1  0  0  0  0
  3  6  1  0  0  0  0
 41 44  1  0  0  0  0
 41 45  1  0  0  0  0
 41 46  1  0  0  0  0
 11 14  1  0  0  0  0
 11 15  1  0  0  0  0
 11 16  1  0  0  0  0
 48 50  1  0  0  0  0
 48 51  1  0  0  0  0
 48 52  1  0  0  0  0
 21 30  1  0  0  0  0
 21 31  1  0  0  0  0
 38 43  1  0  0  0  0
  8 13  1  0  0  0  0
 18 29  1  0  0  0  0
 47 49  1  0  0  0  0
  7 12  1  0  0  0  0
 37 42  1  0  0  0  0
 17 28  1  0  0  0  0
M  END
$$$$

  -OEChem-05262214473D

 52 52  0     1  0  0  0  0  0999 V2000
   -1.8248    0.3424    3.9102 C   0  0  0  0  0  0  0  0  0  0  0  0
   -0.8774   -0.2723    3.4345 O   0  0  0  0  0  0  0  0  0  0  0  0
   -2.2566    0.0600    5.3109 C   0  0  0  0  0  0  0  0  0  0  0  0
   -3.0163   -0.7363    5.3643 H   0  0  0  0  0  0  0  0  0  0  0  0
   -1.4254   -0.2876    5.9452 H   0  0  0  0  0  0  0  0  0  0  0  0
   -2.6947    0.9149    5.8505 H   0  0  0  0  0  0  0  0  0  0  0  0
   -2.5745    1.3149    3.2691 N   0  0  0  0  0  0  0  0  0  0  0  0
   -2.3276    1.7409    1.9167 C   0  0  2  0  0  0  0  0  0  0  0  0
   -0.9926    1.1555    1.4755 C   0  0  0  0  0  0  0  0  0  0  0  0
   -0.1206    0.8028    2.2668 O   0  0  0  0  0  0  0  0  0  0  0  0
   -2.3188    3.2577    1.8072 C   0  0  0  0  0  0  0  0  0  0  0  0
   -3.3395    1.7507    3.7809 H   0  0  0  0  0  0  0  0  0  0  0  0
   -3.1317    1.3224    1.3015 H   0  0  0  0  0  0  0  0  0  0  0  0
   -1.5198    3.6949    2.4169 H   0  0  0  0  0  0  0  0  0  0  0  0
   -2.1594    3.5799    0.7729 H   0  0  0  0  0  0  0  0  0  0  0  0
   -3.2690    3.6789    2.1530 H   0  0  0  0  0  0  0  0  0  0  0  0
   -0.8700    1.1124    0.0921 N   0  0  0  0  0  0  0  0  0  0  0  0
    0.3073    0.6116   -0.5716 C   0  0  2  0  0  0  0  0  0  0  0  0
    1.2501    1.7931   -0.7700 C   0  0  0  0  0  0  0  0  0  0  0  0
    0.9972    2.9261   -0.3661 O   0  0  0  0  0  0  0  0  0  0  0  0
   -0.0211   -0.0404   -1.9196 C   0  0  0  0  0  0  0  0  0  0  0  0
   -0.8252   -1.3092   -1.7738 C   0  0  0  0  0  0  0  0  0  0  0  0
   -0.1861   -2.5083   -1.4584 C   0  0  0  0  0  0  0  0  0  0  0  0
   -2.2081   -1.2824   -1.9542 C   0  0  0  0  0  0  0  0  0  0  0  0
   -0.9299   -3.6805   -1.3235 C   0  0  0  0  0  0  0  0  0  0  0  0
   -2.9519   -2.4547   -1.8193 C   0  0  0  0  0  0  0  0  0  0  0  0
   -2.3127   -3.6538   -1.5039 C   0  0  0  0  0  0  0  0  0  0  0  0
   -1.6531    1.4091   -0.4852 H   0  0  0  0  0  0  0  0  0  0  0  0
    0.7713   -0.1064    0.1148 H   0  0  0  0  0  0  0  0  0  0  0  0
    0.9026   -0.2503   -2.4757 H   0  0  0  0  0  0  0  0  0  0  0  0
   -0.5873    0.6545   -2.5539 H   0  0  0  0  0  0  0  0  0  0  0  0
    0.8909   -2.5386   -1.3158 H   0  0  0  0  0  0  0  0  0  0  0  0
   -2.7146   -0.3528   -2.2000 H   0  0  0  0  0  0  0  0  0  0  0  0
   -0.4319   -4.6143   -1.0790 H   0  0  0  0  0  0  0  0  0  0  0  0
   -4.0283   -2.4337   -1.9610 H   0  0  0  0  0  0  0  0  0  0  0  0
   -2.8915   -4.5669   -1.4002 H   0  0  0  0  0  0  0  0  0  0  0  0
    2.4255    1.4187   -1.4062 N   0  0  0  0  0  0  0  0  0  0  0  0
    3.4996    2.3413   -1.6960 C   0  0  2  0  0  0  0  0  0  0  0  0
    2.9001    3.5588   -2.3872 C   0  0  0  0  0  0  0  0  0  0  0  0
    1.8240    3.5311   -2.9808 O   0  0  0  0  0  0  0  0  0  0  0  0
    4.5663    1.6933   -2.5649 C   0  0  0  0  0  0  0  0  0  0  0  0
    2.5365    0.4474   -1.6819 H   0  0  0  0  0  0  0  0  0  0  0  0
    3.9275    2.6411   -0.7332 H   0  0  0  0  0  0  0  0  0  0  0  0
    4.1562    1.3863   -3.5340 H   0  0  0  0  0  0  0  0  0  0  0  0
    5.3929    2.3845   -2.7599 H   0  0  0  0  0  0  0  0  0  0  0  0
    4.9753    0.8008   -2.0793 H   0  0  0  0  0  0  0  0  0  0  0  0
    3.7284    4.6690   -2.3001 N   0  0  0  0  0  0  0  0  0  0  0  0
    3.3882    5.9436   -2.8880 C   0  0  0  0  0  0  0  0  0  0  0  0
    4.5939    4.6065   -1.7721 H   0  0  0  0  0  0  0  0  0  0  0  0
    3.8102    6.0046   -3.9020 H   0  0  0  0  0  0  0  0  0  0  0  0
    2.2939    6.0430   -2.9397 H   0  0  0  0  0  0  0  0  0  0  0  0
    3.8012    6.7543   -2.2697 H   0  0  0  0  0  0  0  0  0  0  0  0
 25 27  1  0  0  0  0
 26 27  2  0  0  0  0
 23 25  2  0  0  0  0
 24 26  1  0  0  0  0
 22 23  1  0  0  0  0
 22 24  2  0  0  0  0
 21 22  1  0  0  0  0
  1  3  1  0  0  0  0
  1  7  1  0  0  0  0
  1  2  2  0  0  0  0
 38 39  1  0  0  0  0
 39 47  1  0  0  0  0
 39 40  2  0  0  0  0
  8  9  1  0  0  0  0
  9 17  1  0  0  0  0
  9 10  2  0  0  0  0
 18 19  1  0  0  0  0
 19 37  1  0  0  0  0
 19 20  2  0  0  0  0
 38 41  1  0  0  0  0
  8 11  1  0  0  0  0
 47 48  1  0  0  0  0
 18 21  1  0  0  0  0
 37 38  1  0  0  0  0
  7  8  1  0  0  0  0
 17 18  1  0  0  0  0
 27 36  1  0  0  0  0
 25 34  1  0  0  0  0
 26 35  1  0  0  0  0
 23 32  1  0  0  0  0
 24 33  1  0  0  0  0
  3  4  1  0  0  0  0
  3  5  1  0  0  0  0
  3  6  1  0  0  0  0
 41 44  1  0  0  0  0
 41 45  1  0  0  0  0
 41 46  1  0  0  0  0
 11 14  1  0  0  0  0
 11 15  1  0  0  0  0
 11 16  1  0  0  0  0
 48 50  1  0  0  0  0
 48 51  1  0  0  0  0
 48 52  1  0  0  0  0
 21 30  1  0  0  0  0
 21 31  1  0  0  0  0
 38 43  1  0  0  0  0
  8 13  1  0  0  0  0
 18 29  1  0  0  0  0
 47 49  1  0  0  0  0
  7 12  1  0  0  0  0
 37 42  1  0  0  0  0
 17 28  1  0  0  0  0
M  END
$$$$

  -OEChem-05262214473D

 52 52  0     1  0  0  0  0  0999 V2000
   -1.8248    0.3424    3.9102 C   0  0  0  0  0  0  0  0  0  0  0  0
   -0.8774   -0.2723    3.4345 O   0  0  0  0  0  0  0  0  0  0  0  0
   -2.2566    0.0600    5.3109 C   0  0  0  0  0  0  0  0  0  0  0  0
   -3.0163   -0.7363    5.3643 H   0  0  0  0  0  0  0  0  0  0  0  0
   -1.4254   -0.2876    5.9452 H   0  0  0  0  0  0  0  0  0  0  0  0
   -2.6947    0.9149    5.8505 H   0  0  0  0  0  0  0  0  0  0  0  0
   -2.5745    1.3149    3.2691 N   0  0  0  0  0  0  0  0  0  0  0  0
   -2.3276    1.7409    1.9167 C   0  0  2  0  0  0  0  0  0  0  0  0
   -0.9926    1.1555    1.4755 C   0  0  0  0  0  0  0  0  0  0  0  0
   -0.1206    0.8028    2.2668 O   0  0  0  0  0  0  0  0  0  0  0  0
   -2.3188    3.2577    1.8072 C   0  0  0  0  0  0  0  0  0  0  0  0
   -3.3395    1.7507    3.7809 H   0  0  0  0  0  0  0  0  0  0  0  0
   -3.1317    1.3224    1.3015 H   0  0  0  0  0  0  0  0  0  0  0  0
   -1.5198    3.6949    2.4169 H   0  0  0  0  0  0  0  0  0  0  0  0
   -2.1594    3.5799    0.7729 H   0  0  0  0  0  0  0  0  0  0  0  0
   -3.2690    3.6789    2.1530 H   0  0  0  0  0  0  0  0  0  0  0  0
   -0.8700    1.1124    0.0921 N   0  0  0  0  0  0  0  0  0  0  0  0
    0.3073    0.6116   -0.5716 C   0  0  2  0  0  0  0  0  0  0  0  0
    1.2501    1.7931   -0.7700 C   0  0  0  0  0  0  0  0  0  0  0  0
    1.1391    2.8491   -0.1508 O   0  0  0  0  0  0  0  0  0  0  0  0
   -0.0211   -0.0404   -1.9196 C   0  0  0  0  0  0  0  0  0  0  0  0
   -0.8252   -1.3092   -1.7738 C   0  0  0  0  0  0  0  0  0  0  0  0
   -0.1861   -2.5083   -1.4584 C   0  0  0  0  0  0  0  0  0  0  0  0
   -2.2081   -1.2824   -1.9542 C   0  0  0  0  0  0  0  0  0  0  0  0
   -0.9299   -3.6805   -1.3235 C   0  0  0  0  0  0  0  0  0  0  0  0
   -2.9519   -2.4547   -1.8193 C   0  0  0  0  0  0  0  0  0  0  0  0
   -2.3127   -3.6538   -1.5039 C   0  0  0  0  0  0  0  0  0  0  0  0
   -1.6531    1.4091   -0.4852 H   0  0  0  0  0  0  0  0  0  0  0  0
    0.7713   -0.1064    0.1148 H   0  0  0  0  0  0  0  0  0  0  0  0
    0.9026   -0.2503   -2.4757 H   0  0  0  0  0  0  0  0  0  0  0  0
   -0.5873    0.6545   -2.5539 H   0  0  0  0  0  0  0  0  0  0  0  0
    0.8909   -2.5386   -1.3158 H   0  0  0  0  0  0  0  0  0  0  0  0
   -2.7146   -0.3528   -2.2000 H   0  0  0  0  0  0  0  0  0  0  0  0
   -0.4319   -4.6143   -1.0790 H   0  0  0  0  0  0  0  0  0  0  0  0
   -4.0283   -2.4337   -1.9610 H   0  0  0  0  0  0  0  0  0  0  0  0
   -2.8915   -4.5669   -1.4002 H   0  0  0  0  0  0  0  0  0  0  0  0
    2.2562    1.5074   -1.6825 N   0  0  0  0  0  0  0  0  0  0  0  0
    3.2965    2.4462   -2.0365 C   0  0  2  0  0  0  0  0  0  0  0  0
    2.6337    3.7706   -2.3920 C   0  0  0  0  0  0  0  0  0  0  0  0
    1.4615    3.8589   -2.7513 O   0  0  0  0  0  0  0  0  0  0  0  0
    4.1364    1.9306   -3.1947 C   0  0  0  0  0  0  0  0  0  0  0  0
    2.2617    0.5925   -2.1237 H   0  0  0  0  0  0  0  0  0  0  0  0
    3.9209    2.5770   -1.1460 H   0  0  0  0  0  0  0  0  0  0  0  0
    3.5279    1.7933   -4.0960 H   0  0  0  0  0  0  0  0  0  0  0  0
    4.9417    2.6298   -3.4430 H   0  0  0  0  0  0  0  0  0  0  0  0
    4.5882    0.9637   -2.9483 H   0  0  0  0  0  0  0  0  0  0  0  0
    3.5174    4.8370   -2.3023 N   0  0  0  0  0  0  0  0  0  0  0  0
    3.1318    6.1963   -2.6017 C   0  0  0  0  0  0  0  0  0  0  0  0
    4.4660    4.6740   -1.9778 H   0  0  0  0  0  0  0  0  0  0  0  0
    3.3473    6.4150   -3.6580 H   0  0  0  0  0  0  0  0  0  0  0  0
    2.0553    6.3218   -2.4136 H   0  0  0  0  0  0  0  0  0  0  0  0
    3.6990    6.8877   -1.9611 H   0  0  0  0  0  0  0  0  0  0  0  0
 25 27  1  0  0  0  0
 26 27  2  0  0  0  0
 23 25  2  0  0  0  0
 24 26  1  0  0  0  0
 22 23  1  0  0  0  0
 22 24  2  0  0  0  0
 21 22  1  0  0  0  0
  1  3  1  0  0  0  0
  1  7  1  0  0  0  0
  1  2  2  0  0  0  0
 38 39  1  0  0  0  0
 39 47  1  0  0  0  0
 39 40  2  0  0  0  0
  8  9  1  0  0  0  0
  9 17  1  0  0  0  0
  9 10  2  0  0  0  0
 18 19  1  0  0  0  0
 19 37  1  0  0  0  0
 19 20  2  0  0  0  0
 38 41  1  0  0  0  0
  8 11  1  0  0  0  0
 47 48  1  0  0  0  0
 18 21  1  0  0  0  0
 37 38  1  0  0  0  0
  7  8  1  0  0  0  0
 17 18  1  0  0  0  0
 27 36  1  0  0  0  0
 25 34  1  0  0  0  0
 26 35  1  0  0  0  0
 23 32  1  0  0  0  0
 24 33  1  0  0  0  0
  3  4  1  0  0  0  0
  3  5  1  0  0  0  0
  3  6  1  0  0  0  0
 41 44  1  0  0  0  0
 41 45  1  0  0  0  0
 41 46  1  0  0  0  0
 11 14  1  0  0  0  0
 11 15  1  0  0  0  0
 11 16  1  0  0  0  0
 48 50  1  0  0  0  0
 48 51  1  0  0  0  0
 48 52  1  0  0  0  0
 21 30  1  0  0  0  0
 21 31  1  0  0  0  0
 38 43  1  0  0  0  0
  8 13  1  0  0  0  0
 18 29  1  0  0  0  0
 47 49  1  0  0  0  0
  7 12  1  0  0  0  0
 37 42  1  0  0  0  0
 17 28  1  0  0  0  0
M  END
$$$$

  -OEChem-05262214473D

 52 52  0     1  0  0  0  0  0999 V2000
   -1.8248    0.3424    3.9102 C   0  0  0  0  0  0  0  0  0  0  0  0
   -0.8774   -0.2723    3.4345 O   0  0  0  0  0  0  0  0  0  0  0  0
   -2.2566    0.0600    5.3109 C   0  0  0  0  0  0  0  0  0  0  0  0
   -3.0163   -0.7363    5.3643 H   0  0  0  0  0  0  0  0  0  0  0  0
   -1.4254   -0.2876    5.9452 H   0  0  0  0  0  0  0  0  0  0  0  0
   -2.6947    0.9149    5.8505 H   0  0  0  0  0  0  0  0  0  0  0  0
   -2.5745    1.3149    3.2691 N   0  0  0  0  0  0  0  0  0  0  0  0
   -2.3276    1.7409    1.9167 C   0  0  2  0  0  0  0  0  0  0  0  0
   -0.9926    1.1555    1.4755 C   0  0  0  0  0  0  0  0  0  0  0  0
   -0.1206    0.8028    2.2668 O   0  0  0  0  0  0  0  0  0  0  0  0
   -2.3188    3.2577    1.8072 C   0  0  0  0  0  0  0  0  0  0  0  0
   -3.3395    1.7507    3.7809 H   0  0  0  0  0  0  0  0  0  0  0  0
   -3.1317    1.3224    1.3015 H   0  0  0  0  0  0  0  0  0  0  0  0
   -1.5198    3.6949    2.4169 H   0  0  0  0  0  0  0  0  0  0  0  0
   -2.1594    3.5799    0.7729 H   0  0  0  0  0  0  0  0  0  0  0  0
   -3.2690    3.6789    2.1530 H   0  0  0  0  0  0  0  0  0  0  0  0
   -0.8700    1.1124    0.0921 N   0  0  0  0  0  0  0  0  0  0  0  0
    0.3073    0.6116   -0.5716 C   0  0  2  0  0  0  0  0  0  0  0  0
    1.2501    1.7931   -0.7700 C   0  0  0  0  0  0  0  0  0  0  0  0
    1.3168    2.7354    0.0165 O   0  0  0  0  0  0  0  0  0  0  0  0
   -0.0211   -0.0404   -1.9196 C   0  0  0  0  0  0  0  0  0  0  0  0
   -0.8252   -1.3092   -1.7738 C   0  0  0  0  0  0  0  0  0  0  0  0
   -0.1861   -2.5083   -1.4584 C   0  0  0  0  0  0  0  0  0  0  0  0
   -2.2081   -1.2824   -1.9542 C   0  0  0  0  0  0  0  0  0  0  0  0
   -0.9299   -3.6805   -1.3235 C   0  0  0  0  0  0  0  0  0  0  0  0
   -2.9519   -2.4547   -1.8193 C   0  0  0  0  0  0  0  0  0  0  0  0
   -2.3127   -3.6538   -1.5039 C   0  0  0  0  0  0  0  0  0  0  0  0
   -1.6531    1.4091   -0.4852 H   0  0  0  0  0  0  0  0  0  0  0  0
    0.7713   -0.1064    0.1148 H   0  0  0  0  0  0  0  0  0  0  0  0
    0.9026   -0.2503   -2.4757 H   0  0  0  0  0  0  0  0  0  0  0  0
   -0.5873    0.6545   -2.5539 H   0  0  0  0  0  0  0  0  0  0  0  0
    0.8909   -2.5386   -1.3158 H   0  0  0  0  0  0  0  0  0  0  0  0
   -2.7146   -0.3528   -2.2000 H   0  0  0  0  0  0  0  0  0  0  0  0
   -0.4319   -4.6143   -1.0790 H   0  0  0  0  0  0  0  0  0  0  0  0
   -4.0283   -2.4337   -1.9610 H   0  0  0  0  0  0  0  0  0  0  0  0
   -2.8915   -4.5669   -1.4002 H   0  0  0  0  0  0  0  0  0  0  0  0
    2.0402    1.6430   -1.9012 N   0  0  0  0  0  0  0  0  0  0  0  0
    3.0355    2.6089   -2.3079 C   0  0  2  0  0  0  0  0  0  0  0  0
    2.3827    3.9848   -2.3092 C   0  0  0  0  0  0  0  0  0  0  0  0
    1.1684    4.1511   -2.4043 O   0  0  0  0  0  0  0  0  0  0  0  0
    3.6029    2.2751   -3.6788 C   0  0  0  0  0  0  0  0  0  0  0  0
    1.9125    0.8126   -2.4721 H   0  0  0  0  0  0  0  0  0  0  0  0
    3.8295    2.5815   -1.5536 H   0  0  0  0  0  0  0  0  0  0  0  0
    2.8219    2.2976   -4.4477 H   0  0  0  0  0  0  0  0  0  0  0  0
    4.3770    2.9914   -3.9730 H   0  0  0  0  0  0  0  0  0  0  0  0
    4.0456    1.2732   -3.6840 H   0  0  0  0  0  0  0  0  0  0  0  0
    3.3188    5.0067   -2.2352 N   0  0  0  0  0  0  0  0  0  0  0  0
    2.9501    6.4032   -2.2333 C   0  0  0  0  0  0  0  0  0  0  0  0
    4.3035    4.7764   -2.1400 H   0  0  0  0  0  0  0  0  0  0  0  0
    2.9630    6.7878   -3.2637 H   0  0  0  0  0  0  0  0  0  0  0  0
    1.9397    6.5149   -1.8130 H   0  0  0  0  0  0  0  0  0  0  0  0
    3.6666    6.9706   -1.6212 H   0  0  0  0  0  0  0  0  0  0  0  0
 25 27  1  0  0  0  0
 26 27  2  0  0  0  0
 23 25  2  0  0  0  0
 24 26  1  0  0  0  0
 22 23  1  0  0  0  0
 22 24  2  0  0  0  0
 21 22  1  0  0  0  0
  1  3  1  0  0  0  0
  1  7  1  0  0  0  0
  1  2  2  0  0  0  0
 38 39  1  0  0  0  0
 39 47  1  0  0  0  0
 39 40  2  0  0  0  0
  8  9  1  0  0  0  0
  9 17  1  0  0  0  0
  9 10  2  0  0  0  0
 18 19  1  0  0  0  0
 19 37  1  0  0  0  0
 19 20  2  0  0  0  0
 38 41  1  0  0  0  0
  8 11  1  0  0  0  0
 47 48  1  0  0  0  0
 18 21  1  0  0  0  0
 37 38  1  0  0  0  0
  7  8  1  0  0  0  0
 17 18  1  0  0  0  0
 27 36  1  0  0  0  0
 25 34  1  0  0  0  0
 26 35  1  0  0  0  0
 23 32  1  0  0  0  0
 24 33  1  0  0  0  0
  3  4  1  0  0  0  0
  3  5  1  0  0  0  0
  3  6  1  0  0  0  0
 41 44  1  0  0  0  0
 41 45  1  0  0  0  0
 41 46  1  0  0  0  0
 11 14  1  0  0  0  0
 11 15  1  0  0  0  0
 11 16  1  0  0  0  0
 48 50  1  0  0  0  0
 48 51  1  0  0  0  0
 48 52  1  0  0  0  0
 21 30  1  0  0  0  0
 21 31  1  0  0  0  0
 38 43  1  0  0  0  0
  8 13  1  0  0  0  0
 18 29  1  0  0  0  0
 47 49  1  0  0  0  0
  7 12  1  0  0  0  0
 37 42  1  0  0  0  0
 17 28  1  0  0  0  0
M  END
$$$$

  -OEChem-05262214473D

 52 52  0     1  0  0  0  0  0999 V2000
   -1.8248    0.3424    3.9102 C   0  0  0  0  0  0  0  0  0  0  0  0
   -0.8774   -0.2723    3.4345 O   0  0  0  0  0  0  0  0  0  0  0  0
   -2.2566    0.0600    5.3109 C   0  0  0  0  0  0  0  0  0  0  0  0
   -3.0163   -0.7363    5.3643 H   0  0  0  0  0  0  0  0  0  0  0  0
   -1.4254   -0.2876    5.9452 H   0  0  0  0  0  0  0  0  0  0  0  0
   -2.6947    0.9149    5.8505 H   0  0  0  0  0  0  0  0  0  0  0  0
   -2.5745    1.3149    3.2691 N   0  0  0  0  0  0  0  0  0  0  0  0
   -2.3276    1.7409    1.9167 C   0  0  2  0  0  0  0  0  0  0  0  0
   -0.9926    1.1555    1.4755 C   0  0  0  0  0  0  0  0  0  0  0  0
   -0.1206    0.8028    2.2668 O   0  0  0  0  0  0  0  0  0  0  0  0
   -2.3188    3.2577    1.8072 C   0  0  0  0  0  0  0  0  0  0  0  0
   -3.3395    1.7507    3.7809 H   0  0  0  0  0  0  0  0  0  0  0  0
   -3.1317    1.3224    1.3015 H   0  0  0  0  0  0  0  0  0  0  0  0
   -1.5198    3.6949    2.4169 H   0  0  0  0  0  0  0  0  0  0  0  0
   -2.1594    3.5799    0.7729 H   0  0  0  0  0  0  0  0  0  0  0  0
   -3.2690    3.6789    2.1530 H   0  0  0  0  0  0  0  0  0  0  0  0
   -0.8700    1.1124    0.0921 N   0  0  0  0  0  0  0  0  0  0  0  0
    0.3073    0.6116   -0.5716 C   0  0  2  0  0  0  0  0  0  0  0  0
    1.2501    1.7931   -0.7700 C   0  0  0  0  0  0  0  0  0  0  0  0
    1.5181    2.5928    0.1241 O   0  0  0  0  0  0  0  0  0  0  0  0
   -0.0211   -0.0404   -1.9196 C   0  0  0  0  0  0  0  0  0  0  0  0
   -0.8252   -1.3092   -1.7738 C   0  0  0  0  0  0  0  0  0  0  0  0
   -0.1861   -2.5083   -1.4584 C   0  0  0  0  0  0  0  0  0  0  0  0
   -2.2081   -1.2824   -1.9542 C   0  0  0  0  0  0  0  0  0  0  0  0
   -0.9299   -3.6805   -1.3235 C   0  0  0  0  0  0  0  0  0  0  0  0
   -2.9519   -2.4547   -1.8193 C   0  0  0  0  0  0  0  0  0  0  0  0
   -2.3127   -3.6538   -1.5039 C   0  0  0  0  0  0  0  0  0  0  0  0
   -1.6531    1.4091   -0.4852 H   0  0  0  0  0  0  0  0  0  0  0  0
    0.7713   -0.1064    0.1148 H   0  0  0  0  0  0  0  0  0  0  0  0
    0.9026   -0.2503   -2.4757 H   0  0  0  0  0  0  0  0  0  0  0  0
   -0.5873    0.6545   -2.5539 H   0  0  0  0  0  0  0  0  0  0  0  0
    0.8909   -2.5386   -1.3158 H   0  0  0  0  0  0  0  0  0  0  0  0
   -2.7146   -0.3528   -2.2000 H   0  0  0  0  0  0  0  0  0  0  0  0
   -0.4319   -4.6143   -1.0790 H   0  0  0  0  0  0  0  0  0  0  0  0
   -4.0283   -2.4337   -1.9610 H   0  0  0  0  0  0  0  0  0  0  0  0
   -2.8915   -4.5669   -1.4002 H   0  0  0  0  0  0  0  0  0  0  0  0
    1.7923    1.8163   -2.0475 N   0  0  0  0  0  0  0  0  0  0  0  0
    2.7345    2.8182   -2.4916 C   0  0  2  0  0  0  0  0  0  0  0  0
    2.1640    4.1870   -2.1447 C   0  0  0  0  0  0  0  0  0  0  0  0
    0.9648    4.3876   -1.9636 O   0  0  0  0  0  0  0  0  0  0  0  0
    3.0020    2.7032   -3.9842 C   0  0  0  0  0  0  0  0  0  0  0  0
    1.5128    1.0927   -2.7033 H   0  0  0  0  0  0  0  0  0  0  0  0
    3.6596    2.6541   -1.9284 H   0  0  0  0  0  0  0  0  0  0  0  0
    2.0865    2.8647   -4.5650 H   0  0  0  0  0  0  0  0  0  0  0  0
    3.7375    3.4445   -4.3138 H   0  0  0  0  0  0  0  0  0  0  0  0
    3.3843    1.7082   -4.2362 H   0  0  0  0  0  0  0  0  0  0  0  0
    3.1462    5.1667   -2.1034 N   0  0  0  0  0  0  0  0  0  0  0  0
    2.8554    6.5502   -1.8078 C   0  0  0  0  0  0  0  0  0  0  0  0
    4.1175    4.9068   -2.2476 H   0  0  0  0  0  0  0  0  0  0  0  0
    2.6835    7.0978   -2.7462 H   0  0  0  0  0  0  0  0  0  0  0  0
    1.9551    6.6092   -1.1787 H   0  0  0  0  0  0  0  0  0  0  0  0
    3.7064    6.9974   -1.2731 H   0  0  0  0  0  0  0  0  0  0  0  0
 25 27  1  0  0  0  0
 26 27  2  0  0  0  0
 23 25  2  0  0  0  0
 24 26  1  0  0  0  0
 22 23  1  0  0  0  0
 22 24  2  0  0  0  0
 21 22  1  0  0  0  0
  1  3  1  0  0  0  0
  1  7  1  0  0  0  0
  1  2  2  0  0  0  0
 38 39  1  0  0  0  0
 39 47  1  0  0  0  0
 39 40  2  0  0  0  0
  8  9  1  0  0  0  0
  9 17  1  0  0  0  0
  9 10  2  0  0  0  0
 18 19  1  0  0  0  0
 19 37  1  0  0  0  0
 19 20  2  0  0  0  0
 38 41  1  0  0  0  0
  8 11  1  0  0  0  0
 47 48  1  0  0  0  0
 18 21  1  0  0  0  0
 37 38  1  0  0  0  0
  7  8  1  0  0  0  0
 17 18  1  0  0  0  0
 27 36  1  0  0  0  0
 25 34  1  0  0  0  0
 26 35  1  0  0  0  0
 23 32  1  0  0  0  0
 24 33  1  0  0  0  0
  3  4  1  0  0  0  0
  3  5  1  0  0  0  0
  3  6  1  0  0  0  0
 41 44  1  0  0  0  0
 41 45  1  0  0  0  0
 41 46  1  0  0  0  0
 11 14  1  0  0  0  0
 11 15  1  0  0  0  0
 11 16  1  0  0  0  0
 48 50  1  0  0  0  0
 48 51  1  0  0  0  0
 48 52  1  0  0  0  0
 21 30  1  0  0  0  0
 21 31  1  0  0  0  0
 38 43  1  0  0  0  0
  8 13  1  0  0  0  0
 18 29  1  0  0  0  0
 47 49  1  0  0  0  0
  7 12  1  0  0  0  0
 37 42  1  0  0  0  0
 17 28  1  0  0  0  0
M  END
$$$$

  -OEChem-05262214473D

 52 52  0     1  0  0  0  0  0999 V2000
   -1.8248    0.3424    3.9102 C   0  0  0  0  0  0  0  0  0  0  0  0
   -0.8774   -0.2723    3.4345 O   0  0  0  0  0  0  0  0  0  0  0  0
   -2.2566    0.0600    5.3109 C   0  0  0  0  0  0  0  0  0  0  0  0
   -3.0163   -0.7363    5.3643 H   0  0  0  0  0  0  0  0  0  0  0  0
   -1.4254   -0.2876    5.9452 H   0  0  0  0  0  0  0  0  0  0  0  0
   -2.6947    0.9149    5.8505 H   0  0  0  0  0  0  0  0  0  0  0  0
   -2.5745    1.3149    3.2691 N   0  0  0  0  0  0  0  0  0  0  0  0
   -2.3276    1.7409    1.9167 C   0  0  2  0  0  0  0  0  0  0  0  0
   -0.9926    1.1555    1.4755 C   0  0  0  0  0  0  0  0  0  0  0  0
   -0.1206    0.8028    2.2668 O   0  0  0  0  0  0  0  0  0  0  0  0
   -2.3188    3.2577    1.8072 C   0  0  0  0  0  0  0  0  0  0  0  0
   -3.3395    1.7507    3.7809 H   0  0  0  0  0  0  0  0  0  0  0  0
   -3.1317    1.3224    1.3015 H   0  0  0  0  0  0  0  0  0  0  0  0
   -1.5198    3.6949    2.4169 H   0  0  0  0  0  0  0  0  0  0  0  0
   -2.1594    3.5799    0.7729 H   0  0  0  0  0  0  0  0  0  0  0  0
   -3.2690    3.6789    2.1530 H   0  0  0  0  0  0  0  0  0  0  0  0
   -0.8700    1.1124    0.0921 N   0  0  0  0  0  0  0  0  0  0  0  0
    0.3073    0.6116   -0.5716 C   0  0  2  0  0  0  0  0  0  0  0  0
    1.2501    1.7931   -0.7700 C   0  0  0  0  0  0  0  0  0  0  0  0
    1.7294    2.4311    0.1650 O   0  0  0  0  0  0  0  0  0  0  0  0
   -0.0211   -0.0404   -1.9196 C   0  0  0  0  0  0  0  0  0  0  0  0
   -0.8252   -1.3092   -1.7738 C   0  0  0  0  0  0  0  0  0  0  0  0
   -0.1861   -2.5083   -1.4584 C   0  0  0  0  0  0  0  0  0  0  0  0
   -2.2081   -1.2824   -1.9542 C   0  0  0  0  0  0  0  0  0  0  0  0
   -0.9299   -3.6805   -1.3235 C   0  0  0  0  0  0  0  0  0  0  0  0
   -2.9519   -2.4547   -1.8193 C   0  0  0  0  0  0  0  0  0  0  0  0
   -2.3127   -3.6538   -1.5039 C   0  0  0  0  0  0  0  0  0  0  0  0
   -1.6531    1.4091   -0.4852 H   0  0  0  0  0  0  0  0  0  0  0  0
    0.7713   -0.1064    0.1148 H   0  0  0  0  0  0  0  0  0  0  0  0
    0.9026   -0.2503   -2.4757 H   0  0  0  0  0  0  0  0  0  0  0  0
   -0.5873    0.6545   -2.5539 H   0  0  0  0  0  0  0  0  0  0  0  0
    0.8909   -2.5386   -1.3158 H   0  0  0  0  0  0  0  0  0  0  0  0
   -2.7146   -0.3528   -2.2000 H   0  0  0  0  0  0  0  0  0  0  0  0
   -0.4319   -4.6143   -1.0790 H   0  0  0  0  0  0  0  0  0  0  0  0
   -4.0283   -2.4337   -1.9610 H   0  0  0  0  0  0  0  0  0  0  0  0
   -2.8915   -4.5669   -1.4002 H   0  0  0  0  0  0  0  0  0  0  0  0
    1.5293    2.0155   -2.1113 N   0  0  0  0  0  0  0  0  0  0  0  0
    2.4140    3.0600   -2.5752 C   0  0  2  0  0  0  0  0  0  0  0  0
    1.9925    4.3633   -1.9095 C   0  0  0  0  0  0  0  0  0  0  0  0
    0.8644    4.5524   -1.4593 O   0  0  0  0  0  0  0  0  0  0  0  0
    2.3748    3.1860   -4.0902 C   0  0  0  0  0  0  0  0  0  0  0  0
    1.0898    1.4138   -2.8016 H   0  0  0  0  0  0  0  0  0  0  0  0
    3.4228    2.7899   -2.2446 H   0  0  0  0  0  0  0  0  0  0  0  0
    1.3717    3.4561   -4.4401 H   0  0  0  0  0  0  0  0  0  0  0  0
    3.0667    3.9582   -4.4422 H   0  0  0  0  0  0  0  0  0  0  0  0
    2.6494    2.2390   -4.5673 H   0  0  0  0  0  0  0  0  0  0  0  0
    3.0112    5.3058   -1.9159 N   0  0  0  0  0  0  0  0  0  0  0  0
    2.8543    6.6272   -1.3544 C   0  0  0  0  0  0  0  0  0  0  0  0
    3.9205    5.0562   -2.2935 H   0  0  0  0  0  0  0  0  0  0  0  0
    2.5277    7.3239   -2.1406 H   0  0  0  0  0  0  0  0  0  0  0  0
    2.1003    6.5982   -0.5540 H   0  0  0  0  0  0  0  0  0  0  0  0
    3.8155    6.9662   -0.9405 H   0  0  0  0  0  0  0  0  0  0  0  0
 25 27  1  0  0  0  0
 26 27  2  0  0  0  0
 23 25  2  0  0  0  0
 24 26  1  0  0  0  0
 22 23  1  0  0  0  0
 22 24  2  0  0  0  0
 21 22  1  0  0  0  0
  1  3  1  0  0  0  0
  1  7  1  0  0  0  0
  1  2  2  0  0  0  0
 38 39  1  0  0  0  0
 39 47  1  0  0  0  0
 39 40  2  0  0  0  0
  8  9  1  0  0  0  0
  9 17  1  0  0  0  0
  9 10  2  0  0  0  0
 18 19  1  0  0  0  0
 19 37  1  0  0  0  0
 19 20  2  0  0  0  0
 38 41  1  0  0  0  0
  8 11  1  0  0  0  0
 47 48  1  0  0  0  0
 18 21  1  0  0  0  0
 37 38  1  0  0  0  0
  7  8  1  0  0  0  0
 17 18  1  0  0  0  0
 27 36  1  0  0  0  0
 25 34  1  0  0  0  0
 26 35  1  0  0  0  0
 23 32  1  0  0  0  0
 24 33  1  0  0  0  0
  3  4  1  0  0  0  0
  3  5  1  0  0  0  0
  3  6  1  0  0  0  0
 41 44  1  0  0  0  0
 41 45  1  0  0  0  0
 41 46  1  0  0  0  0
 11 14  1  0  0  0  0
 11 15  1  0  0  0  0
 11 16  1  0  0  0  0
 48 50  1  0  0  0  0
 48 51  1  0  0  0  0
 48 52  1  0  0  0  0
 21 30  1  0  0  0  0
 21 31  1  0  0  0  0
 38 43  1  0  0  0  0
  8 13  1  0  0  0  0
 18 29  1  0  0  0  0
 47 49  1  0  0  0  0
  7 12  1  0  0  0  0
 37 42  1  0  0  0  0
 17 28  1  0  0  0  0
M  END
$$$$

  -OEChem-05262214473D

 52 52  0     1  0  0  0  0  0999 V2000
   -1.8248    0.3424    3.9102 C   0  0  0  0  0  0  0  0  0  0  0  0
   -0.8774   -0.2723    3.4345 O   0  0  0  0  0  0  0  0  0  0  0  0
   -2.2566    0.0600    5.3109 C   0  0  0  0  0  0  0  0  0  0  0  0
   -3.0163   -0.7363    5.3643 H   0  0  0  0  0  0  0  0  0  0  0  0
   -1.4254   -0.2876    5.9452 H   0  0  0  0  0  0  0  0  0  0  0  0
   -2.6947    0.9149    5.8505 H   0  0  0  0  0  0  0  0  0  0  0  0
   -2.5745    1.3149    3.2691 N   0  0  0  0  0  0  0  0  0  0  0  0
   -2.3276    1.7409    1.9167 C   0  0  2  0  0  0  0  0  0  0  0  0
   -0.9926    1.1555    1.4755 C   0  0  0  0  0  0  0  0  0  0  0  0
   -0.1206    0.8028    2.2668 O   0  0  0  0  0  0  0  0  0  0  0  0
   -2.3188    3.2577    1.8072 C   0  0  0  0  0  0  0  0  0  0  0  0
   -3.3395    1.7507    3.7809 H   0  0  0  0  0  0  0  0  0  0  0  0
   -3.1317    1.3224    1.3015 H   0  0  0  0  0  0  0  0  0  0  0  0
   -1.5198    3.6949    2.4169 H   0  0  0  0  0  0  0  0  0  0  0  0
   -2.1594    3.5799    0.7729 H   0  0  0  0  0  0  0  0  0  0  0  0
   -3.2690    3.6789    2.1530 H   0  0  0  0  0  0  0  0  0  0  0  0
   -0.8700    1.1124    0.0921 N   0  0  0  0  0  0  0  0  0  0  0  0
    0.3073    0.6116   -0.5716 C   0  0  2  0  0  0  0  0  0  0  0  0
    1.2501    1.7931   -0.7700 C   0  0  0  0  0  0  0  0  0  0  0  0
    1.9362    2.2612    0.1361 O   0  0  0  0  0  0  0  0  0  0  0  0
   -0.0211   -0.0404   -1.9196 C   0  0  0  0  0  0  0  0  0  0  0  0
   -0.8252   -1.3092   -1.7738 C   0  0  0  0  0  0  0  0  0  0  0  0
   -0.1861   -2.5083   -1.4584 C   0  0  0  0  0  0  0  0  0  0  0  0
   -2.2081   -1.2824   -1.9542 C   0  0  0  0  0  0  0  0  0  0  0  0
   -0.9299   -3.6805   -1.3235 C   0  0  0  0  0  0  0  0  0  0  0  0
   -2.9519   -2.4547   -1.8193 C   0  0  0  0  0  0  0  0  0  0  0  0
   -2.3127   -3.6538   -1.5039 C   0  0  0  0  0  0  0  0  0  0  0  0
   -1.6531    1.4091   -0.4852 H   0  0  0  0  0  0  0  0  0  0  0  0
    0.7713   -0.1064    0.1148 H   0  0  0  0  0  0  0  0  0  0  0  0
    0.9026   -0.2503   -2.4757 H   0  0  0  0  0  0  0  0  0  0  0  0
   -0.5873    0.6545   -2.5539 H   0  0  0  0  0  0  0  0  0  0  0  0
    0.8909   -2.5386   -1.3158 H   0  0  0  0  0  0  0  0  0  0  0  0
   -2.7146   -0.3528   -2.2000 H   0  0  0  0  0  0  0  0  0  0  0  0
   -0.4319   -4.6143   -1.0790 H   0  0  0  0  0  0  0  0  0  0  0  0
   -4.0283   -2.4337   -1.9610 H   0  0  0  0  0  0  0  0  0  0  0  0
   -2.8915   -4.5669   -1.4002 H   0  0  0  0  0  0  0  0  0  0  0  0
    1.2692    2.2269   -2.0883 N   0  0  0  0  0  0  0  0  0  0  0  0
    2.0957    3.3177   -2.5529 C   0  0  2  0  0  0  0  0  0  0  0  0
    1.8800    4.5017   -1.6197 C   0  0  0  0  0  0  0  0  0  0  0  0
    0.8742    4.6342   -0.9256 O   0  0  0  0  0  0  0  0  0  0  0  0
    1.7639    3.6903   -3.9895 C   0  0  0  0  0  0  0  0  0  0  0  0
    0.6723    1.7539   -2.7604 H   0  0  0  0  0  0  0  0  0  0  0  0
    3.1353    2.9797   -2.4808 H   0  0  0  0  0  0  0  0  0  0  0  0
    0.7263    4.0314   -4.0815 H   0  0  0  0  0  0  0  0  0  0  0  0
    2.4103    4.4976   -4.3494 H   0  0  0  0  0  0  0  0  0  0  0  0
    1.8910    2.8295   -4.6547 H   0  0  0  0  0  0  0  0  0  0  0  0
    2.9232    5.4148   -1.6854 N   0  0  0  0  0  0  0  0  0  0  0  0
    2.9467    6.6292   -0.9038 C   0  0  0  0  0  0  0  0  0  0  0  0
    3.7262    5.2146   -2.2743 H   0  0  0  0  0  0  0  0  0  0  0  0
    2.5063    7.4505   -1.4882 H   0  0  0  0  0  0  0  0  0  0  0  0
    2.3655    6.4828    0.0185 H   0  0  0  0  0  0  0  0  0  0  0  0
    3.9865    6.8791   -0.6462 H   0  0  0  0  0  0  0  0  0  0  0  0
 25 27  1  0  0  0  0
 26 27  2  0  0  0  0
 23 25  2  0  0  0  0
 24 26  1  0  0  0  0
 22 23  1  0  0  0  0
 22 24  2  0  0  0  0
 21 22  1  0  0  0  0
  1  3  1  0  0  0  0
  1  7  1  0  0  0  0
  1  2  2  0  0  0  0
 38 39  1  0  0  0  0
 39 47  1  0  0  0  0
 39 40  2  0  0  0  0
  8  9  1  0  0  0  0
  9 17  1  0  0  0  0
  9 10  2  0  0  0  0
 18 19  1  0  0  0  0
 19 37  1  0  0  0  0
 19 20  2  0  0  0  0
 38 41  1  0  0  0  0
  8 11  1  0  0  0  0
 47 48  1  0  0  0  0
 18 21  1  0  0  0  0
 37 38  1  0  0  0  0
  7  8  1  0  0  0  0
 17 18  1  0  0  0  0
 27 36  1  0  0  0  0
 25 34  1  0  0  0  0
 26 35  1  0  0  0  0
 23 32  1  0  0  0  0
 24 33  1  0  0  0  0
  3  4  1  0  0  0  0
  3  5  1  0  0  0  0
  3  6  1  0  0  0  0
 41 44  1  0  0  0  0
 41 45  1  0  0  0  0
 41 46  1  0  0  0  0
 11 14  1  0  0  0  0
 11 15  1  0  0  0  0
 11 16  1  0  0  0  0
 48 50  1  0  0  0  0
 48 51  1  0  0  0  0
 48 52  1  0  0  0  0
 21 30  1  0  0  0  0
 21 31  1  0  0  0  0
 38 43  1  0  0  0  0
  8 13  1  0  0  0  0
 18 29  1  0  0  0  0
 47 49  1  0  0  0  0
  7 12  1  0  0  0  0
 37 42  1  0  0  0  0
 17 28  1  0  0  0  0
M  END
$$$$

  -OEChem-05262214473D

 52 52  0     1  0  0  0  0  0999 V2000
   -1.8248    0.3424    3.9102 C   0  0  0  0  0  0  0  0  0  0  0  0
   -0.8774   -0.2723    3.4345 O   0  0  0  0  0  0  0  0  0  0  0  0
   -2.2566    0.0600    5.3109 C   0  0  0  0  0  0  0  0  0  0  0  0
   -3.0163   -0.7363    5.3643 H   0  0  0  0  0  0  0  0  0  0  0  0
   -1.4254   -0.2876    5.9452 H   0  0  0  0  0  0  0  0  0  0  0  0
   -2.6947    0.9149    5.8505 H   0  0  0  0  0  0  0  0  0  0  0  0
   -2.5745    1.3149    3.2691 N   0  0  0  0  0  0  0  0  0  0  0  0
   -2.3276    1.7409    1.9167 C   0  0  2  0  0  0  0  0  0  0  0  0
   -0.9926    1.1555    1.4755 C   0  0  0  0  0  0  0  0  0  0  0  0
   -0.1206    0.8028    2.2668 O   0  0  0  0  0  0  0  0  0  0  0  0
   -2.3188    3.2577    1.8072 C   0  0  0  0  0  0  0  0  0  0  0  0
   -3.3395    1.7507    3.7809 H   0  0  0  0  0  0  0  0  0  0  0  0
   -3.1317    1.3224    1.3015 H   0  0  0  0  0  0  0  0  0  0  0  0
   -1.5198    3.6949    2.4169 H   0  0  0  0  0  0  0  0  0  0  0  0
   -2.1594    3.5799    0.7729 H   0  0  0  0  0  0  0  0  0  0  0  0
   -3.2690    3.6789    2.1530 H   0  0  0  0  0  0  0  0  0  0  0  0
   -0.8700    1.1124    0.0921 N   0  0  0  0  0  0  0  0  0  0  0  0
    0.3073    0.6116   -0.5716 C   0  0  2  0  0  0  0  0  0  0  0  0
    1.2501    1.7931   -0.7700 C   0  0  0  0  0  0  0  0  0  0  0  0
    2.1244    2.0948    0.0396 O   0  0  0  0  0  0  0  0  0  0  0  0
   -0.0211   -0.0404   -1.9196 C   0  0  0  0  0  0  0  0  0  0  0  0
   -0.8252   -1.3092   -1.7738 C   0  0  0  0  0  0  0  0  0  0  0  0
   -0.1861   -2.5083   -1.4584 C   0  0  0  0  0  0  0  0  0  0  0  0
   -2.2081   -1.2824   -1.9542 C   0  0  0  0  0  0  0  0  0  0  0  0
   -0.9299   -3.6805   -1.3235 C   0  0  0  0  0  0  0  0  0  0  0  0
   -2.9519   -2.4547   -1.8193 C   0  0  0  0  0  0  0  0  0  0  0  0
   -2.3127   -3.6538   -1.5039 C   0  0  0  0  0  0  0  0  0  0  0  0
   -1.6531    1.4091   -0.4852 H   0  0  0  0  0  0  0  0  0  0  0  0
    0.7713   -0.1064    0.1148 H   0  0  0  0  0  0  0  0  0  0  0  0
    0.9026   -0.2503   -2.4757 H   0  0  0  0  0  0  0  0  0  0  0  0
   -0.5873    0.6545   -2.5539 H   0  0  0  0  0  0  0  0  0  0  0  0
    0.8909   -2.5386   -1.3158 H   0  0  0  0  0  0  0  0  0  0  0  0
   -2.7146   -0.3528   -2.2000 H   0  0  0  0  0  0  0  0  0  0  0  0
   -0.4319   -4.6143   -1.0790 H   0  0  0  0  0  0  0  0  0  0  0  0
   -4.0283   -2.4337   -1.9610 H   0  0  0  0  0  0  0  0  0  0  0  0
   -2.8915   -4.5669   -1.4002 H   0  0  0  0  0  0  0  0  0  0  0  0
    1.0297    2.4362   -1.9801 N   0  0  0  0  0  0  0  0  0  0  0  0
    1.8015    3.5738   -2.4264 C   0  0  2  0  0  0  0  0  0  0  0  0
    1.8342    4.5929   -1.2951 C   0  0  0  0  0  0  0  0  0  0  0  0
    0.9934    4.6275   -0.3989 O   0  0  0  0  0  0  0  0  0  0  0  0
    1.2111    4.1820   -3.6890 C   0  0  0  0  0  0  0  0  0  0  0  0
    0.2887    2.0899   -2.5824 H   0  0  0  0  0  0  0  0  0  0  0  0
    2.8165    3.2106   -2.6210 H   0  0  0  0  0  0  0  0  0  0  0  0
    0.1941    4.5515   -3.5135 H   0  0  0  0  0  0  0  0  0  0  0  0
    1.8130    5.0259   -4.0418 H   0  0  0  0  0  0  0  0  0  0  0  0
    1.1608    3.4394   -4.4926 H   0  0  0  0  0  0  0  0  0  0  0  0
    2.8880    5.4862   -1.4276 N   0  0  0  0  0  0  0  0  0  0  0  0
    3.1265    6.5558   -0.4869 C   0  0  0  0  0  0  0  0  0  0  0  0
    3.5476    5.3710   -2.1915 H   0  0  0  0  0  0  0  0  0  0  0  0
    2.6208    7.4691   -0.8334 H   0  0  0  0  0  0  0  0  0  0  0  0
    2.7326    6.2707    0.4998 H   0  0  0  0  0  0  0  0  0  0  0  0
    4.2078    6.7421   -0.4101 H   0  0  0  0  0  0  0  0  0  0  0  0
 25 27  1  0  0  0  0
 26 27  2  0  0  0  0
 23 25  2  0  0  0  0
 24 26  1  0  0  0  0
 22 23  1  0  0  0  0
 22 24  2  0  0  0  0
 21 22  1  0  0  0  0
  1  3  1  0  0  0  0
  1  7  1  0  0  0  0
  1  2  2  0  0  0  0
 38 39  1  0  0  0  0
 39 47  1  0  0  0  0
 39 40  2  0  0  0  0
  8  9  1  0  0  0  0
  9 17  1  0  0  0  0
  9 10  2  0  0  0  0
 18 19  1  0  0  0  0
 19 37  1  0  0  0  0
 19 20  2  0  0  0  0
 38 41  1  0  0  0  0
  8 11  1  0  0  0  0
 47 48  1  0  0  0  0
 18 21  1  0  0  0  0
 37 38  1  0  0  0  0
  7  8  1  0  0  0  0
 17 18  1  0  0  0  0
 27 36  1  0  0  0  0
 25 34  1  0  0  0  0
 26 35  1  0  0  0  0
 23 32  1  0  0  0  0
 24 33  1  0  0  0  0
  3  4  1  0  0  0  0
  3  5  1  0  0  0  0
  3  6  1  0  0  0  0
 41 44  1  0  0  0  0
 41 45  1  0  0  0  0
 41 46  1  0  0  0  0
 11 14  1  0  0  0  0
 11 15  1  0  0  0  0
 11 16  1  0  0  0  0
 48 50  1  0  0  0  0
 48 51  1  0  0  0  0
 48 52  1  0  0  0  0
 21 30  1  0  0  0  0
 21 31  1  0  0  0  0
 38 43  1  0  0  0  0
  8 13  1  0  0  0  0
 18 29  1  0  0  0  0
 47 49  1  0  0  0  0
  7 12  1  0  0  0  0
 37 42  1  0  0  0  0
 17 28  1  0  0  0  0
M  END
$$$$

  -OEChem-05262214473D

 52 52  0     1  0  0  0  0  0999 V2000
   -1.8248    0.3424    3.9102 C   0  0  0  0  0  0  0  0  0  0  0  0
   -0.8774   -0.2723    3.4345 O   0  0  0  0  0  0  0  0  0  0  0  0
   -2.2566    0.0600    5.3109 C   0  0  0  0  0  0  0  0  0  0  0  0
   -3.0163   -0.7363    5.3643 H   0  0  0  0  0  0  0  0  0  0  0  0
   -1.4254   -0.2876    5.9452 H   0  0  0  0  0  0  0  0  0  0  0  0
   -2.6947    0.9149    5.8505 H   0  0  0  0  0  0  0  0  0  0  0  0
   -2.5745    1.3149    3.2691 N   0  0  0  0  0  0  0  0  0  0  0  0
   -2.3276    1.7409    1.9167 C   0  0  2  0  0  0  0  0  0  0  0  0
   -0.9926    1.1555    1.4755 C   0  0  0  0  0  0  0  0  0  0  0  0
   -0.1206    0.8028    2.2668 O   0  0  0  0  0  0  0  0  0  0  0  0
   -2.3188    3.2577    1.8072 C   0  0  0  0  0  0  0  0  0  0  0  0
   -3.3395    1.7507    3.7809 H   0  0  0  0  0  0  0  0  0  0  0  0
   -3.1317    1.3224    1.3015 H   0  0  0  0  0  0  0  0  0  0  0  0
   -1.5198    3.6949    2.4169 H   0  0  0  0  0  0  0  0  0  0  0  0
   -2.1594    3.5799    0.7729 H   0  0  0  0  0  0  0  0  0  0  0  0
   -3.2690    3.6789    2.1530 H   0  0  0  0  0  0  0  0  0  0  0  0
   -0.8700    1.1124    0.0921 N   0  0  0  0  0  0  0  0  0  0  0  0
    0.3073    0.6116   -0.5716 C   0  0  2  0  0  0  0  0  0  0  0  0
    1.2501    1.7931   -0.7700 C   0  0  0  0  0  0  0  0  0  0  0  0
    2.2813    1.9431   -0.1180 O   0  0  0  0  0  0  0  0  0  0  0  0
   -0.0211   -0.0404   -1.9196 C   0  0  0  0  0  0  0  0  0  0  0  0
   -0.8252   -1.3092   -1.7738 C   0  0  0  0  0  0  0  0  0  0  0  0
   -0.1861   -2.5083   -1.4584 C   0  0  0  0  0  0  0  0  0  0  0  0
   -2.2081   -1.2824   -1.9542 C   0  0  0  0  0  0  0  0  0  0  0  0
   -0.9299   -3.6805   -1.3235 C   0  0  0  0  0  0  0  0  0  0  0  0
   -2.9519   -2.4547   -1.8193 C   0  0  0  0  0  0  0  0  0  0  0  0
   -2.3127   -3.6538   -1.5039 C   0  0  0  0  0  0  0  0  0  0  0  0
   -1.6531    1.4091   -0.4852 H   0  0  0  0  0  0  0  0  0  0  0  0
    0.7713   -0.1064    0.1148 H   0  0  0  0  0  0  0  0  0  0  0  0
    0.9026   -0.2503   -2.4757 H   0  0  0  0  0  0  0  0  0  0  0  0
   -0.5873    0.6545   -2.5539 H   0  0  0  0  0  0  0  0  0  0  0  0
    0.8909   -2.5386   -1.3158 H   0  0  0  0  0  0  0  0  0  0  0  0
   -2.7146   -0.3528   -2.2000 H   0  0  0  0  0  0  0  0  0  0  0  0
   -0.4319   -4.6143   -1.0790 H   0  0  0  0  0  0  0  0  0  0  0  0
   -4.0283   -2.4337   -1.9610 H   0  0  0  0  0  0  0  0  0  0  0  0
   -2.8915   -4.5669   -1.4002 H   0  0  0  0  0  0  0  0  0  0  0  0
    0.8271    2.6291   -1.7940 N   0  0  0  0  0  0  0  0  0  0  0  0
    1.5512    3.8108   -2.2041 C   0  0  2  0  0  0  0  0  0  0  0  0
    1.8580    4.6305   -0.9577 C   0  0  0  0  0  0  0  0  0  0  0  0
    1.2140    4.5327    0.0848 O   0  0  0  0  0  0  0  0  0  0  0  0
    0.7539    4.6274   -3.2091 C   0  0  0  0  0  0  0  0  0  0  0  0
   -0.0348    2.3989   -2.2797 H   0  0  0  0  0  0  0  0  0  0  0  0
    2.4882    3.4667   -2.6554 H   0  0  0  0  0  0  0  0  0  0  0  0
   -0.1884    4.9808   -2.7748 H   0  0  0  0  0  0  0  0  0  0  0  0
    1.3156    5.5071   -3.5403 H   0  0  0  0  0  0  0  0  0  0  0  0
    0.5086    4.0272   -4.0919 H   0  0  0  0  0  0  0  0  0  0  0  0
    2.9082    5.5150   -1.1602 N   0  0  0  0  0  0  0  0  0  0  0  0
    3.3812    6.4121   -0.1319 C   0  0  0  0  0  0  0  0  0  0  0  0
    3.3970    5.5148   -2.0506 H   0  0  0  0  0  0  0  0  0  0  0  0
    2.8633    7.3785   -0.2210 H   0  0  0  0  0  0  0  0  0  0  0  0
    3.1766    5.9764    0.8572 H   0  0  0  0  0  0  0  0  0  0  0  0
    4.4644    6.5646   -0.2484 H   0  0  0  0  0  0  0  0  0  0  0  0
 25 27  1  0  0  0  0
 26 27  2  0  0  0  0
 23 25  2  0  0  0  0
 24 26  1  0  0  0  0
 22 23  1  0  0  0  0
 22 24  2  0  0  0  0
 21 22  1  0  0  0  0
  1  3  1  0  0  0  0
  1  7  1  0  0  0  0
  1  2  2  0  0  0  0
 38 39  1  0  0  0  0
 39 47  1  0  0  0  0
 39 40  2  0  0  0  0
  8  9  1  0  0  0  0
  9 17  1  0  0  0  0
  9 10  2  0  0  0  0
 18 19  1  0  0  0  0
 19 37  1  0  0  0  0
 19 20  2  0  0  0  0
 38 41  1  0  0  0  0
  8 11  1  0  0  0  0
 47 48  1  0  0  0  0
 18 21  1  0  0  0  0
 37 38  1  0  0  0  0
  7  8  1  0  0  0  0
 17 18  1  0  0  0  0
 27 36  1  0  0  0  0
 25 34  1  0  0  0  0
 26 35  1  0  0  0  0
 23 32  1  0  0  0  0
 24 33  1  0  0  0  0
  3  4  1  0  0  0  0
  3  5  1  0  0  0  0
  3  6  1  0  0  0  0
 41 44  1  0  0  0  0
 41 45  1  0  0  0  0
 41 46  1  0  0  0  0
 11 14  1  0  0  0  0
 11 15  1  0  0  0  0
 11 16  1  0  0  0  0
 48 50  1  0  0  0  0
 48 51  1  0  0  0  0
 48 52  1  0  0  0  0
 21 30  1  0  0  0  0
 21 31  1  0  0  0  0
 38 43  1  0  0  0  0
  8 13  1  0  0  0  0
 18 29  1  0  0  0  0
 47 49  1  0  0  0  0
  7 12  1  0  0  0  0
 37 42  1  0  0  0  0
 17 28  1  0  0  0  0
M  END
$$$$

  -OEChem-05262214473D

 52 52  0     1  0  0  0  0  0999 V2000
   -1.8248    0.3424    3.9102 C   0  0  0  0  0  0  0  0  0  0  0  0
   -0.8774   -0.2723    3.4345 O   0  0  0  0  0  0  0  0  0  0  0  0
   -2.2566    0.0600    5.3109 C   0  0  0  0  0  0  0  0  0  0  0  0
   -3.0163   -0.7363    5.3643 H   0  0  0  0  0  0  0  0  0  0  0  0
   -1.4254   -0.2876    5.9452 H   0  0  0  0  0  0  0  0  0  0  0  0
   -2.6947    0.9149    5.8505 H   0  0  0  0  0  0  0  0  0  0  0  0
   -2.5745    1.3149    3.2691 N   0  0  0  0  0  0  0  0  0  0  0  0
   -2.3276    1.7409    1.9167 C   0  0  2  0  0  0  0  0  0  0  0  0
   -0.9926    1.1555    1.4755 C   0  0  0  0  0  0  0  0  0  0  0  0
   -0.1206    0.8028    2.2668 O   0  0  0  0  0  0  0  0  0  0  0  0
   -2.3188    3.2577    1.8072 C   0  0  0  0  0  0  0  0  0  0  0  0
   -3.3395    1.7507    3.7809 H   0  0  0  0  0  0  0  0  0  0  0  0
   -3.1317    1.3224    1.3015 H   0  0  0  0  0  0  0  0  0  0  0  0
   -1.5198    3.6949    2.4169 H   0  0  0  0  0  0  0  0  0  0  0  0
   -2.1594    3.5799    0.7729 H   0  0  0  0  0  0  0  0  0  0  0  0
   -3.2690    3.6789    2.1530 H   0  0  0  0  0  0  0  0  0  0  0  0
   -0.8700    1.1124    0.0921 N   0  0  0  0  0  0  0  0  0  0  0  0
    0.3073    0.6116   -0.5716 C   0  0  2  0  0  0  0  0  0  0  0  0
    1.2501    1.7931   -0.7700 C   0  0  0  0  0  0  0  0  0  0  0  0
    2.3961    1.8166   -0.3260 O   0  0  0  0  0  0  0  0  0  0  0  0
   -0.0211   -0.0404   -1.9196 C   0  0  0  0  0  0  0  0  0  0  0  0
   -0.8252   -1.3092   -1.7738 C   0  0  0  0  0  0  0  0  0  0  0  0
   -0.1861   -2.5083   -1.4584 C   0  0  0  0  0  0  0  0  0  0  0  0
   -2.2081   -1.2824   -1.9542 C   0  0  0  0  0  0  0  0  0  0  0  0
   -0.9299   -3.6805   -1.3235 C   0  0  0  0  0  0  0  0  0  0  0  0
   -2.9519   -2.4547   -1.8193 C   0  0  0  0  0  0  0  0  0  0  0  0
   -2.3127   -3.6538   -1.5039 C   0  0  0  0  0  0  0  0  0  0  0  0
   -1.6531    1.4091   -0.4852 H   0  0  0  0  0  0  0  0  0  0  0  0
    0.7713   -0.1064    0.1148 H   0  0  0  0  0  0  0  0  0  0  0  0
    0.9026   -0.2503   -2.4757 H   0  0  0  0  0  0  0  0  0  0  0  0
   -0.5873    0.6545   -2.5539 H   0  0  0  0  0  0  0  0  0  0  0  0
    0.8909   -2.5386   -1.3158 H   0  0  0  0  0  0  0  0  0  0  0  0
   -2.7146   -0.3528   -2.2000 H   0  0  0  0  0  0  0  0  0  0  0  0
   -0.4319   -4.6143   -1.0790 H   0  0  0  0  0  0  0  0  0  0  0  0
   -4.0283   -2.4337   -1.9610 H   0  0  0  0  0  0  0  0  0  0  0  0
   -2.8915   -4.5669   -1.4002 H   0  0  0  0  0  0  0  0  0  0  0  0
    0.6752    2.7925   -1.5428 N   0  0  0  0  0  0  0  0  0  0  0  0
    1.3621    4.0125   -1.9012 C   0  0  2  0  0  0  0  0  0  0  0  0
    1.9500    4.6120   -0.6306 C   0  0  0  0  0  0  0  0  0  0  0  0
    1.5209    4.3563    0.4926 O   0  0  0  0  0  0  0  0  0  0  0  0
    0.4236    4.9962   -2.5826 C   0  0  0  0  0  0  0  0  0  0  0  0
   -0.2761    2.6598   -1.8730 H   0  0  0  0  0  0  0  0  0  0  0  0
    2.1729    3.7307   -2.5819 H   0  0  0  0  0  0  0  0  0  0  0  0
   -0.3953    5.2902   -1.9159 H   0  0  0  0  0  0  0  0  0  0  0  0
    0.9519    5.9083   -2.8791 H   0  0  0  0  0  0  0  0  0  0  0  0
   -0.0213    4.5528   -3.4799 H   0  0  0  0  0  0  0  0  0  0  0  0
    2.9823    5.4993   -0.9013 N   0  0  0  0  0  0  0  0  0  0  0  0
    3.6937    6.2079    0.1369 C   0  0  0  0  0  0  0  0  0  0  0  0
    3.2846    5.6363   -1.8613 H   0  0  0  0  0  0  0  0  0  0  0  0
    3.2174    7.1847    0.3074 H   0  0  0  0  0  0  0  0  0  0  0  0
    3.6672    5.6200    1.0662 H   0  0  0  0  0  0  0  0  0  0  0  0
    4.7386    6.3586   -0.1721 H   0  0  0  0  0  0  0  0  0  0  0  0
 25 27  1  0  0  0  0
 26 27  2  0  0  0  0
 23 25  2  0  0  0  0
 24 26  1  0  0  0  0
 22 23  1  0  0  0  0
 22 24  2  0  0  0  0
 21 22  1  0  0  0  0
  1  3  1  0  0  0  0
  1  7  1  0  0  0  0
  1  2  2  0  0  0  0
 38 39  1  0  0  0  0
 39 47  1  0  0  0  0
 39 40  2  0  0  0  0
  8  9  1  0  0  0  0
  9 17  1  0  0  0  0
  9 10  2  0  0  0  0
 18 19  1  0  0  0  0
 19 37  1  0  0  0  0
 19 20  2  0  0  0  0
 38 41  1  0  0  0  0
  8 11  1  0  0  0  0
 47 48  1  0  0  0  0
 18 21  1  0  0  0  0
 37 38  1  0  0  0  0
  7  8  1  0  0  0  0
 17 18  1  0  0  0  0
 27 36  1  0  0  0  0
 25 34  1  0  0  0  0
 26 35  1  0  0  0  0
 23 32  1  0  0  0  0
 24 33  1  0  0  0  0
  3  4  1  0  0  0  0
  3  5  1  0  0  0  0
  3  6  1  0  0  0  0
 41 44  1  0  0  0  0
 41 45  1  0  0  0  0
 41 46  1  0  0  0  0
 11 14  1  0  0  0  0
 11 15  1  0  0  0  0
 11 16  1  0  0  0  0
 48 50  1  0  0  0  0
 48 51  1  0  0  0  0
 48 52  1  0  0  0  0
 21 30  1  0  0  0  0
 21 31  1  0  0  0  0
 38 43  1  0  0  0  0
  8 13  1  0  0  0  0
 18 29  1  0  0  0  0
 47 49  1  0  0  0  0
  7 12  1  0  0  0  0
 37 42  1  0  0  0  0
 17 28  1  0  0  0  0
M  END
$$$$

  -OEChem-05262214473D

 52 52  0     1  0  0  0  0  0999 V2000
   -1.8248    0.3424    3.9102 C   0  0  0  0  0  0  0  0  0  0  0  0
   -0.8774   -0.2723    3.4345 O   0  0  0  0  0  0  0  0  0  0  0  0
   -2.2566    0.0600    5.3109 C   0  0  0  0  0  0  0  0  0  0  0  0
   -3.0163   -0.7363    5.3643 H   0  0  0  0  0  0  0  0  0  0  0  0
   -1.4254   -0.2876    5.9452 H   0  0  0  0  0  0  0  0  0  0  0  0
   -2.6947    0.9149    5.8505 H   0  0  0  0  0  0  0  0  0  0  0  0
   -2.5745    1.3149    3.2691 N   0  0  0  0  0  0  0  0  0  0  0  0
   -2.3276    1.7409    1.9167 C   0  0  2  0  0  0  0  0  0  0  0  0
   -0.9926    1.1555    1.4755 C   0  0  0  0  0  0  0  0  0  0  0  0
   -0.1206    0.8028    2.2668 O   0  0  0  0  0  0  0  0  0  0  0  0
   -2.3188    3.2577    1.8072 C   0  0  0  0  0  0  0  0  0  0  0  0
   -3.3395    1.7507    3.7809 H   0  0  0  0  0  0  0  0  0  0  0  0
   -3.1317    1.3224    1.3015 H   0  0  0  0  0  0  0  0  0  0  0  0
   -1.5198    3.6949    2.4169 H   0  0  0  0  0  0  0  0  0  0  0  0
   -2.1594    3.5799    0.7729 H   0  0  0  0  0  0  0  0  0  0  0  0
   -3.2690    3.6789    2.1530 H   0  0  0  0  0  0  0  0  0  0  0  0
   -0.8700    1.1124    0.0921 N   0  0  0  0  0  0  0  0  0  0  0  0
    0.3073    0.6116   -0.5716 C   0  0  2  0  0  0  0  0  0  0  0  0
    1.2501    1.7931   -0.7700 C   0  0  0  0  0  0  0  0  0  0  0  0
    2.4610    1.7238   -0.5702 O   0  0  0  0  0  0  0  0  0  0  0  0
   -0.0211   -0.0404   -1.9196 C   0  0  0  0  0  0  0  0  0  0  0  0
   -0.8252   -1.3092   -1.7738 C   0  0  0  0  0  0  0  0  0  0  0  0
   -0.1861   -2.5083   -1.4584 C   0  0  0  0  0  0  0  0  0  0  0  0
   -2.2081   -1.2824   -1.9542 C   0  0  0  0  0  0  0  0  0  0  0  0
   -0.9299   -3.6805   -1.3235 C   0  0  0  0  0  0  0  0  0  0  0  0
   -2.9519   -2.4547   -1.8193 C   0  0  0  0  0  0  0  0  0  0  0  0
   -2.3127   -3.6538   -1.5039 C   0  0  0  0  0  0  0  0  0  0  0  0
   -1.6531    1.4091   -0.4852 H   0  0  0  0  0  0  0  0  0  0  0  0
    0.7713   -0.1064    0.1148 H   0  0  0  0  0  0  0  0  0  0  0  0
    0.9026   -0.2503   -2.4757 H   0  0  0  0  0  0  0  0  0  0  0  0
   -0.5873    0.6545   -2.5539 H   0  0  0  0  0  0  0  0  0  0  0  0
    0.8909   -2.5386   -1.3158 H   0  0  0  0  0  0  0  0  0  0  0  0
   -2.7146   -0.3528   -2.2000 H   0  0  0  0  0  0  0  0  0  0  0  0
   -0.4319   -4.6143   -1.0790 H   0  0  0  0  0  0  0  0  0  0  0  0
   -4.0283   -2.4337   -1.9610 H   0  0  0  0  0  0  0  0  0  0  0  0
   -2.8915   -4.5669   -1.4002 H   0  0  0  0  0  0  0  0  0  0  0  0
    0.5845    2.9152   -1.2435 N   0  0  0  0  0  0  0  0  0  0  0  0
    1.2470    4.1653   -1.5385 C   0  0  2  0  0  0  0  0  0  0  0  0
    2.1039    4.5387   -0.3361 C   0  0  0  0  0  0  0  0  0  0  0  0
    1.8932    4.1103    0.7967 O   0  0  0  0  0  0  0  0  0  0  0  0
    0.2426    5.2633   -1.8521 C   0  0  0  0  0  0  0  0  0  0  0  0
   -0.4189    2.8548   -1.3900 H   0  0  0  0  0  0  0  0  0  0  0  0
    1.8919    3.9846   -2.4053 H   0  0  0  0  0  0  0  0  0  0  0  0
   -0.4125    5.4585   -0.9952 H   0  0  0  0  0  0  0  0  0  0  0  0
    0.7468    6.2023   -2.1033 H   0  0  0  0  0  0  0  0  0  0  0  0
   -0.3926    4.9803   -2.6984 H   0  0  0  0  0  0  0  0  0  0  0  0
    3.1052    5.4403   -0.6686 N   0  0  0  0  0  0  0  0  0  0  0  0
    4.0425    5.9571    0.3011 C   0  0  0  0  0  0  0  0  0  0  0  0
    3.2182    5.7271   -1.6365 H   0  0  0  0  0  0  0  0  0  0  0  0
    3.6588    6.9010    0.7158 H   0  0  0  0  0  0  0  0  0  0  0  0
    4.1710    5.2257    1.1126 H   0  0  0  0  0  0  0  0  0  0  0  0
    5.0118    6.1381   -0.1863 H   0  0  0  0  0  0  0  0  0  0  0  0
 25 27  1  0  0  0  0
 26 27  2  0  0  0  0
 23 25  2  0  0  0  0
 24 26  1  0  0  0  0
 22 23  1  0  0  0  0
 22 24  2  0  0  0  0
 21 22  1  0  0  0  0
  1  3  1  0  0  0  0
  1  7  1  0  0  0  0
  1  2  2  0  0  0  0
 38 39  1  0  0  0  0
 39 47  1  0  0  0  0
 39 40  2  0  0  0  0
  8  9  1  0  0  0  0
  9 17  1  0  0  0  0
  9 10  2  0  0  0  0
 18 19  1  0  0  0  0
 19 37  1  0  0  0  0
 19 20  2  0  0  0  0
 38 41  1  0  0  0  0
  8 11  1  0  0  0  0
 47 48  1  0  0  0  0
 18 21  1  0  0  0  0
 37 38  1  0  0  0  0
  7  8  1  0  0  0  0
 17 18  1  0  0  0  0
 27 36  1  0  0  0  0
 25 34  1  0  0  0  0
 26 35  1  0  0  0  0
 23 32  1  0  0  0  0
 24 33  1  0  0  0  0
  3  4  1  0  0  0  0
  3  5  1  0  0  0  0
  3  6  1  0  0  0  0
 41 44  1  0  0  0  0
 41 45  1  0  0  0  0
 41 46  1  0  0  0  0
 11 14  1  0  0  0  0
 11 15  1  0  0  0  0
 11 16  1  0  0  0  0
 48 50  1  0  0  0  0
 48 51  1  0  0  0  0
 48 52  1  0  0  0  0
 21 30  1  0  0  0  0
 21 31  1  0  0  0  0
 38 43  1  0  0  0  0
  8 13  1  0  0  0  0
 18 29  1  0  0  0  0
 47 49  1  0  0  0  0
  7 12  1  0  0  0  0
 37 42  1  0  0  0  0
 17 28  1  0  0  0  0
M  END
$$$$

  -OEChem-05262214473D

 52 52  0     1  0  0  0  0  0999 V2000
   -1.8248    0.3424    3.9102 C   0  0  0  0  0  0  0  0  0  0  0  0
   -0.8774   -0.2723    3.4345 O   0  0  0  0  0  0  0  0  0  0  0  0
   -2.2566    0.0600    5.3109 C   0  0  0  0  0  0  0  0  0  0  0  0
   -3.0163   -0.7363    5.3643 H   0  0  0  0  0  0  0  0  0  0  0  0
   -1.4254   -0.2876    5.9452 H   0  0  0  0  0  0  0  0  0  0  0  0
   -2.6947    0.9149    5.8505 H   0  0  0  0  0  0  0  0  0  0  0  0
   -2.5745    1.3149    3.2691 N   0  0  0  0  0  0  0  0  0  0  0  0
   -2.3276    1.7409    1.9167 C   0  0  2  0  0  0  0  0  0  0  0  0
   -0.9926    1.1555    1.4755 C   0  0  0  0  0  0  0  0  0  0  0  0
   -0.1206    0.8028    2.2668 O   0  0  0  0  0  0  0  0  0  0  0  0
   -2.3188    3.2577    1.8072 C   0  0  0  0  0  0  0  0  0  0  0  0
   -3.3395    1.7507    3.7809 H   0  0  0  0  0  0  0  0  0  0  0  0
   -3.1317    1.3224    1.3015 H   0  0  0  0  0  0  0  0  0  0  0  0
   -1.5198    3.6949    2.4169 H   0  0  0  0  0  0  0  0  0  0  0  0
   -2.1594    3.5799    0.7729 H   0  0  0  0  0  0  0  0  0  0  0  0
   -3.2690    3.6789    2.1530 H   0  0  0  0  0  0  0  0  0  0  0  0
   -0.8700    1.1124    0.0921 N   0  0  0  0  0  0  0  0  0  0  0  0
    0.3073    0.6116   -0.5716 C   0  0  2  0  0  0  0  0  0  0  0  0
    1.2501    1.7931   -0.7700 C   0  0  0  0  0  0  0  0  0  0  0  0
    2.4716    1.6711   -0.8340 O   0  0  0  0  0  0  0  0  0  0  0  0
   -0.0211   -0.0404   -1.9196 C   0  0  0  0  0  0  0  0  0  0  0  0
   -0.8252   -1.3092   -1.7738 C   0  0  0  0  0  0  0  0  0  0  0  0
   -0.1861   -2.5083   -1.4584 C   0  0  0  0  0  0  0  0  0  0  0  0
   -2.2081   -1.2824   -1.9542 C   0  0  0  0  0  0  0  0  0  0  0  0
   -0.9299   -3.6805   -1.3235 C   0  0  0  0  0  0  0  0  0  0  0  0
   -2.9519   -2.4547   -1.8193 C   0  0  0  0  0  0  0  0  0  0  0  0
   -2.3127   -3.6538   -1.5039 C   0  0  0  0  0  0  0  0  0  0  0  0
   -1.6531    1.4091   -0.4852 H   0  0  0  0  0  0  0  0  0  0  0  0
    0.7713   -0.1064    0.1148 H   0  0  0  0  0  0  0  0  0  0  0  0
    0.9026   -0.2503   -2.4757 H   0  0  0  0  0  0  0  0  0  0  0  0
   -0.5873    0.6545   -2.5539 H   0  0  0  0  0  0  0  0  0  0  0  0
    0.8909   -2.5386   -1.3158 H   0  0  0  0  0  0  0  0  0  0  0  0
   -2.7146   -0.3528   -2.2000 H   0  0  0  0  0  0  0  0  0  0  0  0
   -0.4319   -4.6143   -1.0790 H   0  0  0  0  0  0  0  0  0  0  0  0
   -4.0283   -2.4337   -1.9610 H   0  0  0  0  0  0  0  0  0  0  0  0
   -2.8915   -4.5669   -1.4002 H   0  0  0  0  0  0  0  0  0  0  0  0
    0.5609    2.9889   -0.9165 N   0  0  0  0  0  0  0  0  0  0  0  0
    1.2137    4.2588   -1.1406 C   0  0  2  0  0  0  0  0  0  0  0  0
    2.3091    4.4156   -0.0942 C   0  0  0  0  0  0  0  0  0  0  0  0
    2.3055    3.8115    0.9764 O   0  0  0  0  0  0  0  0  0  0  0  0
    0.2233    5.4105   -1.0675 C   0  0  0  0  0  0  0  0  0  0  0  0
   -0.4533    2.9707   -0.8636 H   0  0  0  0  0  0  0  0  0  0  0  0
    1.6645    4.2110   -2.1378 H   0  0  0  0  0  0  0  0  0  0  0  0
   -0.2387    5.4743   -0.0755 H   0  0  0  0  0  0  0  0  0  0  0  0
    0.7142    6.3691   -1.2657 H   0  0  0  0  0  0  0  0  0  0  0  0
   -0.5801    5.2808   -1.8006 H   0  0  0  0  0  0  0  0  0  0  0  0
    3.2687    5.3419   -0.4780 N   0  0  0  0  0  0  0  0  0  0  0  0
    4.4039    5.6769    0.3497 C   0  0  0  0  0  0  0  0  0  0  0  0
    3.2021    5.7810   -1.3915 H   0  0  0  0  0  0  0  0  0  0  0  0
    4.1576    6.5467    0.9763 H   0  0  0  0  0  0  0  0  0  0  0  0
    4.6537    4.8205    0.9933 H   0  0  0  0  0  0  0  0  0  0  0  0
    5.2655    5.9183   -0.2902 H   0  0  0  0  0  0  0  0  0  0  0  0
 25 27  1  0  0  0  0
 26 27  2  0  0  0  0
 23 25  2  0  0  0  0
 24 26  1  0  0  0  0
 22 23  1  0  0  0  0
 22 24  2  0  0  0  0
 21 22  1  0  0  0  0
  1  3  1  0  0  0  0
  1  7  1  0  0  0  0
  1  2  2  0  0  0  0
 38 39  1  0  0  0  0
 39 47  1  0  0  0  0
 39 40  2  0  0  0  0
  8  9  1  0  0  0  0
  9 17  1  0  0  0  0
  9 10  2  0  0  0  0
 18 19  1  0  0  0  0
 19 37  1  0  0  0  0
 19 20  2  0  0  0  0
 38 41  1  0  0  0  0
  8 11  1  0  0  0  0
 47 48  1  0  0  0  0
 18 21  1  0  0  0  0
 37 38  1  0  0  0  0
  7  8  1  0  0  0  0
 17 18  1  0  0  0  0
 27 36  1  0  0  0  0
 25 34  1  0  0  0  0
 26 35  1  0  0  0  0
 23 32  1  0  0  0  0
 24 33  1  0  0  0  0
  3  4  1  0  0  0  0
  3  5  1  0  0  0  0
  3  6  1  0  0  0  0
 41 44  1  0  0  0  0
 41 45  1  0  0  0  0
 41 46  1  0  0  0  0
 11 14  1  0  0  0  0
 11 15  1  0  0  0  0
 11 16  1  0  0  0  0
 48 50  1  0  0  0  0
 48 51  1  0  0  0  0
 48 52  1  0  0  0  0
 21 30  1  0  0  0  0
 21 31  1  0  0  0  0
 38 43  1  0  0  0  0
  8 13  1  0  0  0  0
 18 29  1  0  0  0  0
 47 49  1  0  0  0  0
  7 12  1  0  0  0  0
 37 42  1  0  0  0  0
 17 28  1  0  0  0  0
M  END
$$$$

  -OEChem-05262214473D

 52 52  0     1  0  0  0  0  0999 V2000
   -1.8248    0.3424    3.9102 C   0  0  0  0  0  0  0  0  0  0  0  0
   -0.8774   -0.2723    3.4345 O   0  0  0  0  0  0  0  0  0  0  0  0
   -2.2566    0.0600    5.3109 C   0  0  0  0  0  0  0  0  0  0  0  0
   -3.0163   -0.7363    5.3643 H   0  0  0  0  0  0  0  0  0  0  0  0
   -1.4254   -0.2876    5.9452 H   0  0  0  0  0  0  0  0  0  0  0  0
   -2.6947    0.9149    5.8505 H   0  0  0  0  0  0  0  0  0  0  0  0
   -2.5745    1.3149    3.2691 N   0  0  0  0  0  0  0  0  0  0  0  0
   -2.3276    1.7409    1.9167 C   0  0  2  0  0  0  0  0  0  0  0  0
   -0.9926    1.1555    1.4755 C   0  0  0  0  0  0  0  0  0  0  0  0
   -0.1206    0.8028    2.2668 O   0  0  0  0  0  0  0  0  0  0  0  0
   -2.3188    3.2577    1.8072 C   0  0  0  0  0  0  0  0  0  0  0  0
   -3.3395    1.7507    3.7809 H   0  0  0  0  0  0  0  0  0  0  0  0
   -3.1317    1.3224    1.3015 H   0  0  0  0  0  0  0  0  0  0  0  0
   -1.5198    3.6949    2.4169 H   0  0  0  0  0  0  0  0  0  0  0  0
   -2.1594    3.5799    0.7729 H   0  0  0  0  0  0  0  0  0  0  0  0
   -3.2690    3.6789    2.1530 H   0  0  0  0  0  0  0  0  0  0  0  0
   -0.8700    1.1124    0.0921 N   0  0  0  0  0  0  0  0  0  0  0  0
    0.3073    0.6116   -0.5716 C   0  0  2  0  0  0  0  0  0  0  0  0
    1.2501    1.7931   -0.7700 C   0  0  0  0  0  0  0  0  0  0  0  0
    2.4271    1.6620   -1.0993 O   0  0  0  0  0  0  0  0  0  0  0  0
   -0.0211   -0.0404   -1.9196 C   0  0  0  0  0  0  0  0  0  0  0  0
   -0.8252   -1.3092   -1.7738 C   0  0  0  0  0  0  0  0  0  0  0  0
   -0.1861   -2.5083   -1.4584 C   0  0  0  0  0  0  0  0  0  0  0  0
   -2.2081   -1.2824   -1.9542 C   0  0  0  0  0  0  0  0  0  0  0  0
   -0.9299   -3.6805   -1.3235 C   0  0  0  0  0  0  0  0  0  0  0  0
   -2.9519   -2.4547   -1.8193 C   0  0  0  0  0  0  0  0  0  0  0  0
   -2.3127   -3.6538   -1.5039 C   0  0  0  0  0  0  0  0  0  0  0  0
   -1.6531    1.4091   -0.4852 H   0  0  0  0  0  0  0  0  0  0  0  0
    0.7713   -0.1064    0.1148 H   0  0  0  0  0  0  0  0  0  0  0  0
    0.9026   -0.2503   -2.4757 H   0  0  0  0  0  0  0  0  0  0  0  0
   -0.5873    0.6545   -2.5539 H   0  0  0  0  0  0  0  0  0  0  0  0
    0.8909   -2.5386   -1.3158 H   0  0  0  0  0  0  0  0  0  0  0  0
   -2.7146   -0.3528   -2.2000 H   0  0  0  0  0  0  0  0  0  0  0  0
   -0.4319   -4.6143   -1.0790 H   0  0  0  0  0  0  0  0  0  0  0  0
   -4.0283   -2.4337   -1.9610 H   0  0  0  0  0  0  0  0  0  0  0  0
   -2.8915   -4.5669   -1.4002 H   0  0  0  0  0  0  0  0  0  0  0  0
    0.6063    3.0086   -0.5842 N   0  0  0  0  0  0  0  0  0  0  0  0
    1.2645    4.2864   -0.7346 C   0  0  2  0  0  0  0  0  0  0  0  0
    2.5517    4.2510    0.0786 C   0  0  0  0  0  0  0  0  0  0  0  0
    2.7298    3.4801    1.0194 O   0  0  0  0  0  0  0  0  0  0  0  0
    0.3670    5.4277   -0.2822 C   0  0  0  0  0  0  0  0  0  0  0  0
   -0.3771    2.9995   -0.3297 H   0  0  0  0  0  0  0  0  0  0  0  0
    1.5062    4.3945   -1.7975 H   0  0  0  0  0  0  0  0  0  0  0  0
    0.1141    5.3365    0.7805 H   0  0  0  0  0  0  0  0  0  0  0  0
    0.8563    6.3971   -0.4234 H   0  0  0  0  0  0  0  0  0  0  0  0
   -0.5710    5.4336   -0.8477 H   0  0  0  0  0  0  0  0  0  0  0  0
    3.4615    5.2108   -0.3423 N   0  0  0  0  0  0  0  0  0  0  0  0
    4.7534    5.3862    0.2792 C   0  0  0  0  0  0  0  0  0  0  0  0
    3.2376    5.7945   -1.1429 H   0  0  0  0  0  0  0  0  0  0  0  0
    4.6797    6.1461    1.0712 H   0  0  0  0  0  0  0  0  0  0  0  0
    5.0824    4.4319    0.7163 H   0  0  0  0  0  0  0  0  0  0  0  0
    5.4823    5.7140   -0.4766 H   0  0  0  0  0  0  0  0  0  0  0  0
 25 27  1  0  0  0  0
 26 27  2  0  0  0  0
 23 25  2  0  0  0  0
 24 26  1  0  0  0  0
 22 23  1  0  0  0  0
 22 24  2  0  0  0  0
 21 22  1  0  0  0  0
  1  3  1  0  0  0  0
  1  7  1  0  0  0  0
  1  2  2  0  0  0  0
 38 39  1  0  0  0  0
 39 47  1  0  0  0  0
 39 40  2  0  0  0  0
  8  9  1  0  0  0  0
  9 17  1  0  0  0  0
  9 10  2  0  0  0  0
 18 19  1  0  0  0  0
 19 37  1  0  0  0  0
 19 20  2  0  0  0  0
 38 41  1  0  0  0  0
  8 11  1  0  0  0  0
 47 48  1  0  0  0  0
 18 21  1  0  0  0  0
 37 38  1  0  0  0  0
  7  8  1  0  0  0  0
 17 18  1  0  0  0  0
 27 36  1  0  0  0  0
 25 34  1  0  0  0  0
 26 35  1  0  0  0  0
 23 32  1  0  0  0  0
 24 33  1  0  0  0  0
  3  4  1  0  0  0  0
  3  5  1  0  0  0  0
  3  6  1  0  0  0  0
 41 44  1  0  0  0  0
 41 45  1  0  0  0  0
 41 46  1  0  0  0  0
 11 14  1  0  0  0  0
 11 15  1  0  0  0  0
 11 16  1  0  0  0  0
 48 50  1  0  0  0  0
 48 51  1  0  0  0  0
 48 52  1  0  0  0  0
 21 30  1  0  0  0  0
 21 31  1  0  0  0  0
 38 43  1  0  0  0  0
  8 13  1  0  0  0  0
 18 29  1  0  0  0  0
 47 49  1  0  0  0  0
  7 12  1  0  0  0  0
 37 42  1  0  0  0  0
 17 28  1  0  0  0  0
M  END
$$$$

  -OEChem-05262214473D

 52 52  0     1  0  0  0  0  0999 V2000
   -1.8248    0.3424    3.9102 C   0  0  0  0  0  0  0  0  0  0  0  0
   -0.8774   -0.2723    3.4345 O   0  0  0  0  0  0  0  0  0  0  0  0
   -2.2566    0.0600    5.3109 C   0  0  0  0  0  0  0  0  0  0  0  0
   -3.0163   -0.7363    5.3643 H   0  0  0  0  0  0  0  0  0  0  0  0
   -1.4254   -0.2876    5.9452 H   0  0  0  0  0  0  0  0  0  0  0  0
   -2.6947    0.9149    5.8505 H   0  0  0  0  0  0  0  0  0  0  0  0
   -2.5745    1.3149    3.2691 N   0  0  0  0  0  0  0  0  0  0  0  0
   -2.3276    1.7409    1.9167 C   0  0  2  0  0  0  0  0  0  0  0  0
   -0.9926    1.1555    1.4755 C   0  0  0  0  0  0  0  0  0  0  0  0
   -0.1206    0.8028    2.2668 O   0  0  0  0  0  0  0  0  0  0  0  0
   -2.3188    3.2577    1.8072 C   0  0  0  0  0  0  0  0  0  0  0  0
   -3.3395    1.7507    3.7809 H   0  0  0  0  0  0  0  0  0  0  0  0
   -3.1317    1.3224    1.3015 H   0  0  0  0  0  0  0  0  0  0  0  0
   -1.5198    3.6949    2.4169 H   0  0  0  0  0  0  0  0  0  0  0  0
   -2.1594    3.5799    0.7729 H   0  0  0  0  0  0  0  0  0  0  0  0
   -3.2690    3.6789    2.1530 H   0  0  0  0  0  0  0  0  0  0  0  0
   -0.8700    1.1124    0.0921 N   0  0  0  0  0  0  0  0  0  0  0  0
    0.3073    0.6116   -0.5716 C   0  0  2  0  0  0  0  0  0  0  0  0
    1.2501    1.7931   -0.7700 C   0  0  0  0  0  0  0  0  0  0  0  0
    2.3306    1.6972   -1.3481 O   0  0  0  0  0  0  0  0  0  0  0  0
   -0.0211   -0.0404   -1.9196 C   0  0  0  0  0  0  0  0  0  0  0  0
   -0.8252   -1.3092   -1.7738 C   0  0  0  0  0  0  0  0  0  0  0  0
   -0.1861   -2.5083   -1.4584 C   0  0  0  0  0  0  0  0  0  0  0  0
   -2.2081   -1.2824   -1.9542 C   0  0  0  0  0  0  0  0  0  0  0  0
   -0.9299   -3.6805   -1.3235 C   0  0  0  0  0  0  0  0  0  0  0  0
   -2.9519   -2.4547   -1.8193 C   0  0  0  0  0  0  0  0  0  0  0  0
   -2.3127   -3.6538   -1.5039 C   0  0  0  0  0  0  0  0  0  0  0  0
   -1.6531    1.4091   -0.4852 H   0  0  0  0  0  0  0  0  0  0  0  0
    0.7713   -0.1064    0.1148 H   0  0  0  0  0  0  0  0  0  0  0  0
    0.9026   -0.2503   -2.4757 H   0  0  0  0  0  0  0  0  0  0  0  0
   -0.5873    0.6545   -2.5539 H   0  0  0  0  0  0  0  0  0  0  0  0
    0.8909   -2.5386   -1.3158 H   0  0  0  0  0  0  0  0  0  0  0  0
   -2.7146   -0.3528   -2.2000 H   0  0  0  0  0  0  0  0  0  0  0  0
   -0.4319   -4.6143   -1.0790 H   0  0  0  0  0  0  0  0  0  0  0  0
   -4.0283   -2.4337   -1.9610 H   0  0  0  0  0  0  0  0  0  0  0  0
   -2.8915   -4.5669   -1.4002 H   0  0  0  0  0  0  0  0  0  0  0  0
    0.7174    2.9728   -0.2691 N   0  0  0  0  0  0  0  0  0  0  0  0
    1.3959    4.2464   -0.3481 C   0  0  2  0  0  0  0  0  0  0  0  0
    2.8152    4.0562    0.1705 C   0  0  0  0  0  0  0  0  0  0  0  0
    3.1371    3.1389    0.9229 O   0  0  0  0  0  0  0  0  0  0  0  0
    0.6639    5.3138    0.4503 C   0  0  0  0  0  0  0  0  0  0  0  0
   -0.1953    2.9393    0.1754 H   0  0  0  0  0  0  0  0  0  0  0  0
    1.4276    4.5227   -1.4077 H   0  0  0  0  0  0  0  0  0  0  0  0
    0.6220    5.0545    1.5145 H   0  0  0  0  0  0  0  0  0  0  0  0
    1.1634    6.2846    0.3662 H   0  0  0  0  0  0  0  0  0  0  0  0
   -0.3660    5.4284    0.0954 H   0  0  0  0  0  0  0  0  0  0  0  0
    3.6705    5.0560   -0.2710 N   0  0  0  0  0  0  0  0  0  0  0  0
    5.0669    5.1049    0.0946 C   0  0  0  0  0  0  0  0  0  0  0  0
    3.3221    5.7665   -0.9078 H   0  0  0  0  0  0  0  0  0  0  0  0
    5.1895    5.7263    0.9940 H   0  0  0  0  0  0  0  0  0  0  0  0
    5.4278    4.0865    0.3007 H   0  0  0  0  0  0  0  0  0  0  0  0
    5.6474    5.5392   -0.7328 H   0  0  0  0  0  0  0  0  0  0  0  0
 25 27  1  0  0  0  0
 26 27  2  0  0  0  0
 23 25  2  0  0  0  0
 24 26  1  0  0  0  0
 22 23  1  0  0  0  0
 22 24  2  0  0  0  0
 21 22  1  0  0  0  0
  1  3  1  0  0  0  0
  1  7  1  0  0  0  0
  1  2  2  0  0  0  0
 38 39  1  0  0  0  0
 39 47  1  0  0  0  0
 39 40  2  0  0  0  0
  8  9  1  0  0  0  0
  9 17  1  0  0  0  0
  9 10  2  0  0  0  0
 18 19  1  0  0  0  0
 19 37  1  0  0  0  0
 19 20  2  0  0  0  0
 38 41  1  0  0  0  0
  8 11  1  0  0  0  0
 47 48  1  0  0  0  0
 18 21  1  0  0  0  0
 37 38  1  0  0  0  0
  7  8  1  0  0  0  0
 17 18  1  0  0  0  0
 27 36  1  0  0  0  0
 25 34  1  0  0  0  0
 26 35  1  0  0  0  0
 23 32  1  0  0  0  0
 24 33  1  0  0  0  0
  3  4  1  0  0  0  0
  3  5  1  0  0  0  0
  3  6  1  0  0  0  0
 41 44  1  0  0  0  0
 41 45  1  0  0  0  0
 41 46  1  0  0  0  0
 11 14  1  0  0  0  0
 11 15  1  0  0  0  0
 11 16  1  0  0  0  0
 48 50  1  0  0  0  0
 48 51  1  0  0  0  0
 48 52  1  0  0  0  0
 21 30  1  0  0  0  0
 21 31  1  0  0  0  0
 38 43  1  0  0  0  0
  8 13  1  0  0  0  0
 18 29  1  0  0  0  0
 47 49  1  0  0  0  0
  7 12  1  0  0  0  0
 37 42  1  0  0  0  0
 17 28  1  0  0  0  0
M  END
$$$$

  -OEChem-05262214473D

 52 52  0     1  0  0  0  0  0999 V2000
   -1.8248    0.3424    3.9102 C   0  0  0  0  0  0  0  0  0  0  0  0
   -0.8774   -0.2723    3.4345 O   0  0  0  0  0  0  0  0  0  0  0  0
   -2.2566    0.0600    5.3109 C   0  0  0  0  0  0  0  0  0  0  0  0
   -3.0163   -0.7363    5.3643 H   0  0  0  0  0  0  0  0  0  0  0  0
   -1.4254   -0.2876    5.9452 H   0  0  0  0  0  0  0  0  0  0  0  0
   -2.6947    0.9149    5.8505 H   0  0  0  0  0  0  0  0  0  0  0  0
   -2.5745    1.3149    3.2691 N   0  0  0  0  0  0  0  0  0  0  0  0
   -2.3276    1.7409    1.9167 C   0  0  2  0  0  0  0  0  0  0  0  0
   -0.9926    1.1555    1.4755 C   0  0  0  0  0  0  0  0  0  0  0  0
   -0.1206    0.8028    2.2668 O   0  0  0  0  0  0  0  0  0  0  0  0
   -2.3188    3.2577    1.8072 C   0  0  0  0  0  0  0  0  0  0  0  0
   -3.3395    1.7507    3.7809 H   0  0  0  0  0  0  0  0  0  0  0  0
   -3.1317    1.3224    1.3015 H   0  0  0  0  0  0  0  0  0  0  0  0
   -1.5198    3.6949    2.4169 H   0  0  0  0  0  0  0  0  0  0  0  0
   -2.1594    3.5799    0.7729 H   0  0  0  0  0  0  0  0  0  0  0  0
   -3.2690    3.6789    2.1530 H   0  0  0  0  0  0  0  0  0  0  0  0
   -0.8700    1.1124    0.0921 N   0  0  0  0  0  0  0  0  0  0  0  0
    0.3073    0.6116   -0.5716 C   0  0  2  0  0  0  0  0  0  0  0  0
    1.2501    1.7931   -0.7700 C   0  0  0  0  0  0  0  0  0  0  0  0
    2.1887    1.7742   -1.5635 O   0  0  0  0  0  0  0  0  0  0  0  0
   -0.0211   -0.0404   -1.9196 C   0  0  0  0  0  0  0  0  0  0  0  0
   -0.8252   -1.3092   -1.7738 C   0  0  0  0  0  0  0  0  0  0  0  0
   -0.1861   -2.5083   -1.4584 C   0  0  0  0  0  0  0  0  0  0  0  0
   -2.2081   -1.2824   -1.9542 C   0  0  0  0  0  0  0  0  0  0  0  0
   -0.9299   -3.6805   -1.3235 C   0  0  0  0  0  0  0  0  0  0  0  0
   -2.9519   -2.4547   -1.8193 C   0  0  0  0  0  0  0  0  0  0  0  0
   -2.3127   -3.6538   -1.5039 C   0  0  0  0  0  0  0  0  0  0  0  0
   -1.6531    1.4091   -0.4852 H   0  0  0  0  0  0  0  0  0  0  0  0
    0.7713   -0.1064    0.1148 H   0  0  0  0  0  0  0  0  0  0  0  0
    0.9026   -0.2503   -2.4757 H   0  0  0  0  0  0  0  0  0  0  0  0
   -0.5873    0.6545   -2.5539 H   0  0  0  0  0  0  0  0  0  0  0  0
    0.8909   -2.5386   -1.3158 H   0  0  0  0  0  0  0  0  0  0  0  0
   -2.7146   -0.3528   -2.2000 H   0  0  0  0  0  0  0  0  0  0  0  0
   -0.4319   -4.6143   -1.0790 H   0  0  0  0  0  0  0  0  0  0  0  0
   -4.0283   -2.4337   -1.9610 H   0  0  0  0  0  0  0  0  0  0  0  0
   -2.8915   -4.5669   -1.4002 H   0  0  0  0  0  0  0  0  0  0  0  0
    0.8867    2.8841    0.0072 N   0  0  0  0  0  0  0  0  0  0  0  0
    1.5990    4.1416   -0.0077 C   0  0  2  0  0  0  0  0  0  0  0  0
    3.0815    3.8445    0.1752 C   0  0  0  0  0  0  0  0  0  0  0  0
    3.4996    2.8111    0.6933 O   0  0  0  0  0  0  0  0  0  0  0  0
    1.0938    5.0766    1.0801 C   0  0  0  0  0  0  0  0  0  0  0  0
    0.0794    2.7943    0.6172 H   0  0  0  0  0  0  0  0  0  0  0  0
    1.4342    4.5867   -0.9949 H   0  0  0  0  0  0  0  0  0  0  0  0
    1.2503    4.6475    2.0765 H   0  0  0  0  0  0  0  0  0  0  0  0
    1.6147    6.0392    1.0492 H   0  0  0  0  0  0  0  0  0  0  0  0
    0.0211    5.2654    0.9644 H   0  0  0  0  0  0  0  0  0  0  0  0
    3.8815    4.8880   -0.2688 N   0  0  0  0  0  0  0  0  0  0  0  0
    5.3233    4.8523   -0.1917 C   0  0  0  0  0  0  0  0  0  0  0  0
    3.4500    5.6990   -0.7022 H   0  0  0  0  0  0  0  0  0  0  0  0
    5.6523    5.3159    0.7500 H   0  0  0  0  0  0  0  0  0  0  0  0
    5.6664    3.8077   -0.2254 H   0  0  0  0  0  0  0  0  0  0  0  0
    5.7496    5.4058   -1.0414 H   0  0  0  0  0  0  0  0  0  0  0  0
 25 27  1  0  0  0  0
 26 27  2  0  0  0  0
 23 25  2  0  0  0  0
 24 26  1  0  0  0  0
 22 23  1  0  0  0  0
 22 24  2  0  0  0  0
 21 22  1  0  0  0  0
  1  3  1  0  0  0  0
  1  7  1  0  0  0  0
  1  2  2  0  0  0  0
 38 39  1  0  0  0  0
 39 47  1  0  0  0  0
 39 40  2  0  0  0  0
  8  9  1  0  0  0  0
  9 17  1  0  0  0  0
  9 10  2  0  0  0  0
 18 19  1  0  0  0  0
 19 37  1  0  0  0  0
 19 20  2  0  0  0  0
 38 41  1  0  0  0  0
  8 11  1  0  0  0  0
 47 48  1  0  0  0  0
 18 21  1  0  0  0  0
 37 38  1  0  0  0  0
  7  8  1  0  0  0  0
 17 18  1  0  0  0  0
 27 36  1  0  0  0  0
 25 34  1  0  0  0  0
 26 35  1  0  0  0  0
 23 32  1  0  0  0  0
 24 33  1  0  0  0  0
  3  4  1  0  0  0  0
  3  5  1  0  0  0  0
  3  6  1  0  0  0  0
 41 44  1  0  0  0  0
 41 45  1  0  0  0  0
 41 46  1  0  0  0  0
 11 14  1  0  0  0  0
 11 15  1  0  0  0  0
 11 16  1  0  0  0  0
 48 50  1  0  0  0  0
 48 51  1  0  0  0  0
 48 52  1  0  0  0  0
 21 30  1  0  0  0  0
 21 31  1  0  0  0  0
 38 43  1  0  0  0  0
  8 13  1  0  0  0  0
 18 29  1  0  0  0  0
 47 49  1  0  0  0  0
  7 12  1  0  0  0  0
 37 42  1  0  0  0  0
 17 28  1  0  0  0  0
M  END
$$$$

  -OEChem-05262214473D

 52 52  0     1  0  0  0  0  0999 V2000
   -1.8248    0.3424    3.9102 C   0  0  0  0  0  0  0  0  0  0  0  0
   -0.8774   -0.2723    3.4345 O   0  0  0  0  0  0  0  0  0  0  0  0
   -2.2566    0.0600    5.3109 C   0  0  0  0  0  0  0  0  0  0  0  0
   -3.0163   -0.7363    5.3643 H   0  0  0  0  0  0  0  0  0  0  0  0
   -1.4254   -0.2876    5.9452 H   0  0  0  0  0  0  0  0  0  0  0  0
   -2.6947    0.9149    5.8505 H   0  0  0  0  0  0  0  0  0  0  0  0
   -2.5745    1.3149    3.2691 N   0  0  0  0  0  0  0  0  0  0  0  0
   -2.3276    1.7409    1.9167 C   0  0  2  0  0  0  0  0  0  0  0  0
   -0.9926    1.1555    1.4755 C   0  0  0  0  0  0  0  0  0  0  0  0
   -0.1206    0.8028    2.2668 O   0  0  0  0  0  0  0  0  0  0  0  0
   -2.3188    3.2577    1.8072 C   0  0  0  0  0  0  0  0  0  0  0  0
   -3.3395    1.7507    3.7809 H   0  0  0  0  0  0  0  0  0  0  0  0
   -3.1317    1.3224    1.3015 H   0  0  0  0  0  0  0  0  0  0  0  0
   -1.5198    3.6949    2.4169 H   0  0  0  0  0  0  0  0  0  0  0  0
   -2.1594    3.5799    0.7729 H   0  0  0  0  0  0  0  0  0  0  0  0
   -3.2690    3.6789    2.1530 H   0  0  0  0  0  0  0  0  0  0  0  0
   -0.8700    1.1124    0.0921 N   0  0  0  0  0  0  0  0  0  0  0  0
    0.3073    0.6116   -0.5716 C   0  0  2  0  0  0  0  0  0  0  0  0
    1.2501    1.7931   -0.7700 C   0  0  0  0  0  0  0  0  0  0  0  0
    2.0111    1.8879   -1.7307 O   0  0  0  0  0  0  0  0  0  0  0  0
   -0.0211   -0.0404   -1.9196 C   0  0  0  0  0  0  0  0  0  0  0  0
   -0.8252   -1.3092   -1.7738 C   0  0  0  0  0  0  0  0  0  0  0  0
   -0.1861   -2.5083   -1.4584 C   0  0  0  0  0  0  0  0  0  0  0  0
   -2.2081   -1.2824   -1.9542 C   0  0  0  0  0  0  0  0  0  0  0  0
   -0.9299   -3.6805   -1.3235 C   0  0  0  0  0  0  0  0  0  0  0  0
   -2.9519   -2.4547   -1.8193 C   0  0  0  0  0  0  0  0  0  0  0  0
   -2.3127   -3.6538   -1.5039 C   0  0  0  0  0  0  0  0  0  0  0  0
   -1.6531    1.4091   -0.4852 H   0  0  0  0  0  0  0  0  0  0  0  0
    0.7713   -0.1064    0.1148 H   0  0  0  0  0  0  0  0  0  0  0  0
    0.9026   -0.2503   -2.4757 H   0  0  0  0  0  0  0  0  0  0  0  0
   -0.5873    0.6545   -2.5539 H   0  0  0  0  0  0  0  0  0  0  0  0
    0.8909   -2.5386   -1.3158 H   0  0  0  0  0  0  0  0  0  0  0  0
   -2.7146   -0.3528   -2.2000 H   0  0  0  0  0  0  0  0  0  0  0  0
   -0.4319   -4.6143   -1.0790 H   0  0  0  0  0  0  0  0  0  0  0  0
   -4.0283   -2.4337   -1.9610 H   0  0  0  0  0  0  0  0  0  0  0  0
   -2.8915   -4.5669   -1.4002 H   0  0  0  0  0  0  0  0  0  0  0  0
    1.1027    2.7485    0.2259 N   0  0  0  0  0  0  0  0  0  0  0  0
    1.8600    3.9789    0.2637 C   0  0  2  0  0  0  0  0  0  0  0  0
    3.3326    3.6302    0.0925 C   0  0  0  0  0  0  0  0  0  0  0  0
    3.7927    2.5189    0.3463 O   0  0  0  0  0  0  0  0  0  0  0  0
    1.6273    4.7321    1.5642 C   0  0  0  0  0  0  0  0  0  0  0  0
    0.4286    2.5742    0.9655 H   0  0  0  0  0  0  0  0  0  0  0  0
    1.5256    4.5823   -0.5873 H   0  0  0  0  0  0  0  0  0  0  0  0
    1.9563    4.1432    2.4282 H   0  0  0  0  0  0  0  0  0  0  0  0
    2.1793    5.6777    1.5792 H   0  0  0  0  0  0  0  0  0  0  0  0
    0.5637    4.9560    1.7000 H   0  0  0  0  0  0  0  0  0  0  0  0
    4.0801    4.7182   -0.3359 N   0  0  0  0  0  0  0  0  0  0  0  0
    5.5051    4.6454   -0.5601 C   0  0  0  0  0  0  0  0  0  0  0  0
    3.6125    5.5965   -0.5400 H   0  0  0  0  0  0  0  0  0  0  0  0
    6.0366    4.9431    0.3557 H   0  0  0  0  0  0  0  0  0  0  0  0
    5.7820    3.6146   -0.8261 H   0  0  0  0  0  0  0  0  0  0  0  0
    5.7820    5.3229   -1.3813 H   0  0  0  0  0  0  0  0  0  0  0  0
 25 27  1  0  0  0  0
 26 27  2  0  0  0  0
 23 25  2  0  0  0  0
 24 26  1  0  0  0  0
 22 23  1  0  0  0  0
 22 24  2  0  0  0  0
 21 22  1  0  0  0  0
  1  3  1  0  0  0  0
  1  7  1  0  0  0  0
  1  2  2  0  0  0  0
 38 39  1  0  0  0  0
 39 47  1  0  0  0  0
 39 40  2  0  0  0  0
  8  9  1  0  0  0  0
  9 17  1  0  0  0  0
  9 10  2  0  0  0  0
 18 19  1  0  0  0  0
 19 37  1  0  0  0  0
 19 20  2  0  0  0  0
 38 41  1  0  0  0  0
  8 11  1  0  0  0  0
 47 48  1  0  0  0  0
 18 21  1  0  0  0  0
 37 38  1  0  0  0  0
  7  8  1  0  0  0  0
 17 18  1  0  0  0  0
 27 36  1  0  0  0  0
 25 34  1  0  0  0  0
 26 35  1  0  0  0  0
 23 32  1  0  0  0  0
 24 33  1  0  0  0  0
  3  4  1  0  0  0  0
  3  5  1  0  0  0  0
  3  6  1  0  0  0  0
 41 44  1  0  0  0  0
 41 45  1  0  0  0  0
 41 46  1  0  0  0  0
 11 14  1  0  0  0  0
 11 15  1  0  0  0  0
 11 16  1  0  0  0  0
 48 50  1  0  0  0  0
 48 51  1  0  0  0  0
 48 52  1  0  0  0  0
 21 30  1  0  0  0  0
 21 31  1  0  0  0  0
 38 43  1  0  0  0  0
  8 13  1  0  0  0  0
 18 29  1  0  0  0  0
 47 49  1  0  0  0  0
  7 12  1  0  0  0  0
 37 42  1  0  0  0  0
 17 28  1  0  0  0  0
M  END
$$$$

  -OEChem-05262214473D

 52 52  0     1  0  0  0  0  0999 V2000
   -1.8248    0.3424    3.9102 C   0  0  0  0  0  0  0  0  0  0  0  0
   -0.8774   -0.2723    3.4345 O   0  0  0  0  0  0  0  0  0  0  0  0
   -2.2566    0.0600    5.3109 C   0  0  0  0  0  0  0  0  0  0  0  0
   -3.0163   -0.7363    5.3643 H   0  0  0  0  0  0  0  0  0  0  0  0
   -1.4254   -0.2876    5.9452 H   0  0  0  0  0  0  0  0  0  0  0  0
   -2.6947    0.9149    5.8505 H   0  0  0  0  0  0  0  0  0  0  0  0
   -2.5745    1.3149    3.2691 N   0  0  0  0  0  0  0  0  0  0  0  0
   -2.3276    1.7409    1.9167 C   0  0  2  0  0  0  0  0  0  0  0  0
   -0.9926    1.1555    1.4755 C   0  0  0  0  0  0  0  0  0  0  0  0
   -0.1206    0.8028    2.2668 O   0  0  0  0  0  0  0  0  0  0  0  0
   -2.3188    3.2577    1.8072 C   0  0  0  0  0  0  0  0  0  0  0  0
   -3.3395    1.7507    3.7809 H   0  0  0  0  0  0  0  0  0  0  0  0
   -3.1317    1.3224    1.3015 H   0  0  0  0  0  0  0  0  0  0  0  0
   -1.5198    3.6949    2.4169 H   0  0  0  0  0  0  0  0  0  0  0  0
   -2.1594    3.5799    0.7729 H   0  0  0  0  0  0  0  0  0  0  0  0
   -3.2690    3.6789    2.1530 H   0  0  0  0  0  0  0  0  0  0  0  0
   -0.8700    1.1124    0.0921 N   0  0  0  0  0  0  0  0  0  0  0  0
    0.3073    0.6116   -0.5716 C   0  0  2  0  0  0  0  0  0  0  0  0
    1.2501    1.7931   -0.7700 C   0  0  0  0  0  0  0  0  0  0  0  0
    1.8097    2.0305   -1.8384 O   0  0  0  0  0  0  0  0  0  0  0  0
   -0.0211   -0.0404   -1.9196 C   0  0  0  0  0  0  0  0  0  0  0  0
   -0.8252   -1.3092   -1.7738 C   0  0  0  0  0  0  0  0  0  0  0  0
   -0.1861   -2.5083   -1.4584 C   0  0  0  0  0  0  0  0  0  0  0  0
   -2.2081   -1.2824   -1.9542 C   0  0  0  0  0  0  0  0  0  0  0  0
   -0.9299   -3.6805   -1.3235 C   0  0  0  0  0  0  0  0  0  0  0  0
   -2.9519   -2.4547   -1.8193 C   0  0  0  0  0  0  0  0  0  0  0  0
   -2.3127   -3.6538   -1.5039 C   0  0  0  0  0  0  0  0  0  0  0  0
   -1.6531    1.4091   -0.4852 H   0  0  0  0  0  0  0  0  0  0  0  0
    0.7713   -0.1064    0.1148 H   0  0  0  0  0  0  0  0  0  0  0  0
    0.9026   -0.2503   -2.4757 H   0  0  0  0  0  0  0  0  0  0  0  0
   -0.5873    0.6545   -2.5539 H   0  0  0  0  0  0  0  0  0  0  0  0
    0.8909   -2.5386   -1.3158 H   0  0  0  0  0  0  0  0  0  0  0  0
   -2.7146   -0.3528   -2.2000 H   0  0  0  0  0  0  0  0  0  0  0  0
   -0.4319   -4.6143   -1.0790 H   0  0  0  0  0  0  0  0  0  0  0  0
   -4.0283   -2.4337   -1.9610 H   0  0  0  0  0  0  0  0  0  0  0  0
   -2.8915   -4.5669   -1.4002 H   0  0  0  0  0  0  0  0  0  0  0  0
    1.3506    2.5752    0.3722 N   0  0  0  0  0  0  0  0  0  0  0  0
    2.1610    3.7696    0.4474 C   0  0  2  0  0  0  0  0  0  0  0  0
    3.5513    3.4280   -0.0720 C   0  0  0  0  0  0  0  0  0  0  0  0
    3.9963    2.2824   -0.0943 O   0  0  0  0  0  0  0  0  0  0  0  0
    2.2282    4.3039    1.8696 C   0  0  0  0  0  0  0  0  0  0  0  0
    0.8283    2.2940    1.1968 H   0  0  0  0  0  0  0  0  0  0  0  0
    1.6955    4.5097   -0.2126 H   0  0  0  0  0  0  0  0  0  0  0  0
    2.6917    3.5761    2.5456 H   0  0  0  0  0  0  0  0  0  0  0  0
    2.8189    5.2246    1.9200 H   0  0  0  0  0  0  0  0  0  0  0  0
    1.2250    4.5210    2.2522 H   0  0  0  0  0  0  0  0  0  0  0  0
    4.2528    4.5583   -0.4677 N   0  0  0  0  0  0  0  0  0  0  0  0
    5.5997    4.4984   -0.9856 C   0  0  0  0  0  0  0  0  0  0  0  0
    3.7986    5.4662   -0.4323 H   0  0  0  0  0  0  0  0  0  0  0  0
    6.3162    4.6331   -0.1618 H   0  0  0  0  0  0  0  0  0  0  0  0
    5.7667    3.5203   -1.4603 H   0  0  0  0  0  0  0  0  0  0  0  0
    5.7422    5.2961   -1.7294 H   0  0  0  0  0  0  0  0  0  0  0  0
 25 27  1  0  0  0  0
 26 27  2  0  0  0  0
 23 25  2  0  0  0  0
 24 26  1  0  0  0  0
 22 23  1  0  0  0  0
 22 24  2  0  0  0  0
 21 22  1  0  0  0  0
  1  3  1  0  0  0  0
  1  7  1  0  0  0  0
  1  2  2  0  0  0  0
 38 39  1  0  0  0  0
 39 47  1  0  0  0  0
 39 40  2  0  0  0  0
  8  9  1  0  0  0  0
  9 17  1  0  0  0  0
  9 10  2  0  0  0  0
 18 19  1  0  0  0  0
 19 37  1  0  0  0  0
 19 20  2  0  0  0  0
 38 41  1  0  0  0  0
  8 11  1  0  0  0  0
 47 48  1  0  0  0  0
 18 21  1  0  0  0  0
 37 38  1  0  0  0  0
  7  8  1  0  0  0  0
 17 18  1  0  0  0  0
 27 36  1  0  0  0  0
 25 34  1  0  0  0  0
 26 35  1  0  0  0  0
 23 32  1  0  0  0  0
 24 33  1  0  0  0  0
  3  4  1  0  0  0  0
  3  5  1  0  0  0  0
  3  6  1  0  0  0  0
 41 44  1  0  0  0  0
 41 45  1  0  0  0  0
 41 46  1  0  0  0  0
 11 14  1  0  0  0  0
 11 15  1  0  0  0  0
 11 16  1  0  0  0  0
 48 50  1  0  0  0  0
 48 51  1  0  0  0  0
 48 52  1  0  0  0  0
 21 30  1  0  0  0  0
 21 31  1  0  0  0  0
 38 43  1  0  0  0  0
  8 13  1  0  0  0  0
 18 29  1  0  0  0  0
 47 49  1  0  0  0  0
  7 12  1  0  0  0  0
 37 42  1  0  0  0  0
 17 28  1  0  0  0  0
M  END
$$$$

  -OEChem-05262214473D

 52 52  0     1  0  0  0  0  0999 V2000
   -1.8248    0.3424    3.9102 C   0  0  0  0  0  0  0  0  0  0  0  0
   -0.8774   -0.2723    3.4345 O   0  0  0  0  0  0  0  0  0  0  0  0
   -2.2566    0.0600    5.3109 C   0  0  0  0  0  0  0  0  0  0  0  0
   -3.0163   -0.7363    5.3643 H   0  0  0  0  0  0  0  0  0  0  0  0
   -1.4254   -0.2876    5.9452 H   0  0  0  0  0  0  0  0  0  0  0  0
   -2.6947    0.9149    5.8505 H   0  0  0  0  0  0  0  0  0  0  0  0
   -2.5745    1.3149    3.2691 N   0  0  0  0  0  0  0  0  0  0  0  0
   -2.3276    1.7409    1.9167 C   0  0  2  0  0  0  0  0  0  0  0  0
   -0.9926    1.1555    1.4755 C   0  0  0  0  0  0  0  0  0  0  0  0
   -0.1206    0.8028    2.2668 O   0  0  0  0  0  0  0  0  0  0  0  0
   -2.3188    3.2577    1.8072 C   0  0  0  0  0  0  0  0  0  0  0  0
   -3.3395    1.7507    3.7809 H   0  0  0  0  0  0  0  0  0  0  0  0
   -3.1317    1.3224    1.3015 H   0  0  0  0  0  0  0  0  0  0  0  0
   -1.5198    3.6949    2.4169 H   0  0  0  0  0  0  0  0  0  0  0  0
   -2.1594    3.5799    0.7729 H   0  0  0  0  0  0  0  0  0  0  0  0
   -3.2690    3.6789    2.1530 H   0  0  0  0  0  0  0  0  0  0  0  0
   -0.8700    1.1124    0.0921 N   0  0  0  0  0  0  0  0  0  0  0  0
    0.3073    0.6116   -0.5716 C   0  0  2  0  0  0  0  0  0  0  0  0
    1.2501    1.7931   -0.7700 C   0  0  0  0  0  0  0  0  0  0  0  0
    1.5985    2.1922   -1.8792 O   0  0  0  0  0  0  0  0  0  0  0  0
   -0.0211   -0.0404   -1.9196 C   0  0  0  0  0  0  0  0  0  0  0  0
   -0.8252   -1.3092   -1.7738 C   0  0  0  0  0  0  0  0  0  0  0  0
   -0.1861   -2.5083   -1.4584 C   0  0  0  0  0  0  0  0  0  0  0  0
   -2.2081   -1.2824   -1.9542 C   0  0  0  0  0  0  0  0  0  0  0  0
   -0.9299   -3.6805   -1.3235 C   0  0  0  0  0  0  0  0  0  0  0  0
   -2.9519   -2.4547   -1.8193 C   0  0  0  0  0  0  0  0  0  0  0  0
   -2.3127   -3.6538   -1.5039 C   0  0  0  0  0  0  0  0  0  0  0  0
   -1.6531    1.4091   -0.4852 H   0  0  0  0  0  0  0  0  0  0  0  0
    0.7713   -0.1064    0.1148 H   0  0  0  0  0  0  0  0  0  0  0  0
    0.9026   -0.2503   -2.4757 H   0  0  0  0  0  0  0  0  0  0  0  0
   -0.5873    0.6545   -2.5539 H   0  0  0  0  0  0  0  0  0  0  0  0
    0.8909   -2.5386   -1.3158 H   0  0  0  0  0  0  0  0  0  0  0  0
   -2.7146   -0.3528   -2.2000 H   0  0  0  0  0  0  0  0  0  0  0  0
   -0.4319   -4.6143   -1.0790 H   0  0  0  0  0  0  0  0  0  0  0  0
   -4.0283   -2.4337   -1.9610 H   0  0  0  0  0  0  0  0  0  0  0  0
   -2.8915   -4.5669   -1.4002 H   0  0  0  0  0  0  0  0  0  0  0  0
    1.6136    2.3761    0.4360 N   0  0  0  0  0  0  0  0  0  0  0  0
    2.4815    3.5278    0.5310 C   0  0  2  0  0  0  0  0  0  0  0  0
    3.7227    3.2517   -0.3072 C   0  0  0  0  0  0  0  0  0  0  0  0
    4.0967    2.1176   -0.5987 O   0  0  0  0  0  0  0  0  0  0  0  0
    2.8554    3.8212    1.9756 C   0  0  0  0  0  0  0  0  0  0  0  0
    1.2513    1.9730    1.2951 H   0  0  0  0  0  0  0  0  0  0  0  0
    1.9323    4.3738    0.1037 H   0  0  0  0  0  0  0  0  0  0  0  0
    3.4065    2.9847    2.4207 H   0  0  0  0  0  0  0  0  0  0  0  0
    3.4897    4.7108    2.0484 H   0  0  0  0  0  0  0  0  0  0  0  0
    1.9599    3.9902    2.5833 H   0  0  0  0  0  0  0  0  0  0  0  0
    4.3877    4.4191   -0.6552 N   0  0  0  0  0  0  0  0  0  0  0  0
    5.6009    4.4213   -1.4390 C   0  0  0  0  0  0  0  0  0  0  0  0
    3.9955    5.3167   -0.3865 H   0  0  0  0  0  0  0  0  0  0  0  0
    6.4719    4.4070   -0.7674 H   0  0  0  0  0  0  0  0  0  0  0  0
    5.6215    3.5312   -2.0850 H   0  0  0  0  0  0  0  0  0  0  0  0
    5.6331    5.3273   -2.0620 H   0  0  0  0  0  0  0  0  0  0  0  0
 25 27  1  0  0  0  0
 26 27  2  0  0  0  0
 23 25  2  0  0  0  0
 24 26  1  0  0  0  0
 22 23  1  0  0  0  0
 22 24  2  0  0  0  0
 21 22  1  0  0  0  0
  1  3  1  0  0  0  0
  1  7  1  0  0  0  0
  1  2  2  0  0  0  0
 38 39  1  0  0  0  0
 39 47  1  0  0  0  0
 39 40  2  0  0  0  0
  8  9  1  0  0  0  0
  9 17  1  0  0  0  0
  9 10  2  0  0  0  0
 18 19  1  0  0  0  0
 19 37  1  0  0  0  0
 19 20  2  0  0  0  0
 38 41  1  0  0  0  0
  8 11  1  0  0  0  0
 47 48  1  0  0  0  0
 18 21  1  0  0  0  0
 37 38  1  0  0  0  0
  7  8  1  0  0  0  0
 17 18  1  0  0  0  0
 27 36  1  0  0  0  0
 25 34  1  0  0  0  0
 26 35  1  0  0  0  0
 23 32  1  0  0  0  0
 24 33  1  0  0  0  0
  3  4  1  0  0  0  0
  3  5  1  0  0  0  0
  3  6  1  0  0  0  0
 41 44  1  0  0  0  0
 41 45  1  0  0  0  0
 41 46  1  0  0  0  0
 11 14  1  0  0  0  0
 11 15  1  0  0  0  0
 11 16  1  0  0  0  0
 48 50  1  0  0  0  0
 48 51  1  0  0  0  0
 48 52  1  0  0  0  0
 21 30  1  0  0  0  0
 21 31  1  0  0  0  0
 38 43  1  0  0  0  0
  8 13  1  0  0  0  0
 18 29  1  0  0  0  0
 47 49  1  0  0  0  0
  7 12  1  0  0  0  0
 37 42  1  0  0  0  0
 17 28  1  0  0  0  0
M  END
$$$$

  -OEChem-05262214473D

 52 52  0     1  0  0  0  0  0999 V2000
   -1.8248    0.3424    3.9102 C   0  0  0  0  0  0  0  0  0  0  0  0
   -0.8774   -0.2723    3.4345 O   0  0  0  0  0  0  0  0  0  0  0  0
   -2.2566    0.0600    5.3109 C   0  0  0  0  0  0  0  0  0  0  0  0
   -3.0163   -0.7363    5.3643 H   0  0  0  0  0  0  0  0  0  0  0  0
   -1.4254   -0.2876    5.9452 H   0  0  0  0  0  0  0  0  0  0  0  0
   -2.6947    0.9149    5.8505 H   0  0  0  0  0  0  0  0  0  0  0  0
   -2.5745    1.3149    3.2691 N   0  0  0  0  0  0  0  0  0  0  0  0
   -2.3276    1.7409    1.9167 C   0  0  2  0  0  0  0  0  0  0  0  0
   -0.9926    1.1555    1.4755 C   0  0  0  0  0  0  0  0  0  0  0  0
   -0.1206    0.8028    2.2668 O   0  0  0  0  0  0  0  0  0  0  0  0
   -2.3188    3.2577    1.8072 C   0  0  0  0  0  0  0  0  0  0  0  0
   -3.3395    1.7507    3.7809 H   0  0  0  0  0  0  0  0  0  0  0  0
   -3.1317    1.3224    1.3015 H   0  0  0  0  0  0  0  0  0  0  0  0
   -1.5198    3.6949    2.4169 H   0  0  0  0  0  0  0  0  0  0  0  0
   -2.1594    3.5799    0.7729 H   0  0  0  0  0  0  0  0  0  0  0  0
   -3.2690    3.6789    2.1530 H   0  0  0  0  0  0  0  0  0  0  0  0
   -0.8700    1.1124    0.0921 N   0  0  0  0  0  0  0  0  0  0  0  0
    0.3073    0.6116   -0.5716 C   0  0  2  0  0  0  0  0  0  0  0  0
    1.2501    1.7931   -0.7700 C   0  0  0  0  0  0  0  0  0  0  0  0
    1.3917    2.3621   -1.8503 O   0  0  0  0  0  0  0  0  0  0  0  0
   -0.0211   -0.0404   -1.9196 C   0  0  0  0  0  0  0  0  0  0  0  0
   -0.8252   -1.3092   -1.7738 C   0  0  0  0  0  0  0  0  0  0  0  0
   -0.1861   -2.5083   -1.4584 C   0  0  0  0  0  0  0  0  0  0  0  0
   -2.2081   -1.2824   -1.9542 C   0  0  0  0  0  0  0  0  0  0  0  0
   -0.9299   -3.6805   -1.3235 C   0  0  0  0  0  0  0  0  0  0  0  0
   -2.9519   -2.4547   -1.8193 C   0  0  0  0  0  0  0  0  0  0  0  0
   -2.3127   -3.6538   -1.5039 C   0  0  0  0  0  0  0  0  0  0  0  0
   -1.6531    1.4091   -0.4852 H   0  0  0  0  0  0  0  0  0  0  0  0
    0.7713   -0.1064    0.1148 H   0  0  0  0  0  0  0  0  0  0  0  0
    0.9026   -0.2503   -2.4757 H   0  0  0  0  0  0  0  0  0  0  0  0
   -0.5873    0.6545   -2.5539 H   0  0  0  0  0  0  0  0  0  0  0  0
    0.8909   -2.5386   -1.3158 H   0  0  0  0  0  0  0  0  0  0  0  0
   -2.7146   -0.3528   -2.2000 H   0  0  0  0  0  0  0  0  0  0  0  0
   -0.4319   -4.6143   -1.0790 H   0  0  0  0  0  0  0  0  0  0  0  0
   -4.0283   -2.4337   -1.9610 H   0  0  0  0  0  0  0  0  0  0  0  0
   -2.8915   -4.5669   -1.4002 H   0  0  0  0  0  0  0  0  0  0  0  0
    1.8737    2.1646    0.4130 N   0  0  0  0  0  0  0  0  0  0  0  0
    2.7998    3.2701    0.5088 C   0  0  2  0  0  0  0  0  0  0  0  0
    3.8352    3.1133   -0.5970 C   0  0  0  0  0  0  0  0  0  0  0  0
    4.0869    2.0357   -1.1324 O   0  0  0  0  0  0  0  0  0  0  0  0
    3.4663    3.3168    1.8749 C   0  0  0  0  0  0  0  0  0  0  0  0
    1.6689    1.6329    1.2539 H   0  0  0  0  0  0  0  0  0  0  0  0
    2.2199    4.1840    0.3399 H   0  0  0  0  0  0  0  0  0  0  0  0
    4.0519    2.4094    2.0620 H   0  0  0  0  0  0  0  0  0  0  0  0
    4.1461    4.1714    1.9556 H   0  0  0  0  0  0  0  0  0  0  0  0
    2.7183    3.3997    2.6708 H   0  0  0  0  0  0  0  0  0  0  0  0
    4.4758    4.3101   -0.8857 N   0  0  0  0  0  0  0  0  0  0  0  0
    5.5084    4.4194   -1.8896 C   0  0  0  0  0  0  0  0  0  0  0  0
    4.1899    5.1584   -0.4056 H   0  0  0  0  0  0  0  0  0  0  0  0
    6.4933    4.2804   -1.4198 H   0  0  0  0  0  0  0  0  0  0  0  0
    5.3563    3.6467   -2.6575 H   0  0  0  0  0  0  0  0  0  0  0  0
    5.4621    5.4144   -2.3563 H   0  0  0  0  0  0  0  0  0  0  0  0
 25 27  1  0  0  0  0
 26 27  2  0  0  0  0
 23 25  2  0  0  0  0
 24 26  1  0  0  0  0
 22 23  1  0  0  0  0
 22 24  2  0  0  0  0
 21 22  1  0  0  0  0
  1  3  1  0  0  0  0
  1  7  1  0  0  0  0
  1  2  2  0  0  0  0
 38 39  1  0  0  0  0
 39 47  1  0  0  0  0
 39 40  2  0  0  0  0
  8  9  1  0  0  0  0
  9 17  1  0  0  0  0
  9 10  2  0  0  0  0
 18 19  1  0  0  0  0
 19 37  1  0  0  0  0
 19 20  2  0  0  0  0
 38 41  1  0  0  0  0
  8 11  1  0  0  0  0
 47 48  1  0  0  0  0
 18 21  1  0  0  0  0
 37 38  1  0  0  0  0
  7  8  1  0  0  0  0
 17 18  1  0  0  0  0
 27 36  1  0  0  0  0
 25 34  1  0  0  0  0
 26 35  1  0  0  0  0
 23 32  1  0  0  0  0
 24 33  1  0  0  0  0
  3  4  1  0  0  0  0
  3  5  1  0  0  0  0
  3  6  1  0  0  0  0
 41 44  1  0  0  0  0
 41 45  1  0  0  0  0
 41 46  1  0  0  0  0
 11 14  1  0  0  0  0
 11 15  1  0  0  0  0
 11 16  1  0  0  0  0
 48 50  1  0  0  0  0
 48 51  1  0  0  0  0
 48 52  1  0  0  0  0
 21 30  1  0  0  0  0
 21 31  1  0  0  0  0
 38 43  1  0  0  0  0
  8 13  1  0  0  0  0
 18 29  1  0  0  0  0
 47 49  1  0  0  0  0
  7 12  1  0  0  0  0
 37 42  1  0  0  0  0
 17 28  1  0  0  0  0
M  END
$$$$

  -OEChem-05262214473D

 52 52  0     1  0  0  0  0  0999 V2000
   -1.8248    0.3424    3.9102 C   0  0  0  0  0  0  0  0  0  0  0  0
   -0.8774   -0.2723    3.4345 O   0  0  0  0  0  0  0  0  0  0  0  0
   -2.2566    0.0600    5.3109 C   0  0  0  0  0  0  0  0  0  0  0  0
   -3.0163   -0.7363    5.3643 H   0  0  0  0  0  0  0  0  0  0  0  0
   -1.4254   -0.2876    5.9452 H   0  0  0  0  0  0  0  0  0  0  0  0
   -2.6947    0.9149    5.8505 H   0  0  0  0  0  0  0  0  0  0  0  0
   -2.5745    1.3149    3.2691 N   0  0  0  0  0  0  0  0  0  0  0  0
   -2.3276    1.7409    1.9167 C   0  0  2  0  0  0  0  0  0  0  0  0
   -0.9926    1.1555    1.4755 C   0  0  0  0  0  0  0  0  0  0  0  0
   -0.1206    0.8028    2.2668 O   0  0  0  0  0  0  0  0  0  0  0  0
   -2.3188    3.2577    1.8072 C   0  0  0  0  0  0  0  0  0  0  0  0
   -3.3395    1.7507    3.7809 H   0  0  0  0  0  0  0  0  0  0  0  0
   -3.1317    1.3224    1.3015 H   0  0  0  0  0  0  0  0  0  0  0  0
   -1.5198    3.6949    2.4169 H   0  0  0  0  0  0  0  0  0  0  0  0
   -2.1594    3.5799    0.7729 H   0  0  0  0  0  0  0  0  0  0  0  0
   -3.2690    3.6789    2.1530 H   0  0  0  0  0  0  0  0  0  0  0  0
   -0.8700    1.1124    0.0921 N   0  0  0  0  0  0  0  0  0  0  0  0
    0.3073    0.6116   -0.5716 C   0  0  2  0  0  0  0  0  0  0  0  0
    1.2501    1.7931   -0.7700 C   0  0  0  0  0  0  0  0  0  0  0  0
    1.2034    2.5285   -1.7538 O   0  0  0  0  0  0  0  0  0  0  0  0
   -0.0211   -0.0404   -1.9196 C   0  0  0  0  0  0  0  0  0  0  0  0
   -0.8252   -1.3092   -1.7738 C   0  0  0  0  0  0  0  0  0  0  0  0
   -0.1861   -2.5083   -1.4584 C   0  0  0  0  0  0  0  0  0  0  0  0
   -2.2081   -1.2824   -1.9542 C   0  0  0  0  0  0  0  0  0  0  0  0
   -0.9299   -3.6805   -1.3235 C   0  0  0  0  0  0  0  0  0  0  0  0
   -2.9519   -2.4547   -1.8193 C   0  0  0  0  0  0  0  0  0  0  0  0
   -2.3127   -3.6538   -1.5039 C   0  0  0  0  0  0  0  0  0  0  0  0
   -1.6531    1.4091   -0.4852 H   0  0  0  0  0  0  0  0  0  0  0  0
    0.7713   -0.1064    0.1148 H   0  0  0  0  0  0  0  0  0  0  0  0
    0.9026   -0.2503   -2.4757 H   0  0  0  0  0  0  0  0  0  0  0  0
   -0.5873    0.6545   -2.5539 H   0  0  0  0  0  0  0  0  0  0  0  0
    0.8909   -2.5386   -1.3158 H   0  0  0  0  0  0  0  0  0  0  0  0
   -2.7146   -0.3528   -2.2000 H   0  0  0  0  0  0  0  0  0  0  0  0
   -0.4319   -4.6143   -1.0790 H   0  0  0  0  0  0  0  0  0  0  0  0
   -4.0283   -2.4337   -1.9610 H   0  0  0  0  0  0  0  0  0  0  0  0
   -2.8915   -4.5669   -1.4002 H   0  0  0  0  0  0  0  0  0  0  0  0
    2.1132    1.9553    0.3048 N   0  0  0  0  0  0  0  0  0  0  0  0
    3.0940    3.0140    0.3822 C   0  0  2  0  0  0  0  0  0  0  0  0
    3.8811    3.0222   -0.9217 C   0  0  0  0  0  0  0  0  0  0  0  0
    3.9677    2.0424   -1.6590 O   0  0  0  0  0  0  0  0  0  0  0  0
    4.0191    2.8252    1.5743 C   0  0  0  0  0  0  0  0  0  0  0  0
    2.0524    1.2969    1.0758 H   0  0  0  0  0  0  0  0  0  0  0  0
    2.5386    3.9532    0.4801 H   0  0  0  0  0  0  0  0  0  0  0  0
    4.5841    1.8893    1.4940 H   0  0  0  0  0  0  0  0  0  0  0  0
    4.7434    3.6432    1.6480 H   0  0  0  0  0  0  0  0  0  0  0  0
    3.4485    2.7897    2.5087 H   0  0  0  0  0  0  0  0  0  0  0  0
    4.5109    4.2388   -1.1435 N   0  0  0  0  0  0  0  0  0  0  0  0
    5.3287    4.4928   -2.3065 C   0  0  0  0  0  0  0  0  0  0  0  0
    4.3684    5.0020   -0.4885 H   0  0  0  0  0  0  0  0  0  0  0  0
    6.3789    4.2618   -2.0746 H   0  0  0  0  0  0  0  0  0  0  0  0
    4.9892    3.8588   -3.1389 H   0  0  0  0  0  0  0  0  0  0  0  0
    5.2408    5.5513   -2.5924 H   0  0  0  0  0  0  0  0  0  0  0  0
 25 27  1  0  0  0  0
 26 27  2  0  0  0  0
 23 25  2  0  0  0  0
 24 26  1  0  0  0  0
 22 23  1  0  0  0  0
 22 24  2  0  0  0  0
 21 22  1  0  0  0  0
  1  3  1  0  0  0  0
  1  7  1  0  0  0  0
  1  2  2  0  0  0  0
 38 39  1  0  0  0  0
 39 47  1  0  0  0  0
 39 40  2  0  0  0  0
  8  9  1  0  0  0  0
  9 17  1  0  0  0  0
  9 10  2  0  0  0  0
 18 19  1  0  0  0  0
 19 37  1  0  0  0  0
 19 20  2  0  0  0  0
 38 41  1  0  0  0  0
  8 11  1  0  0  0  0
 47 48  1  0  0  0  0
 18 21  1  0  0  0  0
 37 38  1  0  0  0  0
  7  8  1  0  0  0  0
 17 18  1  0  0  0  0
 27 36  1  0  0  0  0
 25 34  1  0  0  0  0
 26 35  1  0  0  0  0
 23 32  1  0  0  0  0
 24 33  1  0  0  0  0
  3  4  1  0  0  0  0
  3  5  1  0  0  0  0
  3  6  1  0  0  0  0
 41 44  1  0  0  0  0
 41 45  1  0  0  0  0
 41 46  1  0  0  0  0
 11 14  1  0  0  0  0
 11 15  1  0  0  0  0
 11 16  1  0  0  0  0
 48 50  1  0  0  0  0
 48 51  1  0  0  0  0
 48 52  1  0  0  0  0
 21 30  1  0  0  0  0
 21 31  1  0  0  0  0
 38 43  1  0  0  0  0
  8 13  1  0  0  0  0
 18 29  1  0  0  0  0
 47 49  1  0  0  0  0
  7 12  1  0  0  0  0
 37 42  1  0  0  0  0
 17 28  1  0  0  0  0
M  END
$$$$

  -OEChem-05262214473D

 52 52  0     1  0  0  0  0  0999 V2000
   -1.8248    0.3424    3.9102 C   0  0  0  0  0  0  0  0  0  0  0  0
   -0.8774   -0.2723    3.4345 O   0  0  0  0  0  0  0  0  0  0  0  0
   -2.2566    0.0600    5.3109 C   0  0  0  0  0  0  0  0  0  0  0  0
   -3.0163   -0.7363    5.3643 H   0  0  0  0  0  0  0  0  0  0  0  0
   -1.4254   -0.2876    5.9452 H   0  0  0  0  0  0  0  0  0  0  0  0
   -2.6947    0.9149    5.8505 H   0  0  0  0  0  0  0  0  0  0  0  0
   -2.5745    1.3149    3.2691 N   0  0  0  0  0  0  0  0  0  0  0  0
   -2.3276    1.7409    1.9167 C   0  0  2  0  0  0  0  0  0  0  0  0
   -0.9926    1.1555    1.4755 C   0  0  0  0  0  0  0  0  0  0  0  0
   -0.1206    0.8028    2.2668 O   0  0  0  0  0  0  0  0  0  0  0  0
   -2.3188    3.2577    1.8072 C   0  0  0  0  0  0  0  0  0  0  0  0
   -3.3395    1.7507    3.7809 H   0  0  0  0  0  0  0  0  0  0  0  0
   -3.1317    1.3224    1.3015 H   0  0  0  0  0  0  0  0  0  0  0  0
   -1.5198    3.6949    2.4169 H   0  0  0  0  0  0  0  0  0  0  0  0
   -2.1594    3.5799    0.7729 H   0  0  0  0  0  0  0  0  0  0  0  0
   -3.2690    3.6789    2.1530 H   0  0  0  0  0  0  0  0  0  0  0  0
   -0.8700    1.1124    0.0921 N   0  0  0  0  0  0  0  0  0  0  0  0
    0.3073    0.6116   -0.5716 C   0  0  2  0  0  0  0  0  0  0  0  0
    1.2501    1.7931   -0.7700 C   0  0  0  0  0  0  0  0  0  0  0  0
    1.0466    2.6802   -1.5962 O   0  0  0  0  0  0  0  0  0  0  0  0
   -0.0211   -0.0404   -1.9196 C   0  0  0  0  0  0  0  0  0  0  0  0
   -0.8252   -1.3092   -1.7738 C   0  0  0  0  0  0  0  0  0  0  0  0
   -0.1861   -2.5083   -1.4584 C   0  0  0  0  0  0  0  0  0  0  0  0
   -2.2081   -1.2824   -1.9542 C   0  0  0  0  0  0  0  0  0  0  0  0
   -0.9299   -3.6805   -1.3235 C   0  0  0  0  0  0  0  0  0  0  0  0
   -2.9519   -2.4547   -1.8193 C   0  0  0  0  0  0  0  0  0  0  0  0
   -2.3127   -3.6538   -1.5039 C   0  0  0  0  0  0  0  0  0  0  0  0
   -1.6531    1.4091   -0.4852 H   0  0  0  0  0  0  0  0  0  0  0  0
    0.7713   -0.1064    0.1148 H   0  0  0  0  0  0  0  0  0  0  0  0
    0.9026   -0.2503   -2.4757 H   0  0  0  0  0  0  0  0  0  0  0  0
   -0.5873    0.6545   -2.5539 H   0  0  0  0  0  0  0  0  0  0  0  0
    0.8909   -2.5386   -1.3158 H   0  0  0  0  0  0  0  0  0  0  0  0
   -2.7146   -0.3528   -2.2000 H   0  0  0  0  0  0  0  0  0  0  0  0
   -0.4319   -4.6143   -1.0790 H   0  0  0  0  0  0  0  0  0  0  0  0
   -4.0283   -2.4337   -1.9610 H   0  0  0  0  0  0  0  0  0  0  0  0
   -2.8915   -4.5669   -1.4002 H   0  0  0  0  0  0  0  0  0  0  0  0
    2.3158    1.7624    0.1187 N   0  0  0  0  0  0  0  0  0  0  0  0
    3.3442    2.7770    0.1599 C   0  0  2  0  0  0  0  0  0  0  0  0
    3.8572    2.9846   -1.2590 C   0  0  0  0  0  0  0  0  0  0  0  0
    3.7471    2.1372   -2.1427 O   0  0  0  0  0  0  0  0  0  0  0  0
    4.4763    2.3798    1.0945 C   0  0  0  0  0  0  0  0  0  0  0  0
    2.3759    0.9879    0.7731 H   0  0  0  0  0  0  0  0  0  0  0  0
    2.8669    3.6970    0.5145 H   0  0  0  0  0  0  0  0  0  0  0  0
    4.9666    1.4600    0.7553 H   0  0  0  0  0  0  0  0  0  0  0  0
    5.2408    3.1620    1.1465 H   0  0  0  0  0  0  0  0  0  0  0  0
    4.1007    2.2020    2.1079 H   0  0  0  0  0  0  0  0  0  0  0  0
    4.4908    4.2100   -1.4109 N   0  0  0  0  0  0  0  0  0  0  0  0
    5.0739    4.6365   -2.6615 C   0  0  0  0  0  0  0  0  0  0  0  0
    4.5190    4.8582   -0.6293 H   0  0  0  0  0  0  0  0  0  0  0  0
    6.1363    4.3524   -2.6870 H   0  0  0  0  0  0  0  0  0  0  0  0
    4.5452    4.1531   -3.4962 H   0  0  0  0  0  0  0  0  0  0  0  0
    4.9843    5.7289   -2.7541 H   0  0  0  0  0  0  0  0  0  0  0  0
 25 27  1  0  0  0  0
 26 27  2  0  0  0  0
 23 25  2  0  0  0  0
 24 26  1  0  0  0  0
 22 23  1  0  0  0  0
 22 24  2  0  0  0  0
 21 22  1  0  0  0  0
  1  3  1  0  0  0  0
  1  7  1  0  0  0  0
  1  2  2  0  0  0  0
 38 39  1  0  0  0  0
 39 47  1  0  0  0  0
 39 40  2  0  0  0  0
  8  9  1  0  0  0  0
  9 17  1  0  0  0  0
  9 10  2  0  0  0  0
 18 19  1  0  0  0  0
 19 37  1  0  0  0  0
 19 20  2  0  0  0  0
 38 41  1  0  0  0  0
  8 11  1  0  0  0  0
 47 48  1  0  0  0  0
 18 21  1  0  0  0  0
 37 38  1  0  0  0  0
  7  8  1  0  0  0  0
 17 18  1  0  0  0  0
 27 36  1  0  0  0  0
 25 34  1  0  0  0  0
 26 35  1  0  0  0  0
 23 32  1  0  0  0  0
 24 33  1  0  0  0  0
  3  4  1  0  0  0  0
  3  5  1  0  0  0  0
  3  6  1  0  0  0  0
 41 44  1  0  0  0  0
 41 45  1  0  0  0  0
 41 46  1  0  0  0  0
 11 14  1  0  0  0  0
 11 15  1  0  0  0  0
 11 16  1  0  0  0  0
 48 50  1  0  0  0  0
 48 51  1  0  0  0  0
 48 52  1  0  0  0  0
 21 30  1  0  0  0  0
 21 31  1  0  0  0  0
 38 43  1  0  0  0  0
  8 13  1  0  0  0  0
 18 29  1  0  0  0  0
 47 49  1  0  0  0  0
  7 12  1  0  0  0  0
 37 42  1  0  0  0  0
 17 28  1  0  0  0  0
M  END
$$$$

  -OEChem-05262214473D

 52 52  0     1  0  0  0  0  0999 V2000
   -1.8248    0.3424    3.9102 C   0  0  0  0  0  0  0  0  0  0  0  0
   -0.8774   -0.2723    3.4345 O   0  0  0  0  0  0  0  0  0  0  0  0
   -2.2566    0.0600    5.3109 C   0  0  0  0  0  0  0  0  0  0  0  0
   -3.0163   -0.7363    5.3643 H   0  0  0  0  0  0  0  0  0  0  0  0
   -1.4254   -0.2876    5.9452 H   0  0  0  0  0  0  0  0  0  0  0  0
   -2.6947    0.9149    5.8505 H   0  0  0  0  0  0  0  0  0  0  0  0
   -2.5745    1.3149    3.2691 N   0  0  0  0  0  0  0  0  0  0  0  0
   -2.3276    1.7409    1.9167 C   0  0  2  0  0  0  0  0  0  0  0  0
   -0.9926    1.1555    1.4755 C   0  0  0  0  0  0  0  0  0  0  0  0
   -0.1206    0.8028    2.2668 O   0  0  0  0  0  0  0  0  0  0  0  0
   -2.3188    3.2577    1.8072 C   0  0  0  0  0  0  0  0  0  0  0  0
   -3.3395    1.7507    3.7809 H   0  0  0  0  0  0  0  0  0  0  0  0
   -3.1317    1.3224    1.3015 H   0  0  0  0  0  0  0  0  0  0  0  0
   -1.5198    3.6949    2.4169 H   0  0  0  0  0  0  0  0  0  0  0  0
   -2.1594    3.5799    0.7729 H   0  0  0  0  0  0  0  0  0  0  0  0
   -3.2690    3.6789    2.1530 H   0  0  0  0  0  0  0  0  0  0  0  0
   -0.8700    1.1124    0.0921 N   0  0  0  0  0  0  0  0  0  0  0  0
    0.3073    0.6116   -0.5716 C   0  0  2  0  0  0  0  0  0  0  0  0
    1.2501    1.7931   -0.7700 C   0  0  0  0  0  0  0  0  0  0  0  0
    0.9318    2.8067   -1.3882 O   0  0  0  0  0  0  0  0  0  0  0  0
   -0.0211   -0.0404   -1.9196 C   0  0  0  0  0  0  0  0  0  0  0  0
   -0.8252   -1.3092   -1.7738 C   0  0  0  0  0  0  0  0  0  0  0  0
   -0.1861   -2.5083   -1.4584 C   0  0  0  0  0  0  0  0  0  0  0  0
   -2.2081   -1.2824   -1.9542 C   0  0  0  0  0  0  0  0  0  0  0  0
   -0.9299   -3.6805   -1.3235 C   0  0  0  0  0  0  0  0  0  0  0  0
   -2.9519   -2.4547   -1.8193 C   0  0  0  0  0  0  0  0  0  0  0  0
   -2.3127   -3.6538   -1.5039 C   0  0  0  0  0  0  0  0  0  0  0  0
   -1.6531    1.4091   -0.4852 H   0  0  0  0  0  0  0  0  0  0  0  0
    0.7713   -0.1064    0.1148 H   0  0  0  0  0  0  0  0  0  0  0  0
    0.9026   -0.2503   -2.4757 H   0  0  0  0  0  0  0  0  0  0  0  0
   -0.5873    0.6545   -2.5539 H   0  0  0  0  0  0  0  0  0  0  0  0
    0.8909   -2.5386   -1.3158 H   0  0  0  0  0  0  0  0  0  0  0  0
   -2.7146   -0.3528   -2.2000 H   0  0  0  0  0  0  0  0  0  0  0  0
   -0.4319   -4.6143   -1.0790 H   0  0  0  0  0  0  0  0  0  0  0  0
   -4.0283   -2.4337   -1.9610 H   0  0  0  0  0  0  0  0  0  0  0  0
   -2.8915   -4.5669   -1.4002 H   0  0  0  0  0  0  0  0  0  0  0  0
    2.4677    1.5990   -0.1325 N   0  0  0  0  0  0  0  0  0  0  0  0
    3.5334    2.5752   -0.1429 C   0  0  2  0  0  0  0  0  0  0  0  0
    3.7652    3.0030   -1.5861 C   0  0  0  0  0  0  0  0  0  0  0  0
    3.4402    2.3137   -2.5505 O   0  0  0  0  0  0  0  0  0  0  0  0
    4.8066    2.0110    0.4680 C   0  0  0  0  0  0  0  0  0  0  0  0
    2.6172    0.7270    0.3664 H   0  0  0  0  0  0  0  0  0  0  0  0
    3.1822    3.4330    0.4410 H   0  0  0  0  0  0  0  0  0  0  0  0
    5.1736    1.1506   -0.1036 H   0  0  0  0  0  0  0  0  0  0  0  0
    5.6044    2.7608    0.4854 H   0  0  0  0  0  0  0  0  0  0  0  0
    4.6306    1.6764    1.4960 H   0  0  0  0  0  0  0  0  0  0  0  0
    4.4167    4.2256   -1.6698 N   0  0  0  0  0  0  0  0  0  0  0  0
    4.7615    4.8406   -2.9303 C   0  0  0  0  0  0  0  0  0  0  0  0
    4.6314    4.7367   -0.8186 H   0  0  0  0  0  0  0  0  0  0  0  0
    5.7823    4.5462   -3.2154 H   0  0  0  0  0  0  0  0  0  0  0  0
    4.0545    4.5095   -3.7052 H   0  0  0  0  0  0  0  0  0  0  0  0
    4.7100    5.9349   -2.8304 H   0  0  0  0  0  0  0  0  0  0  0  0
 25 27  1  0  0  0  0
 26 27  2  0  0  0  0
 23 25  2  0  0  0  0
 24 26  1  0  0  0  0
 22 23  1  0  0  0  0
 22 24  2  0  0  0  0
 21 22  1  0  0  0  0
  1  3  1  0  0  0  0
  1  7  1  0  0  0  0
  1  2  2  0  0  0  0
 38 39  1  0  0  0  0
 39 47  1  0  0  0  0
 39 40  2  0  0  0  0
  8  9  1  0  0  0  0
  9 17  1  0  0  0  0
  9 10  2  0  0  0  0
 18 19  1  0  0  0  0
 19 37  1  0  0  0  0
 19 20  2  0  0  0  0
 38 41  1  0  0  0  0
  8 11  1  0  0  0  0
 47 48  1  0  0  0  0
 18 21  1  0  0  0  0
 37 38  1  0  0  0  0
  7  8  1  0  0  0  0
 17 18  1  0  0  0  0
 27 36  1  0  0  0  0
 25 34  1  0  0  0  0
 26 35  1  0  0  0  0
 23 32  1  0  0  0  0
 24 33  1  0  0  0  0
  3  4  1  0  0  0  0
  3  5  1  0  0  0  0
  3  6  1  0  0  0  0
 41 44  1  0  0  0  0
 41 45  1  0  0  0  0
 41 46  1  0  0  0  0
 11 14  1  0  0  0  0
 11 15  1  0  0  0  0
 11 16  1  0  0  0  0
 48 50  1  0  0  0  0
 48 51  1  0  0  0  0
 48 52  1  0  0  0  0
 21 30  1  0  0  0  0
 21 31  1  0  0  0  0
 38 43  1  0  0  0  0
  8 13  1  0  0  0  0
 18 29  1  0  0  0  0
 47 49  1  0  0  0  0
  7 12  1  0  0  0  0
 37 42  1  0  0  0  0
 17 28  1  0  0  0  0
M  END
$$$$

  -OEChem-05262214473D

 52 52  0     1  0  0  0  0  0999 V2000
   -1.8248    0.3424    3.9102 C   0  0  0  0  0  0  0  0  0  0  0  0
   -0.8774   -0.2723    3.4345 O   0  0  0  0  0  0  0  0  0  0  0  0
   -2.2566    0.0600    5.3109 C   0  0  0  0  0  0  0  0  0  0  0  0
   -3.0163   -0.7363    5.3643 H   0  0  0  0  0  0  0  0  0  0  0  0
   -1.4254   -0.2876    5.9452 H   0  0  0  0  0  0  0  0  0  0  0  0
   -2.6947    0.9149    5.8505 H   0  0  0  0  0  0  0  0  0  0  0  0
   -2.5745    1.3149    3.2691 N   0  0  0  0  0  0  0  0  0  0  0  0
   -2.3276    1.7409    1.9167 C   0  0  2  0  0  0  0  0  0  0  0  0
   -0.9926    1.1555    1.4755 C   0  0  0  0  0  0  0  0  0  0  0  0
   -0.1206    0.8028    2.2668 O   0  0  0  0  0  0  0  0  0  0  0  0
   -2.3188    3.2577    1.8072 C   0  0  0  0  0  0  0  0  0  0  0  0
   -3.3395    1.7507    3.7809 H   0  0  0  0  0  0  0  0  0  0  0  0
   -3.1317    1.3224    1.3015 H   0  0  0  0  0  0  0  0  0  0  0  0
   -1.5198    3.6949    2.4169 H   0  0  0  0  0  0  0  0  0  0  0  0
   -2.1594    3.5799    0.7729 H   0  0  0  0  0  0  0  0  0  0  0  0
   -3.2690    3.6789    2.1530 H   0  0  0  0  0  0  0  0  0  0  0  0
   -0.8700    1.1124    0.0921 N   0  0  0  0  0  0  0  0  0  0  0  0
    0.3073    0.6116   -0.5716 C   0  0  2  0  0  0  0  0  0  0  0  0
    1.2501    1.7931   -0.7700 C   0  0  0  0  0  0  0  0  0  0  0  0
    0.8669    2.8995   -1.1440 O   0  0  0  0  0  0  0  0  0  0  0  0
   -0.0211   -0.0404   -1.9196 C   0  0  0  0  0  0  0  0  0  0  0  0
   -0.8252   -1.3092   -1.7738 C   0  0  0  0  0  0  0  0  0  0  0  0
   -0.1861   -2.5083   -1.4584 C   0  0  0  0  0  0  0  0  0  0  0  0
   -2.2081   -1.2824   -1.9542 C   0  0  0  0  0  0  0  0  0  0  0  0
   -0.9299   -3.6805   -1.3235 C   0  0  0  0  0  0  0  0  0  0  0  0
   -2.9519   -2.4547   -1.8193 C   0  0  0  0  0  0  0  0  0  0  0  0
   -2.3127   -3.6538   -1.5039 C   0  0  0  0  0  0  0  0  0  0  0  0
   -1.6531    1.4091   -0.4852 H   0  0  0  0  0  0  0  0  0  0  0  0
    0.7713   -0.1064    0.1148 H   0  0  0  0  0  0  0  0  0  0  0  0
    0.9026   -0.2503   -2.4757 H   0  0  0  0  0  0  0  0  0  0  0  0
   -0.5873    0.6545   -2.5539 H   0  0  0  0  0  0  0  0  0  0  0  0
    0.8909   -2.5386   -1.3158 H   0  0  0  0  0  0  0  0  0  0  0  0
   -2.7146   -0.3528   -2.2000 H   0  0  0  0  0  0  0  0  0  0  0  0
   -0.4319   -4.6143   -1.0790 H   0  0  0  0  0  0  0  0  0  0  0  0
   -4.0283   -2.4337   -1.9610 H   0  0  0  0  0  0  0  0  0  0  0  0
   -2.8915   -4.5669   -1.4002 H   0  0  0  0  0  0  0  0  0  0  0  0
    2.5585    1.4763   -0.4318 N   0  0  0  0  0  0  0  0  0  0  0  0
    3.6485    2.4224   -0.5057 C   0  0  2  0  0  0  0  0  0  0  0  0
    3.6113    3.0763   -1.8806 C   0  0  0  0  0  0  0  0  0  0  0  0
    3.0679    2.5597   -2.8547 O   0  0  0  0  0  0  0  0  0  0  0  0
    4.9876    1.7439   -0.2625 C   0  0  0  0  0  0  0  0  0  0  0  0
    2.7600    0.5320   -0.1166 H   0  0  0  0  0  0  0  0  0  0  0  0
    3.4632    3.1792    0.2644 H   0  0  0  0  0  0  0  0  0  0  0  0
    5.1907    0.9823   -1.0243 H   0  0  0  0  0  0  0  0  0  0  0  0
    5.8096    2.4667   -0.2905 H   0  0  0  0  0  0  0  0  0  0  0  0
    5.0019    1.2488    0.7145 H   0  0  0  0  0  0  0  0  0  0  0  0
    4.2937    4.2847   -1.9025 N   0  0  0  0  0  0  0  0  0  0  0  0
    4.4127    5.0914   -3.0945 C   0  0  0  0  0  0  0  0  0  0  0  0
    4.6979    4.6459   -1.0434 H   0  0  0  0  0  0  0  0  0  0  0  0
    5.3408    4.8299   -3.6238 H   0  0  0  0  0  0  0  0  0  0  0  0
    3.5507    4.9038   -3.7516 H   0  0  0  0  0  0  0  0  0  0  0  0
    4.4368    6.1553   -2.8162 H   0  0  0  0  0  0  0  0  0  0  0  0
 25 27  1  0  0  0  0
 26 27  2  0  0  0  0
 23 25  2  0  0  0  0
 24 26  1  0  0  0  0
 22 23  1  0  0  0  0
 22 24  2  0  0  0  0
 21 22  1  0  0  0  0
  1  3  1  0  0  0  0
  1  7  1  0  0  0  0
  1  2  2  0  0  0  0
 38 39  1  0  0  0  0
 39 47  1  0  0  0  0
 39 40  2  0  0  0  0
  8  9  1  0  0  0  0
  9 17  1  0  0  0  0
  9 10  2  0  0  0  0
 18 19  1  0  0  0  0
 19 37  1  0  0  0  0
 19 20  2  0  0  0  0
 38 41  1  0  0  0  0
  8 11  1  0  0  0  0
 47 48  1  0  0  0  0
 18 21  1  0  0  0  0
 37 38  1  0  0  0  0
  7  8  1  0  0  0  0
 17 18  1  0  0  0  0
 27 36  1  0  0  0  0
 25 34  1  0  0  0  0
 26 35  1  0  0  0  0
 23 32  1  0  0  0  0
 24 33  1  0  0  0  0
  3  4  1  0  0  0  0
  3  5  1  0  0  0  0
  3  6  1  0  0  0  0
 41 44  1  0  0  0  0
 41 45  1  0  0  0  0
 41 46  1  0  0  0  0
 11 14  1  0  0  0  0
 11 15  1  0  0  0  0
 11 16  1  0  0  0  0
 48 50  1  0  0  0  0
 48 51  1  0  0  0  0
 48 52  1  0  0  0  0
 21 30  1  0  0  0  0
 21 31  1  0  0  0  0
 38 43  1  0  0  0  0
  8 13  1  0  0  0  0
 18 29  1  0  0  0  0
 47 49  1  0  0  0  0
  7 12  1  0  0  0  0
 37 42  1  0  0  0  0
 17 28  1  0  0  0  0
M  END
$$$$

  -OEChem-05262214473D

 52 52  0     1  0  0  0  0  0999 V2000
   -1.8248    0.3424    3.9102 C   0  0  0  0  0  0  0  0  0  0  0  0
   -0.8774   -0.2723    3.4345 O   0  0  0  0  0  0  0  0  0  0  0  0
   -2.2566    0.0600    5.3109 C   0  0  0  0  0  0  0  0  0  0  0  0
   -3.0163   -0.7363    5.3643 H   0  0  0  0  0  0  0  0  0  0  0  0
   -1.4254   -0.2876    5.9452 H   0  0  0  0  0  0  0  0  0  0  0  0
   -2.6947    0.9149    5.8505 H   0  0  0  0  0  0  0  0  0  0  0  0
   -2.5745    1.3149    3.2691 N   0  0  0  0  0  0  0  0  0  0  0  0
   -2.3276    1.7409    1.9167 C   0  0  2  0  0  0  0  0  0  0  0  0
   -0.9926    1.1555    1.4755 C   0  0  0  0  0  0  0  0  0  0  0  0
   -0.1206    0.8028    2.2668 O   0  0  0  0  0  0  0  0  0  0  0  0
   -2.3188    3.2577    1.8072 C   0  0  0  0  0  0  0  0  0  0  0  0
   -3.3395    1.7507    3.7809 H   0  0  0  0  0  0  0  0  0  0  0  0
   -3.1317    1.3224    1.3015 H   0  0  0  0  0  0  0  0  0  0  0  0
   -1.5198    3.6949    2.4169 H   0  0  0  0  0  0  0  0  0  0  0  0
   -2.1594    3.5799    0.7729 H   0  0  0  0  0  0  0  0  0  0  0  0
   -3.2690    3.6789    2.1530 H   0  0  0  0  0  0  0  0  0  0  0  0
   -0.8700    1.1124    0.0921 N   0  0  0  0  0  0  0  0  0  0  0  0
    0.3073    0.6116   -0.5716 C   0  0  2  0  0  0  0  0  0  0  0  0
    1.2501    1.7931   -0.7700 C   0  0  0  0  0  0  0  0  0  0  0  0
    0.8563    2.9523   -0.8802 O   0  0  0  0  0  0  0  0  0  0  0  0
   -0.0211   -0.0404   -1.9196 C   0  0  0  0  0  0  0  0  0  0  0  0
   -0.8252   -1.3092   -1.7738 C   0  0  0  0  0  0  0  0  0  0  0  0
   -0.1861   -2.5083   -1.4584 C   0  0  0  0  0  0  0  0  0  0  0  0
   -2.2081   -1.2824   -1.9542 C   0  0  0  0  0  0  0  0  0  0  0  0
   -0.9299   -3.6805   -1.3235 C   0  0  0  0  0  0  0  0  0  0  0  0
   -2.9519   -2.4547   -1.8193 C   0  0  0  0  0  0  0  0  0  0  0  0
   -2.3127   -3.6538   -1.5039 C   0  0  0  0  0  0  0  0  0  0  0  0
   -1.6531    1.4091   -0.4852 H   0  0  0  0  0  0  0  0  0  0  0  0
    0.7713   -0.1064    0.1148 H   0  0  0  0  0  0  0  0  0  0  0  0
    0.9026   -0.2503   -2.4757 H   0  0  0  0  0  0  0  0  0  0  0  0
   -0.5873    0.6545   -2.5539 H   0  0  0  0  0  0  0  0  0  0  0  0
    0.8909   -2.5386   -1.3158 H   0  0  0  0  0  0  0  0  0  0  0  0
   -2.7146   -0.3528   -2.2000 H   0  0  0  0  0  0  0  0  0  0  0  0
   -0.4319   -4.6143   -1.0790 H   0  0  0  0  0  0  0  0  0  0  0  0
   -4.0283   -2.4337   -1.9610 H   0  0  0  0  0  0  0  0  0  0  0  0
   -2.8915   -4.5669   -1.4002 H   0  0  0  0  0  0  0  0  0  0  0  0
    2.5820    1.4026   -0.7588 N   0  0  0  0  0  0  0  0  0  0  0  0
    3.6818    2.3290   -0.9036 C   0  0  2  0  0  0  0  0  0  0  0  0
    3.4061    3.1995   -2.1225 C   0  0  0  0  0  0  0  0  0  0  0  0
    2.6555    2.8585   -3.0344 O   0  0  0  0  0  0  0  0  0  0  0  0
    5.0069    1.5967   -1.0471 C   0  0  0  0  0  0  0  0  0  0  0  0
    2.7944    0.4161   -0.6430 H   0  0  0  0  0  0  0  0  0  0  0  0
    3.6906    2.9528   -0.0031 H   0  0  0  0  0  0  0  0  0  0  0  0
    5.0169    0.9665   -1.9439 H   0  0  0  0  0  0  0  0  0  0  0  0
    5.8422    2.3000   -1.1281 H   0  0  0  0  0  0  0  0  0  0  0  0
    5.1894    0.9484   -0.1833 H   0  0  0  0  0  0  0  0  0  0  0  0
    4.1303    4.3831   -2.0931 N   0  0  0  0  0  0  0  0  0  0  0  0
    4.0512    5.3717   -3.1431 C   0  0  0  0  0  0  0  0  0  0  0  0
    4.7139    4.5919   -1.2885 H   0  0  0  0  0  0  0  0  0  0  0  0
    4.8421    5.1841   -3.8843 H   0  0  0  0  0  0  0  0  0  0  0  0
    3.0680    5.3090   -3.6323 H   0  0  0  0  0  0  0  0  0  0  0  0
    4.1831    6.3752   -2.7123 H   0  0  0  0  0  0  0  0  0  0  0  0
 25 27  1  0  0  0  0
 26 27  2  0  0  0  0
 23 25  2  0  0  0  0
 24 26  1  0  0  0  0
 22 23  1  0  0  0  0
 22 24  2  0  0  0  0
 21 22  1  0  0  0  0
  1  3  1  0  0  0  0
  1  7  1  0  0  0  0
  1  2  2  0  0  0  0
 38 39  1  0  0  0  0
 39 47  1  0  0  0  0
 39 40  2  0  0  0  0
  8  9  1  0  0  0  0
  9 17  1  0  0  0  0
  9 10  2  0  0  0  0
 18 19  1  0  0  0  0
 19 37  1  0  0  0  0
 19 20  2  0  0  0  0
 38 41  1  0  0  0  0
  8 11  1  0  0  0  0
 47 48  1  0  0  0  0
 18 21  1  0  0  0  0
 37 38  1  0  0  0  0
  7  8  1  0  0  0  0
 17 18  1  0  0  0  0
 27 36  1  0  0  0  0
 25 34  1  0  0  0  0
 26 35  1  0  0  0  0
 23 32  1  0  0  0  0
 24 33  1  0  0  0  0
  3  4  1  0  0  0  0
  3  5  1  0  0  0  0
  3  6  1  0  0  0  0
 41 44  1  0  0  0  0
 41 45  1  0  0  0  0
 41 46  1  0  0  0  0
 11 14  1  0  0  0  0
 11 15  1  0  0  0  0
 11 16  1  0  0  0  0
 48 50  1  0  0  0  0
 48 51  1  0  0  0  0
 48 52  1  0  0  0  0
 21 30  1  0  0  0  0
 21 31  1  0  0  0  0
 38 43  1  0  0  0  0
  8 13  1  0  0  0  0
 18 29  1  0  0  0  0
 47 49  1  0  0  0  0
  7 12  1  0  0  0  0
 37 42  1  0  0  0  0
 17 28  1  0  0  0  0
M  END
$$$$

  -OEChem-05262214473D

 52 52  0     1  0  0  0  0  0999 V2000
   -1.8248    0.3424    3.9102 C   0  0  0  0  0  0  0  0  0  0  0  0
   -0.8774   -0.2723    3.4345 O   0  0  0  0  0  0  0  0  0  0  0  0
   -2.2566    0.0600    5.3109 C   0  0  0  0  0  0  0  0  0  0  0  0
   -3.0163   -0.7363    5.3643 H   0  0  0  0  0  0  0  0  0  0  0  0
   -1.4254   -0.2876    5.9452 H   0  0  0  0  0  0  0  0  0  0  0  0
   -2.6947    0.9149    5.8505 H   0  0  0  0  0  0  0  0  0  0  0  0
   -2.5745    1.3149    3.2691 N   0  0  0  0  0  0  0  0  0  0  0  0
   -2.3276    1.7409    1.9167 C   0  0  2  0  0  0  0  0  0  0  0  0
   -0.9926    1.1555    1.4755 C   0  0  0  0  0  0  0  0  0  0  0  0
   -0.1206    0.8028    2.2668 O   0  0  0  0  0  0  0  0  0  0  0  0
   -2.3188    3.2577    1.8072 C   0  0  0  0  0  0  0  0  0  0  0  0
   -3.3395    1.7507    3.7809 H   0  0  0  0  0  0  0  0  0  0  0  0
   -3.1317    1.3224    1.3015 H   0  0  0  0  0  0  0  0  0  0  0  0
   -1.5198    3.6949    2.4169 H   0  0  0  0  0  0  0  0  0  0  0  0
   -2.1594    3.5799    0.7729 H   0  0  0  0  0  0  0  0  0  0  0  0
   -3.2690    3.6789    2.1530 H   0  0  0  0  0  0  0  0  0  0  0  0
   -0.8700    1.1124    0.0921 N   0  0  0  0  0  0  0  0  0  0  0  0
    0.3073    0.6116   -0.5716 C   0  0  2  0  0  0  0  0  0  0  0  0
    1.2501    1.7931   -0.7700 C   0  0  0  0  0  0  0  0  0  0  0  0
    0.9008    2.9613   -0.6149 O   0  0  0  0  0  0  0  0  0  0  0  0
   -0.0211   -0.0404   -1.9196 C   0  0  0  0  0  0  0  0  0  0  0  0
   -0.8252   -1.3092   -1.7738 C   0  0  0  0  0  0  0  0  0  0  0  0
   -0.1861   -2.5083   -1.4584 C   0  0  0  0  0  0  0  0  0  0  0  0
   -2.2081   -1.2824   -1.9542 C   0  0  0  0  0  0  0  0  0  0  0  0
   -0.9299   -3.6805   -1.3235 C   0  0  0  0  0  0  0  0  0  0  0  0
   -2.9519   -2.4547   -1.8193 C   0  0  0  0  0  0  0  0  0  0  0  0
   -2.3127   -3.6538   -1.5039 C   0  0  0  0  0  0  0  0  0  0  0  0
   -1.6531    1.4091   -0.4852 H   0  0  0  0  0  0  0  0  0  0  0  0
    0.7713   -0.1064    0.1148 H   0  0  0  0  0  0  0  0  0  0  0  0
    0.9026   -0.2503   -2.4757 H   0  0  0  0  0  0  0  0  0  0  0  0
   -0.5873    0.6545   -2.5539 H   0  0  0  0  0  0  0  0  0  0  0  0
    0.8909   -2.5386   -1.3158 H   0  0  0  0  0  0  0  0  0  0  0  0
   -2.7146   -0.3528   -2.2000 H   0  0  0  0  0  0  0  0  0  0  0  0
   -0.4319   -4.6143   -1.0790 H   0  0  0  0  0  0  0  0  0  0  0  0
   -4.0283   -2.4337   -1.9610 H   0  0  0  0  0  0  0  0  0  0  0  0
   -2.8915   -4.5669   -1.4002 H   0  0  0  0  0  0  0  0  0  0  0  0
    2.5367    1.3830   -1.0911 N   0  0  0  0  0  0  0  0  0  0  0  0
    3.6310    2.3013   -1.3096 C   0  0  2  0  0  0  0  0  0  0  0  0
    3.1635    3.3640   -2.2953 C   0  0  0  0  0  0  0  0  0  0  0  0
    2.2313    3.1898   -3.0774 O   0  0  0  0  0  0  0  0  0  0  0  0
    4.8632    1.5794   -1.8325 C   0  0  0  0  0  0  0  0  0  0  0  0
    2.7182    0.3873   -1.1769 H   0  0  0  0  0  0  0  0  0  0  0  0
    3.8490    2.7692   -0.3434 H   0  0  0  0  0  0  0  0  0  0  0  0
    4.6641    1.1043   -2.8000 H   0  0  0  0  0  0  0  0  0  0  0  0
    5.7001    2.2720   -1.9704 H   0  0  0  0  0  0  0  0  0  0  0  0
    5.1804    0.7955   -1.1362 H   0  0  0  0  0  0  0  0  0  0  0  0
    3.9375    4.5142   -2.2288 N   0  0  0  0  0  0  0  0  0  0  0  0
    3.7018    5.6624   -3.0726 C   0  0  0  0  0  0  0  0  0  0  0  0
    4.6785    4.5785   -1.5370 H   0  0  0  0  0  0  0  0  0  0  0  0
    4.3200    5.5848   -3.9792 H   0  0  0  0  0  0  0  0  0  0  0  0
    2.6393    5.6976   -3.3554 H   0  0  0  0  0  0  0  0  0  0  0  0
    3.9663    6.5795   -2.5259 H   0  0  0  0  0  0  0  0  0  0  0  0
 25 27  1  0  0  0  0
 26 27  2  0  0  0  0
 23 25  2  0  0  0  0
 24 26  1  0  0  0  0
 22 23  1  0  0  0  0
 22 24  2  0  0  0  0
 21 22  1  0  0  0  0
  1  3  1  0  0  0  0
  1  7  1  0  0  0  0
  1  2  2  0  0  0  0
 38 39  1  0  0  0  0
 39 47  1  0  0  0  0
 39 40  2  0  0  0  0
  8  9  1  0  0  0  0
  9 17  1  0  0  0  0
  9 10  2  0  0  0  0
 18 19  1  0  0  0  0
 19 37  1  0  0  0  0
 19 20  2  0  0  0  0
 38 41  1  0  0  0  0
  8 11  1  0  0  0  0
 47 48  1  0  0  0  0
 18 21  1  0  0  0  0
 37 38  1  0  0  0  0
  7  8  1  0  0  0  0
 17 18  1  0  0  0  0
 27 36  1  0  0  0  0
 25 34  1  0  0  0  0
 26 35  1  0  0  0  0
 23 32  1  0  0  0  0
 24 33  1  0  0  0  0
  3  4  1  0  0  0  0
  3  5  1  0  0  0  0
  3  6  1  0  0  0  0
 41 44  1  0  0  0  0
 41 45  1  0  0  0  0
 41 46  1  0  0  0  0
 11 14  1  0  0  0  0
 11 15  1  0  0  0  0
 11 16  1  0  0  0  0
 48 50  1  0  0  0  0
 48 51  1  0  0  0  0
 48 52  1  0  0  0  0
 21 30  1  0  0  0  0
 21 31  1  0  0  0  0
 38 43  1  0  0  0  0
  8 13  1  0  0  0  0
 18 29  1  0  0  0  0
 47 49  1  0  0  0  0
  7 12  1  0  0  0  0
 37 42  1  0  0  0  0
 17 28  1  0  0  0  0
M  END
$$$$

  -OEChem-05262214473D

 52 52  0     1  0  0  0  0  0999 V2000
   -1.8248    0.3424    3.9102 C   0  0  0  0  0  0  0  0  0  0  0  0
   -0.8774   -0.2723    3.4345 O   0  0  0  0  0  0  0  0  0  0  0  0
   -2.2566    0.0600    5.3109 C   0  0  0  0  0  0  0  0  0  0  0  0
   -3.0163   -0.7363    5.3643 H   0  0  0  0  0  0  0  0  0  0  0  0
   -1.4254   -0.2876    5.9452 H   0  0  0  0  0  0  0  0  0  0  0  0
   -2.6947    0.9149    5.8505 H   0  0  0  0  0  0  0  0  0  0  0  0
   -2.5745    1.3149    3.2691 N   0  0  0  0  0  0  0  0  0  0  0  0
   -2.3276    1.7409    1.9167 C   0  0  2  0  0  0  0  0  0  0  0  0
   -0.9926    1.1555    1.4755 C   0  0  0  0  0  0  0  0  0  0  0  0
   -0.1206    0.8028    2.2668 O   0  0  0  0  0  0  0  0  0  0  0  0
   -2.3188    3.2577    1.8072 C   0  0  0  0  0  0  0  0  0  0  0  0
   -3.3395    1.7507    3.7809 H   0  0  0  0  0  0  0  0  0  0  0  0
   -3.1317    1.3224    1.3015 H   0  0  0  0  0  0  0  0  0  0  0  0
   -1.5198    3.6949    2.4169 H   0  0  0  0  0  0  0  0  0  0  0  0
   -2.1594    3.5799    0.7729 H   0  0  0  0  0  0  0  0  0  0  0  0
   -3.2690    3.6789    2.1530 H   0  0  0  0  0  0  0  0  0  0  0  0
   -0.8700    1.1124    0.0921 N   0  0  0  0  0  0  0  0  0  0  0  0
    0.3073    0.6116   -0.5716 C   0  0  2  0  0  0  0  0  0  0  0  0
    1.3892    1.6771   -0.4358 C   0  0  0  0  0  0  0  0  0  0  0  0
    1.2218    2.7256    0.1835 O   0  0  0  0  0  0  0  0  0  0  0  0
    0.0497    0.2991   -2.0501 C   0  0  0  0  0  0  0  0  0  0  0  0
   -0.8992   -0.8581   -2.2454 C   0  0  0  0  0  0  0  0  0  0  0  0
   -0.4310   -2.1686   -2.1492 C   0  0  0  0  0  0  0  0  0  0  0  0
   -2.2449   -0.6168   -2.5218 C   0  0  0  0  0  0  0  0  0  0  0  0
   -1.3086   -3.2377   -2.3295 C   0  0  0  0  0  0  0  0  0  0  0  0
   -3.1225   -1.6859   -2.7022 C   0  0  0  0  0  0  0  0  0  0  0  0
   -2.6543   -2.9963   -2.6059 C   0  0  0  0  0  0  0  0  0  0  0  0
   -1.6531    1.4091   -0.4852 H   0  0  0  0  0  0  0  0  0  0  0  0
    0.6169   -0.2861   -0.0235 H   0  0  0  0  0  0  0  0  0  0  0  0
    0.9971    0.0910   -2.5656 H   0  0  0  0  0  0  0  0  0  0  0  0
   -0.3688    1.1768   -2.5604 H   0  0  0  0  0  0  0  0  0  0  0  0
    0.6158   -2.3661   -1.9340 H   0  0  0  0  0  0  0  0  0  0  0  0
   -2.6186    0.4009   -2.5985 H   0  0  0  0  0  0  0  0  0  0  0  0
   -0.9437   -4.2580   -2.2557 H   0  0  0  0  0  0  0  0  0  0  0  0
   -4.1699   -1.4976   -2.9184 H   0  0  0  0  0  0  0  0  0  0  0  0
   -3.3372   -3.8289   -2.7477 H   0  0  0  0  0  0  0  0  0  0  0  0
    2.5757    1.2935   -1.0454 N   0  0  0  0  0  0  0  0  0  0  0  0
    3.7684    2.1098   -1.0446 C   0  0  2  0  0  0  0  0  0  0  0  0
    3.3800    3.5104   -1.4994 C   0  0  0  0  0  0  0  0  0  0  0  0
    2.3741    3.7444   -2.1661 O   0  0  0  0  0  0  0  0  0  0  0  0
    4.8413    1.5227   -1.9484 C   0  0  0  0  0  0  0  0  0  0  0  0
    2.6073    0.3938   -1.5158 H   0  0  0  0  0  0  0  0  0  0  0  0
    4.1253    2.1471   -0.0096 H   0  0  0  0  0  0  0  0  0  0  0  0
    4.5018    1.4773   -2.9896 H   0  0  0  0  0  0  0  0  0  0  0  0
    5.7543    2.1268   -1.9245 H   0  0  0  0  0  0  0  0  0  0  0  0
    5.0980    0.5042   -1.6379 H   0  0  0  0  0  0  0  0  0  0  0  0
    4.3115    4.4626   -1.1100 N   0  0  0  0  0  0  0  0  0  0  0  0
    4.1752    5.8640   -1.4319 C   0  0  0  0  0  0  0  0  0  0  0  0
    5.1061    4.1817   -0.5430 H   0  0  0  0  0  0  0  0  0  0  0  0
    4.7032    6.0777   -2.3729 H   0  0  0  0  0  0  0  0  0  0  0  0
    3.1095    6.1121   -1.5450 H   0  0  0  0  0  0  0  0  0  0  0  0
    4.6087    6.4698   -0.6226 H   0  0  0  0  0  0  0  0  0  0  0  0
 25 27  1  0  0  0  0
 26 27  2  0  0  0  0
 23 25  2  0  0  0  0
 24 26  1  0  0  0  0
 22 23  1  0  0  0  0
 22 24  2  0  0  0  0
 21 22  1  0  0  0  0
  1  3  1  0  0  0  0
  1  7  1  0  0  0  0
  1  2  2  0  0  0  0
 38 39  1  0  0  0  0
 39 47  1  0  0  0  0
 39 40  2  0  0  0  0
  8  9  1  0  0  0  0
  9 17  1  0  0  0  0
  9 10  2  0  0  0  0
 18 19  1  0  0  0  0
 19 37  1  0  0  0  0
 19 20  2  0  0  0  0
 38 41  1  0  0  0  0
  8 11  1  0  0  0  0
 47 48  1  0  0  0  0
 18 21  1  0  0  0  0
 37 38  1  0  0  0  0
  7  8  1  0  0  0  0
 17 18  1  0  0  0  0
 27 36  1  0  0  0  0
 25 34  1  0  0  0  0
 26 35  1  0  0  0  0
 23 32  1  0  0  0  0
 24 33  1  0  0  0  0
  3  4  1  0  0  0  0
  3  5  1  0  0  0  0
  3  6  1  0  0  0  0
 41 44  1  0  0  0  0
 41 45  1  0  0  0  0
 41 46  1  0  0  0  0
 11 14  1  0  0  0  0
 11 15  1  0  0  0  0
 11 16  1  0  0  0  0
 48 50  1  0  0  0  0
 48 51  1  0  0  0  0
 48 52  1  0  0  0  0
 21 30  1  0  0  0  0
 21 31  1  0  0  0  0
 38 43  1  0  0  0  0
  8 13  1  0  0  0  0
 18 29  1  0  0  0  0
 47 49  1  0  0  0  0
  7 12  1  0  0  0  0
 37 42  1  0  0  0  0
 17 28  1  0  0  0  0
M  END
$$$$

  -OEChem-05262214473D

 52 52  0     1  0  0  0  0  0999 V2000
   -1.8248    0.3424    3.9102 C   0  0  0  0  0  0  0  0  0  0  0  0
   -0.8774   -0.2723    3.4345 O   0  0  0  0  0  0  0  0  0  0  0  0
   -2.2566    0.0600    5.3109 C   0  0  0  0  0  0  0  0  0  0  0  0
   -3.0163   -0.7363    5.3643 H   0  0  0  0  0  0  0  0  0  0  0  0
   -1.4254   -0.2876    5.9452 H   0  0  0  0  0  0  0  0  0  0  0  0
   -2.6947    0.9149    5.8505 H   0  0  0  0  0  0  0  0  0  0  0  0
   -2.5745    1.3149    3.2691 N   0  0  0  0  0  0  0  0  0  0  0  0
   -2.3276    1.7409    1.9167 C   0  0  2  0  0  0  0  0  0  0  0  0
   -0.9926    1.1555    1.4755 C   0  0  0  0  0  0  0  0  0  0  0  0
   -0.1206    0.8028    2.2668 O   0  0  0  0  0  0  0  0  0  0  0  0
   -2.3188    3.2577    1.8072 C   0  0  0  0  0  0  0  0  0  0  0  0
   -3.3395    1.7507    3.7809 H   0  0  0  0  0  0  0  0  0  0  0  0
   -3.1317    1.3224    1.3015 H   0  0  0  0  0  0  0  0  0  0  0  0
   -1.5198    3.6949    2.4169 H   0  0  0  0  0  0  0  0  0  0  0  0
   -2.1594    3.5799    0.7729 H   0  0  0  0  0  0  0  0  0  0  0  0
   -3.2690    3.6789    2.1530 H   0  0  0  0  0  0  0  0  0  0  0  0
   -0.8700    1.1124    0.0921 N   0  0  0  0  0  0  0  0  0  0  0  0
    0.3073    0.6116   -0.5716 C   0  0  2  0  0  0  0  0  0  0  0  0
    1.3892    1.6771   -0.4358 C   0  0  0  0  0  0  0  0  0  0  0  0
    1.3315    2.5882    0.3873 O   0  0  0  0  0  0  0  0  0  0  0  0
    0.0497    0.2991   -2.0501 C   0  0  0  0  0  0  0  0  0  0  0  0
   -0.8992   -0.8581   -2.2454 C   0  0  0  0  0  0  0  0  0  0  0  0
   -0.4310   -2.1686   -2.1492 C   0  0  0  0  0  0  0  0  0  0  0  0
   -2.2449   -0.6168   -2.5218 C   0  0  0  0  0  0  0  0  0  0  0  0
   -1.3086   -3.2377   -2.3295 C   0  0  0  0  0  0  0  0  0  0  0  0
   -3.1225   -1.6859   -2.7022 C   0  0  0  0  0  0  0  0  0  0  0  0
   -2.6543   -2.9963   -2.6059 C   0  0  0  0  0  0  0  0  0  0  0  0
   -1.6531    1.4091   -0.4852 H   0  0  0  0  0  0  0  0  0  0  0  0
    0.6169   -0.2861   -0.0235 H   0  0  0  0  0  0  0  0  0  0  0  0
    0.9971    0.0910   -2.5656 H   0  0  0  0  0  0  0  0  0  0  0  0
   -0.3688    1.1768   -2.5604 H   0  0  0  0  0  0  0  0  0  0  0  0
    0.6158   -2.3661   -1.9340 H   0  0  0  0  0  0  0  0  0  0  0  0
   -2.6186    0.4009   -2.5985 H   0  0  0  0  0  0  0  0  0  0  0  0
   -0.9437   -4.2580   -2.2557 H   0  0  0  0  0  0  0  0  0  0  0  0
   -4.1699   -1.4976   -2.9184 H   0  0  0  0  0  0  0  0  0  0  0  0
   -3.3372   -3.8289   -2.7477 H   0  0  0  0  0  0  0  0  0  0  0  0
    2.4464    1.4583   -1.3081 N   0  0  0  0  0  0  0  0  0  0  0  0
    3.6140    2.3078   -1.3688 C   0  0  2  0  0  0  0  0  0  0  0  0
    3.1403    3.7511   -1.4786 C   0  0  0  0  0  0  0  0  0  0  0  0
    2.0280    4.0618   -1.8995 O   0  0  0  0  0  0  0  0  0  0  0  0
    4.5069    1.9380   -2.5430 C   0  0  0  0  0  0  0  0  0  0  0  0
    2.3969    0.6609   -1.9355 H   0  0  0  0  0  0  0  0  0  0  0  0
    4.1542    2.1708   -0.4257 H   0  0  0  0  0  0  0  0  0  0  0  0
    3.9829    2.0688   -3.4967 H   0  0  0  0  0  0  0  0  0  0  0  0
    5.4052    2.5636   -2.5708 H   0  0  0  0  0  0  0  0  0  0  0  0
    4.8225    0.8911   -2.4780 H   0  0  0  0  0  0  0  0  0  0  0  0
    4.1216    4.6533   -1.0920 N   0  0  0  0  0  0  0  0  0  0  0  0
    3.9200    6.0832   -1.1182 C   0  0  0  0  0  0  0  0  0  0  0  0
    5.0082    4.3060   -0.7383 H   0  0  0  0  0  0  0  0  0  0  0  0
    4.2655    6.4851   -2.0821 H   0  0  0  0  0  0  0  0  0  0  0  0
    2.8501    6.3049   -0.9910 H   0  0  0  0  0  0  0  0  0  0  0  0
    4.4906    6.5488   -0.3012 H   0  0  0  0  0  0  0  0  0  0  0  0
 25 27  1  0  0  0  0
 26 27  2  0  0  0  0
 23 25  2  0  0  0  0
 24 26  1  0  0  0  0
 22 23  1  0  0  0  0
 22 24  2  0  0  0  0
 21 22  1  0  0  0  0
  1  3  1  0  0  0  0
  1  7  1  0  0  0  0
  1  2  2  0  0  0  0
 38 39  1  0  0  0  0
 39 47  1  0  0  0  0
 39 40  2  0  0  0  0
  8  9  1  0  0  0  0
  9 17  1  0  0  0  0
  9 10  2  0  0  0  0
 18 19  1  0  0  0  0
 19 37  1  0  0  0  0
 19 20  2  0  0  0  0
 38 41  1  0  0  0  0
  8 11  1  0  0  0  0
 47 48  1  0  0  0  0
 18 21  1  0  0  0  0
 37 38  1  0  0  0  0
  7  8  1  0  0  0  0
 17 18  1  0  0  0  0
 27 36  1  0  0  0  0
 25 34  1  0  0  0  0
 26 35  1  0  0  0  0
 23 32  1  0  0  0  0
 24 33  1  0  0  0  0
  3  4  1  0  0  0  0
  3  5  1  0  0  0  0
  3  6  1  0  0  0  0
 41 44  1  0  0  0  0
 41 45  1  0  0  0  0
 41 46  1  0  0  0  0
 11 14  1  0  0  0  0
 11 15  1  0  0  0  0
 11 16  1  0  0  0  0
 48 50  1  0  0  0  0
 48 51  1  0  0  0  0
 48 52  1  0  0  0  0
 21 30  1  0  0  0  0
 21 31  1  0  0  0  0
 38 43  1  0  0  0  0
  8 13  1  0  0  0  0
 18 29  1  0  0  0  0
 47 49  1  0  0  0  0
  7 12  1  0  0  0  0
 37 42  1  0  0  0  0
 17 28  1  0  0  0  0
M  END
$$$$

  -OEChem-05262214473D

 52 52  0     1  0  0  0  0  0999 V2000
   -1.8248    0.3424    3.9102 C   0  0  0  0  0  0  0  0  0  0  0  0
   -0.8774   -0.2723    3.4345 O   0  0  0  0  0  0  0  0  0  0  0  0
   -2.2566    0.0600    5.3109 C   0  0  0  0  0  0  0  0  0  0  0  0
   -3.0163   -0.7363    5.3643 H   0  0  0  0  0  0  0  0  0  0  0  0
   -1.4254   -0.2876    5.9452 H   0  0  0  0  0  0  0  0  0  0  0  0
   -2.6947    0.9149    5.8505 H   0  0  0  0  0  0  0  0  0  0  0  0
   -2.5745    1.3149    3.2691 N   0  0  0  0  0  0  0  0  0  0  0  0
   -2.3276    1.7409    1.9167 C   0  0  2  0  0  0  0  0  0  0  0  0
   -0.9926    1.1555    1.4755 C   0  0  0  0  0  0  0  0  0  0  0  0
   -0.1206    0.8028    2.2668 O   0  0  0  0  0  0  0  0  0  0  0  0
   -2.3188    3.2577    1.8072 C   0  0  0  0  0  0  0  0  0  0  0  0
   -3.3395    1.7507    3.7809 H   0  0  0  0  0  0  0  0  0  0  0  0
   -3.1317    1.3224    1.3015 H   0  0  0  0  0  0  0  0  0  0  0  0
   -1.5198    3.6949    2.4169 H   0  0  0  0  0  0  0  0  0  0  0  0
   -2.1594    3.5799    0.7729 H   0  0  0  0  0  0  0  0  0  0  0  0
   -3.2690    3.6789    2.1530 H   0  0  0  0  0  0  0  0  0  0  0  0
   -0.8700    1.1124    0.0921 N   0  0  0  0  0  0  0  0  0  0  0  0
    0.3073    0.6116   -0.5716 C   0  0  2  0  0  0  0  0  0  0  0  0
    1.3892    1.6771   -0.4358 C   0  0  0  0  0  0  0  0  0  0  0  0
    1.4775    2.4206    0.5391 O   0  0  0  0  0  0  0  0  0  0  0  0
    0.0497    0.2991   -2.0501 C   0  0  0  0  0  0  0  0  0  0  0  0
   -0.8992   -0.8581   -2.2454 C   0  0  0  0  0  0  0  0  0  0  0  0
   -0.4310   -2.1686   -2.1492 C   0  0  0  0  0  0  0  0  0  0  0  0
   -2.2449   -0.6168   -2.5218 C   0  0  0  0  0  0  0  0  0  0  0  0
   -1.3086   -3.2377   -2.3295 C   0  0  0  0  0  0  0  0  0  0  0  0
   -3.1225   -1.6859   -2.7022 C   0  0  0  0  0  0  0  0  0  0  0  0
   -2.6543   -2.9963   -2.6059 C   0  0  0  0  0  0  0  0  0  0  0  0
   -1.6531    1.4091   -0.4852 H   0  0  0  0  0  0  0  0  0  0  0  0
    0.6169   -0.2861   -0.0235 H   0  0  0  0  0  0  0  0  0  0  0  0
    0.9971    0.0910   -2.5656 H   0  0  0  0  0  0  0  0  0  0  0  0
   -0.3688    1.1768   -2.5604 H   0  0  0  0  0  0  0  0  0  0  0  0
    0.6158   -2.3661   -1.9340 H   0  0  0  0  0  0  0  0  0  0  0  0
   -2.6186    0.4009   -2.5985 H   0  0  0  0  0  0  0  0  0  0  0  0
   -0.9437   -4.2580   -2.2557 H   0  0  0  0  0  0  0  0  0  0  0  0
   -4.1699   -1.4976   -2.9184 H   0  0  0  0  0  0  0  0  0  0  0  0
   -3.3372   -3.8289   -2.7477 H   0  0  0  0  0  0  0  0  0  0  0  0
    2.2702    1.6627   -1.5082 N   0  0  0  0  0  0  0  0  0  0  0  0
    3.4017    2.5551   -1.6177 C   0  0  2  0  0  0  0  0  0  0  0  0
    2.9071    3.9743   -1.3710 C   0  0  0  0  0  0  0  0  0  0  0  0
    1.7346    4.3115   -1.5211 O   0  0  0  0  0  0  0  0  0  0  0  0
    4.0669    2.4406   -2.9805 C   0  0  0  0  0  0  0  0  0  0  0  0
    2.1116    0.9912   -2.2537 H   0  0  0  0  0  0  0  0  0  0  0  0
    4.1062    2.2709   -0.8285 H   0  0  0  0  0  0  0  0  0  0  0  0
    3.3763    2.7214   -3.7840 H   0  0  0  0  0  0  0  0  0  0  0  0
    4.9410    3.0963   -3.0517 H   0  0  0  0  0  0  0  0  0  0  0  0
    4.3954    1.4127   -3.1687 H   0  0  0  0  0  0  0  0  0  0  0  0
    3.9369    4.8297   -1.0052 N   0  0  0  0  0  0  0  0  0  0  0  0
    3.7251    6.2314   -0.7289 C   0  0  0  0  0  0  0  0  0  0  0  0
    4.8754    4.4598   -0.8865 H   0  0  0  0  0  0  0  0  0  0  0  0
    3.8859    6.8151   -1.6472 H   0  0  0  0  0  0  0  0  0  0  0  0
    2.6952    6.3834   -0.3735 H   0  0  0  0  0  0  0  0  0  0  0  0
    4.4328    6.5634    0.0451 H   0  0  0  0  0  0  0  0  0  0  0  0
 25 27  1  0  0  0  0
 26 27  2  0  0  0  0
 23 25  2  0  0  0  0
 24 26  1  0  0  0  0
 22 23  1  0  0  0  0
 22 24  2  0  0  0  0
 21 22  1  0  0  0  0
  1  3  1  0  0  0  0
  1  7  1  0  0  0  0
  1  2  2  0  0  0  0
 38 39  1  0  0  0  0
 39 47  1  0  0  0  0
 39 40  2  0  0  0  0
  8  9  1  0  0  0  0
  9 17  1  0  0  0  0
  9 10  2  0  0  0  0
 18 19  1  0  0  0  0
 19 37  1  0  0  0  0
 19 20  2  0  0  0  0
 38 41  1  0  0  0  0
  8 11  1  0  0  0  0
 47 48  1  0  0  0  0
 18 21  1  0  0  0  0
 37 38  1  0  0  0  0
  7  8  1  0  0  0  0
 17 18  1  0  0  0  0
 27 36  1  0  0  0  0
 25 34  1  0  0  0  0
 26 35  1  0  0  0  0
 23 32  1  0  0  0  0
 24 33  1  0  0  0  0
  3  4  1  0  0  0  0
  3  5  1  0  0  0  0
  3  6  1  0  0  0  0
 41 44  1  0  0  0  0
 41 45  1  0  0  0  0
 41 46  1  0  0  0  0
 11 14  1  0  0  0  0
 11 15  1  0  0  0  0
 11 16  1  0  0  0  0
 48 50  1  0  0  0  0
 48 51  1  0  0  0  0
 48 52  1  0  0  0  0
 21 30  1  0  0  0  0
 21 31  1  0  0  0  0
 38 43  1  0  0  0  0
  8 13  1  0  0  0  0
 18 29  1  0  0  0  0
 47 49  1  0  0  0  0
  7 12  1  0  0  0  0
 37 42  1  0  0  0  0
 17 28  1  0  0  0  0
M  END
$$$$

  -OEChem-05262214473D

 52 52  0     1  0  0  0  0  0999 V2000
   -1.8248    0.3424    3.9102 C   0  0  0  0  0  0  0  0  0  0  0  0
   -0.8774   -0.2723    3.4345 O   0  0  0  0  0  0  0  0  0  0  0  0
   -2.2566    0.0600    5.3109 C   0  0  0  0  0  0  0  0  0  0  0  0
   -3.0163   -0.7363    5.3643 H   0  0  0  0  0  0  0  0  0  0  0  0
   -1.4254   -0.2876    5.9452 H   0  0  0  0  0  0  0  0  0  0  0  0
   -2.6947    0.9149    5.8505 H   0  0  0  0  0  0  0  0  0  0  0  0
   -2.5745    1.3149    3.2691 N   0  0  0  0  0  0  0  0  0  0  0  0
   -2.3276    1.7409    1.9167 C   0  0  2  0  0  0  0  0  0  0  0  0
   -0.9926    1.1555    1.4755 C   0  0  0  0  0  0  0  0  0  0  0  0
   -0.1206    0.8028    2.2668 O   0  0  0  0  0  0  0  0  0  0  0  0
   -2.3188    3.2577    1.8072 C   0  0  0  0  0  0  0  0  0  0  0  0
   -3.3395    1.7507    3.7809 H   0  0  0  0  0  0  0  0  0  0  0  0
   -3.1317    1.3224    1.3015 H   0  0  0  0  0  0  0  0  0  0  0  0
   -1.5198    3.6949    2.4169 H   0  0  0  0  0  0  0  0  0  0  0  0
   -2.1594    3.5799    0.7729 H   0  0  0  0  0  0  0  0  0  0  0  0
   -3.2690    3.6789    2.1530 H   0  0  0  0  0  0  0  0  0  0  0  0
   -0.8700    1.1124    0.0921 N   0  0  0  0  0  0  0  0  0  0  0  0
    0.3073    0.6116   -0.5716 C   0  0  2  0  0  0  0  0  0  0  0  0
    1.3892    1.6771   -0.4358 C   0  0  0  0  0  0  0  0  0  0  0  0
    1.6499    2.2342    0.6285 O   0  0  0  0  0  0  0  0  0  0  0  0
    0.0497    0.2991   -2.0501 C   0  0  0  0  0  0  0  0  0  0  0  0
   -0.8992   -0.8581   -2.2454 C   0  0  0  0  0  0  0  0  0  0  0  0
   -0.4310   -2.1686   -2.1492 C   0  0  0  0  0  0  0  0  0  0  0  0
   -2.2449   -0.6168   -2.5218 C   0  0  0  0  0  0  0  0  0  0  0  0
   -1.3086   -3.2377   -2.3295 C   0  0  0  0  0  0  0  0  0  0  0  0
   -3.1225   -1.6859   -2.7022 C   0  0  0  0  0  0  0  0  0  0  0  0
   -2.6543   -2.9963   -2.6059 C   0  0  0  0  0  0  0  0  0  0  0  0
   -1.6531    1.4091   -0.4852 H   0  0  0  0  0  0  0  0  0  0  0  0
    0.6169   -0.2861   -0.0235 H   0  0  0  0  0  0  0  0  0  0  0  0
    0.9971    0.0910   -2.5656 H   0  0  0  0  0  0  0  0  0  0  0  0
   -0.3688    1.1768   -2.5604 H   0  0  0  0  0  0  0  0  0  0  0  0
    0.6158   -2.3661   -1.9340 H   0  0  0  0  0  0  0  0  0  0  0  0
   -2.6186    0.4009   -2.5985 H   0  0  0  0  0  0  0  0  0  0  0  0
   -0.9437   -4.2580   -2.2557 H   0  0  0  0  0  0  0  0  0  0  0  0
   -4.1699   -1.4976   -2.9184 H   0  0  0  0  0  0  0  0  0  0  0  0
   -3.3372   -3.8289   -2.7477 H   0  0  0  0  0  0  0  0  0  0  0  0
    2.0590    1.8929   -1.6321 N   0  0  0  0  0  0  0  0  0  0  0  0
    3.1459    2.8348   -1.7743 C   0  0  2  0  0  0  0  0  0  0  0  0
    2.6961    4.1647   -1.1839 C   0  0  0  0  0  0  0  0  0  0  0  0
    1.5138    4.4765   -1.0567 O   0  0  0  0  0  0  0  0  0  0  0  0
    3.5511    2.9963   -3.2312 C   0  0  0  0  0  0  0  0  0  0  0  0
    1.7709    1.3620   -2.4488 H   0  0  0  0  0  0  0  0  0  0  0  0
    3.9847    2.4404   -1.1905 H   0  0  0  0  0  0  0  0  0  0  0  0
    2.7234    3.3905   -3.8320 H   0  0  0  0  0  0  0  0  0  0  0  0
    4.3933    3.6884   -3.3344 H   0  0  0  0  0  0  0  0  0  0  0  0
    3.8460    2.0336   -3.6627 H   0  0  0  0  0  0  0  0  0  0  0  0
    3.7702    4.9799   -0.8555 N   0  0  0  0  0  0  0  0  0  0  0  0
    3.6039    6.2985   -0.2903 C   0  0  0  0  0  0  0  0  0  0  0  0
    4.7168    4.6324   -0.9773 H   0  0  0  0  0  0  0  0  0  0  0  0
    3.5903    7.0452   -1.0979 H   0  0  0  0  0  0  0  0  0  0  0  0
    2.6555    6.3423    0.2654 H   0  0  0  0  0  0  0  0  0  0  0  0
    4.4392    6.5126    0.3927 H   0  0  0  0  0  0  0  0  0  0  0  0
 25 27  1  0  0  0  0
 26 27  2  0  0  0  0
 23 25  2  0  0  0  0
 24 26  1  0  0  0  0
 22 23  1  0  0  0  0
 22 24  2  0  0  0  0
 21 22  1  0  0  0  0
  1  3  1  0  0  0  0
  1  7  1  0  0  0  0
  1  2  2  0  0  0  0
 38 39  1  0  0  0  0
 39 47  1  0  0  0  0
 39 40  2  0  0  0  0
  8  9  1  0  0  0  0
  9 17  1  0  0  0  0
  9 10  2  0  0  0  0
 18 19  1  0  0  0  0
 19 37  1  0  0  0  0
 19 20  2  0  0  0  0
 38 41  1  0  0  0  0
  8 11  1  0  0  0  0
 47 48  1  0  0  0  0
 18 21  1  0  0  0  0
 37 38  1  0  0  0  0
  7  8  1  0  0  0  0
 17 18  1  0  0  0  0
 27 36  1  0  0  0  0
 25 34  1  0  0  0  0
 26 35  1  0  0  0  0
 23 32  1  0  0  0  0
 24 33  1  0  0  0  0
  3  4  1  0  0  0  0
  3  5  1  0  0  0  0
  3  6  1  0  0  0  0
 41 44  1  0  0  0  0
 41 45  1  0  0  0  0
 41 46  1  0  0  0  0
 11 14  1  0  0  0  0
 11 15  1  0  0  0  0
 11 16  1  0  0  0  0
 48 50  1  0  0  0  0
 48 51  1  0  0  0  0
 48 52  1  0  0  0  0
 21 30  1  0  0  0  0
 21 31  1  0  0  0  0
 38 43  1  0  0  0  0
  8 13  1  0  0  0  0
 18 29  1  0  0  0  0
 47 49  1  0  0  0  0
  7 12  1  0  0  0  0
 37 42  1  0  0  0  0
 17 28  1  0  0  0  0
M  END
$$$$

  -OEChem-05262214473D

 52 52  0     1  0  0  0  0  0999 V2000
   -1.8248    0.3424    3.9102 C   0  0  0  0  0  0  0  0  0  0  0  0
   -0.8774   -0.2723    3.4345 O   0  0  0  0  0  0  0  0  0  0  0  0
   -2.2566    0.0600    5.3109 C   0  0  0  0  0  0  0  0  0  0  0  0
   -3.0163   -0.7363    5.3643 H   0  0  0  0  0  0  0  0  0  0  0  0
   -1.4254   -0.2876    5.9452 H   0  0  0  0  0  0  0  0  0  0  0  0
   -2.6947    0.9149    5.8505 H   0  0  0  0  0  0  0  0  0  0  0  0
   -2.5745    1.3149    3.2691 N   0  0  0  0  0  0  0  0  0  0  0  0
   -2.3276    1.7409    1.9167 C   0  0  2  0  0  0  0  0  0  0  0  0
   -0.9926    1.1555    1.4755 C   0  0  0  0  0  0  0  0  0  0  0  0
   -0.1206    0.8028    2.2668 O   0  0  0  0  0  0  0  0  0  0  0  0
   -2.3188    3.2577    1.8072 C   0  0  0  0  0  0  0  0  0  0  0  0
   -3.3395    1.7507    3.7809 H   0  0  0  0  0  0  0  0  0  0  0  0
   -3.1317    1.3224    1.3015 H   0  0  0  0  0  0  0  0  0  0  0  0
   -1.5198    3.6949    2.4169 H   0  0  0  0  0  0  0  0  0  0  0  0
   -2.1594    3.5799    0.7729 H   0  0  0  0  0  0  0  0  0  0  0  0
   -3.2690    3.6789    2.1530 H   0  0  0  0  0  0  0  0  0  0  0  0
   -0.8700    1.1124    0.0921 N   0  0  0  0  0  0  0  0  0  0  0  0
    0.3073    0.6116   -0.5716 C   0  0  2  0  0  0  0  0  0  0  0  0
    1.3892    1.6771   -0.4358 C   0  0  0  0  0  0  0  0  0  0  0  0
    1.8368    2.0416    0.6494 O   0  0  0  0  0  0  0  0  0  0  0  0
    0.0497    0.2991   -2.0501 C   0  0  0  0  0  0  0  0  0  0  0  0
   -0.8992   -0.8581   -2.2454 C   0  0  0  0  0  0  0  0  0  0  0  0
   -0.4310   -2.1686   -2.1492 C   0  0  0  0  0  0  0  0  0  0  0  0
   -2.2449   -0.6168   -2.5218 C   0  0  0  0  0  0  0  0  0  0  0  0
   -1.3086   -3.2377   -2.3295 C   0  0  0  0  0  0  0  0  0  0  0  0
   -3.1225   -1.6859   -2.7022 C   0  0  0  0  0  0  0  0  0  0  0  0
   -2.6543   -2.9963   -2.6059 C   0  0  0  0  0  0  0  0  0  0  0  0
   -1.6531    1.4091   -0.4852 H   0  0  0  0  0  0  0  0  0  0  0  0
    0.6169   -0.2861   -0.0235 H   0  0  0  0  0  0  0  0  0  0  0  0
    0.9971    0.0910   -2.5656 H   0  0  0  0  0  0  0  0  0  0  0  0
   -0.3688    1.1768   -2.5604 H   0  0  0  0  0  0  0  0  0  0  0  0
    0.6158   -2.3661   -1.9340 H   0  0  0  0  0  0  0  0  0  0  0  0
   -2.6186    0.4009   -2.5985 H   0  0  0  0  0  0  0  0  0  0  0  0
   -0.9437   -4.2580   -2.2557 H   0  0  0  0  0  0  0  0  0  0  0  0
   -4.1699   -1.4976   -2.9184 H   0  0  0  0  0  0  0  0  0  0  0  0
   -3.3372   -3.8289   -2.7477 H   0  0  0  0  0  0  0  0  0  0  0  0
    1.8274    2.1331   -1.6713 N   0  0  0  0  0  0  0  0  0  0  0  0
    2.8641    3.1278   -1.8280 C   0  0  2  0  0  0  0  0  0  0  0  0
    2.5217    4.3093   -0.9300 C   0  0  0  0  0  0  0  0  0  0  0  0
    1.3808    4.5454   -0.5379 O   0  0  0  0  0  0  0  0  0  0  0  0
    2.9948    3.5672   -3.2780 C   0  0  0  0  0  0  0  0  0  0  0  0
    1.3979    1.7483   -2.5075 H   0  0  0  0  0  0  0  0  0  0  0  0
    3.7980    2.6678   -1.4870 H   0  0  0  0  0  0  0  0  0  0  0  0
    2.0686    4.0305   -3.6373 H   0  0  0  0  0  0  0  0  0  0  0  0
    3.7996    4.2996   -3.3997 H   0  0  0  0  0  0  0  0  0  0  0  0
    3.2116    2.7114   -3.9265 H   0  0  0  0  0  0  0  0  0  0  0  0
    3.6327    5.0937   -0.6533 N   0  0  0  0  0  0  0  0  0  0  0  0
    3.5646    6.2801    0.1676 C   0  0  0  0  0  0  0  0  0  0  0  0
    4.5432    4.8122   -1.0047 H   0  0  0  0  0  0  0  0  0  0  0  0
    3.3988    7.1598   -0.4716 H   0  0  0  0  0  0  0  0  0  0  0  0
    2.7337    6.1842    0.8821 H   0  0  0  0  0  0  0  0  0  0  0  0
    4.5095    6.3997    0.7180 H   0  0  0  0  0  0  0  0  0  0  0  0
 25 27  1  0  0  0  0
 26 27  2  0  0  0  0
 23 25  2  0  0  0  0
 24 26  1  0  0  0  0
 22 23  1  0  0  0  0
 22 24  2  0  0  0  0
 21 22  1  0  0  0  0
  1  3  1  0  0  0  0
  1  7  1  0  0  0  0
  1  2  2  0  0  0  0
 38 39  1  0  0  0  0
 39 47  1  0  0  0  0
 39 40  2  0  0  0  0
  8  9  1  0  0  0  0
  9 17  1  0  0  0  0
  9 10  2  0  0  0  0
 18 19  1  0  0  0  0
 19 37  1  0  0  0  0
 19 20  2  0  0  0  0
 38 41  1  0  0  0  0
  8 11  1  0  0  0  0
 47 48  1  0  0  0  0
 18 21  1  0  0  0  0
 37 38  1  0  0  0  0
  7  8  1  0  0  0  0
 17 18  1  0  0  0  0
 27 36  1  0  0  0  0
 25 34  1  0  0  0  0
 26 35  1  0  0  0  0
 23 32  1  0  0  0  0
 24 33  1  0  0  0  0
  3  4  1  0  0  0  0
  3  5  1  0  0  0  0
  3  6  1  0  0  0  0
 41 44  1  0  0  0  0
 41 45  1  0  0  0  0
 41 46  1  0  0  0  0
 11 14  1  0  0  0  0
 11 15  1  0  0  0  0
 11 16  1  0  0  0  0
 48 50  1  0  0  0  0
 48 51  1  0  0  0  0
 48 52  1  0  0  0  0
 21 30  1  0  0  0  0
 21 31  1  0  0  0  0
 38 43  1  0  0  0  0
  8 13  1  0  0  0  0
 18 29  1  0  0  0  0
 47 49  1  0  0  0  0
  7 12  1  0  0  0  0
 37 42  1  0  0  0  0
 17 28  1  0  0  0  0
M  END
$$$$

  -OEChem-05262214473D

 52 52  0     1  0  0  0  0  0999 V2000
   -1.8248    0.3424    3.9102 C   0  0  0  0  0  0  0  0  0  0  0  0
   -0.8774   -0.2723    3.4345 O   0  0  0  0  0  0  0  0  0  0  0  0
   -2.2566    0.0600    5.3109 C   0  0  0  0  0  0  0  0  0  0  0  0
   -3.0163   -0.7363    5.3643 H   0  0  0  0  0  0  0  0  0  0  0  0
   -1.4254   -0.2876    5.9452 H   0  0  0  0  0  0  0  0  0  0  0  0
   -2.6947    0.9149    5.8505 H   0  0  0  0  0  0  0  0  0  0  0  0
   -2.5745    1.3149    3.2691 N   0  0  0  0  0  0  0  0  0  0  0  0
   -2.3276    1.7409    1.9167 C   0  0  2  0  0  0  0  0  0  0  0  0
   -0.9926    1.1555    1.4755 C   0  0  0  0  0  0  0  0  0  0  0  0
   -0.1206    0.8028    2.2668 O   0  0  0  0  0  0  0  0  0  0  0  0
   -2.3188    3.2577    1.8072 C   0  0  0  0  0  0  0  0  0  0  0  0
   -3.3395    1.7507    3.7809 H   0  0  0  0  0  0  0  0  0  0  0  0
   -3.1317    1.3224    1.3015 H   0  0  0  0  0  0  0  0  0  0  0  0
   -1.5198    3.6949    2.4169 H   0  0  0  0  0  0  0  0  0  0  0  0
   -2.1594    3.5799    0.7729 H   0  0  0  0  0  0  0  0  0  0  0  0
   -3.2690    3.6789    2.1530 H   0  0  0  0  0  0  0  0  0  0  0  0
   -0.8700    1.1124    0.0921 N   0  0  0  0  0  0  0  0  0  0  0  0
    0.3073    0.6116   -0.5716 C   0  0  2  0  0  0  0  0  0  0  0  0
    1.3892    1.6771   -0.4358 C   0  0  0  0  0  0  0  0  0  0  0  0
    2.0257    1.8562    0.6005 O   0  0  0  0  0  0  0  0  0  0  0  0
    0.0497    0.2991   -2.0501 C   0  0  0  0  0  0  0  0  0  0  0  0
   -0.8992   -0.8581   -2.2454 C   0  0  0  0  0  0  0  0  0  0  0  0
   -0.4310   -2.1686   -2.1492 C   0  0  0  0  0  0  0  0  0  0  0  0
   -2.2449   -0.6168   -2.5218 C   0  0  0  0  0  0  0  0  0  0  0  0
   -1.3086   -3.2377   -2.3295 C   0  0  0  0  0  0  0  0  0  0  0  0
   -3.1225   -1.6859   -2.7022 C   0  0  0  0  0  0  0  0  0  0  0  0
   -2.6543   -2.9963   -2.6059 C   0  0  0  0  0  0  0  0  0  0  0  0
   -1.6531    1.4091   -0.4852 H   0  0  0  0  0  0  0  0  0  0  0  0
    0.6169   -0.2861   -0.0235 H   0  0  0  0  0  0  0  0  0  0  0  0
    0.9971    0.0910   -2.5656 H   0  0  0  0  0  0  0  0  0  0  0  0
   -0.3688    1.1768   -2.5604 H   0  0  0  0  0  0  0  0  0  0  0  0
    0.6158   -2.3661   -1.9340 H   0  0  0  0  0  0  0  0  0  0  0  0
   -2.6186    0.4009   -2.5985 H   0  0  0  0  0  0  0  0  0  0  0  0
   -0.9437   -4.2580   -2.2557 H   0  0  0  0  0  0  0  0  0  0  0  0
   -4.1699   -1.4976   -2.9184 H   0  0  0  0  0  0  0  0  0  0  0  0
   -3.3372   -3.8289   -2.7477 H   0  0  0  0  0  0  0  0  0  0  0  0
    1.5910    2.3669   -1.6231 N   0  0  0  0  0  0  0  0  0  0  0  0
    2.5754    3.4143   -1.7750 C   0  0  2  0  0  0  0  0  0  0  0  0
    2.3959    4.3984   -0.6266 C   0  0  0  0  0  0  0  0  0  0  0  0
    1.3446    4.5136    0.0000 O   0  0  0  0  0  0  0  0  0  0  0  0
    2.4357    4.1144   -3.1177 C   0  0  0  0  0  0  0  0  0  0  0  0
    1.0181    2.1235   -2.4258 H   0  0  0  0  0  0  0  0  0  0  0  0
    3.5587    2.9377   -1.6979 H   0  0  0  0  0  0  0  0  0  0  0  0
    1.4566    4.5979   -3.2133 H   0  0  0  0  0  0  0  0  0  0  0  0
    3.2001    4.8883   -3.2430 H   0  0  0  0  0  0  0  0  0  0  0  0
    2.5354    3.4000   -3.9420 H   0  0  0  0  0  0  0  0  0  0  0  0
    3.5339    5.1633   -0.4121 N   0  0  0  0  0  0  0  0  0  0  0  0
    3.6099    6.1772    0.6136 C   0  0  0  0  0  0  0  0  0  0  0  0
    4.3664    4.9868   -0.9667 H   0  0  0  0  0  0  0  0  0  0  0  0
    3.3245    7.1511    0.1891 H   0  0  0  0  0  0  0  0  0  0  0  0
    2.9245    5.9201    1.4346 H   0  0  0  0  0  0  0  0  0  0  0  0
    4.6388    6.2326    0.9987 H   0  0  0  0  0  0  0  0  0  0  0  0
 25 27  1  0  0  0  0
 26 27  2  0  0  0  0
 23 25  2  0  0  0  0
 24 26  1  0  0  0  0
 22 23  1  0  0  0  0
 22 24  2  0  0  0  0
 21 22  1  0  0  0  0
  1  3  1  0  0  0  0
  1  7  1  0  0  0  0
  1  2  2  0  0  0  0
 38 39  1  0  0  0  0
 39 47  1  0  0  0  0
 39 40  2  0  0  0  0
  8  9  1  0  0  0  0
  9 17  1  0  0  0  0
  9 10  2  0  0  0  0
 18 19  1  0  0  0  0
 19 37  1  0  0  0  0
 19 20  2  0  0  0  0
 38 41  1  0  0  0  0
  8 11  1  0  0  0  0
 47 48  1  0  0  0  0
 18 21  1  0  0  0  0
 37 38  1  0  0  0  0
  7  8  1  0  0  0  0
 17 18  1  0  0  0  0
 27 36  1  0  0  0  0
 25 34  1  0  0  0  0
 26 35  1  0  0  0  0
 23 32  1  0  0  0  0
 24 33  1  0  0  0  0
  3  4  1  0  0  0  0
  3  5  1  0  0  0  0
  3  6  1  0  0  0  0
 41 44  1  0  0  0  0
 41 45  1  0  0  0  0
 41 46  1  0  0  0  0
 11 14  1  0  0  0  0
 11 15  1  0  0  0  0
 11 16  1  0  0  0  0
 48 50  1  0  0  0  0
 48 51  1  0  0  0  0
 48 52  1  0  0  0  0
 21 30  1  0  0  0  0
 21 31  1  0  0  0  0
 38 43  1  0  0  0  0
  8 13  1  0  0  0  0
 18 29  1  0  0  0  0
 47 49  1  0  0  0  0
  7 12  1  0  0  0  0
 37 42  1  0  0  0  0
 17 28  1  0  0  0  0
M  END
$$$$

  -OEChem-05262214473D

 52 52  0     1  0  0  0  0  0999 V2000
   -1.8248    0.3424    3.9102 C   0  0  0  0  0  0  0  0  0  0  0  0
   -0.8774   -0.2723    3.4345 O   0  0  0  0  0  0  0  0  0  0  0  0
   -2.2566    0.0600    5.3109 C   0  0  0  0  0  0  0  0  0  0  0  0
   -3.0163   -0.7363    5.3643 H   0  0  0  0  0  0  0  0  0  0  0  0
   -1.4254   -0.2876    5.9452 H   0  0  0  0  0  0  0  0  0  0  0  0
   -2.6947    0.9149    5.8505 H   0  0  0  0  0  0  0  0  0  0  0  0
   -2.5745    1.3149    3.2691 N   0  0  0  0  0  0  0  0  0  0  0  0
   -2.3276    1.7409    1.9167 C   0  0  2  0  0  0  0  0  0  0  0  0
   -0.9926    1.1555    1.4755 C   0  0  0  0  0  0  0  0  0  0  0  0
   -0.1206    0.8028    2.2668 O   0  0  0  0  0  0  0  0  0  0  0  0
   -2.3188    3.2577    1.8072 C   0  0  0  0  0  0  0  0  0  0  0  0
   -3.3395    1.7507    3.7809 H   0  0  0  0  0  0  0  0  0  0  0  0
   -3.1317    1.3224    1.3015 H   0  0  0  0  0  0  0  0  0  0  0  0
   -1.5198    3.6949    2.4169 H   0  0  0  0  0  0  0  0  0  0  0  0
   -2.1594    3.5799    0.7729 H   0  0  0  0  0  0  0  0  0  0  0  0
   -3.2690    3.6789    2.1530 H   0  0  0  0  0  0  0  0  0  0  0  0
   -0.8700    1.1124    0.0921 N   0  0  0  0  0  0  0  0  0  0  0  0
    0.3073    0.6116   -0.5716 C   0  0  2  0  0  0  0  0  0  0  0  0
    1.3892    1.6771   -0.4358 C   0  0  0  0  0  0  0  0  0  0  0  0
    2.2035    1.6903    0.4850 O   0  0  0  0  0  0  0  0  0  0  0  0
    0.0497    0.2991   -2.0501 C   0  0  0  0  0  0  0  0  0  0  0  0
   -0.8992   -0.8581   -2.2454 C   0  0  0  0  0  0  0  0  0  0  0  0
   -0.4310   -2.1686   -2.1492 C   0  0  0  0  0  0  0  0  0  0  0  0
   -2.2449   -0.6168   -2.5218 C   0  0  0  0  0  0  0  0  0  0  0  0
   -1.3086   -3.2377   -2.3295 C   0  0  0  0  0  0  0  0  0  0  0  0
   -3.1225   -1.6859   -2.7022 C   0  0  0  0  0  0  0  0  0  0  0  0
   -2.6543   -2.9963   -2.6059 C   0  0  0  0  0  0  0  0  0  0  0  0
   -1.6531    1.4091   -0.4852 H   0  0  0  0  0  0  0  0  0  0  0  0
    0.6169   -0.2861   -0.0235 H   0  0  0  0  0  0  0  0  0  0  0  0
    0.9971    0.0910   -2.5656 H   0  0  0  0  0  0  0  0  0  0  0  0
   -0.3688    1.1768   -2.5604 H   0  0  0  0  0  0  0  0  0  0  0  0
    0.6158   -2.3661   -1.9340 H   0  0  0  0  0  0  0  0  0  0  0  0
   -2.6186    0.4009   -2.5985 H   0  0  0  0  0  0  0  0  0  0  0  0
   -0.9437   -4.2580   -2.2557 H   0  0  0  0  0  0  0  0  0  0  0  0
   -4.1699   -1.4976   -2.9184 H   0  0  0  0  0  0  0  0  0  0  0  0
   -3.3372   -3.8289   -2.7477 H   0  0  0  0  0  0  0  0  0  0  0  0
    1.3660    2.5786   -1.4909 N   0  0  0  0  0  0  0  0  0  0  0  0
    2.2995    3.6745   -1.6189 C   0  0  2  0  0  0  0  0  0  0  0  0
    2.3272    4.4259   -0.2945 C   0  0  0  0  0  0  0  0  0  0  0  0
    1.4077    4.3832    0.5202 O   0  0  0  0  0  0  0  0  0  0  0  0
    1.9121    4.6006   -2.7613 C   0  0  0  0  0  0  0  0  0  0  0  0
    0.6574    2.4622   -2.2092 H   0  0  0  0  0  0  0  0  0  0  0  0
    3.2832    3.2315   -1.8088 H   0  0  0  0  0  0  0  0  0  0  0  0
    0.9291    5.0539   -2.5888 H   0  0  0  0  0  0  0  0  0  0  0  0
    2.6359    5.4144   -2.8752 H   0  0  0  0  0  0  0  0  0  0  0  0
    1.8637    4.0523   -3.7083 H   0  0  0  0  0  0  0  0  0  0  0  0
    3.4805    5.1839   -0.1485 N   0  0  0  0  0  0  0  0  0  0  0  0
    3.7367    5.9970    1.0173 C   0  0  0  0  0  0  0  0  0  0  0  0
    4.1985    5.1445   -0.8660 H   0  0  0  0  0  0  0  0  0  0  0  0
    3.3724    7.0195    0.8392 H   0  0  0  0  0  0  0  0  0  0  0  0
    3.2147    5.5680    1.8853 H   0  0  0  0  0  0  0  0  0  0  0  0
    4.8184    6.0226    1.2158 H   0  0  0  0  0  0  0  0  0  0  0  0
 25 27  1  0  0  0  0
 26 27  2  0  0  0  0
 23 25  2  0  0  0  0
 24 26  1  0  0  0  0
 22 23  1  0  0  0  0
 22 24  2  0  0  0  0
 21 22  1  0  0  0  0
  1  3  1  0  0  0  0
  1  7  1  0  0  0  0
  1  2  2  0  0  0  0
 38 39  1  0  0  0  0
 39 47  1  0  0  0  0
 39 40  2  0  0  0  0
  8  9  1  0  0  0  0
  9 17  1  0  0  0  0
  9 10  2  0  0  0  0
 18 19  1  0  0  0  0
 19 37  1  0  0  0  0
 19 20  2  0  0  0  0
 38 41  1  0  0  0  0
  8 11  1  0  0  0  0
 47 48  1  0  0  0  0
 18 21  1  0  0  0  0
 37 38  1  0  0  0  0
  7  8  1  0  0  0  0
 17 18  1  0  0  0  0
 27 36  1  0  0  0  0
 25 34  1  0  0  0  0
 26 35  1  0  0  0  0
 23 32  1  0  0  0  0
 24 33  1  0  0  0  0
  3  4  1  0  0  0  0
  3  5  1  0  0  0  0
  3  6  1  0  0  0  0
 41 44  1  0  0  0  0
 41 45  1  0  0  0  0
 41 46  1  0  0  0  0
 11 14  1  0  0  0  0
 11 15  1  0  0  0  0
 11 16  1  0  0  0  0
 48 50  1  0  0  0  0
 48 51  1  0  0  0  0
 48 52  1  0  0  0  0
 21 30  1  0  0  0  0
 21 31  1  0  0  0  0
 38 43  1  0  0  0  0
  8 13  1  0  0  0  0
 18 29  1  0  0  0  0
 47 49  1  0  0  0  0
  7 12  1  0  0  0  0
 37 42  1  0  0  0  0
 17 28  1  0  0  0  0
M  END
$$$$

  -OEChem-05262214473D

 52 52  0     1  0  0  0  0  0999 V2000
   -1.8248    0.3424    3.9102 C   0  0  0  0  0  0  0  0  0  0  0  0
   -0.8774   -0.2723    3.4345 O   0  0  0  0  0  0  0  0  0  0  0  0
   -2.2566    0.0600    5.3109 C   0  0  0  0  0  0  0  0  0  0  0  0
   -3.0163   -0.7363    5.3643 H   0  0  0  0  0  0  0  0  0  0  0  0
   -1.4254   -0.2876    5.9452 H   0  0  0  0  0  0  0  0  0  0  0  0
   -2.6947    0.9149    5.8505 H   0  0  0  0  0  0  0  0  0  0  0  0
   -2.5745    1.3149    3.2691 N   0  0  0  0  0  0  0  0  0  0  0  0
   -2.3276    1.7409    1.9167 C   0  0  2  0  0  0  0  0  0  0  0  0
   -0.9926    1.1555    1.4755 C   0  0  0  0  0  0  0  0  0  0  0  0
   -0.1206    0.8028    2.2668 O   0  0  0  0  0  0  0  0  0  0  0  0
   -2.3188    3.2577    1.8072 C   0  0  0  0  0  0  0  0  0  0  0  0
   -3.3395    1.7507    3.7809 H   0  0  0  0  0  0  0  0  0  0  0  0
   -3.1317    1.3224    1.3015 H   0  0  0  0  0  0  0  0  0  0  0  0
   -1.5198    3.6949    2.4169 H   0  0  0  0  0  0  0  0  0  0  0  0
   -2.1594    3.5799    0.7729 H   0  0  0  0  0  0  0  0  0  0  0  0
   -3.2690    3.6789    2.1530 H   0  0  0  0  0  0  0  0  0  0  0  0
   -0.8700    1.1124    0.0921 N   0  0  0  0  0  0  0  0  0  0  0  0
    0.3073    0.6116   -0.5716 C   0  0  2  0  0  0  0  0  0  0  0  0
    1.3892    1.6771   -0.4358 C   0  0  0  0  0  0  0  0  0  0  0  0
    2.3581    1.5555    0.3108 O   0  0  0  0  0  0  0  0  0  0  0  0
    0.0497    0.2991   -2.0501 C   0  0  0  0  0  0  0  0  0  0  0  0
   -0.8992   -0.8581   -2.2454 C   0  0  0  0  0  0  0  0  0  0  0  0
   -0.4310   -2.1686   -2.1492 C   0  0  0  0  0  0  0  0  0  0  0  0
   -2.2449   -0.6168   -2.5218 C   0  0  0  0  0  0  0  0  0  0  0  0
   -1.3086   -3.2377   -2.3295 C   0  0  0  0  0  0  0  0  0  0  0  0
   -3.1225   -1.6859   -2.7022 C   0  0  0  0  0  0  0  0  0  0  0  0
   -2.6543   -2.9963   -2.6059 C   0  0  0  0  0  0  0  0  0  0  0  0
   -1.6531    1.4091   -0.4852 H   0  0  0  0  0  0  0  0  0  0  0  0
    0.6169   -0.2861   -0.0235 H   0  0  0  0  0  0  0  0  0  0  0  0
    0.9971    0.0910   -2.5656 H   0  0  0  0  0  0  0  0  0  0  0  0
   -0.3688    1.1768   -2.5604 H   0  0  0  0  0  0  0  0  0  0  0  0
    0.6158   -2.3661   -1.9340 H   0  0  0  0  0  0  0  0  0  0  0  0
   -2.6186    0.4009   -2.5985 H   0  0  0  0  0  0  0  0  0  0  0  0
   -0.9437   -4.2580   -2.2557 H   0  0  0  0  0  0  0  0  0  0  0  0
   -4.1699   -1.4976   -2.9184 H   0  0  0  0  0  0  0  0  0  0  0  0
   -3.3372   -3.8289   -2.7477 H   0  0  0  0  0  0  0  0  0  0  0  0
    1.1678    2.7535   -1.2836 N   0  0  0  0  0  0  0  0  0  0  0  0
    2.0552    3.8909   -1.3705 C   0  0  2  0  0  0  0  0  0  0  0  0
    2.3202    4.3898    0.0438 C   0  0  0  0  0  0  0  0  0  0  0  0
    1.5657    4.1632    0.9874 O   0  0  0  0  0  0  0  0  0  0  0  0
    1.4596    4.9928   -2.2329 C   0  0  0  0  0  0  0  0  0  0  0  0
    0.3403    2.7412   -1.8726 H   0  0  0  0  0  0  0  0  0  0  0  0
    2.9903    3.5294   -1.8121 H   0  0  0  0  0  0  0  0  0  0  0  0
    0.5220    5.3676   -1.8064 H   0  0  0  0  0  0  0  0  0  0  0  0
    2.1453    5.8419   -2.3212 H   0  0  0  0  0  0  0  0  0  0  0  0
    1.2420    4.6240   -3.2411 H   0  0  0  0  0  0  0  0  0  0  0  0
    3.4761    5.1542    0.1195 N   0  0  0  0  0  0  0  0  0  0  0  0
    3.9364    5.7517    1.3513 C   0  0  0  0  0  0  0  0  0  0  0  0
    4.0509    5.2744   -0.7093 H   0  0  0  0  0  0  0  0  0  0  0  0
    3.5393    6.7742    1.4342 H   0  0  0  0  0  0  0  0  0  0  0  0
    3.5847    5.1517    2.2035 H   0  0  0  0  0  0  0  0  0  0  0  0
    5.0359    5.7841    1.3545 H   0  0  0  0  0  0  0  0  0  0  0  0
 25 27  1  0  0  0  0
 26 27  2  0  0  0  0
 23 25  2  0  0  0  0
 24 26  1  0  0  0  0
 22 23  1  0  0  0  0
 22 24  2  0  0  0  0
 21 22  1  0  0  0  0
  1  3  1  0  0  0  0
  1  7  1  0  0  0  0
  1  2  2  0  0  0  0
 38 39  1  0  0  0  0
 39 47  1  0  0  0  0
 39 40  2  0  0  0  0
  8  9  1  0  0  0  0
  9 17  1  0  0  0  0
  9 10  2  0  0  0  0
 18 19  1  0  0  0  0
 19 37  1  0  0  0  0
 19 20  2  0  0  0  0
 38 41  1  0  0  0  0
  8 11  1  0  0  0  0
 47 48  1  0  0  0  0
 18 21  1  0  0  0  0
 37 38  1  0  0  0  0
  7  8  1  0  0  0  0
 17 18  1  0  0  0  0
 27 36  1  0  0  0  0
 25 34  1  0  0  0  0
 26 35  1  0  0  0  0
 23 32  1  0  0  0  0
 24 33  1  0  0  0  0
  3  4  1  0  0  0  0
  3  5  1  0  0  0  0
  3  6  1  0  0  0  0
 41 44  1  0  0  0  0
 41 45  1  0  0  0  0
 41 46  1  0  0  0  0
 11 14  1  0  0  0  0
 11 15  1  0  0  0  0
 11 16  1  0  0  0  0
 48 50  1  0  0  0  0
 48 51  1  0  0  0  0
 48 52  1  0  0  0  0
 21 30  1  0  0  0  0
 21 31  1  0  0  0  0
 38 43  1  0  0  0  0
  8 13  1  0  0  0  0
 18 29  1  0  0  0  0
 47 49  1  0  0  0  0
  7 12  1  0  0  0  0
 37 42  1  0  0  0  0
 17 28  1  0  0  0  0
M  END
$$$$

  -OEChem-05262214473D

 52 52  0     1  0  0  0  0  0999 V2000
   -1.8248    0.3424    3.9102 C   0  0  0  0  0  0  0  0  0  0  0  0
   -0.8774   -0.2723    3.4345 O   0  0  0  0  0  0  0  0  0  0  0  0
   -2.2566    0.0600    5.3109 C   0  0  0  0  0  0  0  0  0  0  0  0
   -3.0163   -0.7363    5.3643 H   0  0  0  0  0  0  0  0  0  0  0  0
   -1.4254   -0.2876    5.9452 H   0  0  0  0  0  0  0  0  0  0  0  0
   -2.6947    0.9149    5.8505 H   0  0  0  0  0  0  0  0  0  0  0  0
   -2.5745    1.3149    3.2691 N   0  0  0  0  0  0  0  0  0  0  0  0
   -2.3276    1.7409    1.9167 C   0  0  2  0  0  0  0  0  0  0  0  0
   -0.9926    1.1555    1.4755 C   0  0  0  0  0  0  0  0  0  0  0  0
   -0.1206    0.8028    2.2668 O   0  0  0  0  0  0  0  0  0  0  0  0
   -2.3188    3.2577    1.8072 C   0  0  0  0  0  0  0  0  0  0  0  0
   -3.3395    1.7507    3.7809 H   0  0  0  0  0  0  0  0  0  0  0  0
   -3.1317    1.3224    1.3015 H   0  0  0  0  0  0  0  0  0  0  0  0
   -1.5198    3.6949    2.4169 H   0  0  0  0  0  0  0  0  0  0  0  0
   -2.1594    3.5799    0.7729 H   0  0  0  0  0  0  0  0  0  0  0  0
   -3.2690    3.6789    2.1530 H   0  0  0  0  0  0  0  0  0  0  0  0
   -0.8700    1.1124    0.0921 N   0  0  0  0  0  0  0  0  0  0  0  0
    0.3073    0.6116   -0.5716 C   0  0  2  0  0  0  0  0  0  0  0  0
    1.3892    1.6771   -0.4358 C   0  0  0  0  0  0  0  0  0  0  0  0
    2.4791    1.4608    0.0898 O   0  0  0  0  0  0  0  0  0  0  0  0
    0.0497    0.2991   -2.0501 C   0  0  0  0  0  0  0  0  0  0  0  0
   -0.8992   -0.8581   -2.2454 C   0  0  0  0  0  0  0  0  0  0  0  0
   -0.4310   -2.1686   -2.1492 C   0  0  0  0  0  0  0  0  0  0  0  0
   -2.2449   -0.6168   -2.5218 C   0  0  0  0  0  0  0  0  0  0  0  0
   -1.3086   -3.2377   -2.3295 C   0  0  0  0  0  0  0  0  0  0  0  0
   -3.1225   -1.6859   -2.7022 C   0  0  0  0  0  0  0  0  0  0  0  0
   -2.6543   -2.9963   -2.6059 C   0  0  0  0  0  0  0  0  0  0  0  0
   -1.6531    1.4091   -0.4852 H   0  0  0  0  0  0  0  0  0  0  0  0
    0.6169   -0.2861   -0.0235 H   0  0  0  0  0  0  0  0  0  0  0  0
    0.9971    0.0910   -2.5656 H   0  0  0  0  0  0  0  0  0  0  0  0
   -0.3688    1.1768   -2.5604 H   0  0  0  0  0  0  0  0  0  0  0  0
    0.6158   -2.3661   -1.9340 H   0  0  0  0  0  0  0  0  0  0  0  0
   -2.6186    0.4009   -2.5985 H   0  0  0  0  0  0  0  0  0  0  0  0
   -0.9437   -4.2580   -2.2557 H   0  0  0  0  0  0  0  0  0  0  0  0
   -4.1699   -1.4976   -2.9184 H   0  0  0  0  0  0  0  0  0  0  0  0
   -3.3372   -3.8289   -2.7477 H   0  0  0  0  0  0  0  0  0  0  0  0
    1.0097    2.8798   -1.0154 N   0  0  0  0  0  0  0  0  0  0  0  0
    1.8592    4.0486   -1.0467 C   0  0  2  0  0  0  0  0  0  0  0  0
    2.3756    4.2926    0.3652 C   0  0  0  0  0  0  0  0  0  0  0  0
    1.8079    3.8686    1.3697 O   0  0  0  0  0  0  0  0  0  0  0  0
    1.1090    5.2641   -1.5687 C   0  0  0  0  0  0  0  0  0  0  0  0
    0.0885    2.9416   -1.4389 H   0  0  0  0  0  0  0  0  0  0  0  0
    2.6999    3.8110   -1.7076 H   0  0  0  0  0  0  0  0  0  0  0  0
    0.2631    5.5174   -0.9194 H   0  0  0  0  0  0  0  0  0  0  0  0
    1.7617    6.1419   -1.6188 H   0  0  0  0  0  0  0  0  0  0  0  0
    0.7129    5.0760   -2.5725 H   0  0  0  0  0  0  0  0  0  0  0  0
    3.5211    5.0762    0.3738 N   0  0  0  0  0  0  0  0  0  0  0  0
    4.1953    5.4580    1.5926 C   0  0  0  0  0  0  0  0  0  0  0  0
    3.9336    5.3677   -0.5074 H   0  0  0  0  0  0  0  0  0  0  0  0
    3.8139    6.4317    1.9337 H   0  0  0  0  0  0  0  0  0  0  0  0
    4.0093    4.6997    2.3674 H   0  0  0  0  0  0  0  0  0  0  0  0
    5.2766    5.5332    1.4052 H   0  0  0  0  0  0  0  0  0  0  0  0
 25 27  1  0  0  0  0
 26 27  2  0  0  0  0
 23 25  2  0  0  0  0
 24 26  1  0  0  0  0
 22 23  1  0  0  0  0
 22 24  2  0  0  0  0
 21 22  1  0  0  0  0
  1  3  1  0  0  0  0
  1  7  1  0  0  0  0
  1  2  2  0  0  0  0
 38 39  1  0  0  0  0
 39 47  1  0  0  0  0
 39 40  2  0  0  0  0
  8  9  1  0  0  0  0
  9 17  1  0  0  0  0
  9 10  2  0  0  0  0
 18 19  1  0  0  0  0
 19 37  1  0  0  0  0
 19 20  2  0  0  0  0
 38 41  1  0  0  0  0
  8 11  1  0  0  0  0
 47 48  1  0  0  0  0
 18 21  1  0  0  0  0
 37 38  1  0  0  0  0
  7  8  1  0  0  0  0
 17 18  1  0  0  0  0
 27 36  1  0  0  0  0
 25 34  1  0  0  0  0
 26 35  1  0  0  0  0
 23 32  1  0  0  0  0
 24 33  1  0  0  0  0
  3  4  1  0  0  0  0
  3  5  1  0  0  0  0
  3  6  1  0  0  0  0
 41 44  1  0  0  0  0
 41 45  1  0  0  0  0
 41 46  1  0  0  0  0
 11 14  1  0  0  0  0
 11 15  1  0  0  0  0
 11 16  1  0  0  0  0
 48 50  1  0  0  0  0
 48 51  1  0  0  0  0
 48 52  1  0  0  0  0
 21 30  1  0  0  0  0
 21 31  1  0  0  0  0
 38 43  1  0  0  0  0
  8 13  1  0  0  0  0
 18 29  1  0  0  0  0
 47 49  1  0  0  0  0
  7 12  1  0  0  0  0
 37 42  1  0  0  0  0
 17 28  1  0  0  0  0
M  END
$$$$

  -OEChem-05262214473D

 52 52  0     1  0  0  0  0  0999 V2000
   -1.8248    0.3424    3.9102 C   0  0  0  0  0  0  0  0  0  0  0  0
   -0.8774   -0.2723    3.4345 O   0  0  0  0  0  0  0  0  0  0  0  0
   -2.2566    0.0600    5.3109 C   0  0  0  0  0  0  0  0  0  0  0  0
   -3.0163   -0.7363    5.3643 H   0  0  0  0  0  0  0  0  0  0  0  0
   -1.4254   -0.2876    5.9452 H   0  0  0  0  0  0  0  0  0  0  0  0
   -2.6947    0.9149    5.8505 H   0  0  0  0  0  0  0  0  0  0  0  0
   -2.5745    1.3149    3.2691 N   0  0  0  0  0  0  0  0  0  0  0  0
   -2.3276    1.7409    1.9167 C   0  0  2  0  0  0  0  0  0  0  0  0
   -0.9926    1.1555    1.4755 C   0  0  0  0  0  0  0  0  0  0  0  0
   -0.1206    0.8028    2.2668 O   0  0  0  0  0  0  0  0  0  0  0  0
   -2.3188    3.2577    1.8072 C   0  0  0  0  0  0  0  0  0  0  0  0
   -3.3395    1.7507    3.7809 H   0  0  0  0  0  0  0  0  0  0  0  0
   -3.1317    1.3224    1.3015 H   0  0  0  0  0  0  0  0  0  0  0  0
   -1.5198    3.6949    2.4169 H   0  0  0  0  0  0  0  0  0  0  0  0
   -2.1594    3.5799    0.7729 H   0  0  0  0  0  0  0  0  0  0  0  0
   -3.2690    3.6789    2.1530 H   0  0  0  0  0  0  0  0  0  0  0  0
   -0.8700    1.1124    0.0921 N   0  0  0  0  0  0  0  0  0  0  0  0
    0.3073    0.6116   -0.5716 C   0  0  2  0  0  0  0  0  0  0  0  0
    1.3892    1.6771   -0.4358 C   0  0  0  0  0  0  0  0  0  0  0  0
    2.5582    1.4127   -0.1630 O   0  0  0  0  0  0  0  0  0  0  0  0
    0.0497    0.2991   -2.0501 C   0  0  0  0  0  0  0  0  0  0  0  0
   -0.8992   -0.8581   -2.2454 C   0  0  0  0  0  0  0  0  0  0  0  0
   -0.4310   -2.1686   -2.1492 C   0  0  0  0  0  0  0  0  0  0  0  0
   -2.2449   -0.6168   -2.5218 C   0  0  0  0  0  0  0  0  0  0  0  0
   -1.3086   -3.2377   -2.3295 C   0  0  0  0  0  0  0  0  0  0  0  0
   -3.1225   -1.6859   -2.7022 C   0  0  0  0  0  0  0  0  0  0  0  0
   -2.6543   -2.9963   -2.6059 C   0  0  0  0  0  0  0  0  0  0  0  0
   -1.6531    1.4091   -0.4852 H   0  0  0  0  0  0  0  0  0  0  0  0
    0.6169   -0.2861   -0.0235 H   0  0  0  0  0  0  0  0  0  0  0  0
    0.9971    0.0910   -2.5656 H   0  0  0  0  0  0  0  0  0  0  0  0
   -0.3688    1.1768   -2.5604 H   0  0  0  0  0  0  0  0  0  0  0  0
    0.6158   -2.3661   -1.9340 H   0  0  0  0  0  0  0  0  0  0  0  0
   -2.6186    0.4009   -2.5985 H   0  0  0  0  0  0  0  0  0  0  0  0
   -0.9437   -4.2580   -2.2557 H   0  0  0  0  0  0  0  0  0  0  0  0
   -4.1699   -1.4976   -2.9184 H   0  0  0  0  0  0  0  0  0  0  0  0
   -3.3372   -3.8289   -2.7477 H   0  0  0  0  0  0  0  0  0  0  0  0
    0.9026    2.9489   -0.7045 N   0  0  0  0  0  0  0  0  0  0  0  0
    1.7248    4.1370   -0.6694 C   0  0  2  0  0  0  0  0  0  0  0  0
    2.4894    4.1410    0.6478 C   0  0  0  0  0  0  0  0  0  0  0  0
    2.1178    3.5193    1.6410 O   0  0  0  0  0  0  0  0  0  0  0  0
    0.8843    5.3960   -0.8139 C   0  0  0  0  0  0  0  0  0  0  0  0
   -0.0809    3.0497   -0.9375 H   0  0  0  0  0  0  0  0  0  0  0  0
    2.4318    4.0570   -1.5024 H   0  0  0  0  0  0  0  0  0  0  0  0
    0.1700    5.4933    0.0118 H   0  0  0  0  0  0  0  0  0  0  0  0
    1.5114    6.2937   -0.8158 H   0  0  0  0  0  0  0  0  0  0  0  0
    0.3123    5.3777   -1.7478 H   0  0  0  0  0  0  0  0  0  0  0  0
    3.6122    4.9551    0.5969 N   0  0  0  0  0  0  0  0  0  0  0  0
    4.4958    5.1360    1.7250 C   0  0  0  0  0  0  0  0  0  0  0  0
    3.8548    5.4181   -0.2741 H   0  0  0  0  0  0  0  0  0  0  0  0
    4.1773    6.0156    2.3036 H   0  0  0  0  0  0  0  0  0  0  0  0
    4.4595    4.2428    2.3660 H   0  0  0  0  0  0  0  0  0  0  0  0
    5.5241    5.2870    1.3646 H   0  0  0  0  0  0  0  0  0  0  0  0
 25 27  1  0  0  0  0
 26 27  2  0  0  0  0
 23 25  2  0  0  0  0
 24 26  1  0  0  0  0
 22 23  1  0  0  0  0
 22 24  2  0  0  0  0
 21 22  1  0  0  0  0
  1  3  1  0  0  0  0
  1  7  1  0  0  0  0
  1  2  2  0  0  0  0
 38 39  1  0  0  0  0
 39 47  1  0  0  0  0
 39 40  2  0  0  0  0
  8  9  1  0  0  0  0
  9 17  1  0  0  0  0
  9 10  2  0  0  0  0
 18 19  1  0  0  0  0
 19 37  1  0  0  0  0
 19 20  2  0  0  0  0
 38 41  1  0  0  0  0
  8 11  1  0  0  0  0
 47 48  1  0  0  0  0
 18 21  1  0  0  0  0
 37 38  1  0  0  0  0
  7  8  1  0  0  0  0
 17 18  1  0  0  0  0
 27 36  1  0  0  0  0
 25 34  1  0  0  0  0
 26 35  1  0  0  0  0
 23 32  1  0  0  0  0
 24 33  1  0  0  0  0
  3  4  1  0  0  0  0
  3  5  1  0  0  0  0
  3  6  1  0  0  0  0
 41 44  1  0  0  0  0
 41 45  1  0  0  0  0
 41 46  1  0  0  0  0
 11 14  1  0  0  0  0
 11 15  1  0  0  0  0
 11 16  1  0  0  0  0
 48 50  1  0  0  0  0
 48 51  1  0  0  0  0
 48 52  1  0  0  0  0
 21 30  1  0  0  0  0
 21 31  1  0  0  0  0
 38 43  1  0  0  0  0
  8 13  1  0  0  0  0
 18 29  1  0  0  0  0
 47 49  1  0  0  0  0
  7 12  1  0  0  0  0
 37 42  1  0  0  0  0
 17 28  1  0  0  0  0
M  END
$$$$

  -OEChem-05262214473D

 52 52  0     1  0  0  0  0  0999 V2000
   -1.8248    0.3424    3.9102 C   0  0  0  0  0  0  0  0  0  0  0  0
   -0.8774   -0.2723    3.4345 O   0  0  0  0  0  0  0  0  0  0  0  0
   -2.2566    0.0600    5.3109 C   0  0  0  0  0  0  0  0  0  0  0  0
   -3.0163   -0.7363    5.3643 H   0  0  0  0  0  0  0  0  0  0  0  0
   -1.4254   -0.2876    5.9452 H   0  0  0  0  0  0  0  0  0  0  0  0
   -2.6947    0.9149    5.8505 H   0  0  0  0  0  0  0  0  0  0  0  0
   -2.5745    1.3149    3.2691 N   0  0  0  0  0  0  0  0  0  0  0  0
   -2.3276    1.7409    1.9167 C   0  0  2  0  0  0  0  0  0  0  0  0
   -0.9926    1.1555    1.4755 C   0  0  0  0  0  0  0  0  0  0  0  0
   -0.1206    0.8028    2.2668 O   0  0  0  0  0  0  0  0  0  0  0  0
   -2.3188    3.2577    1.8072 C   0  0  0  0  0  0  0  0  0  0  0  0
   -3.3395    1.7507    3.7809 H   0  0  0  0  0  0  0  0  0  0  0  0
   -3.1317    1.3224    1.3015 H   0  0  0  0  0  0  0  0  0  0  0  0
   -1.5198    3.6949    2.4169 H   0  0  0  0  0  0  0  0  0  0  0  0
   -2.1594    3.5799    0.7729 H   0  0  0  0  0  0  0  0  0  0  0  0
   -3.2690    3.6789    2.1530 H   0  0  0  0  0  0  0  0  0  0  0  0
   -0.8700    1.1124    0.0921 N   0  0  0  0  0  0  0  0  0  0  0  0
    0.3073    0.6116   -0.5716 C   0  0  2  0  0  0  0  0  0  0  0  0
    1.3892    1.6771   -0.4358 C   0  0  0  0  0  0  0  0  0  0  0  0
    2.5900    1.4145   -0.4303 O   0  0  0  0  0  0  0  0  0  0  0  0
    0.0497    0.2991   -2.0501 C   0  0  0  0  0  0  0  0  0  0  0  0
   -0.8992   -0.8581   -2.2454 C   0  0  0  0  0  0  0  0  0  0  0  0
   -0.4310   -2.1686   -2.1492 C   0  0  0  0  0  0  0  0  0  0  0  0
   -2.2449   -0.6168   -2.5218 C   0  0  0  0  0  0  0  0  0  0  0  0
   -1.3086   -3.2377   -2.3295 C   0  0  0  0  0  0  0  0  0  0  0  0
   -3.1225   -1.6859   -2.7022 C   0  0  0  0  0  0  0  0  0  0  0  0
   -2.6543   -2.9963   -2.6059 C   0  0  0  0  0  0  0  0  0  0  0  0
   -1.6531    1.4091   -0.4852 H   0  0  0  0  0  0  0  0  0  0  0  0
    0.6169   -0.2861   -0.0235 H   0  0  0  0  0  0  0  0  0  0  0  0
    0.9971    0.0910   -2.5656 H   0  0  0  0  0  0  0  0  0  0  0  0
   -0.3688    1.1768   -2.5604 H   0  0  0  0  0  0  0  0  0  0  0  0
    0.6158   -2.3661   -1.9340 H   0  0  0  0  0  0  0  0  0  0  0  0
   -2.6186    0.4009   -2.5985 H   0  0  0  0  0  0  0  0  0  0  0  0
   -0.9437   -4.2580   -2.2557 H   0  0  0  0  0  0  0  0  0  0  0  0
   -4.1699   -1.4976   -2.9184 H   0  0  0  0  0  0  0  0  0  0  0  0
   -3.3372   -3.8289   -2.7477 H   0  0  0  0  0  0  0  0  0  0  0  0
    0.8538    2.9561   -0.3721 N   0  0  0  0  0  0  0  0  0  0  0  0
    1.6612    4.1499   -0.2645 C   0  0  2  0  0  0  0  0  0  0  0  0
    2.6539    3.9453    0.8723 C   0  0  0  0  0  0  0  0  0  0  0  0
    2.4742    3.1393    1.7828 O   0  0  0  0  0  0  0  0  0  0  0  0
    0.8007    5.3797   -0.0199 C   0  0  0  0  0  0  0  0  0  0  0  0
   -0.1563    3.0581   -0.4028 H   0  0  0  0  0  0  0  0  0  0  0  0
    2.2042    4.2509   -1.2105 H   0  0  0  0  0  0  0  0  0  0  0  0
    0.2490    5.2968    0.9236 H   0  0  0  0  0  0  0  0  0  0  0  0
    1.4113    6.2871    0.0329 H   0  0  0  0  0  0  0  0  0  0  0  0
    0.0675    5.5084   -0.8235 H   0  0  0  0  0  0  0  0  0  0  0  0
    3.7435    4.7993    0.7737 N   0  0  0  0  0  0  0  0  0  0  0  0
    4.8175    4.8075    1.7393 C   0  0  0  0  0  0  0  0  0  0  0  0
    3.8196    5.4220   -0.0251 H   0  0  0  0  0  0  0  0  0  0  0  0
    4.6048    5.5540    2.5188 H   0  0  0  0  0  0  0  0  0  0  0  0
    4.9046    3.8121    2.1992 H   0  0  0  0  0  0  0  0  0  0  0  0
    5.7615    5.0625    1.2355 H   0  0  0  0  0  0  0  0  0  0  0  0
 25 27  1  0  0  0  0
 26 27  2  0  0  0  0
 23 25  2  0  0  0  0
 24 26  1  0  0  0  0
 22 23  1  0  0  0  0
 22 24  2  0  0  0  0
 21 22  1  0  0  0  0
  1  3  1  0  0  0  0
  1  7  1  0  0  0  0
  1  2  2  0  0  0  0
 38 39  1  0  0  0  0
 39 47  1  0  0  0  0
 39 40  2  0  0  0  0
  8  9  1  0  0  0  0
  9 17  1  0  0  0  0
  9 10  2  0  0  0  0
 18 19  1  0  0  0  0
 19 37  1  0  0  0  0
 19 20  2  0  0  0  0
 38 41  1  0  0  0  0
  8 11  1  0  0  0  0
 47 48  1  0  0  0  0
 18 21  1  0  0  0  0
 37 38  1  0  0  0  0
  7  8  1  0  0  0  0
 17 18  1  0  0  0  0
 27 36  1  0  0  0  0
 25 34  1  0  0  0  0
 26 35  1  0  0  0  0
 23 32  1  0  0  0  0
 24 33  1  0  0  0  0
  3  4  1  0  0  0  0
  3  5  1  0  0  0  0
  3  6  1  0  0  0  0
 41 44  1  0  0  0  0
 41 45  1  0  0  0  0
 41 46  1  0  0  0  0
 11 14  1  0  0  0  0
 11 15  1  0  0  0  0
 11 16  1  0  0  0  0
 48 50  1  0  0  0  0
 48 51  1  0  0  0  0
 48 52  1  0  0  0  0
 21 30  1  0  0  0  0
 21 31  1  0  0  0  0
 38 43  1  0  0  0  0
  8 13  1  0  0  0  0
 18 29  1  0  0  0  0
 47 49  1  0  0  0  0
  7 12  1  0  0  0  0
 37 42  1  0  0  0  0
 17 28  1  0  0  0  0
M  END
$$$$

  -OEChem-05262214473D

 52 52  0     1  0  0  0  0  0999 V2000
   -1.8248    0.3424    3.9102 C   0  0  0  0  0  0  0  0  0  0  0  0
   -0.8774   -0.2723    3.4345 O   0  0  0  0  0  0  0  0  0  0  0  0
   -2.2566    0.0600    5.3109 C   0  0  0  0  0  0  0  0  0  0  0  0
   -3.0163   -0.7363    5.3643 H   0  0  0  0  0  0  0  0  0  0  0  0
   -1.4254   -0.2876    5.9452 H   0  0  0  0  0  0  0  0  0  0  0  0
   -2.6947    0.9149    5.8505 H   0  0  0  0  0  0  0  0  0  0  0  0
   -2.5745    1.3149    3.2691 N   0  0  0  0  0  0  0  0  0  0  0  0
   -2.3276    1.7409    1.9167 C   0  0  2  0  0  0  0  0  0  0  0  0
   -0.9926    1.1555    1.4755 C   0  0  0  0  0  0  0  0  0  0  0  0
   -0.1206    0.8028    2.2668 O   0  0  0  0  0  0  0  0  0  0  0  0
   -2.3188    3.2577    1.8072 C   0  0  0  0  0  0  0  0  0  0  0  0
   -3.3395    1.7507    3.7809 H   0  0  0  0  0  0  0  0  0  0  0  0
   -3.1317    1.3224    1.3015 H   0  0  0  0  0  0  0  0  0  0  0  0
   -1.5198    3.6949    2.4169 H   0  0  0  0  0  0  0  0  0  0  0  0
   -2.1594    3.5799    0.7729 H   0  0  0  0  0  0  0  0  0  0  0  0
   -3.2690    3.6789    2.1530 H   0  0  0  0  0  0  0  0  0  0  0  0
   -0.8700    1.1124    0.0921 N   0  0  0  0  0  0  0  0  0  0  0  0
    0.3073    0.6116   -0.5716 C   0  0  2  0  0  0  0  0  0  0  0  0
    1.3892    1.6771   -0.4358 C   0  0  0  0  0  0  0  0  0  0  0  0
    2.5723    1.4661   -0.6939 O   0  0  0  0  0  0  0  0  0  0  0  0
    0.0497    0.2991   -2.0501 C   0  0  0  0  0  0  0  0  0  0  0  0
   -0.8992   -0.8581   -2.2454 C   0  0  0  0  0  0  0  0  0  0  0  0
   -0.4310   -2.1686   -2.1492 C   0  0  0  0  0  0  0  0  0  0  0  0
   -2.2449   -0.6168   -2.5218 C   0  0  0  0  0  0  0  0  0  0  0  0
   -1.3086   -3.2377   -2.3295 C   0  0  0  0  0  0  0  0  0  0  0  0
   -3.1225   -1.6859   -2.7022 C   0  0  0  0  0  0  0  0  0  0  0  0
   -2.6543   -2.9963   -2.6059 C   0  0  0  0  0  0  0  0  0  0  0  0
   -1.6531    1.4091   -0.4852 H   0  0  0  0  0  0  0  0  0  0  0  0
    0.6169   -0.2861   -0.0235 H   0  0  0  0  0  0  0  0  0  0  0  0
    0.9971    0.0910   -2.5656 H   0  0  0  0  0  0  0  0  0  0  0  0
   -0.3688    1.1768   -2.5604 H   0  0  0  0  0  0  0  0  0  0  0  0
    0.6158   -2.3661   -1.9340 H   0  0  0  0  0  0  0  0  0  0  0  0
   -2.6186    0.4009   -2.5985 H   0  0  0  0  0  0  0  0  0  0  0  0
   -0.9437   -4.2580   -2.2557 H   0  0  0  0  0  0  0  0  0  0  0  0
   -4.1699   -1.4976   -2.9184 H   0  0  0  0  0  0  0  0  0  0  0  0
   -3.3372   -3.8289   -2.7477 H   0  0  0  0  0  0  0  0  0  0  0  0
    0.8666    2.9008   -0.0410 N   0  0  0  0  0  0  0  0  0  0  0  0
    1.6728    4.0866    0.1406 C   0  0  2  0  0  0  0  0  0  0  0  0
    2.8580    3.7189    1.0235 C   0  0  0  0  0  0  0  0  0  0  0  0
    2.8530    2.7544    1.7856 O   0  0  0  0  0  0  0  0  0  0  0  0
    0.8640    5.2162    0.7591 C   0  0  0  0  0  0  0  0  0  0  0  0
   -0.1327    2.9663    0.1289 H   0  0  0  0  0  0  0  0  0  0  0  0
    2.0328    4.3792   -0.8518 H   0  0  0  0  0  0  0  0  0  0  0  0
    0.4948    4.9413    1.7539 H   0  0  0  0  0  0  0  0  0  0  0  0
    1.4684    6.1225    0.8696 H   0  0  0  0  0  0  0  0  0  0  0  0
   -0.0047    5.4592    0.1377 H   0  0  0  0  0  0  0  0  0  0  0  0
    3.9058    4.6194    0.8922 N   0  0  0  0  0  0  0  0  0  0  0  0
    5.1384    4.4951    1.6347 C   0  0  0  0  0  0  0  0  0  0  0  0
    3.8306    5.3793    0.2224 H   0  0  0  0  0  0  0  0  0  0  0  0
    5.0674    5.0785    2.5645 H   0  0  0  0  0  0  0  0  0  0  0  0
    5.3143    3.4369    1.8785 H   0  0  0  0  0  0  0  0  0  0  0  0
    5.9726    4.8748    1.0265 H   0  0  0  0  0  0  0  0  0  0  0  0
 25 27  1  0  0  0  0
 26 27  2  0  0  0  0
 23 25  2  0  0  0  0
 24 26  1  0  0  0  0
 22 23  1  0  0  0  0
 22 24  2  0  0  0  0
 21 22  1  0  0  0  0
  1  3  1  0  0  0  0
  1  7  1  0  0  0  0
  1  2  2  0  0  0  0
 38 39  1  0  0  0  0
 39 47  1  0  0  0  0
 39 40  2  0  0  0  0
  8  9  1  0  0  0  0
  9 17  1  0  0  0  0
  9 10  2  0  0  0  0
 18 19  1  0  0  0  0
 19 37  1  0  0  0  0
 19 20  2  0  0  0  0
 38 41  1  0  0  0  0
  8 11  1  0  0  0  0
 47 48  1  0  0  0  0
 18 21  1  0  0  0  0
 37 38  1  0  0  0  0
  7  8  1  0  0  0  0
 17 18  1  0  0  0  0
 27 36  1  0  0  0  0
 25 34  1  0  0  0  0
 26 35  1  0  0  0  0
 23 32  1  0  0  0  0
 24 33  1  0  0  0  0
  3  4  1  0  0  0  0
  3  5  1  0  0  0  0
  3  6  1  0  0  0  0
 41 44  1  0  0  0  0
 41 45  1  0  0  0  0
 41 46  1  0  0  0  0
 11 14  1  0  0  0  0
 11 15  1  0  0  0  0
 11 16  1  0  0  0  0
 48 50  1  0  0  0  0
 48 51  1  0  0  0  0
 48 52  1  0  0  0  0
 21 30  1  0  0  0  0
 21 31  1  0  0  0  0
 38 43  1  0  0  0  0
  8 13  1  0  0  0  0
 18 29  1  0  0  0  0
 47 49  1  0  0  0  0
  7 12  1  0  0  0  0
 37 42  1  0  0  0  0
 17 28  1  0  0  0  0
M  END
$$$$

  -OEChem-05262214473D

 52 52  0     1  0  0  0  0  0999 V2000
   -1.8248    0.3424    3.9102 C   0  0  0  0  0  0  0  0  0  0  0  0
   -0.8774   -0.2723    3.4345 O   0  0  0  0  0  0  0  0  0  0  0  0
   -2.2566    0.0600    5.3109 C   0  0  0  0  0  0  0  0  0  0  0  0
   -3.0163   -0.7363    5.3643 H   0  0  0  0  0  0  0  0  0  0  0  0
   -1.4254   -0.2876    5.9452 H   0  0  0  0  0  0  0  0  0  0  0  0
   -2.6947    0.9149    5.8505 H   0  0  0  0  0  0  0  0  0  0  0  0
   -2.5745    1.3149    3.2691 N   0  0  0  0  0  0  0  0  0  0  0  0
   -2.3276    1.7409    1.9167 C   0  0  2  0  0  0  0  0  0  0  0  0
   -0.9926    1.1555    1.4755 C   0  0  0  0  0  0  0  0  0  0  0  0
   -0.1206    0.8028    2.2668 O   0  0  0  0  0  0  0  0  0  0  0  0
   -2.3188    3.2577    1.8072 C   0  0  0  0  0  0  0  0  0  0  0  0
   -3.3395    1.7507    3.7809 H   0  0  0  0  0  0  0  0  0  0  0  0
   -3.1317    1.3224    1.3015 H   0  0  0  0  0  0  0  0  0  0  0  0
   -1.5198    3.6949    2.4169 H   0  0  0  0  0  0  0  0  0  0  0  0
   -2.1594    3.5799    0.7729 H   0  0  0  0  0  0  0  0  0  0  0  0
   -3.2690    3.6789    2.1530 H   0  0  0  0  0  0  0  0  0  0  0  0
   -0.8700    1.1124    0.0921 N   0  0  0  0  0  0  0  0  0  0  0  0
    0.3073    0.6116   -0.5716 C   0  0  2  0  0  0  0  0  0  0  0  0
    1.3892    1.6771   -0.4358 C   0  0  0  0  0  0  0  0  0  0  0  0
    2.5064    1.5639   -0.9358 O   0  0  0  0  0  0  0  0  0  0  0  0
    0.0497    0.2991   -2.0501 C   0  0  0  0  0  0  0  0  0  0  0  0
   -0.8992   -0.8581   -2.2454 C   0  0  0  0  0  0  0  0  0  0  0  0
   -0.4310   -2.1686   -2.1492 C   0  0  0  0  0  0  0  0  0  0  0  0
   -2.2449   -0.6168   -2.5218 C   0  0  0  0  0  0  0  0  0  0  0  0
   -1.3086   -3.2377   -2.3295 C   0  0  0  0  0  0  0  0  0  0  0  0
   -3.1225   -1.6859   -2.7022 C   0  0  0  0  0  0  0  0  0  0  0  0
   -2.6543   -2.9963   -2.6059 C   0  0  0  0  0  0  0  0  0  0  0  0
   -1.6531    1.4091   -0.4852 H   0  0  0  0  0  0  0  0  0  0  0  0
    0.6169   -0.2861   -0.0235 H   0  0  0  0  0  0  0  0  0  0  0  0
    0.9971    0.0910   -2.5656 H   0  0  0  0  0  0  0  0  0  0  0  0
   -0.3688    1.1768   -2.5604 H   0  0  0  0  0  0  0  0  0  0  0  0
    0.6158   -2.3661   -1.9340 H   0  0  0  0  0  0  0  0  0  0  0  0
   -2.6186    0.4009   -2.5985 H   0  0  0  0  0  0  0  0  0  0  0  0
   -0.9437   -4.2580   -2.2557 H   0  0  0  0  0  0  0  0  0  0  0  0
   -4.1699   -1.4976   -2.9184 H   0  0  0  0  0  0  0  0  0  0  0  0
   -3.3372   -3.8289   -2.7477 H   0  0  0  0  0  0  0  0  0  0  0  0
    0.9402    2.7869    0.2665 N   0  0  0  0  0  0  0  0  0  0  0  0
    1.7586    3.9513    0.5181 C   0  0  2  0  0  0  0  0  0  0  0  0
    3.0877    3.4770    1.0910 C   0  0  0  0  0  0  0  0  0  0  0  0
    3.2282    2.3908    1.6490 O   0  0  0  0  0  0  0  0  0  0  0  0
    1.0698    4.9165    1.4701 C   0  0  0  0  0  0  0  0  0  0  0  0
   -0.0115    2.7805    0.6214 H   0  0  0  0  0  0  0  0  0  0  0  0
    1.9291    4.4334   -0.4507 H   0  0  0  0  0  0  0  0  0  0  0  0
    0.8906    4.4512    2.4463 H   0  0  0  0  0  0  0  0  0  0  0  0
    1.6786    5.8112    1.6373 H   0  0  0  0  0  0  0  0  0  0  0  0
    0.1006    5.2334    1.0701 H   0  0  0  0  0  0  0  0  0  0  0  0
    4.0882    4.4276    0.9441 N   0  0  0  0  0  0  0  0  0  0  0  0
    5.4366    4.2198    1.4182 C   0  0  0  0  0  0  0  0  0  0  0  0
    3.8870    5.2928    0.4516 H   0  0  0  0  0  0  0  0  0  0  0  0
    5.5334    4.6215    2.4376 H   0  0  0  0  0  0  0  0  0  0  0  0
    5.6607    3.1429    1.4257 H   0  0  0  0  0  0  0  0  0  0  0  0
    6.1430    4.7367    0.7520 H   0  0  0  0  0  0  0  0  0  0  0  0
 25 27  1  0  0  0  0
 26 27  2  0  0  0  0
 23 25  2  0  0  0  0
 24 26  1  0  0  0  0
 22 23  1  0  0  0  0
 22 24  2  0  0  0  0
 21 22  1  0  0  0  0
  1  3  1  0  0  0  0
  1  7  1  0  0  0  0
  1  2  2  0  0  0  0
 38 39  1  0  0  0  0
 39 47  1  0  0  0  0
 39 40  2  0  0  0  0
  8  9  1  0  0  0  0
  9 17  1  0  0  0  0
  9 10  2  0  0  0  0
 18 19  1  0  0  0  0
 19 37  1  0  0  0  0
 19 20  2  0  0  0  0
 38 41  1  0  0  0  0
  8 11  1  0  0  0  0
 47 48  1  0  0  0  0
 18 21  1  0  0  0  0
 37 38  1  0  0  0  0
  7  8  1  0  0  0  0
 17 18  1  0  0  0  0
 27 36  1  0  0  0  0
 25 34  1  0  0  0  0
 26 35  1  0  0  0  0
 23 32  1  0  0  0  0
 24 33  1  0  0  0  0
  3  4  1  0  0  0  0
  3  5  1  0  0  0  0
  3  6  1  0  0  0  0
 41 44  1  0  0  0  0
 41 45  1  0  0  0  0
 41 46  1  0  0  0  0
 11 14  1  0  0  0  0
 11 15  1  0  0  0  0
 11 16  1  0  0  0  0
 48 50  1  0  0  0  0
 48 51  1  0  0  0  0
 48 52  1  0  0  0  0
 21 30  1  0  0  0  0
 21 31  1  0  0  0  0
 38 43  1  0  0  0  0
  8 13  1  0  0  0  0
 18 29  1  0  0  0  0
 47 49  1  0  0  0  0
  7 12  1  0  0  0  0
 37 42  1  0  0  0  0
 17 28  1  0  0  0  0
M  END
$$$$

  -OEChem-05262214473D

 52 52  0     1  0  0  0  0  0999 V2000
   -1.8248    0.3424    3.9102 C   0  0  0  0  0  0  0  0  0  0  0  0
   -0.8774   -0.2723    3.4345 O   0  0  0  0  0  0  0  0  0  0  0  0
   -2.2566    0.0600    5.3109 C   0  0  0  0  0  0  0  0  0  0  0  0
   -3.0163   -0.7363    5.3643 H   0  0  0  0  0  0  0  0  0  0  0  0
   -1.4254   -0.2876    5.9452 H   0  0  0  0  0  0  0  0  0  0  0  0
   -2.6947    0.9149    5.8505 H   0  0  0  0  0  0  0  0  0  0  0  0
   -2.5745    1.3149    3.2691 N   0  0  0  0  0  0  0  0  0  0  0  0
   -2.3276    1.7409    1.9167 C   0  0  2  0  0  0  0  0  0  0  0  0
   -0.9926    1.1555    1.4755 C   0  0  0  0  0  0  0  0  0  0  0  0
   -0.1206    0.8028    2.2668 O   0  0  0  0  0  0  0  0  0  0  0  0
   -2.3188    3.2577    1.8072 C   0  0  0  0  0  0  0  0  0  0  0  0
   -3.3395    1.7507    3.7809 H   0  0  0  0  0  0  0  0  0  0  0  0
   -3.1317    1.3224    1.3015 H   0  0  0  0  0  0  0  0  0  0  0  0
   -1.5198    3.6949    2.4169 H   0  0  0  0  0  0  0  0  0  0  0  0
   -2.1594    3.5799    0.7729 H   0  0  0  0  0  0  0  0  0  0  0  0
   -3.2690    3.6789    2.1530 H   0  0  0  0  0  0  0  0  0  0  0  0
   -0.8700    1.1124    0.0921 N   0  0  0  0  0  0  0  0  0  0  0  0
    0.3073    0.6116   -0.5716 C   0  0  2  0  0  0  0  0  0  0  0  0
    1.3892    1.6771   -0.4358 C   0  0  0  0  0  0  0  0  0  0  0  0
    2.3966    1.7013   -1.1396 O   0  0  0  0  0  0  0  0  0  0  0  0
    0.0497    0.2991   -2.0501 C   0  0  0  0  0  0  0  0  0  0  0  0
   -0.8992   -0.8581   -2.2454 C   0  0  0  0  0  0  0  0  0  0  0  0
   -0.4310   -2.1686   -2.1492 C   0  0  0  0  0  0  0  0  0  0  0  0
   -2.2449   -0.6168   -2.5218 C   0  0  0  0  0  0  0  0  0  0  0  0
   -1.3086   -3.2377   -2.3295 C   0  0  0  0  0  0  0  0  0  0  0  0
   -3.1225   -1.6859   -2.7022 C   0  0  0  0  0  0  0  0  0  0  0  0
   -2.6543   -2.9963   -2.6059 C   0  0  0  0  0  0  0  0  0  0  0  0
   -1.6531    1.4091   -0.4852 H   0  0  0  0  0  0  0  0  0  0  0  0
    0.6169   -0.2861   -0.0235 H   0  0  0  0  0  0  0  0  0  0  0  0
    0.9971    0.0910   -2.5656 H   0  0  0  0  0  0  0  0  0  0  0  0
   -0.3688    1.1768   -2.5604 H   0  0  0  0  0  0  0  0  0  0  0  0
    0.6158   -2.3661   -1.9340 H   0  0  0  0  0  0  0  0  0  0  0  0
   -2.6186    0.4009   -2.5985 H   0  0  0  0  0  0  0  0  0  0  0  0
   -0.9437   -4.2580   -2.2557 H   0  0  0  0  0  0  0  0  0  0  0  0
   -4.1699   -1.4976   -2.9184 H   0  0  0  0  0  0  0  0  0  0  0  0
   -3.3372   -3.8289   -2.7477 H   0  0  0  0  0  0  0  0  0  0  0  0
    1.0695    2.6222    0.5292 N   0  0  0  0  0  0  0  0  0  0  0  0
    1.9130    3.7532    0.8423 C   0  0  2  0  0  0  0  0  0  0  0  0
    3.3273    3.2363    1.0702 C   0  0  0  0  0  0  0  0  0  0  0  0
    3.5743    2.0733    1.3825 O   0  0  0  0  0  0  0  0  0  0  0  0
    1.4041    4.5013    2.0647 C   0  0  0  0  0  0  0  0  0  0  0  0
    0.1989    2.5134    1.0410 H   0  0  0  0  0  0  0  0  0  0  0  0
    1.9003    4.4096   -0.0346 H   0  0  0  0  0  0  0  0  0  0  0  0
    1.4095    3.8597    2.9534 H   0  0  0  0  0  0  0  0  0  0  0  0
    2.0277    5.3744    2.2836 H   0  0  0  0  0  0  0  0  0  0  0  0
    0.3761    4.8465    1.9103 H   0  0  0  0  0  0  0  0  0  0  0  0
    4.2782    4.2370    0.9261 N   0  0  0  0  0  0  0  0  0  0  0  0
    5.6918    4.0007    1.1045 C   0  0  0  0  0  0  0  0  0  0  0  0
    3.9849    5.1685    0.6470 H   0  0  0  0  0  0  0  0  0  0  0  0
    5.9711    4.2141    2.1469 H   0  0  0  0  0  0  0  0  0  0  0  0
    5.9201    2.9501    0.8717 H   0  0  0  0  0  0  0  0  0  0  0  0
    6.2612    4.6577    0.4306 H   0  0  0  0  0  0  0  0  0  0  0  0
 25 27  1  0  0  0  0
 26 27  2  0  0  0  0
 23 25  2  0  0  0  0
 24 26  1  0  0  0  0
 22 23  1  0  0  0  0
 22 24  2  0  0  0  0
 21 22  1  0  0  0  0
  1  3  1  0  0  0  0
  1  7  1  0  0  0  0
  1  2  2  0  0  0  0
 38 39  1  0  0  0  0
 39 47  1  0  0  0  0
 39 40  2  0  0  0  0
  8  9  1  0  0  0  0
  9 17  1  0  0  0  0
  9 10  2  0  0  0  0
 18 19  1  0  0  0  0
 19 37  1  0  0  0  0
 19 20  2  0  0  0  0
 38 41  1  0  0  0  0
  8 11  1  0  0  0  0
 47 48  1  0  0  0  0
 18 21  1  0  0  0  0
 37 38  1  0  0  0  0
  7  8  1  0  0  0  0
 17 18  1  0  0  0  0
 27 36  1  0  0  0  0
 25 34  1  0  0  0  0
 26 35  1  0  0  0  0
 23 32  1  0  0  0  0
 24 33  1  0  0  0  0
  3  4  1  0  0  0  0
  3  5  1  0  0  0  0
  3  6  1  0  0  0  0
 41 44  1  0  0  0  0
 41 45  1  0  0  0  0
 41 46  1  0  0  0  0
 11 14  1  0  0  0  0
 11 15  1  0  0  0  0
 11 16  1  0  0  0  0
 48 50  1  0  0  0  0
 48 51  1  0  0  0  0
 48 52  1  0  0  0  0
 21 30  1  0  0  0  0
 21 31  1  0  0  0  0
 38 43  1  0  0  0  0
  8 13  1  0  0  0  0
 18 29  1  0  0  0  0
 47 49  1  0  0  0  0
  7 12  1  0  0  0  0
 37 42  1  0  0  0  0
 17 28  1  0  0  0  0
M  END
$$$$

  -OEChem-05262214473D

 52 52  0     1  0  0  0  0  0999 V2000
   -1.8248    0.3424    3.9102 C   0  0  0  0  0  0  0  0  0  0  0  0
   -0.8774   -0.2723    3.4345 O   0  0  0  0  0  0  0  0  0  0  0  0
   -2.2566    0.0600    5.3109 C   0  0  0  0  0  0  0  0  0  0  0  0
   -3.0163   -0.7363    5.3643 H   0  0  0  0  0  0  0  0  0  0  0  0
   -1.4254   -0.2876    5.9452 H   0  0  0  0  0  0  0  0  0  0  0  0
   -2.6947    0.9149    5.8505 H   0  0  0  0  0  0  0  0  0  0  0  0
   -2.5745    1.3149    3.2691 N   0  0  0  0  0  0  0  0  0  0  0  0
   -2.3276    1.7409    1.9167 C   0  0  2  0  0  0  0  0  0  0  0  0
   -0.9926    1.1555    1.4755 C   0  0  0  0  0  0  0  0  0  0  0  0
   -0.1206    0.8028    2.2668 O   0  0  0  0  0  0  0  0  0  0  0  0
   -2.3188    3.2577    1.8072 C   0  0  0  0  0  0  0  0  0  0  0  0
   -3.3395    1.7507    3.7809 H   0  0  0  0  0  0  0  0  0  0  0  0
   -3.1317    1.3224    1.3015 H   0  0  0  0  0  0  0  0  0  0  0  0
   -1.5198    3.6949    2.4169 H   0  0  0  0  0  0  0  0  0  0  0  0
   -2.1594    3.5799    0.7729 H   0  0  0  0  0  0  0  0  0  0  0  0
   -3.2690    3.6789    2.1530 H   0  0  0  0  0  0  0  0  0  0  0  0
   -0.8700    1.1124    0.0921 N   0  0  0  0  0  0  0  0  0  0  0  0
    0.3073    0.6116   -0.5716 C   0  0  2  0  0  0  0  0  0  0  0  0
    1.3892    1.6771   -0.4358 C   0  0  0  0  0  0  0  0  0  0  0  0
    2.2506    1.8689   -1.2914 O   0  0  0  0  0  0  0  0  0  0  0  0
    0.0497    0.2991   -2.0501 C   0  0  0  0  0  0  0  0  0  0  0  0
   -0.8992   -0.8581   -2.2454 C   0  0  0  0  0  0  0  0  0  0  0  0
   -0.4310   -2.1686   -2.1492 C   0  0  0  0  0  0  0  0  0  0  0  0
   -2.2449   -0.6168   -2.5218 C   0  0  0  0  0  0  0  0  0  0  0  0
   -1.3086   -3.2377   -2.3295 C   0  0  0  0  0  0  0  0  0  0  0  0
   -3.1225   -1.6859   -2.7022 C   0  0  0  0  0  0  0  0  0  0  0  0
   -2.6543   -2.9963   -2.6059 C   0  0  0  0  0  0  0  0  0  0  0  0
   -1.6531    1.4091   -0.4852 H   0  0  0  0  0  0  0  0  0  0  0  0
    0.6169   -0.2861   -0.0235 H   0  0  0  0  0  0  0  0  0  0  0  0
    0.9971    0.0910   -2.5656 H   0  0  0  0  0  0  0  0  0  0  0  0
   -0.3688    1.1768   -2.5604 H   0  0  0  0  0  0  0  0  0  0  0  0
    0.6158   -2.3661   -1.9340 H   0  0  0  0  0  0  0  0  0  0  0  0
   -2.6186    0.4009   -2.5985 H   0  0  0  0  0  0  0  0  0  0  0  0
   -0.9437   -4.2580   -2.2557 H   0  0  0  0  0  0  0  0  0  0  0  0
   -4.1699   -1.4976   -2.9184 H   0  0  0  0  0  0  0  0  0  0  0  0
   -3.3372   -3.8289   -2.7477 H   0  0  0  0  0  0  0  0  0  0  0  0
    1.2457    2.4177    0.7293 N   0  0  0  0  0  0  0  0  0  0  0  0
    2.1253    3.5059    1.0912 C   0  0  2  0  0  0  0  0  0  0  0  0
    3.5606    3.0132    0.9626 C   0  0  0  0  0  0  0  0  0  0  0  0
    3.8677    1.8236    1.0041 O   0  0  0  0  0  0  0  0  0  0  0  0
    1.8441    3.9987    2.5022 C   0  0  0  0  0  0  0  0  0  0  0  0
    0.4842    2.1831    1.3592 H   0  0  0  0  0  0  0  0  0  0  0  0
    1.9482    4.3096    0.3682 H   0  0  0  0  0  0  0  0  0  0  0  0
    2.0161    3.2071    3.2407 H   0  0  0  0  0  0  0  0  0  0  0  0
    2.4919    4.8417    2.7645 H   0  0  0  0  0  0  0  0  0  0  0  0
    0.8032    4.3249    2.6009 H   0  0  0  0  0  0  0  0  0  0  0  0
    4.4628    4.0605    0.8393 N   0  0  0  0  0  0  0  0  0  0  0  0
    5.8867    3.8524    0.7152 C   0  0  0  0  0  0  0  0  0  0  0  0
    4.1177    5.0148    0.7951 H   0  0  0  0  0  0  0  0  0  0  0  0
    6.3507    3.8841    1.7120 H   0  0  0  0  0  0  0  0  0  0  0  0
    6.0749    2.8716    0.2542 H   0  0  0  0  0  0  0  0  0  0  0  0
    6.3190    4.6431    0.0843 H   0  0  0  0  0  0  0  0  0  0  0  0
 25 27  1  0  0  0  0
 26 27  2  0  0  0  0
 23 25  2  0  0  0  0
 24 26  1  0  0  0  0
 22 23  1  0  0  0  0
 22 24  2  0  0  0  0
 21 22  1  0  0  0  0
  1  3  1  0  0  0  0
  1  7  1  0  0  0  0
  1  2  2  0  0  0  0
 38 39  1  0  0  0  0
 39 47  1  0  0  0  0
 39 40  2  0  0  0  0
  8  9  1  0  0  0  0
  9 17  1  0  0  0  0
  9 10  2  0  0  0  0
 18 19  1  0  0  0  0
 19 37  1  0  0  0  0
 19 20  2  0  0  0  0
 38 41  1  0  0  0  0
  8 11  1  0  0  0  0
 47 48  1  0  0  0  0
 18 21  1  0  0  0  0
 37 38  1  0  0  0  0
  7  8  1  0  0  0  0
 17 18  1  0  0  0  0
 27 36  1  0  0  0  0
 25 34  1  0  0  0  0
 26 35  1  0  0  0  0
 23 32  1  0  0  0  0
 24 33  1  0  0  0  0
  3  4  1  0  0  0  0
  3  5  1  0  0  0  0
  3  6  1  0  0  0  0
 41 44  1  0  0  0  0
 41 45  1  0  0  0  0
 41 46  1  0  0  0  0
 11 14  1  0  0  0  0
 11 15  1  0  0  0  0
 11 16  1  0  0  0  0
 48 50  1  0  0  0  0
 48 51  1  0  0  0  0
 48 52  1  0  0  0  0
 21 30  1  0  0  0  0
 21 31  1  0  0  0  0
 38 43  1  0  0  0  0
  8 13  1  0  0  0  0
 18 29  1  0  0  0  0
 47 49  1  0  0  0  0
  7 12  1  0  0  0  0
 37 42  1  0  0  0  0
 17 28  1  0  0  0  0
M  END
$$$$

  -OEChem-05262214473D

 52 52  0     1  0  0  0  0  0999 V2000
   -1.8248    0.3424    3.9102 C   0  0  0  0  0  0  0  0  0  0  0  0
   -0.8774   -0.2723    3.4345 O   0  0  0  0  0  0  0  0  0  0  0  0
   -2.2566    0.0600    5.3109 C   0  0  0  0  0  0  0  0  0  0  0  0
   -3.0163   -0.7363    5.3643 H   0  0  0  0  0  0  0  0  0  0  0  0
   -1.4254   -0.2876    5.9452 H   0  0  0  0  0  0  0  0  0  0  0  0
   -2.6947    0.9149    5.8505 H   0  0  0  0  0  0  0  0  0  0  0  0
   -2.5745    1.3149    3.2691 N   0  0  0  0  0  0  0  0  0  0  0  0
   -2.3276    1.7409    1.9167 C   0  0  2  0  0  0  0  0  0  0  0  0
   -0.9926    1.1555    1.4755 C   0  0  0  0  0  0  0  0  0  0  0  0
   -0.1206    0.8028    2.2668 O   0  0  0  0  0  0  0  0  0  0  0  0
   -2.3188    3.2577    1.8072 C   0  0  0  0  0  0  0  0  0  0  0  0
   -3.3395    1.7507    3.7809 H   0  0  0  0  0  0  0  0  0  0  0  0
   -3.1317    1.3224    1.3015 H   0  0  0  0  0  0  0  0  0  0  0  0
   -1.5198    3.6949    2.4169 H   0  0  0  0  0  0  0  0  0  0  0  0
   -2.1594    3.5799    0.7729 H   0  0  0  0  0  0  0  0  0  0  0  0
   -3.2690    3.6789    2.1530 H   0  0  0  0  0  0  0  0  0  0  0  0
   -0.8700    1.1124    0.0921 N   0  0  0  0  0  0  0  0  0  0  0  0
    0.3073    0.6116   -0.5716 C   0  0  2  0  0  0  0  0  0  0  0  0
    1.3892    1.6771   -0.4358 C   0  0  0  0  0  0  0  0  0  0  0  0
    2.0782    2.0553   -1.3808 O   0  0  0  0  0  0  0  0  0  0  0  0
    0.0497    0.2991   -2.0501 C   0  0  0  0  0  0  0  0  0  0  0  0
   -0.8992   -0.8581   -2.2454 C   0  0  0  0  0  0  0  0  0  0  0  0
   -0.4310   -2.1686   -2.1492 C   0  0  0  0  0  0  0  0  0  0  0  0
   -2.2449   -0.6168   -2.5218 C   0  0  0  0  0  0  0  0  0  0  0  0
   -1.3086   -3.2377   -2.3295 C   0  0  0  0  0  0  0  0  0  0  0  0
   -3.1225   -1.6859   -2.7022 C   0  0  0  0  0  0  0  0  0  0  0  0
   -2.6543   -2.9963   -2.6059 C   0  0  0  0  0  0  0  0  0  0  0  0
   -1.6531    1.4091   -0.4852 H   0  0  0  0  0  0  0  0  0  0  0  0
    0.6169   -0.2861   -0.0235 H   0  0  0  0  0  0  0  0  0  0  0  0
    0.9971    0.0910   -2.5656 H   0  0  0  0  0  0  0  0  0  0  0  0
   -0.3688    1.1768   -2.5604 H   0  0  0  0  0  0  0  0  0  0  0  0
    0.6158   -2.3661   -1.9340 H   0  0  0  0  0  0  0  0  0  0  0  0
   -2.6186    0.4009   -2.5985 H   0  0  0  0  0  0  0  0  0  0  0  0
   -0.9437   -4.2580   -2.2557 H   0  0  0  0  0  0  0  0  0  0  0  0
   -4.1699   -1.4976   -2.9184 H   0  0  0  0  0  0  0  0  0  0  0  0
   -3.3372   -3.8289   -2.7477 H   0  0  0  0  0  0  0  0  0  0  0  0
    1.4568    2.1876    0.8532 N   0  0  0  0  0  0  0  0  0  0  0  0
    2.3811    3.2262    1.2479 C   0  0  2  0  0  0  0  0  0  0  0  0
    3.7716    2.8228    0.7755 C   0  0  0  0  0  0  0  0  0  0  0  0
    4.0884    1.6587    0.5397 O   0  0  0  0  0  0  0  0  0  0  0  0
    2.3599    3.4430    2.7529 C   0  0  0  0  0  0  0  0  0  0  0  0
    0.8249    1.8123    1.5543 H   0  0  0  0  0  0  0  0  0  0  0  0
    2.0697    4.1401    0.7302 H   0  0  0  0  0  0  0  0  0  0  0  0
    2.6690    2.5380    3.2886 H   0  0  0  0  0  0  0  0  0  0  0  0
    3.0395    4.2496    3.0472 H   0  0  0  0  0  0  0  0  0  0  0  0
    1.3526    3.7040    3.0950 H   0  0  0  0  0  0  0  0  0  0  0  0
    4.6296    3.9103    0.6897 N   0  0  0  0  0  0  0  0  0  0  0  0
    6.0079    3.7853    0.2766 C   0  0  0  0  0  0  0  0  0  0  0  0
    4.2763    4.8422    0.8860 H   0  0  0  0  0  0  0  0  0  0  0  0
    6.6463    3.6539    1.1627 H   0  0  0  0  0  0  0  0  0  0  0  0
    6.1146    2.9127   -0.3847 H   0  0  0  0  0  0  0  0  0  0  0  0
    6.3126    4.6940   -0.2633 H   0  0  0  0  0  0  0  0  0  0  0  0
 25 27  1  0  0  0  0
 26 27  2  0  0  0  0
 23 25  2  0  0  0  0
 24 26  1  0  0  0  0
 22 23  1  0  0  0  0
 22 24  2  0  0  0  0
 21 22  1  0  0  0  0
  1  3  1  0  0  0  0
  1  7  1  0  0  0  0
  1  2  2  0  0  0  0
 38 39  1  0  0  0  0
 39 47  1  0  0  0  0
 39 40  2  0  0  0  0
  8  9  1  0  0  0  0
  9 17  1  0  0  0  0
  9 10  2  0  0  0  0
 18 19  1  0  0  0  0
 19 37  1  0  0  0  0
 19 20  2  0  0  0  0
 38 41  1  0  0  0  0
  8 11  1  0  0  0  0
 47 48  1  0  0  0  0
 18 21  1  0  0  0  0
 37 38  1  0  0  0  0
  7  8  1  0  0  0  0
 17 18  1  0  0  0  0
 27 36  1  0  0  0  0
 25 34  1  0  0  0  0
 26 35  1  0  0  0  0
 23 32  1  0  0  0  0
 24 33  1  0  0  0  0
  3  4  1  0  0  0  0
  3  5  1  0  0  0  0
  3  6  1  0  0  0  0
 41 44  1  0  0  0  0
 41 45  1  0  0  0  0
 41 46  1  0  0  0  0
 11 14  1  0  0  0  0
 11 15  1  0  0  0  0
 11 16  1  0  0  0  0
 48 50  1  0  0  0  0
 48 51  1  0  0  0  0
 48 52  1  0  0  0  0
 21 30  1  0  0  0  0
 21 31  1  0  0  0  0
 38 43  1  0  0  0  0
  8 13  1  0  0  0  0
 18 29  1  0  0  0  0
 47 49  1  0  0  0  0
  7 12  1  0  0  0  0
 37 42  1  0  0  0  0
 17 28  1  0  0  0  0
M  END
$$$$

  -OEChem-05262214473D

 52 52  0     1  0  0  0  0  0999 V2000
   -1.8248    0.3424    3.9102 C   0  0  0  0  0  0  0  0  0  0  0  0
   -0.8774   -0.2723    3.4345 O   0  0  0  0  0  0  0  0  0  0  0  0
   -2.2566    0.0600    5.3109 C   0  0  0  0  0  0  0  0  0  0  0  0
   -3.0163   -0.7363    5.3643 H   0  0  0  0  0  0  0  0  0  0  0  0
   -1.4254   -0.2876    5.9452 H   0  0  0  0  0  0  0  0  0  0  0  0
   -2.6947    0.9149    5.8505 H   0  0  0  0  0  0  0  0  0  0  0  0
   -2.5745    1.3149    3.2691 N   0  0  0  0  0  0  0  0  0  0  0  0
   -2.3276    1.7409    1.9167 C   0  0  2  0  0  0  0  0  0  0  0  0
   -0.9926    1.1555    1.4755 C   0  0  0  0  0  0  0  0  0  0  0  0
   -0.1206    0.8028    2.2668 O   0  0  0  0  0  0  0  0  0  0  0  0
   -2.3188    3.2577    1.8072 C   0  0  0  0  0  0  0  0  0  0  0  0
   -3.3395    1.7507    3.7809 H   0  0  0  0  0  0  0  0  0  0  0  0
   -3.1317    1.3224    1.3015 H   0  0  0  0  0  0  0  0  0  0  0  0
   -1.5198    3.6949    2.4169 H   0  0  0  0  0  0  0  0  0  0  0  0
   -2.1594    3.5799    0.7729 H   0  0  0  0  0  0  0  0  0  0  0  0
   -3.2690    3.6789    2.1530 H   0  0  0  0  0  0  0  0  0  0  0  0
   -0.8700    1.1124    0.0921 N   0  0  0  0  0  0  0  0  0  0  0  0
    0.3073    0.6116   -0.5716 C   0  0  2  0  0  0  0  0  0  0  0  0
    1.3892    1.6771   -0.4358 C   0  0  0  0  0  0  0  0  0  0  0  0
    1.8913    2.2478   -1.4017 O   0  0  0  0  0  0  0  0  0  0  0  0
    0.0497    0.2991   -2.0501 C   0  0  0  0  0  0  0  0  0  0  0  0
   -0.8992   -0.8581   -2.2454 C   0  0  0  0  0  0  0  0  0  0  0  0
   -0.4310   -2.1686   -2.1492 C   0  0  0  0  0  0  0  0  0  0  0  0
   -2.2449   -0.6168   -2.5218 C   0  0  0  0  0  0  0  0  0  0  0  0
   -1.3086   -3.2377   -2.3295 C   0  0  0  0  0  0  0  0  0  0  0  0
   -3.1225   -1.6859   -2.7022 C   0  0  0  0  0  0  0  0  0  0  0  0
   -2.6543   -2.9963   -2.6059 C   0  0  0  0  0  0  0  0  0  0  0  0
   -1.6531    1.4091   -0.4852 H   0  0  0  0  0  0  0  0  0  0  0  0
    0.6169   -0.2861   -0.0235 H   0  0  0  0  0  0  0  0  0  0  0  0
    0.9971    0.0910   -2.5656 H   0  0  0  0  0  0  0  0  0  0  0  0
   -0.3688    1.1768   -2.5604 H   0  0  0  0  0  0  0  0  0  0  0  0
    0.6158   -2.3661   -1.9340 H   0  0  0  0  0  0  0  0  0  0  0  0
   -2.6186    0.4009   -2.5985 H   0  0  0  0  0  0  0  0  0  0  0  0
   -0.9437   -4.2580   -2.2557 H   0  0  0  0  0  0  0  0  0  0  0  0
   -4.1699   -1.4976   -2.9184 H   0  0  0  0  0  0  0  0  0  0  0  0
   -3.3372   -3.8289   -2.7477 H   0  0  0  0  0  0  0  0  0  0  0  0
    1.6885    1.9474    0.8923 N   0  0  0  0  0  0  0  0  0  0  0  0
    2.6629    2.9332    1.3015 C   0  0  2  0  0  0  0  0  0  0  0  0
    3.9460    2.6781    0.5216 C   0  0  0  0  0  0  0  0  0  0  0  0
    4.2214    1.5898    0.0208 O   0  0  0  0  0  0  0  0  0  0  0  0
    2.9163    2.8721    2.7997 C   0  0  0  0  0  0  0  0  0  0  0  0
    1.1979    1.4261    1.6130 H   0  0  0  0  0  0  0  0  0  0  0  0
    2.2565    3.9126    1.0268 H   0  0  0  0  0  0  0  0  0  0  0  0
    3.3238    1.8980    3.0939 H   0  0  0  0  0  0  0  0  0  0  0  0
    3.6333    3.6384    3.1125 H   0  0  0  0  0  0  0  0  0  0  0  0
    1.9870    3.0262    3.3588 H   0  0  0  0  0  0  0  0  0  0  0  0
    4.7670    3.7965    0.4874 N   0  0  0  0  0  0  0  0  0  0  0  0
    6.0472    3.8038   -0.1813 C   0  0  0  0  0  0  0  0  0  0  0  0
    4.4499    4.6624    0.9134 H   0  0  0  0  0  0  0  0  0  0  0  0
    6.8378    3.5393    0.5363 H   0  0  0  0  0  0  0  0  0  0  0  0
    6.0364    3.0707   -1.0014 H   0  0  0  0  0  0  0  0  0  0  0  0
    6.2423    4.8068   -0.5886 H   0  0  0  0  0  0  0  0  0  0  0  0
 25 27  1  0  0  0  0
 26 27  2  0  0  0  0
 23 25  2  0  0  0  0
 24 26  1  0  0  0  0
 22 23  1  0  0  0  0
 22 24  2  0  0  0  0
 21 22  1  0  0  0  0
  1  3  1  0  0  0  0
  1  7  1  0  0  0  0
  1  2  2  0  0  0  0
 38 39  1  0  0  0  0
 39 47  1  0  0  0  0
 39 40  2  0  0  0  0
  8  9  1  0  0  0  0
  9 17  1  0  0  0  0
  9 10  2  0  0  0  0
 18 19  1  0  0  0  0
 19 37  1  0  0  0  0
 19 20  2  0  0  0  0
 38 41  1  0  0  0  0
  8 11  1  0  0  0  0
 47 48  1  0  0  0  0
 18 21  1  0  0  0  0
 37 38  1  0  0  0  0
  7  8  1  0  0  0  0
 17 18  1  0  0  0  0
 27 36  1  0  0  0  0
 25 34  1  0  0  0  0
 26 35  1  0  0  0  0
 23 32  1  0  0  0  0
 24 33  1  0  0  0  0
  3  4  1  0  0  0  0
  3  5  1  0  0  0  0
  3  6  1  0  0  0  0
 41 44  1  0  0  0  0
 41 45  1  0  0  0  0
 41 46  1  0  0  0  0
 11 14  1  0  0  0  0
 11 15  1  0  0  0  0
 11 16  1  0  0  0  0
 48 50  1  0  0  0  0
 48 51  1  0  0  0  0
 48 52  1  0  0  0  0
 21 30  1  0  0  0  0
 21 31  1  0  0  0  0
 38 43  1  0  0  0  0
  8 13  1  0  0  0  0
 18 29  1  0  0  0  0
 47 49  1  0  0  0  0
  7 12  1  0  0  0  0
 37 42  1  0  0  0  0
 17 28  1  0  0  0  0
M  END
$$$$

  -OEChem-05262214473D

 52 52  0     1  0  0  0  0  0999 V2000
   -1.8248    0.3424    3.9102 C   0  0  0  0  0  0  0  0  0  0  0  0
   -0.8774   -0.2723    3.4345 O   0  0  0  0  0  0  0  0  0  0  0  0
   -2.2566    0.0600    5.3109 C   0  0  0  0  0  0  0  0  0  0  0  0
   -3.0163   -0.7363    5.3643 H   0  0  0  0  0  0  0  0  0  0  0  0
   -1.4254   -0.2876    5.9452 H   0  0  0  0  0  0  0  0  0  0  0  0
   -2.6947    0.9149    5.8505 H   0  0  0  0  0  0  0  0  0  0  0  0
   -2.5745    1.3149    3.2691 N   0  0  0  0  0  0  0  0  0  0  0  0
   -2.3276    1.7409    1.9167 C   0  0  2  0  0  0  0  0  0  0  0  0
   -0.9926    1.1555    1.4755 C   0  0  0  0  0  0  0  0  0  0  0  0
   -0.1206    0.8028    2.2668 O   0  0  0  0  0  0  0  0  0  0  0  0
   -2.3188    3.2577    1.8072 C   0  0  0  0  0  0  0  0  0  0  0  0
   -3.3395    1.7507    3.7809 H   0  0  0  0  0  0  0  0  0  0  0  0
   -3.1317    1.3224    1.3015 H   0  0  0  0  0  0  0  0  0  0  0  0
   -1.5198    3.6949    2.4169 H   0  0  0  0  0  0  0  0  0  0  0  0
   -2.1594    3.5799    0.7729 H   0  0  0  0  0  0  0  0  0  0  0  0
   -3.2690    3.6789    2.1530 H   0  0  0  0  0  0  0  0  0  0  0  0
   -0.8700    1.1124    0.0921 N   0  0  0  0  0  0  0  0  0  0  0  0
    0.3073    0.6116   -0.5716 C   0  0  2  0  0  0  0  0  0  0  0  0
    1.3892    1.6771   -0.4358 C   0  0  0  0  0  0  0  0  0  0  0  0
    1.7025    2.4333   -1.3528 O   0  0  0  0  0  0  0  0  0  0  0  0
    0.0497    0.2991   -2.0501 C   0  0  0  0  0  0  0  0  0  0  0  0
   -0.8992   -0.8581   -2.2454 C   0  0  0  0  0  0  0  0  0  0  0  0
   -0.4310   -2.1686   -2.1492 C   0  0  0  0  0  0  0  0  0  0  0  0
   -2.2449   -0.6168   -2.5218 C   0  0  0  0  0  0  0  0  0  0  0  0
   -1.3086   -3.2377   -2.3295 C   0  0  0  0  0  0  0  0  0  0  0  0
   -3.1225   -1.6859   -2.7022 C   0  0  0  0  0  0  0  0  0  0  0  0
   -2.6543   -2.9963   -2.6059 C   0  0  0  0  0  0  0  0  0  0  0  0
   -1.6531    1.4091   -0.4852 H   0  0  0  0  0  0  0  0  0  0  0  0
    0.6169   -0.2861   -0.0235 H   0  0  0  0  0  0  0  0  0  0  0  0
    0.9971    0.0910   -2.5656 H   0  0  0  0  0  0  0  0  0  0  0  0
   -0.3688    1.1768   -2.5604 H   0  0  0  0  0  0  0  0  0  0  0  0
    0.6158   -2.3661   -1.9340 H   0  0  0  0  0  0  0  0  0  0  0  0
   -2.6186    0.4009   -2.5985 H   0  0  0  0  0  0  0  0  0  0  0  0
   -0.9437   -4.2580   -2.2557 H   0  0  0  0  0  0  0  0  0  0  0  0
   -4.1699   -1.4976   -2.9184 H   0  0  0  0  0  0  0  0  0  0  0  0
   -3.3372   -3.8289   -2.7477 H   0  0  0  0  0  0  0  0  0  0  0  0
    1.9248    1.7135    0.8442 N   0  0  0  0  0  0  0  0  0  0  0  0
    2.9516    2.6468    1.2485 C   0  0  2  0  0  0  0  0  0  0  0  0
    4.0718    2.5890    0.2182 C   0  0  0  0  0  0  0  0  0  0  0  0
    4.2576    1.6216   -0.5170 O   0  0  0  0  0  0  0  0  0  0  0  0
    3.4753    2.3249    2.6395 C   0  0  0  0  0  0  0  0  0  0  0  0
    1.5777    1.0509    1.5313 H   0  0  0  0  0  0  0  0  0  0  0  0
    2.4957    3.6428    1.2377 H   0  0  0  0  0  0  0  0  0  0  0  0
    3.9358    1.3306    2.6699 H   0  0  0  0  0  0  0  0  0  0  0  0
    4.2327    3.0497    2.9558 H   0  0  0  0  0  0  0  0  0  0  0  0
    2.6631    2.3377    3.3743 H   0  0  0  0  0  0  0  0  0  0  0  0
    4.8658    3.7269    0.2463 N   0  0  0  0  0  0  0  0  0  0  0  0
    6.0019    3.9066   -0.6273 C   0  0  0  0  0  0  0  0  0  0  0  0
    4.6267    4.4877    0.8754 H   0  0  0  0  0  0  0  0  0  0  0  0
    6.9121    3.5481   -0.1244 H   0  0  0  0  0  0  0  0  0  0  0  0
    5.8457    3.3348   -1.5540 H   0  0  0  0  0  0  0  0  0  0  0  0
    6.1130    4.9739   -0.8693 H   0  0  0  0  0  0  0  0  0  0  0  0
 25 27  1  0  0  0  0
 26 27  2  0  0  0  0
 23 25  2  0  0  0  0
 24 26  1  0  0  0  0
 22 23  1  0  0  0  0
 22 24  2  0  0  0  0
 21 22  1  0  0  0  0
  1  3  1  0  0  0  0
  1  7  1  0  0  0  0
  1  2  2  0  0  0  0
 38 39  1  0  0  0  0
 39 47  1  0  0  0  0
 39 40  2  0  0  0  0
  8  9  1  0  0  0  0
  9 17  1  0  0  0  0
  9 10  2  0  0  0  0
 18 19  1  0  0  0  0
 19 37  1  0  0  0  0
 19 20  2  0  0  0  0
 38 41  1  0  0  0  0
  8 11  1  0  0  0  0
 47 48  1  0  0  0  0
 18 21  1  0  0  0  0
 37 38  1  0  0  0  0
  7  8  1  0  0  0  0
 17 18  1  0  0  0  0
 27 36  1  0  0  0  0
 25 34  1  0  0  0  0
 26 35  1  0  0  0  0
 23 32  1  0  0  0  0
 24 33  1  0  0  0  0
  3  4  1  0  0  0  0
  3  5  1  0  0  0  0
  3  6  1  0  0  0  0
 41 44  1  0  0  0  0
 41 45  1  0  0  0  0
 41 46  1  0  0  0  0
 11 14  1  0  0  0  0
 11 15  1  0  0  0  0
 11 16  1  0  0  0  0
 48 50  1  0  0  0  0
 48 51  1  0  0  0  0
 48 52  1  0  0  0  0
 21 30  1  0  0  0  0
 21 31  1  0  0  0  0
 38 43  1  0  0  0  0
  8 13  1  0  0  0  0
 18 29  1  0  0  0  0
 47 49  1  0  0  0  0
  7 12  1  0  0  0  0
 37 42  1  0  0  0  0
 17 28  1  0  0  0  0
M  END
$$$$

  -OEChem-05262214473D

 52 52  0     1  0  0  0  0  0999 V2000
   -1.8248    0.3424    3.9102 C   0  0  0  0  0  0  0  0  0  0  0  0
   -0.8774   -0.2723    3.4345 O   0  0  0  0  0  0  0  0  0  0  0  0
   -2.2566    0.0600    5.3109 C   0  0  0  0  0  0  0  0  0  0  0  0
   -3.0163   -0.7363    5.3643 H   0  0  0  0  0  0  0  0  0  0  0  0
   -1.4254   -0.2876    5.9452 H   0  0  0  0  0  0  0  0  0  0  0  0
   -2.6947    0.9149    5.8505 H   0  0  0  0  0  0  0  0  0  0  0  0
   -2.5745    1.3149    3.2691 N   0  0  0  0  0  0  0  0  0  0  0  0
   -2.3276    1.7409    1.9167 C   0  0  2  0  0  0  0  0  0  0  0  0
   -0.9926    1.1555    1.4755 C   0  0  0  0  0  0  0  0  0  0  0  0
   -0.1206    0.8028    2.2668 O   0  0  0  0  0  0  0  0  0  0  0  0
   -2.3188    3.2577    1.8072 C   0  0  0  0  0  0  0  0  0  0  0  0
   -3.3395    1.7507    3.7809 H   0  0  0  0  0  0  0  0  0  0  0  0
   -3.1317    1.3224    1.3015 H   0  0  0  0  0  0  0  0  0  0  0  0
   -1.5198    3.6949    2.4169 H   0  0  0  0  0  0  0  0  0  0  0  0
   -2.1594    3.5799    0.7729 H   0  0  0  0  0  0  0  0  0  0  0  0
   -3.2690    3.6789    2.1530 H   0  0  0  0  0  0  0  0  0  0  0  0
   -0.8700    1.1124    0.0921 N   0  0  0  0  0  0  0  0  0  0  0  0
    0.3073    0.6116   -0.5716 C   0  0  2  0  0  0  0  0  0  0  0  0
    1.3892    1.6771   -0.4358 C   0  0  0  0  0  0  0  0  0  0  0  0
    1.5247    2.5991   -1.2373 O   0  0  0  0  0  0  0  0  0  0  0  0
    0.0497    0.2991   -2.0501 C   0  0  0  0  0  0  0  0  0  0  0  0
   -0.8992   -0.8581   -2.2454 C   0  0  0  0  0  0  0  0  0  0  0  0
   -0.4310   -2.1686   -2.1492 C   0  0  0  0  0  0  0  0  0  0  0  0
   -2.2449   -0.6168   -2.5218 C   0  0  0  0  0  0  0  0  0  0  0  0
   -1.3086   -3.2377   -2.3295 C   0  0  0  0  0  0  0  0  0  0  0  0
   -3.1225   -1.6859   -2.7022 C   0  0  0  0  0  0  0  0  0  0  0  0
   -2.6543   -2.9963   -2.6059 C   0  0  0  0  0  0  0  0  0  0  0  0
   -1.6531    1.4091   -0.4852 H   0  0  0  0  0  0  0  0  0  0  0  0
    0.6169   -0.2861   -0.0235 H   0  0  0  0  0  0  0  0  0  0  0  0
    0.9971    0.0910   -2.5656 H   0  0  0  0  0  0  0  0  0  0  0  0
   -0.3688    1.1768   -2.5604 H   0  0  0  0  0  0  0  0  0  0  0  0
    0.6158   -2.3661   -1.9340 H   0  0  0  0  0  0  0  0  0  0  0  0
   -2.6186    0.4009   -2.5985 H   0  0  0  0  0  0  0  0  0  0  0  0
   -0.9437   -4.2580   -2.2557 H   0  0  0  0  0  0  0  0  0  0  0  0
   -4.1699   -1.4976   -2.9184 H   0  0  0  0  0  0  0  0  0  0  0  0
   -3.3372   -3.8289   -2.7477 H   0  0  0  0  0  0  0  0  0  0  0  0
    2.1498    1.5019    0.7119 N   0  0  0  0  0  0  0  0  0  0  0  0
    3.2275    2.3865    1.0925 C   0  0  2  0  0  0  0  0  0  0  0  0
    4.1405    2.5616   -0.1139 C   0  0  0  0  0  0  0  0  0  0  0  0
    4.1946    1.7519   -1.0373 O   0  0  0  0  0  0  0  0  0  0  0  0
    3.9990    1.8386    2.2830 C   0  0  0  0  0  0  0  0  0  0  0  0
    1.9384    0.7122    1.3148 H   0  0  0  0  0  0  0  0  0  0  0  0
    2.7712    3.3489    1.3486 H   0  0  0  0  0  0  0  0  0  0  0  0
    4.4633    0.8746    2.0454 H   0  0  0  0  0  0  0  0  0  0  0  0
    4.7970    2.5236    2.5880 H   0  0  0  0  0  0  0  0  0  0  0  0
    3.3349    1.6853    3.1405 H   0  0  0  0  0  0  0  0  0  0  0  0
    4.9192    3.7063   -0.0173 N   0  0  0  0  0  0  0  0  0  0  0  0
    5.8750    4.0868   -1.0310 C   0  0  0  0  0  0  0  0  0  0  0  0
    4.7946    4.3301    0.7746 H   0  0  0  0  0  0  0  0  0  0  0  0
    6.8642    3.6796   -0.7744 H   0  0  0  0  0  0  0  0  0  0  0  0
    5.5554    3.6870   -2.0047 H   0  0  0  0  0  0  0  0  0  0  0  0
    5.9334    5.1839   -1.0864 H   0  0  0  0  0  0  0  0  0  0  0  0
 25 27  1  0  0  0  0
 26 27  2  0  0  0  0
 23 25  2  0  0  0  0
 24 26  1  0  0  0  0
 22 23  1  0  0  0  0
 22 24  2  0  0  0  0
 21 22  1  0  0  0  0
  1  3  1  0  0  0  0
  1  7  1  0  0  0  0
  1  2  2  0  0  0  0
 38 39  1  0  0  0  0
 39 47  1  0  0  0  0
 39 40  2  0  0  0  0
  8  9  1  0  0  0  0
  9 17  1  0  0  0  0
  9 10  2  0  0  0  0
 18 19  1  0  0  0  0
 19 37  1  0  0  0  0
 19 20  2  0  0  0  0
 38 41  1  0  0  0  0
  8 11  1  0  0  0  0
 47 48  1  0  0  0  0
 18 21  1  0  0  0  0
 37 38  1  0  0  0  0
  7  8  1  0  0  0  0
 17 18  1  0  0  0  0
 27 36  1  0  0  0  0
 25 34  1  0  0  0  0
 26 35  1  0  0  0  0
 23 32  1  0  0  0  0
 24 33  1  0  0  0  0
  3  4  1  0  0  0  0
  3  5  1  0  0  0  0
  3  6  1  0  0  0  0
 41 44  1  0  0  0  0
 41 45  1  0  0  0  0
 41 46  1  0  0  0  0
 11 14  1  0  0  0  0
 11 15  1  0  0  0  0
 11 16  1  0  0  0  0
 48 50  1  0  0  0  0
 48 51  1  0  0  0  0
 48 52  1  0  0  0  0
 21 30  1  0  0  0  0
 21 31  1  0  0  0  0
 38 43  1  0  0  0  0
  8 13  1  0  0  0  0
 18 29  1  0  0  0  0
 47 49  1  0  0  0  0
  7 12  1  0  0  0  0
 37 42  1  0  0  0  0
 17 28  1  0  0  0  0
M  END
$$$$

  -OEChem-05262214473D

 52 52  0     1  0  0  0  0  0999 V2000
   -1.8248    0.3424    3.9102 C   0  0  0  0  0  0  0  0  0  0  0  0
   -0.8774   -0.2723    3.4345 O   0  0  0  0  0  0  0  0  0  0  0  0
   -2.2566    0.0600    5.3109 C   0  0  0  0  0  0  0  0  0  0  0  0
   -3.0163   -0.7363    5.3643 H   0  0  0  0  0  0  0  0  0  0  0  0
   -1.4254   -0.2876    5.9452 H   0  0  0  0  0  0  0  0  0  0  0  0
   -2.6947    0.9149    5.8505 H   0  0  0  0  0  0  0  0  0  0  0  0
   -2.5745    1.3149    3.2691 N   0  0  0  0  0  0  0  0  0  0  0  0
   -2.3276    1.7409    1.9167 C   0  0  2  0  0  0  0  0  0  0  0  0
   -0.9926    1.1555    1.4755 C   0  0  0  0  0  0  0  0  0  0  0  0
   -0.1206    0.8028    2.2668 O   0  0  0  0  0  0  0  0  0  0  0  0
   -2.3188    3.2577    1.8072 C   0  0  0  0  0  0  0  0  0  0  0  0
   -3.3395    1.7507    3.7809 H   0  0  0  0  0  0  0  0  0  0  0  0
   -3.1317    1.3224    1.3015 H   0  0  0  0  0  0  0  0  0  0  0  0
   -1.5198    3.6949    2.4169 H   0  0  0  0  0  0  0  0  0  0  0  0
   -2.1594    3.5799    0.7729 H   0  0  0  0  0  0  0  0  0  0  0  0
   -3.2690    3.6789    2.1530 H   0  0  0  0  0  0  0  0  0  0  0  0
   -0.8700    1.1124    0.0921 N   0  0  0  0  0  0  0  0  0  0  0  0
    0.3073    0.6116   -0.5716 C   0  0  2  0  0  0  0  0  0  0  0  0
    1.3892    1.6771   -0.4358 C   0  0  0  0  0  0  0  0  0  0  0  0
    1.3700    2.7340   -1.0631 O   0  0  0  0  0  0  0  0  0  0  0  0
    0.0497    0.2991   -2.0501 C   0  0  0  0  0  0  0  0  0  0  0  0
   -0.8992   -0.8581   -2.2454 C   0  0  0  0  0  0  0  0  0  0  0  0
   -0.4310   -2.1686   -2.1492 C   0  0  0  0  0  0  0  0  0  0  0  0
   -2.2449   -0.6168   -2.5218 C   0  0  0  0  0  0  0  0  0  0  0  0
   -1.3086   -3.2377   -2.3295 C   0  0  0  0  0  0  0  0  0  0  0  0
   -3.1225   -1.6859   -2.7022 C   0  0  0  0  0  0  0  0  0  0  0  0
   -2.6543   -2.9963   -2.6059 C   0  0  0  0  0  0  0  0  0  0  0  0
   -1.6531    1.4091   -0.4852 H   0  0  0  0  0  0  0  0  0  0  0  0
    0.6169   -0.2861   -0.0235 H   0  0  0  0  0  0  0  0  0  0  0  0
    0.9971    0.0910   -2.5656 H   0  0  0  0  0  0  0  0  0  0  0  0
   -0.3688    1.1768   -2.5604 H   0  0  0  0  0  0  0  0  0  0  0  0
    0.6158   -2.3661   -1.9340 H   0  0  0  0  0  0  0  0  0  0  0  0
   -2.6186    0.4009   -2.5985 H   0  0  0  0  0  0  0  0  0  0  0  0
   -0.9437   -4.2580   -2.2557 H   0  0  0  0  0  0  0  0  0  0  0  0
   -4.1699   -1.4976   -2.9184 H   0  0  0  0  0  0  0  0  0  0  0  0
   -3.3372   -3.8289   -2.7477 H   0  0  0  0  0  0  0  0  0  0  0  0
    2.3481    1.3270    0.5046 N   0  0  0  0  0  0  0  0  0  0  0  0
    3.4718    2.1702    0.8441 C   0  0  2  0  0  0  0  0  0  0  0  0
    4.1474    2.5976   -0.4522 C   0  0  0  0  0  0  0  0  0  0  0  0
    4.0366    1.9719   -1.5045 O   0  0  0  0  0  0  0  0  0  0  0  0
    4.4515    1.4465    1.7547 C   0  0  0  0  0  0  0  0  0  0  0  0
    2.2555    0.4331    0.9782 H   0  0  0  0  0  0  0  0  0  0  0  0
    3.0641    3.0511    1.3519 H   0  0  0  0  0  0  0  0  0  0  0  0
    4.8704    0.5609    1.2630 H   0  0  0  0  0  0  0  0  0  0  0  0
    5.2876    2.0961    2.0339 H   0  0  0  0  0  0  0  0  0  0  0  0
    3.9566    1.1136    2.6734 H   0  0  0  0  0  0  0  0  0  0  0  0
    4.9236    3.7360   -0.2854 N   0  0  0  0  0  0  0  0  0  0  0  0
    5.6754    4.3321   -1.3650 C   0  0  0  0  0  0  0  0  0  0  0  0
    4.9422    4.2001    0.6179 H   0  0  0  0  0  0  0  0  0  0  0  0
    6.6972    3.9250   -1.3695 H   0  0  0  0  0  0  0  0  0  0  0  0
    5.1854    4.1033   -2.3229 H   0  0  0  0  0  0  0  0  0  0  0  0
    5.7159    5.4225   -1.2251 H   0  0  0  0  0  0  0  0  0  0  0  0
 25 27  1  0  0  0  0
 26 27  2  0  0  0  0
 23 25  2  0  0  0  0
 24 26  1  0  0  0  0
 22 23  1  0  0  0  0
 22 24  2  0  0  0  0
 21 22  1  0  0  0  0
  1  3  1  0  0  0  0
  1  7  1  0  0  0  0
  1  2  2  0  0  0  0
 38 39  1  0  0  0  0
 39 47  1  0  0  0  0
 39 40  2  0  0  0  0
  8  9  1  0  0  0  0
  9 17  1  0  0  0  0
  9 10  2  0  0  0  0
 18 19  1  0  0  0  0
 19 37  1  0  0  0  0
 19 20  2  0  0  0  0
 38 41  1  0  0  0  0
  8 11  1  0  0  0  0
 47 48  1  0  0  0  0
 18 21  1  0  0  0  0
 37 38  1  0  0  0  0
  7  8  1  0  0  0  0
 17 18  1  0  0  0  0
 27 36  1  0  0  0  0
 25 34  1  0  0  0  0
 26 35  1  0  0  0  0
 23 32  1  0  0  0  0
 24 33  1  0  0  0  0
  3  4  1  0  0  0  0
  3  5  1  0  0  0  0
  3  6  1  0  0  0  0
 41 44  1  0  0  0  0
 41 45  1  0  0  0  0
 41 46  1  0  0  0  0
 11 14  1  0  0  0  0
 11 15  1  0  0  0  0
 11 16  1  0  0  0  0
 48 50  1  0  0  0  0
 48 51  1  0  0  0  0
 48 52  1  0  0  0  0
 21 30  1  0  0  0  0
 21 31  1  0  0  0  0
 38 43  1  0  0  0  0
  8 13  1  0  0  0  0
 18 29  1  0  0  0  0
 47 49  1  0  0  0  0
  7 12  1  0  0  0  0
 37 42  1  0  0  0  0
 17 28  1  0  0  0  0
M  END
$$$$

  -OEChem-05262214473D

 52 52  0     1  0  0  0  0  0999 V2000
   -1.8248    0.3424    3.9102 C   0  0  0  0  0  0  0  0  0  0  0  0
   -0.8774   -0.2723    3.4345 O   0  0  0  0  0  0  0  0  0  0  0  0
   -2.2566    0.0600    5.3109 C   0  0  0  0  0  0  0  0  0  0  0  0
   -3.0163   -0.7363    5.3643 H   0  0  0  0  0  0  0  0  0  0  0  0
   -1.4254   -0.2876    5.9452 H   0  0  0  0  0  0  0  0  0  0  0  0
   -2.6947    0.9149    5.8505 H   0  0  0  0  0  0  0  0  0  0  0  0
   -2.5745    1.3149    3.2691 N   0  0  0  0  0  0  0  0  0  0  0  0
   -2.3276    1.7409    1.9167 C   0  0  2  0  0  0  0  0  0  0  0  0
   -0.9926    1.1555    1.4755 C   0  0  0  0  0  0  0  0  0  0  0  0
   -0.1206    0.8028    2.2668 O   0  0  0  0  0  0  0  0  0  0  0  0
   -2.3188    3.2577    1.8072 C   0  0  0  0  0  0  0  0  0  0  0  0
   -3.3395    1.7507    3.7809 H   0  0  0  0  0  0  0  0  0  0  0  0
   -3.1317    1.3224    1.3015 H   0  0  0  0  0  0  0  0  0  0  0  0
   -1.5198    3.6949    2.4169 H   0  0  0  0  0  0  0  0  0  0  0  0
   -2.1594    3.5799    0.7729 H   0  0  0  0  0  0  0  0  0  0  0  0
   -3.2690    3.6789    2.1530 H   0  0  0  0  0  0  0  0  0  0  0  0
   -0.8700    1.1124    0.0921 N   0  0  0  0  0  0  0  0  0  0  0  0
    0.3073    0.6116   -0.5716 C   0  0  2  0  0  0  0  0  0  0  0  0
    1.3892    1.6771   -0.4358 C   0  0  0  0  0  0  0  0  0  0  0  0
    1.2490    2.8287   -0.8421 O   0  0  0  0  0  0  0  0  0  0  0  0
    0.0497    0.2991   -2.0501 C   0  0  0  0  0  0  0  0  0  0  0  0
   -0.8992   -0.8581   -2.2454 C   0  0  0  0  0  0  0  0  0  0  0  0
   -0.4310   -2.1686   -2.1492 C   0  0  0  0  0  0  0  0  0  0  0  0
   -2.2449   -0.6168   -2.5218 C   0  0  0  0  0  0  0  0  0  0  0  0
   -1.3086   -3.2377   -2.3295 C   0  0  0  0  0  0  0  0  0  0  0  0
   -3.1225   -1.6859   -2.7022 C   0  0  0  0  0  0  0  0  0  0  0  0
   -2.6543   -2.9963   -2.6059 C   0  0  0  0  0  0  0  0  0  0  0  0
   -1.6531    1.4091   -0.4852 H   0  0  0  0  0  0  0  0  0  0  0  0
    0.6169   -0.2861   -0.0235 H   0  0  0  0  0  0  0  0  0  0  0  0
    0.9971    0.0910   -2.5656 H   0  0  0  0  0  0  0  0  0  0  0  0
   -0.3688    1.1768   -2.5604 H   0  0  0  0  0  0  0  0  0  0  0  0
    0.6158   -2.3661   -1.9340 H   0  0  0  0  0  0  0  0  0  0  0  0
   -2.6186    0.4009   -2.5985 H   0  0  0  0  0  0  0  0  0  0  0  0
   -0.9437   -4.2580   -2.2557 H   0  0  0  0  0  0  0  0  0  0  0  0
   -4.1699   -1.4976   -2.9184 H   0  0  0  0  0  0  0  0  0  0  0  0
   -3.3372   -3.8289   -2.7477 H   0  0  0  0  0  0  0  0  0  0  0  0
    2.5062    1.2007    0.2364 N   0  0  0  0  0  0  0  0  0  0  0  0
    3.6678    2.0124    0.5202 C   0  0  2  0  0  0  0  0  0  0  0  0
    4.0921    2.6948   -0.7736 C   0  0  0  0  0  0  0  0  0  0  0  0
    3.7944    2.2666   -1.8867 O   0  0  0  0  0  0  0  0  0  0  0  0
    4.8020    1.1752    1.0905 C   0  0  0  0  0  0  0  0  0  0  0  0
    2.5073    0.2327    0.5444 H   0  0  0  0  0  0  0  0  0  0  0  0
    3.3546    2.7695    1.2473 H   0  0  0  0  0  0  0  0  0  0  0  0
    5.1293    0.4111    0.3760 H   0  0  0  0  0  0  0  0  0  0  0  0
    5.6711    1.7961    1.3315 H   0  0  0  0  0  0  0  0  0  0  0  0
    4.4857    0.6616    2.0048 H   0  0  0  0  0  0  0  0  0  0  0  0
    4.8787    3.8140   -0.5396 N   0  0  0  0  0  0  0  0  0  0  0  0
    5.4165    4.6258   -1.6063 C   0  0  0  0  0  0  0  0  0  0  0  0
    5.0595    4.1068    0.4161 H   0  0  0  0  0  0  0  0  0  0  0  0
    6.4227    4.2674   -1.8690 H   0  0  0  0  0  0  0  0  0  0  0  0
    4.7609    4.5553   -2.4868 H   0  0  0  0  0  0  0  0  0  0  0  0
    5.4751    5.6734   -1.2758 H   0  0  0  0  0  0  0  0  0  0  0  0
 25 27  1  0  0  0  0
 26 27  2  0  0  0  0
 23 25  2  0  0  0  0
 24 26  1  0  0  0  0
 22 23  1  0  0  0  0
 22 24  2  0  0  0  0
 21 22  1  0  0  0  0
  1  3  1  0  0  0  0
  1  7  1  0  0  0  0
  1  2  2  0  0  0  0
 38 39  1  0  0  0  0
 39 47  1  0  0  0  0
 39 40  2  0  0  0  0
  8  9  1  0  0  0  0
  9 17  1  0  0  0  0
  9 10  2  0  0  0  0
 18 19  1  0  0  0  0
 19 37  1  0  0  0  0
 19 20  2  0  0  0  0
 38 41  1  0  0  0  0
  8 11  1  0  0  0  0
 47 48  1  0  0  0  0
 18 21  1  0  0  0  0
 37 38  1  0  0  0  0
  7  8  1  0  0  0  0
 17 18  1  0  0  0  0
 27 36  1  0  0  0  0
 25 34  1  0  0  0  0
 26 35  1  0  0  0  0
 23 32  1  0  0  0  0
 24 33  1  0  0  0  0
  3  4  1  0  0  0  0
  3  5  1  0  0  0  0
  3  6  1  0  0  0  0
 41 44  1  0  0  0  0
 41 45  1  0  0  0  0
 41 46  1  0  0  0  0
 11 14  1  0  0  0  0
 11 15  1  0  0  0  0
 11 16  1  0  0  0  0
 48 50  1  0  0  0  0
 48 51  1  0  0  0  0
 48 52  1  0  0  0  0
 21 30  1  0  0  0  0
 21 31  1  0  0  0  0
 38 43  1  0  0  0  0
  8 13  1  0  0  0  0
 18 29  1  0  0  0  0
 47 49  1  0  0  0  0
  7 12  1  0  0  0  0
 37 42  1  0  0  0  0
 17 28  1  0  0  0  0
M  END
$$$$

  -OEChem-05262214473D

 52 52  0     1  0  0  0  0  0999 V2000
   -1.8248    0.3424    3.9102 C   0  0  0  0  0  0  0  0  0  0  0  0
   -0.8774   -0.2723    3.4345 O   0  0  0  0  0  0  0  0  0  0  0  0
   -2.2566    0.0600    5.3109 C   0  0  0  0  0  0  0  0  0  0  0  0
   -3.0163   -0.7363    5.3643 H   0  0  0  0  0  0  0  0  0  0  0  0
   -1.4254   -0.2876    5.9452 H   0  0  0  0  0  0  0  0  0  0  0  0
   -2.6947    0.9149    5.8505 H   0  0  0  0  0  0  0  0  0  0  0  0
   -2.5745    1.3149    3.2691 N   0  0  0  0  0  0  0  0  0  0  0  0
   -2.3276    1.7409    1.9167 C   0  0  2  0  0  0  0  0  0  0  0  0
   -0.9926    1.1555    1.4755 C   0  0  0  0  0  0  0  0  0  0  0  0
   -0.1206    0.8028    2.2668 O   0  0  0  0  0  0  0  0  0  0  0  0
   -2.3188    3.2577    1.8072 C   0  0  0  0  0  0  0  0  0  0  0  0
   -3.3395    1.7507    3.7809 H   0  0  0  0  0  0  0  0  0  0  0  0
   -3.1317    1.3224    1.3015 H   0  0  0  0  0  0  0  0  0  0  0  0
   -1.5198    3.6949    2.4169 H   0  0  0  0  0  0  0  0  0  0  0  0
   -2.1594    3.5799    0.7729 H   0  0  0  0  0  0  0  0  0  0  0  0
   -3.2690    3.6789    2.1530 H   0  0  0  0  0  0  0  0  0  0  0  0
   -0.8700    1.1124    0.0921 N   0  0  0  0  0  0  0  0  0  0  0  0
    0.3073    0.6116   -0.5716 C   0  0  2  0  0  0  0  0  0  0  0  0
    1.3892    1.6771   -0.4358 C   0  0  0  0  0  0  0  0  0  0  0  0
    1.1699    2.8768   -0.5893 O   0  0  0  0  0  0  0  0  0  0  0  0
    0.0497    0.2991   -2.0501 C   0  0  0  0  0  0  0  0  0  0  0  0
   -0.8992   -0.8581   -2.2454 C   0  0  0  0  0  0  0  0  0  0  0  0
   -0.4310   -2.1686   -2.1492 C   0  0  0  0  0  0  0  0  0  0  0  0
   -2.2449   -0.6168   -2.5218 C   0  0  0  0  0  0  0  0  0  0  0  0
   -1.3086   -3.2377   -2.3295 C   0  0  0  0  0  0  0  0  0  0  0  0
   -3.1225   -1.6859   -2.7022 C   0  0  0  0  0  0  0  0  0  0  0  0
   -2.6543   -2.9963   -2.6059 C   0  0  0  0  0  0  0  0  0  0  0  0
   -1.6531    1.4091   -0.4852 H   0  0  0  0  0  0  0  0  0  0  0  0
    0.6169   -0.2861   -0.0235 H   0  0  0  0  0  0  0  0  0  0  0  0
    0.9971    0.0910   -2.5656 H   0  0  0  0  0  0  0  0  0  0  0  0
   -0.3688    1.1768   -2.5604 H   0  0  0  0  0  0  0  0  0  0  0  0
    0.6158   -2.3661   -1.9340 H   0  0  0  0  0  0  0  0  0  0  0  0
   -2.6186    0.4009   -2.5985 H   0  0  0  0  0  0  0  0  0  0  0  0
   -0.9437   -4.2580   -2.2557 H   0  0  0  0  0  0  0  0  0  0  0  0
   -4.1699   -1.4976   -2.9184 H   0  0  0  0  0  0  0  0  0  0  0  0
   -3.3372   -3.8289   -2.7477 H   0  0  0  0  0  0  0  0  0  0  0  0
    2.6133    1.1316   -0.0745 N   0  0  0  0  0  0  0  0  0  0  0  0
    3.8021    1.9241    0.1429 C   0  0  2  0  0  0  0  0  0  0  0  0
    3.9783    2.8464   -1.0562 C   0  0  0  0  0  0  0  0  0  0  0  0
    3.4845    2.6158   -2.1580 O   0  0  0  0  0  0  0  0  0  0  0  0
    5.0268    1.0432    0.3357 C   0  0  0  0  0  0  0  0  0  0  0  0
    2.6767    0.1246    0.0431 H   0  0  0  0  0  0  0  0  0  0  0  0
    3.6227    2.5234    1.0421 H   0  0  0  0  0  0  0  0  0  0  0  0
    5.2224    0.4352   -0.5551 H   0  0  0  0  0  0  0  0  0  0  0  0
    5.9215    1.6443    0.5286 H   0  0  0  0  0  0  0  0  0  0  0  0
    4.8863    0.3599    1.1801 H   0  0  0  0  0  0  0  0  0  0  0  0
    4.7875    3.9351   -0.7628 N   0  0  0  0  0  0  0  0  0  0  0  0
    5.1159    4.9479   -1.7387 C   0  0  0  0  0  0  0  0  0  0  0  0
    5.1383    4.0565    0.1827 H   0  0  0  0  0  0  0  0  0  0  0  0
    6.0593    4.6836   -2.2389 H   0  0  0  0  0  0  0  0  0  0  0  0
    4.3107    5.0122   -2.4853 H   0  0  0  0  0  0  0  0  0  0  0  0
    5.2277    5.9195   -1.2352 H   0  0  0  0  0  0  0  0  0  0  0  0
 25 27  1  0  0  0  0
 26 27  2  0  0  0  0
 23 25  2  0  0  0  0
 24 26  1  0  0  0  0
 22 23  1  0  0  0  0
 22 24  2  0  0  0  0
 21 22  1  0  0  0  0
  1  3  1  0  0  0  0
  1  7  1  0  0  0  0
  1  2  2  0  0  0  0
 38 39  1  0  0  0  0
 39 47  1  0  0  0  0
 39 40  2  0  0  0  0
  8  9  1  0  0  0  0
  9 17  1  0  0  0  0
  9 10  2  0  0  0  0
 18 19  1  0  0  0  0
 19 37  1  0  0  0  0
 19 20  2  0  0  0  0
 38 41  1  0  0  0  0
  8 11  1  0  0  0  0
 47 48  1  0  0  0  0
 18 21  1  0  0  0  0
 37 38  1  0  0  0  0
  7  8  1  0  0  0  0
 17 18  1  0  0  0  0
 27 36  1  0  0  0  0
 25 34  1  0  0  0  0
 26 35  1  0  0  0  0
 23 32  1  0  0  0  0
 24 33  1  0  0  0  0
  3  4  1  0  0  0  0
  3  5  1  0  0  0  0
  3  6  1  0  0  0  0
 41 44  1  0  0  0  0
 41 45  1  0  0  0  0
 41 46  1  0  0  0  0
 11 14  1  0  0  0  0
 11 15  1  0  0  0  0
 11 16  1  0  0  0  0
 48 50  1  0  0  0  0
 48 51  1  0  0  0  0
 48 52  1  0  0  0  0
 21 30  1  0  0  0  0
 21 31  1  0  0  0  0
 38 43  1  0  0  0  0
  8 13  1  0  0  0  0
 18 29  1  0  0  0  0
 47 49  1  0  0  0  0
  7 12  1  0  0  0  0
 37 42  1  0  0  0  0
 17 28  1  0  0  0  0
M  END
$$$$

  -OEChem-05262214473D

 52 52  0     1  0  0  0  0  0999 V2000
   -1.8248    0.3424    3.9102 C   0  0  0  0  0  0  0  0  0  0  0  0
   -0.8774   -0.2723    3.4345 O   0  0  0  0  0  0  0  0  0  0  0  0
   -2.2566    0.0600    5.3109 C   0  0  0  0  0  0  0  0  0  0  0  0
   -3.0163   -0.7363    5.3643 H   0  0  0  0  0  0  0  0  0  0  0  0
   -1.4254   -0.2876    5.9452 H   0  0  0  0  0  0  0  0  0  0  0  0
   -2.6947    0.9149    5.8505 H   0  0  0  0  0  0  0  0  0  0  0  0
   -2.5745    1.3149    3.2691 N   0  0  0  0  0  0  0  0  0  0  0  0
   -2.3276    1.7409    1.9167 C   0  0  2  0  0  0  0  0  0  0  0  0
   -0.9926    1.1555    1.4755 C   0  0  0  0  0  0  0  0  0  0  0  0
   -0.1206    0.8028    2.2668 O   0  0  0  0  0  0  0  0  0  0  0  0
   -2.3188    3.2577    1.8072 C   0  0  0  0  0  0  0  0  0  0  0  0
   -3.3395    1.7507    3.7809 H   0  0  0  0  0  0  0  0  0  0  0  0
   -3.1317    1.3224    1.3015 H   0  0  0  0  0  0  0  0  0  0  0  0
   -1.5198    3.6949    2.4169 H   0  0  0  0  0  0  0  0  0  0  0  0
   -2.1594    3.5799    0.7729 H   0  0  0  0  0  0  0  0  0  0  0  0
   -3.2690    3.6789    2.1530 H   0  0  0  0  0  0  0  0  0  0  0  0
   -0.8700    1.1124    0.0921 N   0  0  0  0  0  0  0  0  0  0  0  0
    0.3073    0.6116   -0.5716 C   0  0  2  0  0  0  0  0  0  0  0  0
    1.3892    1.6771   -0.4358 C   0  0  0  0  0  0  0  0  0  0  0  0
    1.1381    2.8750   -0.3220 O   0  0  0  0  0  0  0  0  0  0  0  0
    0.0497    0.2991   -2.0501 C   0  0  0  0  0  0  0  0  0  0  0  0
   -0.8992   -0.8581   -2.2454 C   0  0  0  0  0  0  0  0  0  0  0  0
   -0.4310   -2.1686   -2.1492 C   0  0  0  0  0  0  0  0  0  0  0  0
   -2.2449   -0.6168   -2.5218 C   0  0  0  0  0  0  0  0  0  0  0  0
   -1.3086   -3.2377   -2.3295 C   0  0  0  0  0  0  0  0  0  0  0  0
   -3.1225   -1.6859   -2.7022 C   0  0  0  0  0  0  0  0  0  0  0  0
   -2.6543   -2.9963   -2.6059 C   0  0  0  0  0  0  0  0  0  0  0  0
   -1.6531    1.4091   -0.4852 H   0  0  0  0  0  0  0  0  0  0  0  0
    0.6169   -0.2861   -0.0235 H   0  0  0  0  0  0  0  0  0  0  0  0
    0.9971    0.0910   -2.5656 H   0  0  0  0  0  0  0  0  0  0  0  0
   -0.3688    1.1768   -2.5604 H   0  0  0  0  0  0  0  0  0  0  0  0
    0.6158   -2.3661   -1.9340 H   0  0  0  0  0  0  0  0  0  0  0  0
   -2.6186    0.4009   -2.5985 H   0  0  0  0  0  0  0  0  0  0  0  0
   -0.9437   -4.2580   -2.2557 H   0  0  0  0  0  0  0  0  0  0  0  0
   -4.1699   -1.4976   -2.9184 H   0  0  0  0  0  0  0  0  0  0  0  0
   -3.3372   -3.8289   -2.7477 H   0  0  0  0  0  0  0  0  0  0  0  0
    2.6621    1.1244   -0.4068 N   0  0  0  0  0  0  0  0  0  0  0  0
    3.8657    1.9111   -0.2620 C   0  0  2  0  0  0  0  0  0  0  0  0
    3.8137    3.0421   -1.2807 C   0  0  0  0  0  0  0  0  0  0  0  0
    3.1280    2.9959   -2.2999 O   0  0  0  0  0  0  0  0  0  0  0  0
    5.1103    1.0596   -0.4583 C   0  0  0  0  0  0  0  0  0  0  0  0
    2.7521    0.1162   -0.4917 H   0  0  0  0  0  0  0  0  0  0  0  0
    3.8502    2.3296    0.7502 H   0  0  0  0  0  0  0  0  0  0  0  0
    5.1434    0.6317   -1.4670 H   0  0  0  0  0  0  0  0  0  0  0  0
    6.0215    1.6509   -0.3202 H   0  0  0  0  0  0  0  0  0  0  0  0
    5.1311    0.2292    0.2557 H   0  0  0  0  0  0  0  0  0  0  0  0
    4.6563    4.0909   -0.9396 N   0  0  0  0  0  0  0  0  0  0  0  0
    4.7943    5.2763   -1.7530 C   0  0  0  0  0  0  0  0  0  0  0  0
    5.1735    4.0525   -0.0662 H   0  0  0  0  0  0  0  0  0  0  0  0
    5.6318    5.1451   -2.4540 H   0  0  0  0  0  0  0  0  0  0  0  0
    3.8656    5.4429   -2.3185 H   0  0  0  0  0  0  0  0  0  0  0  0
    4.9903    6.1440   -1.1060 H   0  0  0  0  0  0  0  0  0  0  0  0
 25 27  1  0  0  0  0
 26 27  2  0  0  0  0
 23 25  2  0  0  0  0
 24 26  1  0  0  0  0
 22 23  1  0  0  0  0
 22 24  2  0  0  0  0
 21 22  1  0  0  0  0
  1  3  1  0  0  0  0
  1  7  1  0  0  0  0
  1  2  2  0  0  0  0
 38 39  1  0  0  0  0
 39 47  1  0  0  0  0
 39 40  2  0  0  0  0
  8  9  1  0  0  0  0
  9 17  1  0  0  0  0
  9 10  2  0  0  0  0
 18 19  1  0  0  0  0
 19 37  1  0  0  0  0
 19 20  2  0  0  0  0
 38 41  1  0  0  0  0
  8 11  1  0  0  0  0
 47 48  1  0  0  0  0
 18 21  1  0  0  0  0
 37 38  1  0  0  0  0
  7  8  1  0  0  0  0
 17 18  1  0  0  0  0
 27 36  1  0  0  0  0
 25 34  1  0  0  0  0
 26 35  1  0  0  0  0
 23 32  1  0  0  0  0
 24 33  1  0  0  0  0
  3  4  1  0  0  0  0
  3  5  1  0  0  0  0
  3  6  1  0  0  0  0
 41 44  1  0  0  0  0
 41 45  1  0  0  0  0
 41 46  1  0  0  0  0
 11 14  1  0  0  0  0
 11 15  1  0  0  0  0
 11 16  1  0  0  0  0
 48 50  1  0  0  0  0
 48 51  1  0  0  0  0
 48 52  1  0  0  0  0
 21 30  1  0  0  0  0
 21 31  1  0  0  0  0
 38 43  1  0  0  0  0
  8 13  1  0  0  0  0
 18 29  1  0  0  0  0
 47 49  1  0  0  0  0
  7 12  1  0  0  0  0
 37 42  1  0  0  0  0
 17 28  1  0  0  0  0
M  END
$$$$

  -OEChem-05262214473D

 52 52  0     1  0  0  0  0  0999 V2000
   -1.8248    0.3424    3.9102 C   0  0  0  0  0  0  0  0  0  0  0  0
   -0.8774   -0.2723    3.4345 O   0  0  0  0  0  0  0  0  0  0  0  0
   -2.2566    0.0600    5.3109 C   0  0  0  0  0  0  0  0  0  0  0  0
   -3.0163   -0.7363    5.3643 H   0  0  0  0  0  0  0  0  0  0  0  0
   -1.4254   -0.2876    5.9452 H   0  0  0  0  0  0  0  0  0  0  0  0
   -2.6947    0.9149    5.8505 H   0  0  0  0  0  0  0  0  0  0  0  0
   -2.5745    1.3149    3.2691 N   0  0  0  0  0  0  0  0  0  0  0  0
   -2.3276    1.7409    1.9167 C   0  0  2  0  0  0  0  0  0  0  0  0
   -0.9926    1.1555    1.4755 C   0  0  0  0  0  0  0  0  0  0  0  0
   -0.1206    0.8028    2.2668 O   0  0  0  0  0  0  0  0  0  0  0  0
   -2.3188    3.2577    1.8072 C   0  0  0  0  0  0  0  0  0  0  0  0
   -3.3395    1.7507    3.7809 H   0  0  0  0  0  0  0  0  0  0  0  0
   -3.1317    1.3224    1.3015 H   0  0  0  0  0  0  0  0  0  0  0  0
   -1.5198    3.6949    2.4169 H   0  0  0  0  0  0  0  0  0  0  0  0
   -2.1594    3.5799    0.7729 H   0  0  0  0  0  0  0  0  0  0  0  0
   -3.2690    3.6789    2.1530 H   0  0  0  0  0  0  0  0  0  0  0  0
   -0.8700    1.1124    0.0921 N   0  0  0  0  0  0  0  0  0  0  0  0
    0.3073    0.6116   -0.5716 C   0  0  2  0  0  0  0  0  0  0  0  0
    1.3892    1.6771   -0.4358 C   0  0  0  0  0  0  0  0  0  0  0  0
    1.1558    2.8234   -0.0584 O   0  0  0  0  0  0  0  0  0  0  0  0
    0.0497    0.2991   -2.0501 C   0  0  0  0  0  0  0  0  0  0  0  0
   -0.8992   -0.8581   -2.2454 C   0  0  0  0  0  0  0  0  0  0  0  0
   -0.4310   -2.1686   -2.1492 C   0  0  0  0  0  0  0  0  0  0  0  0
   -2.2449   -0.6168   -2.5218 C   0  0  0  0  0  0  0  0  0  0  0  0
   -1.3086   -3.2377   -2.3295 C   0  0  0  0  0  0  0  0  0  0  0  0
   -3.1225   -1.6859   -2.7022 C   0  0  0  0  0  0  0  0  0  0  0  0
   -2.6543   -2.9963   -2.6059 C   0  0  0  0  0  0  0  0  0  0  0  0
   -1.6531    1.4091   -0.4852 H   0  0  0  0  0  0  0  0  0  0  0  0
    0.6169   -0.2861   -0.0235 H   0  0  0  0  0  0  0  0  0  0  0  0
    0.9971    0.0910   -2.5656 H   0  0  0  0  0  0  0  0  0  0  0  0
   -0.3688    1.1768   -2.5604 H   0  0  0  0  0  0  0  0  0  0  0  0
    0.6158   -2.3661   -1.9340 H   0  0  0  0  0  0  0  0  0  0  0  0
   -2.6186    0.4009   -2.5985 H   0  0  0  0  0  0  0  0  0  0  0  0
   -0.9437   -4.2580   -2.2557 H   0  0  0  0  0  0  0  0  0  0  0  0
   -4.1699   -1.4976   -2.9184 H   0  0  0  0  0  0  0  0  0  0  0  0
   -3.3372   -3.8289   -2.7477 H   0  0  0  0  0  0  0  0  0  0  0  0
    2.6492    1.1796   -0.7380 N   0  0  0  0  0  0  0  0  0  0  0  0
    3.8542    1.9745   -0.6670 C   0  0  2  0  0  0  0  0  0  0  0  0
    3.6097    3.2686   -1.4319 C   0  0  0  0  0  0  0  0  0  0  0  0
    2.7493    3.3808   -2.3026 O   0  0  0  0  0  0  0  0  0  0  0  0
    5.0471    1.2231   -1.2374 C   0  0  0  0  0  0  0  0  0  0  0  0
    2.7285    0.2080   -1.0234 H   0  0  0  0  0  0  0  0  0  0  0  0
    4.0216    2.2012    0.3915 H   0  0  0  0  0  0  0  0  0  0  0  0
    4.8976    0.9871   -2.2973 H   0  0  0  0  0  0  0  0  0  0  0  0
    5.9645    1.8155   -1.1569 H   0  0  0  0  0  0  0  0  0  0  0  0
    5.2033    0.2785   -0.7054 H   0  0  0  0  0  0  0  0  0  0  0  0
    4.4939    4.2708   -1.0580 N   0  0  0  0  0  0  0  0  0  0  0  0
    4.4734    5.5888   -1.6484 C   0  0  0  0  0  0  0  0  0  0  0  0
    5.1625    4.0952   -0.3137 H   0  0  0  0  0  0  0  0  0  0  0  0
    5.1692    5.6206   -2.4997 H   0  0  0  0  0  0  0  0  0  0  0  0
    3.4559    5.8181   -1.9978 H   0  0  0  0  0  0  0  0  0  0  0  0
    4.7792    6.3318   -0.8971 H   0  0  0  0  0  0  0  0  0  0  0  0
 25 27  1  0  0  0  0
 26 27  2  0  0  0  0
 23 25  2  0  0  0  0
 24 26  1  0  0  0  0
 22 23  1  0  0  0  0
 22 24  2  0  0  0  0
 21 22  1  0  0  0  0
  1  3  1  0  0  0  0
  1  7  1  0  0  0  0
  1  2  2  0  0  0  0
 38 39  1  0  0  0  0
 39 47  1  0  0  0  0
 39 40  2  0  0  0  0
  8  9  1  0  0  0  0
  9 17  1  0  0  0  0
  9 10  2  0  0  0  0
 18 19  1  0  0  0  0
 19 37  1  0  0  0  0
 19 20  2  0  0  0  0
 38 41  1  0  0  0  0
  8 11  1  0  0  0  0
 47 48  1  0  0  0  0
 18 21  1  0  0  0  0
 37 38  1  0  0  0  0
  7  8  1  0  0  0  0
 17 18  1  0  0  0  0
 27 36  1  0  0  0  0
 25 34  1  0  0  0  0
 26 35  1  0  0  0  0
 23 32  1  0  0  0  0
 24 33  1  0  0  0  0
  3  4  1  0  0  0  0
  3  5  1  0  0  0  0
  3  6  1  0  0  0  0
 41 44  1  0  0  0  0
 41 45  1  0  0  0  0
 41 46  1  0  0  0  0
 11 14  1  0  0  0  0
 11 15  1  0  0  0  0
 11 16  1  0  0  0  0
 48 50  1  0  0  0  0
 48 51  1  0  0  0  0
 48 52  1  0  0  0  0
 21 30  1  0  0  0  0
 21 31  1  0  0  0  0
 38 43  1  0  0  0  0
  8 13  1  0  0  0  0
 18 29  1  0  0  0  0
 47 49  1  0  0  0  0
  7 12  1  0  0  0  0
 37 42  1  0  0  0  0
 17 28  1  0  0  0  0
M  END
$$$$

  -OEChem-05262214473D

 52 52  0     1  0  0  0  0  0999 V2000
   -1.8248    0.3424    3.9102 C   0  0  0  0  0  0  0  0  0  0  0  0
   -0.8774   -0.2723    3.4345 O   0  0  0  0  0  0  0  0  0  0  0  0
   -2.2566    0.0600    5.3109 C   0  0  0  0  0  0  0  0  0  0  0  0
   -3.0163   -0.7363    5.3643 H   0  0  0  0  0  0  0  0  0  0  0  0
   -1.4254   -0.2876    5.9452 H   0  0  0  0  0  0  0  0  0  0  0  0
   -2.6947    0.9149    5.8505 H   0  0  0  0  0  0  0  0  0  0  0  0
   -2.5745    1.3149    3.2691 N   0  0  0  0  0  0  0  0  0  0  0  0
   -2.3276    1.7409    1.9167 C   0  0  2  0  0  0  0  0  0  0  0  0
   -0.9926    1.1555    1.4755 C   0  0  0  0  0  0  0  0  0  0  0  0
   -0.1206    0.8028    2.2668 O   0  0  0  0  0  0  0  0  0  0  0  0
   -2.3188    3.2577    1.8072 C   0  0  0  0  0  0  0  0  0  0  0  0
   -3.3395    1.7507    3.7809 H   0  0  0  0  0  0  0  0  0  0  0  0
   -3.1317    1.3224    1.3015 H   0  0  0  0  0  0  0  0  0  0  0  0
   -1.5198    3.6949    2.4169 H   0  0  0  0  0  0  0  0  0  0  0  0
   -2.1594    3.5799    0.7729 H   0  0  0  0  0  0  0  0  0  0  0  0
   -3.2690    3.6789    2.1530 H   0  0  0  0  0  0  0  0  0  0  0  0
   -0.8700    1.1124    0.0921 N   0  0  0  0  0  0  0  0  0  0  0  0
    0.3073    0.6116   -0.5716 C   0  0  2  0  0  0  0  0  0  0  0  0
    1.4797    1.4778   -0.1249 C   0  0  0  0  0  0  0  0  0  0  0  0
    1.3653    2.3889    0.6922 O   0  0  0  0  0  0  0  0  0  0  0  0
    0.1704    0.6462   -2.0981 C   0  0  0  0  0  0  0  0  0  0  0  0
   -0.8745   -0.3139   -2.6122 C   0  0  0  0  0  0  0  0  0  0  0  0
   -0.5650   -1.6652   -2.7667 C   0  0  0  0  0  0  0  0  0  0  0  0
   -2.1501    0.1506   -2.9327 C   0  0  0  0  0  0  0  0  0  0  0  0
   -1.5312   -2.5521   -3.2417 C   0  0  0  0  0  0  0  0  0  0  0  0
   -3.1163   -0.7363   -3.4077 C   0  0  0  0  0  0  0  0  0  0  0  0
   -2.8068   -2.0876   -3.5621 C   0  0  0  0  0  0  0  0  0  0  0  0
   -1.6531    1.4091   -0.4852 H   0  0  0  0  0  0  0  0  0  0  0  0
    0.4588   -0.4119   -0.2090 H   0  0  0  0  0  0  0  0  0  0  0  0
    1.1372    0.4284   -2.5718 H   0  0  0  0  0  0  0  0  0  0  0  0
   -0.0949    1.6566   -2.4365 H   0  0  0  0  0  0  0  0  0  0  0  0
    0.4262   -2.0360   -2.5194 H   0  0  0  0  0  0  0  0  0  0  0  0
   -2.4003    1.2017   -2.8154 H   0  0  0  0  0  0  0  0  0  0  0  0
   -1.2897   -3.6040   -3.3630 H   0  0  0  0  0  0  0  0  0  0  0  0
   -4.1090   -0.3742   -3.6581 H   0  0  0  0  0  0  0  0  0  0  0  0
   -3.5586   -2.7781   -3.9333 H   0  0  0  0  0  0  0  0  0  0  0  0
    2.6733    1.0784   -0.7099 N   0  0  0  0  0  0  0  0  0  0  0  0
    3.9418    1.7163   -0.4401 C   0  0  2  0  0  0  0  0  0  0  0  0
    3.7579    3.2187   -0.6089 C   0  0  0  0  0  0  0  0  0  0  0  0
    2.8575    3.7126   -1.2845 O   0  0  0  0  0  0  0  0  0  0  0  0
    5.0311    1.1948   -1.3642 C   0  0  0  0  0  0  0  0  0  0  0  0
    2.6544    0.2985   -1.3603 H   0  0  0  0  0  0  0  0  0  0  0  0
    4.1924    1.4934    0.6028 H   0  0  0  0  0  0  0  0  0  0  0  0
    4.7974    1.4090   -2.4135 H   0  0  0  0  0  0  0  0  0  0  0  0
    5.9974    1.6582   -1.1396 H   0  0  0  0  0  0  0  0  0  0  0  0
    5.1415    0.1097   -1.2631 H   0  0  0  0  0  0  0  0  0  0  0  0
    4.7432    3.9422    0.0484 N   0  0  0  0  0  0  0  0  0  0  0  0
    4.7949    5.3854    0.0286 C   0  0  0  0  0  0  0  0  0  0  0  0
    5.4397    3.4505    0.6005 H   0  0  0  0  0  0  0  0  0  0  0  0
    5.4370    5.7185   -0.8001 H   0  0  0  0  0  0  0  0  0  0  0  0
    3.7801    5.7867   -0.1099 H   0  0  0  0  0  0  0  0  0  0  0  0
    5.2067    5.7506    0.9810 H   0  0  0  0  0  0  0  0  0  0  0  0
 25 27  1  0  0  0  0
 26 27  2  0  0  0  0
 23 25  2  0  0  0  0
 24 26  1  0  0  0  0
 22 23  1  0  0  0  0
 22 24  2  0  0  0  0
 21 22  1  0  0  0  0
  1  3  1  0  0  0  0
  1  7  1  0  0  0  0
  1  2  2  0  0  0  0
 38 39  1  0  0  0  0
 39 47  1  0  0  0  0
 39 40  2  0  0  0  0
  8  9  1  0  0  0  0
  9 17  1  0  0  0  0
  9 10  2  0  0  0  0
 18 19  1  0  0  0  0
 19 37  1  0  0  0  0
 19 20  2  0  0  0  0
 38 41  1  0  0  0  0
  8 11  1  0  0  0  0
 47 48  1  0  0  0  0
 18 21  1  0  0  0  0
 37 38  1  0  0  0  0
  7  8  1  0  0  0  0
 17 18  1  0  0  0  0
 27 36  1  0  0  0  0
 25 34  1  0  0  0  0
 26 35  1  0  0  0  0
 23 32  1  0  0  0  0
 24 33  1  0  0  0  0
  3  4  1  0  0  0  0
  3  5  1  0  0  0  0
  3  6  1  0  0  0  0
 41 44  1  0  0  0  0
 41 45  1  0  0  0  0
 41 46  1  0  0  0  0
 11 14  1  0  0  0  0
 11 15  1  0  0  0  0
 11 16  1  0  0  0  0
 48 50  1  0  0  0  0
 48 51  1  0  0  0  0
 48 52  1  0  0  0  0
 21 30  1  0  0  0  0
 21 31  1  0  0  0  0
 38 43  1  0  0  0  0
  8 13  1  0  0  0  0
 18 29  1  0  0  0  0
 47 49  1  0  0  0  0
  7 12  1  0  0  0  0
 37 42  1  0  0  0  0
 17 28  1  0  0  0  0
M  END
$$$$

  -OEChem-05262214473D

 52 52  0     1  0  0  0  0  0999 V2000
   -1.8248    0.3424    3.9102 C   0  0  0  0  0  0  0  0  0  0  0  0
   -0.8774   -0.2723    3.4345 O   0  0  0  0  0  0  0  0  0  0  0  0
   -2.2566    0.0600    5.3109 C   0  0  0  0  0  0  0  0  0  0  0  0
   -3.0163   -0.7363    5.3643 H   0  0  0  0  0  0  0  0  0  0  0  0
   -1.4254   -0.2876    5.9452 H   0  0  0  0  0  0  0  0  0  0  0  0
   -2.6947    0.9149    5.8505 H   0  0  0  0  0  0  0  0  0  0  0  0
   -2.5745    1.3149    3.2691 N   0  0  0  0  0  0  0  0  0  0  0  0
   -2.3276    1.7409    1.9167 C   0  0  2  0  0  0  0  0  0  0  0  0
   -0.9926    1.1555    1.4755 C   0  0  0  0  0  0  0  0  0  0  0  0
   -0.1206    0.8028    2.2668 O   0  0  0  0  0  0  0  0  0  0  0  0
   -2.3188    3.2577    1.8072 C   0  0  0  0  0  0  0  0  0  0  0  0
   -3.3395    1.7507    3.7809 H   0  0  0  0  0  0  0  0  0  0  0  0
   -3.1317    1.3224    1.3015 H   0  0  0  0  0  0  0  0  0  0  0  0
   -1.5198    3.6949    2.4169 H   0  0  0  0  0  0  0  0  0  0  0  0
   -2.1594    3.5799    0.7729 H   0  0  0  0  0  0  0  0  0  0  0  0
   -3.2690    3.6789    2.1530 H   0  0  0  0  0  0  0  0  0  0  0  0
   -0.8700    1.1124    0.0921 N   0  0  0  0  0  0  0  0  0  0  0  0
    0.3073    0.6116   -0.5716 C   0  0  2  0  0  0  0  0  0  0  0  0
    1.4797    1.4778   -0.1249 C   0  0  0  0  0  0  0  0  0  0  0  0
    1.4378    2.1995    0.8692 O   0  0  0  0  0  0  0  0  0  0  0  0
    0.1704    0.6462   -2.0981 C   0  0  0  0  0  0  0  0  0  0  0  0
   -0.8745   -0.3139   -2.6122 C   0  0  0  0  0  0  0  0  0  0  0  0
   -0.5650   -1.6652   -2.7667 C   0  0  0  0  0  0  0  0  0  0  0  0
   -2.1501    0.1506   -2.9327 C   0  0  0  0  0  0  0  0  0  0  0  0
   -1.5312   -2.5521   -3.2417 C   0  0  0  0  0  0  0  0  0  0  0  0
   -3.1163   -0.7363   -3.4077 C   0  0  0  0  0  0  0  0  0  0  0  0
   -2.8068   -2.0876   -3.5621 C   0  0  0  0  0  0  0  0  0  0  0  0
   -1.6531    1.4091   -0.4852 H   0  0  0  0  0  0  0  0  0  0  0  0
    0.4588   -0.4119   -0.2090 H   0  0  0  0  0  0  0  0  0  0  0  0
    1.1372    0.4284   -2.5718 H   0  0  0  0  0  0  0  0  0  0  0  0
   -0.0949    1.6566   -2.4365 H   0  0  0  0  0  0  0  0  0  0  0  0
    0.4262   -2.0360   -2.5194 H   0  0  0  0  0  0  0  0  0  0  0  0
   -2.4003    1.2017   -2.8154 H   0  0  0  0  0  0  0  0  0  0  0  0
   -1.2897   -3.6040   -3.3630 H   0  0  0  0  0  0  0  0  0  0  0  0
   -4.1090   -0.3742   -3.6581 H   0  0  0  0  0  0  0  0  0  0  0  0
   -3.5586   -2.7781   -3.9333 H   0  0  0  0  0  0  0  0  0  0  0  0
    2.5905    1.3090   -0.9398 N   0  0  0  0  0  0  0  0  0  0  0  0
    3.8442    1.9951   -0.7246 C   0  0  2  0  0  0  0  0  0  0  0  0
    3.5452    3.4788   -0.5549 C   0  0  0  0  0  0  0  0  0  0  0  0
    2.5227    4.0103   -0.9829 O   0  0  0  0  0  0  0  0  0  0  0  0
    4.8071    1.7631   -1.8785 C   0  0  0  0  0  0  0  0  0  0  0  0
    2.5187    0.6711   -1.7270 H   0  0  0  0  0  0  0  0  0  0  0  0
    4.2663    1.5984    0.2052 H   0  0  0  0  0  0  0  0  0  0  0  0
    4.4013    2.1541   -2.8187 H   0  0  0  0  0  0  0  0  0  0  0  0
    5.7665    2.2601   -1.7007 H   0  0  0  0  0  0  0  0  0  0  0  0
    4.9977    0.6936   -2.0180 H   0  0  0  0  0  0  0  0  0  0  0  0
    4.5744    4.1479    0.0926 N   0  0  0  0  0  0  0  0  0  0  0  0
    4.5343    5.5663    0.3616 C   0  0  0  0  0  0  0  0  0  0  0  0
    5.3766    3.6240    0.4298 H   0  0  0  0  0  0  0  0  0  0  0  0
    5.0190    6.1102   -0.4626 H   0  0  0  0  0  0  0  0  0  0  0  0
    3.4878    5.8931    0.4510 H   0  0  0  0  0  0  0  0  0  0  0  0
    5.0655    5.7763    1.3017 H   0  0  0  0  0  0  0  0  0  0  0  0
 25 27  1  0  0  0  0
 26 27  2  0  0  0  0
 23 25  2  0  0  0  0
 24 26  1  0  0  0  0
 22 23  1  0  0  0  0
 22 24  2  0  0  0  0
 21 22  1  0  0  0  0
  1  3  1  0  0  0  0
  1  7  1  0  0  0  0
  1  2  2  0  0  0  0
 38 39  1  0  0  0  0
 39 47  1  0  0  0  0
 39 40  2  0  0  0  0
  8  9  1  0  0  0  0
  9 17  1  0  0  0  0
  9 10  2  0  0  0  0
 18 19  1  0  0  0  0
 19 37  1  0  0  0  0
 19 20  2  0  0  0  0
 38 41  1  0  0  0  0
  8 11  1  0  0  0  0
 47 48  1  0  0  0  0
 18 21  1  0  0  0  0
 37 38  1  0  0  0  0
  7  8  1  0  0  0  0
 17 18  1  0  0  0  0
 27 36  1  0  0  0  0
 25 34  1  0  0  0  0
 26 35  1  0  0  0  0
 23 32  1  0  0  0  0
 24 33  1  0  0  0  0
  3  4  1  0  0  0  0
  3  5  1  0  0  0  0
  3  6  1  0  0  0  0
 41 44  1  0  0  0  0
 41 45  1  0  0  0  0
 41 46  1  0  0  0  0
 11 14  1  0  0  0  0
 11 15  1  0  0  0  0
 11 16  1  0  0  0  0
 48 50  1  0  0  0  0
 48 51  1  0  0  0  0
 48 52  1  0  0  0  0
 21 30  1  0  0  0  0
 21 31  1  0  0  0  0
 38 43  1  0  0  0  0
  8 13  1  0  0  0  0
 18 29  1  0  0  0  0
 47 49  1  0  0  0  0
  7 12  1  0  0  0  0
 37 42  1  0  0  0  0
 17 28  1  0  0  0  0
M  END
$$$$

  -OEChem-05262214473D

 52 52  0     1  0  0  0  0  0999 V2000
   -1.8248    0.3424    3.9102 C   0  0  0  0  0  0  0  0  0  0  0  0
   -0.8774   -0.2723    3.4345 O   0  0  0  0  0  0  0  0  0  0  0  0
   -2.2566    0.0600    5.3109 C   0  0  0  0  0  0  0  0  0  0  0  0
   -3.0163   -0.7363    5.3643 H   0  0  0  0  0  0  0  0  0  0  0  0
   -1.4254   -0.2876    5.9452 H   0  0  0  0  0  0  0  0  0  0  0  0
   -2.6947    0.9149    5.8505 H   0  0  0  0  0  0  0  0  0  0  0  0
   -2.5745    1.3149    3.2691 N   0  0  0  0  0  0  0  0  0  0  0  0
   -2.3276    1.7409    1.9167 C   0  0  2  0  0  0  0  0  0  0  0  0
   -0.9926    1.1555    1.4755 C   0  0  0  0  0  0  0  0  0  0  0  0
   -0.1206    0.8028    2.2668 O   0  0  0  0  0  0  0  0  0  0  0  0
   -2.3188    3.2577    1.8072 C   0  0  0  0  0  0  0  0  0  0  0  0
   -3.3395    1.7507    3.7809 H   0  0  0  0  0  0  0  0  0  0  0  0
   -3.1317    1.3224    1.3015 H   0  0  0  0  0  0  0  0  0  0  0  0
   -1.5198    3.6949    2.4169 H   0  0  0  0  0  0  0  0  0  0  0  0
   -2.1594    3.5799    0.7729 H   0  0  0  0  0  0  0  0  0  0  0  0
   -3.2690    3.6789    2.1530 H   0  0  0  0  0  0  0  0  0  0  0  0
   -0.8700    1.1124    0.0921 N   0  0  0  0  0  0  0  0  0  0  0  0
    0.3073    0.6116   -0.5716 C   0  0  2  0  0  0  0  0  0  0  0  0
    1.4797    1.4778   -0.1249 C   0  0  0  0  0  0  0  0  0  0  0  0
    1.5482    1.9868    0.9918 O   0  0  0  0  0  0  0  0  0  0  0  0
    0.1704    0.6462   -2.0981 C   0  0  0  0  0  0  0  0  0  0  0  0
   -0.8745   -0.3139   -2.6122 C   0  0  0  0  0  0  0  0  0  0  0  0
   -0.5650   -1.6652   -2.7667 C   0  0  0  0  0  0  0  0  0  0  0  0
   -2.1501    0.1506   -2.9327 C   0  0  0  0  0  0  0  0  0  0  0  0
   -1.5312   -2.5521   -3.2417 C   0  0  0  0  0  0  0  0  0  0  0  0
   -3.1163   -0.7363   -3.4077 C   0  0  0  0  0  0  0  0  0  0  0  0
   -2.8068   -2.0876   -3.5621 C   0  0  0  0  0  0  0  0  0  0  0  0
   -1.6531    1.4091   -0.4852 H   0  0  0  0  0  0  0  0  0  0  0  0
    0.4588   -0.4119   -0.2090 H   0  0  0  0  0  0  0  0  0  0  0  0
    1.1372    0.4284   -2.5718 H   0  0  0  0  0  0  0  0  0  0  0  0
   -0.0949    1.6566   -2.4365 H   0  0  0  0  0  0  0  0  0  0  0  0
    0.4262   -2.0360   -2.5194 H   0  0  0  0  0  0  0  0  0  0  0  0
   -2.4003    1.2017   -2.8154 H   0  0  0  0  0  0  0  0  0  0  0  0
   -1.2897   -3.6040   -3.3630 H   0  0  0  0  0  0  0  0  0  0  0  0
   -4.1090   -0.3742   -3.6581 H   0  0  0  0  0  0  0  0  0  0  0  0
   -3.5586   -2.7781   -3.9333 H   0  0  0  0  0  0  0  0  0  0  0  0
    2.4592    1.5712   -1.1038 N   0  0  0  0  0  0  0  0  0  0  0  0
    3.6869    2.3136   -0.9295 C   0  0  2  0  0  0  0  0  0  0  0  0
    3.3280    3.7032   -0.4198 C   0  0  0  0  0  0  0  0  0  0  0  0
    2.2211    4.2124   -0.5832 O   0  0  0  0  0  0  0  0  0  0  0  0
    4.4721    2.3975   -2.2293 C   0  0  0  0  0  0  0  0  0  0  0  0
    2.3055    1.0938   -1.9870 H   0  0  0  0  0  0  0  0  0  0  0  0
    4.2712    1.7846   -0.1688 H   0  0  0  0  0  0  0  0  0  0  0  0
    3.9026    2.9244   -3.0036 H   0  0  0  0  0  0  0  0  0  0  0  0
    5.4154    2.9356   -2.0890 H   0  0  0  0  0  0  0  0  0  0  0  0
    4.7036    1.3969   -2.6099 H   0  0  0  0  0  0  0  0  0  0  0  0
    4.4022    4.3249    0.2011 N   0  0  0  0  0  0  0  0  0  0  0  0
    4.3179    5.6550    0.7577 C   0  0  0  0  0  0  0  0  0  0  0  0
    5.2774    3.8207    0.3088 H   0  0  0  0  0  0  0  0  0  0  0  0
    4.6352    6.3897    0.0029 H   0  0  0  0  0  0  0  0  0  0  0  0
    3.2799    5.8620    1.0570 H   0  0  0  0  0  0  0  0  0  0  0  0
    4.9744    5.7265    1.6374 H   0  0  0  0  0  0  0  0  0  0  0  0
 25 27  1  0  0  0  0
 26 27  2  0  0  0  0
 23 25  2  0  0  0  0
 24 26  1  0  0  0  0
 22 23  1  0  0  0  0
 22 24  2  0  0  0  0
 21 22  1  0  0  0  0
  1  3  1  0  0  0  0
  1  7  1  0  0  0  0
  1  2  2  0  0  0  0
 38 39  1  0  0  0  0
 39 47  1  0  0  0  0
 39 40  2  0  0  0  0
  8  9  1  0  0  0  0
  9 17  1  0  0  0  0
  9 10  2  0  0  0  0
 18 19  1  0  0  0  0
 19 37  1  0  0  0  0
 19 20  2  0  0  0  0
 38 41  1  0  0  0  0
  8 11  1  0  0  0  0
 47 48  1  0  0  0  0
 18 21  1  0  0  0  0
 37 38  1  0  0  0  0
  7  8  1  0  0  0  0
 17 18  1  0  0  0  0
 27 36  1  0  0  0  0
 25 34  1  0  0  0  0
 26 35  1  0  0  0  0
 23 32  1  0  0  0  0
 24 33  1  0  0  0  0
  3  4  1  0  0  0  0
  3  5  1  0  0  0  0
  3  6  1  0  0  0  0
 41 44  1  0  0  0  0
 41 45  1  0  0  0  0
 41 46  1  0  0  0  0
 11 14  1  0  0  0  0
 11 15  1  0  0  0  0
 11 16  1  0  0  0  0
 48 50  1  0  0  0  0
 48 51  1  0  0  0  0
 48 52  1  0  0  0  0
 21 30  1  0  0  0  0
 21 31  1  0  0  0  0
 38 43  1  0  0  0  0
  8 13  1  0  0  0  0
 18 29  1  0  0  0  0
 47 49  1  0  0  0  0
  7 12  1  0  0  0  0
 37 42  1  0  0  0  0
 17 28  1  0  0  0  0
M  END
$$$$

  -OEChem-05262214473D

 52 52  0     1  0  0  0  0  0999 V2000
   -1.8248    0.3424    3.9102 C   0  0  0  0  0  0  0  0  0  0  0  0
   -0.8774   -0.2723    3.4345 O   0  0  0  0  0  0  0  0  0  0  0  0
   -2.2566    0.0600    5.3109 C   0  0  0  0  0  0  0  0  0  0  0  0
   -3.0163   -0.7363    5.3643 H   0  0  0  0  0  0  0  0  0  0  0  0
   -1.4254   -0.2876    5.9452 H   0  0  0  0  0  0  0  0  0  0  0  0
   -2.6947    0.9149    5.8505 H   0  0  0  0  0  0  0  0  0  0  0  0
   -2.5745    1.3149    3.2691 N   0  0  0  0  0  0  0  0  0  0  0  0
   -2.3276    1.7409    1.9167 C   0  0  2  0  0  0  0  0  0  0  0  0
   -0.9926    1.1555    1.4755 C   0  0  0  0  0  0  0  0  0  0  0  0
   -0.1206    0.8028    2.2668 O   0  0  0  0  0  0  0  0  0  0  0  0
   -2.3188    3.2577    1.8072 C   0  0  0  0  0  0  0  0  0  0  0  0
   -3.3395    1.7507    3.7809 H   0  0  0  0  0  0  0  0  0  0  0  0
   -3.1317    1.3224    1.3015 H   0  0  0  0  0  0  0  0  0  0  0  0
   -1.5198    3.6949    2.4169 H   0  0  0  0  0  0  0  0  0  0  0  0
   -2.1594    3.5799    0.7729 H   0  0  0  0  0  0  0  0  0  0  0  0
   -3.2690    3.6789    2.1530 H   0  0  0  0  0  0  0  0  0  0  0  0
   -0.8700    1.1124    0.0921 N   0  0  0  0  0  0  0  0  0  0  0  0
    0.3073    0.6116   -0.5716 C   0  0  2  0  0  0  0  0  0  0  0  0
    1.4797    1.4778   -0.1249 C   0  0  0  0  0  0  0  0  0  0  0  0
    1.6890    1.7654    1.0517 O   0  0  0  0  0  0  0  0  0  0  0  0
    0.1704    0.6462   -2.0981 C   0  0  0  0  0  0  0  0  0  0  0  0
   -0.8745   -0.3139   -2.6122 C   0  0  0  0  0  0  0  0  0  0  0  0
   -0.5650   -1.6652   -2.7667 C   0  0  0  0  0  0  0  0  0  0  0  0
   -2.1501    0.1506   -2.9327 C   0  0  0  0  0  0  0  0  0  0  0  0
   -1.5312   -2.5521   -3.2417 C   0  0  0  0  0  0  0  0  0  0  0  0
   -3.1163   -0.7363   -3.4077 C   0  0  0  0  0  0  0  0  0  0  0  0
   -2.8068   -2.0876   -3.5621 C   0  0  0  0  0  0  0  0  0  0  0  0
   -1.6531    1.4091   -0.4852 H   0  0  0  0  0  0  0  0  0  0  0  0
    0.4588   -0.4119   -0.2090 H   0  0  0  0  0  0  0  0  0  0  0  0
    1.1372    0.4284   -2.5718 H   0  0  0  0  0  0  0  0  0  0  0  0
   -0.0949    1.6566   -2.4365 H   0  0  0  0  0  0  0  0  0  0  0  0
    0.4262   -2.0360   -2.5194 H   0  0  0  0  0  0  0  0  0  0  0  0
   -2.4003    1.2017   -2.8154 H   0  0  0  0  0  0  0  0  0  0  0  0
   -1.2897   -3.6040   -3.3630 H   0  0  0  0  0  0  0  0  0  0  0  0
   -4.1090   -0.3742   -3.6581 H   0  0  0  0  0  0  0  0  0  0  0  0
   -3.5586   -2.7781   -3.9333 H   0  0  0  0  0  0  0  0  0  0  0  0
    2.2885    1.8472   -1.1907 N   0  0  0  0  0  0  0  0  0  0  0  0
    3.4808    2.6502   -1.0410 C   0  0  2  0  0  0  0  0  0  0  0  0
    3.1210    3.8765   -0.2127 C   0  0  0  0  0  0  0  0  0  0  0  0
    1.9732    4.3051   -0.1125 O   0  0  0  0  0  0  0  0  0  0  0  0
    4.0488    3.0546   -2.3925 C   0  0  0  0  0  0  0  0  0  0  0  0
    2.0293    1.5376   -2.1228 H   0  0  0  0  0  0  0  0  0  0  0  0
    4.2069    2.0392   -0.4937 H   0  0  0  0  0  0  0  0  0  0  0  0
    3.3353    3.6674   -2.9555 H   0  0  0  0  0  0  0  0  0  0  0  0
    4.9678    3.6388   -2.2779 H   0  0  0  0  0  0  0  0  0  0  0  0
    4.2792    2.1717   -2.9984 H   0  0  0  0  0  0  0  0  0  0  0  0
    4.2384    4.4613    0.3664 N   0  0  0  0  0  0  0  0  0  0  0  0
    4.1604    5.6455    1.1897 C   0  0  0  0  0  0  0  0  0  0  0  0
    5.1488    4.0273    0.2455 H   0  0  0  0  0  0  0  0  0  0  0  0
    4.3117    6.5379    0.5646 H   0  0  0  0  0  0  0  0  0  0  0  0
    3.1705    5.6956    1.6667 H   0  0  0  0  0  0  0  0  0  0  0  0
    4.9395    5.6048    1.9652 H   0  0  0  0  0  0  0  0  0  0  0  0
 25 27  1  0  0  0  0
 26 27  2  0  0  0  0
 23 25  2  0  0  0  0
 24 26  1  0  0  0  0
 22 23  1  0  0  0  0
 22 24  2  0  0  0  0
 21 22  1  0  0  0  0
  1  3  1  0  0  0  0
  1  7  1  0  0  0  0
  1  2  2  0  0  0  0
 38 39  1  0  0  0  0
 39 47  1  0  0  0  0
 39 40  2  0  0  0  0
  8  9  1  0  0  0  0
  9 17  1  0  0  0  0
  9 10  2  0  0  0  0
 18 19  1  0  0  0  0
 19 37  1  0  0  0  0
 19 20  2  0  0  0  0
 38 41  1  0  0  0  0
  8 11  1  0  0  0  0
 47 48  1  0  0  0  0
 18 21  1  0  0  0  0
 37 38  1  0  0  0  0
  7  8  1  0  0  0  0
 17 18  1  0  0  0  0
 27 36  1  0  0  0  0
 25 34  1  0  0  0  0
 26 35  1  0  0  0  0
 23 32  1  0  0  0  0
 24 33  1  0  0  0  0
  3  4  1  0  0  0  0
  3  5  1  0  0  0  0
  3  6  1  0  0  0  0
 41 44  1  0  0  0  0
 41 45  1  0  0  0  0
 41 46  1  0  0  0  0
 11 14  1  0  0  0  0
 11 15  1  0  0  0  0
 11 16  1  0  0  0  0
 48 50  1  0  0  0  0
 48 51  1  0  0  0  0
 48 52  1  0  0  0  0
 21 30  1  0  0  0  0
 21 31  1  0  0  0  0
 38 43  1  0  0  0  0
  8 13  1  0  0  0  0
 18 29  1  0  0  0  0
 47 49  1  0  0  0  0
  7 12  1  0  0  0  0
 37 42  1  0  0  0  0
 17 28  1  0  0  0  0
M  END
$$$$

  -OEChem-05262214473D

 52 52  0     1  0  0  0  0  0999 V2000
   -1.8248    0.3424    3.9102 C   0  0  0  0  0  0  0  0  0  0  0  0
   -0.8774   -0.2723    3.4345 O   0  0  0  0  0  0  0  0  0  0  0  0
   -2.2566    0.0600    5.3109 C   0  0  0  0  0  0  0  0  0  0  0  0
   -3.0163   -0.7363    5.3643 H   0  0  0  0  0  0  0  0  0  0  0  0
   -1.4254   -0.2876    5.9452 H   0  0  0  0  0  0  0  0  0  0  0  0
   -2.6947    0.9149    5.8505 H   0  0  0  0  0  0  0  0  0  0  0  0
   -2.5745    1.3149    3.2691 N   0  0  0  0  0  0  0  0  0  0  0  0
   -2.3276    1.7409    1.9167 C   0  0  2  0  0  0  0  0  0  0  0  0
   -0.9926    1.1555    1.4755 C   0  0  0  0  0  0  0  0  0  0  0  0
   -0.1206    0.8028    2.2668 O   0  0  0  0  0  0  0  0  0  0  0  0
   -2.3188    3.2577    1.8072 C   0  0  0  0  0  0  0  0  0  0  0  0
   -3.3395    1.7507    3.7809 H   0  0  0  0  0  0  0  0  0  0  0  0
   -3.1317    1.3224    1.3015 H   0  0  0  0  0  0  0  0  0  0  0  0
   -1.5198    3.6949    2.4169 H   0  0  0  0  0  0  0  0  0  0  0  0
   -2.1594    3.5799    0.7729 H   0  0  0  0  0  0  0  0  0  0  0  0
   -3.2690    3.6789    2.1530 H   0  0  0  0  0  0  0  0  0  0  0  0
   -0.8700    1.1124    0.0921 N   0  0  0  0  0  0  0  0  0  0  0  0
    0.3073    0.6116   -0.5716 C   0  0  2  0  0  0  0  0  0  0  0  0
    1.4797    1.4778   -0.1249 C   0  0  0  0  0  0  0  0  0  0  0  0
    1.8506    1.5502    1.0447 O   0  0  0  0  0  0  0  0  0  0  0  0
    0.1704    0.6462   -2.0981 C   0  0  0  0  0  0  0  0  0  0  0  0
   -0.8745   -0.3139   -2.6122 C   0  0  0  0  0  0  0  0  0  0  0  0
   -0.5650   -1.6652   -2.7667 C   0  0  0  0  0  0  0  0  0  0  0  0
   -2.1501    0.1506   -2.9327 C   0  0  0  0  0  0  0  0  0  0  0  0
   -1.5312   -2.5521   -3.2417 C   0  0  0  0  0  0  0  0  0  0  0  0
   -3.1163   -0.7363   -3.4077 C   0  0  0  0  0  0  0  0  0  0  0  0
   -2.8068   -2.0876   -3.5621 C   0  0  0  0  0  0  0  0  0  0  0  0
   -1.6531    1.4091   -0.4852 H   0  0  0  0  0  0  0  0  0  0  0  0
    0.4588   -0.4119   -0.2090 H   0  0  0  0  0  0  0  0  0  0  0  0
    1.1372    0.4284   -2.5718 H   0  0  0  0  0  0  0  0  0  0  0  0
   -0.0949    1.6566   -2.4365 H   0  0  0  0  0  0  0  0  0  0  0  0
    0.4262   -2.0360   -2.5194 H   0  0  0  0  0  0  0  0  0  0  0  0
   -2.4003    1.2017   -2.8154 H   0  0  0  0  0  0  0  0  0  0  0  0
   -1.2897   -3.6040   -3.3630 H   0  0  0  0  0  0  0  0  0  0  0  0
   -4.1090   -0.3742   -3.6581 H   0  0  0  0  0  0  0  0  0  0  0  0
   -3.5586   -2.7781   -3.9333 H   0  0  0  0  0  0  0  0  0  0  0  0
    2.0898    2.1181   -1.1946 N   0  0  0  0  0  0  0  0  0  0  0  0
    3.2397    2.9818   -1.0514 C   0  0  2  0  0  0  0  0  0  0  0  0
    2.9384    3.9870    0.0523 C   0  0  0  0  0  0  0  0  0  0  0  0
    1.7960    4.2823    0.3971 O   0  0  0  0  0  0  0  0  0  0  0  0
    3.5660    3.6898   -2.3572 C   0  0  0  0  0  0  0  0  0  0  0  0
    1.7089    1.9724   -2.1249 H   0  0  0  0  0  0  0  0  0  0  0  0
    4.0776    2.3450   -0.7474 H   0  0  0  0  0  0  0  0  0  0  0  0
    2.7381    4.3325   -2.6777 H   0  0  0  0  0  0  0  0  0  0  0  0
    4.4544    4.3217   -2.2546 H   0  0  0  0  0  0  0  0  0  0  0  0
    3.7533    2.9653   -3.1571 H   0  0  0  0  0  0  0  0  0  0  0  0
    4.0942    4.5478    0.5774 N   0  0  0  0  0  0  0  0  0  0  0  0
    4.0725    5.5383    1.6282 C   0  0  0  0  0  0  0  0  0  0  0  0
    4.9997    4.2297    0.2445 H   0  0  0  0  0  0  0  0  0  0  0  0
    4.0705    6.5447    1.1842 H   0  0  0  0  0  0  0  0  0  0  0  0
    3.1671    5.4052    2.2387 H   0  0  0  0  0  0  0  0  0  0  0  0
    4.9632    5.4193    2.2626 H   0  0  0  0  0  0  0  0  0  0  0  0
 25 27  1  0  0  0  0
 26 27  2  0  0  0  0
 23 25  2  0  0  0  0
 24 26  1  0  0  0  0
 22 23  1  0  0  0  0
 22 24  2  0  0  0  0
 21 22  1  0  0  0  0
  1  3  1  0  0  0  0
  1  7  1  0  0  0  0
  1  2  2  0  0  0  0
 38 39  1  0  0  0  0
 39 47  1  0  0  0  0
 39 40  2  0  0  0  0
  8  9  1  0  0  0  0
  9 17  1  0  0  0  0
  9 10  2  0  0  0  0
 18 19  1  0  0  0  0
 19 37  1  0  0  0  0
 19 20  2  0  0  0  0
 38 41  1  0  0  0  0
  8 11  1  0  0  0  0
 47 48  1  0  0  0  0
 18 21  1  0  0  0  0
 37 38  1  0  0  0  0
  7  8  1  0  0  0  0
 17 18  1  0  0  0  0
 27 36  1  0  0  0  0
 25 34  1  0  0  0  0
 26 35  1  0  0  0  0
 23 32  1  0  0  0  0
 24 33  1  0  0  0  0
  3  4  1  0  0  0  0
  3  5  1  0  0  0  0
  3  6  1  0  0  0  0
 41 44  1  0  0  0  0
 41 45  1  0  0  0  0
 41 46  1  0  0  0  0
 11 14  1  0  0  0  0
 11 15  1  0  0  0  0
 11 16  1  0  0  0  0
 48 50  1  0  0  0  0
 48 51  1  0  0  0  0
 48 52  1  0  0  0  0
 21 30  1  0  0  0  0
 21 31  1  0  0  0  0
 38 43  1  0  0  0  0
  8 13  1  0  0  0  0
 18 29  1  0  0  0  0
 47 49  1  0  0  0  0
  7 12  1  0  0  0  0
 37 42  1  0  0  0  0
 17 28  1  0  0  0  0
M  END
$$$$

  -OEChem-05262214473D

 52 52  0     1  0  0  0  0  0999 V2000
   -1.8248    0.3424    3.9102 C   0  0  0  0  0  0  0  0  0  0  0  0
   -0.8774   -0.2723    3.4345 O   0  0  0  0  0  0  0  0  0  0  0  0
   -2.2566    0.0600    5.3109 C   0  0  0  0  0  0  0  0  0  0  0  0
   -3.0163   -0.7363    5.3643 H   0  0  0  0  0  0  0  0  0  0  0  0
   -1.4254   -0.2876    5.9452 H   0  0  0  0  0  0  0  0  0  0  0  0
   -2.6947    0.9149    5.8505 H   0  0  0  0  0  0  0  0  0  0  0  0
   -2.5745    1.3149    3.2691 N   0  0  0  0  0  0  0  0  0  0  0  0
   -2.3276    1.7409    1.9167 C   0  0  2  0  0  0  0  0  0  0  0  0
   -0.9926    1.1555    1.4755 C   0  0  0  0  0  0  0  0  0  0  0  0
   -0.1206    0.8028    2.2668 O   0  0  0  0  0  0  0  0  0  0  0  0
   -2.3188    3.2577    1.8072 C   0  0  0  0  0  0  0  0  0  0  0  0
   -3.3395    1.7507    3.7809 H   0  0  0  0  0  0  0  0  0  0  0  0
   -3.1317    1.3224    1.3015 H   0  0  0  0  0  0  0  0  0  0  0  0
   -1.5198    3.6949    2.4169 H   0  0  0  0  0  0  0  0  0  0  0  0
   -2.1594    3.5799    0.7729 H   0  0  0  0  0  0  0  0  0  0  0  0
   -3.2690    3.6789    2.1530 H   0  0  0  0  0  0  0  0  0  0  0  0
   -0.8700    1.1124    0.0921 N   0  0  0  0  0  0  0  0  0  0  0  0
    0.3073    0.6116   -0.5716 C   0  0  2  0  0  0  0  0  0  0  0  0
    1.4797    1.4778   -0.1249 C   0  0  0  0  0  0  0  0  0  0  0  0
    2.0220    1.3561    0.9714 O   0  0  0  0  0  0  0  0  0  0  0  0
    0.1704    0.6462   -2.0981 C   0  0  0  0  0  0  0  0  0  0  0  0
   -0.8745   -0.3139   -2.6122 C   0  0  0  0  0  0  0  0  0  0  0  0
   -0.5650   -1.6652   -2.7667 C   0  0  0  0  0  0  0  0  0  0  0  0
   -2.1501    0.1506   -2.9327 C   0  0  0  0  0  0  0  0  0  0  0  0
   -1.5312   -2.5521   -3.2417 C   0  0  0  0  0  0  0  0  0  0  0  0
   -3.1163   -0.7363   -3.4077 C   0  0  0  0  0  0  0  0  0  0  0  0
   -2.8068   -2.0876   -3.5621 C   0  0  0  0  0  0  0  0  0  0  0  0
   -1.6531    1.4091   -0.4852 H   0  0  0  0  0  0  0  0  0  0  0  0
    0.4588   -0.4119   -0.2090 H   0  0  0  0  0  0  0  0  0  0  0  0
    1.1372    0.4284   -2.5718 H   0  0  0  0  0  0  0  0  0  0  0  0
   -0.0949    1.6566   -2.4365 H   0  0  0  0  0  0  0  0  0  0  0  0
    0.4262   -2.0360   -2.5194 H   0  0  0  0  0  0  0  0  0  0  0  0
   -2.4003    1.2017   -2.8154 H   0  0  0  0  0  0  0  0  0  0  0  0
   -1.2897   -3.6040   -3.3630 H   0  0  0  0  0  0  0  0  0  0  0  0
   -4.1090   -0.3742   -3.6581 H   0  0  0  0  0  0  0  0  0  0  0  0
   -3.5586   -2.7781   -3.9333 H   0  0  0  0  0  0  0  0  0  0  0  0
    1.8767    2.3655   -1.1152 N   0  0  0  0  0  0  0  0  0  0  0  0
    2.9802    3.2859   -0.9600 C   0  0  2  0  0  0  0  0  0  0  0  0
    2.7925    4.0272    0.3571 C   0  0  0  0  0  0  0  0  0  0  0  0
    1.7014    4.1453    0.9109 O   0  0  0  0  0  0  0  0  0  0  0  0
    3.0568    4.2596   -2.1256 C   0  0  0  0  0  0  0  0  0  0  0  0
    1.3661    2.3685   -1.9933 H   0  0  0  0  0  0  0  0  0  0  0  0
    3.8923    2.6810   -0.9125 H   0  0  0  0  0  0  0  0  0  0  0  0
    2.1516    4.8744   -2.1892 H   0  0  0  0  0  0  0  0  0  0  0  0
    3.9101    4.9377   -2.0208 H   0  0  0  0  0  0  0  0  0  0  0  0
    3.1618    3.7235   -3.0750 H   0  0  0  0  0  0  0  0  0  0  0  0
    3.9794    4.5783    0.8195 N   0  0  0  0  0  0  0  0  0  0  0  0
    4.0602    5.3408    2.0435 C   0  0  0  0  0  0  0  0  0  0  0  0
    4.8401    4.4141    0.3057 H   0  0  0  0  0  0  0  0  0  0  0  0
    3.9282    6.4097    1.8196 H   0  0  0  0  0  0  0  0  0  0  0  0
    3.2700    5.0107    2.7338 H   0  0  0  0  0  0  0  0  0  0  0  0
    5.0439    5.1827    2.5096 H   0  0  0  0  0  0  0  0  0  0  0  0
 25 27  1  0  0  0  0
 26 27  2  0  0  0  0
 23 25  2  0  0  0  0
 24 26  1  0  0  0  0
 22 23  1  0  0  0  0
 22 24  2  0  0  0  0
 21 22  1  0  0  0  0
  1  3  1  0  0  0  0
  1  7  1  0  0  0  0
  1  2  2  0  0  0  0
 38 39  1  0  0  0  0
 39 47  1  0  0  0  0
 39 40  2  0  0  0  0
  8  9  1  0  0  0  0
  9 17  1  0  0  0  0
  9 10  2  0  0  0  0
 18 19  1  0  0  0  0
 19 37  1  0  0  0  0
 19 20  2  0  0  0  0
 38 41  1  0  0  0  0
  8 11  1  0  0  0  0
 47 48  1  0  0  0  0
 18 21  1  0  0  0  0
 37 38  1  0  0  0  0
  7  8  1  0  0  0  0
 17 18  1  0  0  0  0
 27 36  1  0  0  0  0
 25 34  1  0  0  0  0
 26 35  1  0  0  0  0
 23 32  1  0  0  0  0
 24 33  1  0  0  0  0
  3  4  1  0  0  0  0
  3  5  1  0  0  0  0
  3  6  1  0  0  0  0
 41 44  1  0  0  0  0
 41 45  1  0  0  0  0
 41 46  1  0  0  0  0
 11 14  1  0  0  0  0
 11 15  1  0  0  0  0
 11 16  1  0  0  0  0
 48 50  1  0  0  0  0
 48 51  1  0  0  0  0
 48 52  1  0  0  0  0
 21 30  1  0  0  0  0
 21 31  1  0  0  0  0
 38 43  1  0  0  0  0
  8 13  1  0  0  0  0
 18 29  1  0  0  0  0
 47 49  1  0  0  0  0
  7 12  1  0  0  0  0
 37 42  1  0  0  0  0
 17 28  1  0  0  0  0
M  END
$$$$

  -OEChem-05262214473D

 52 52  0     1  0  0  0  0  0999 V2000
   -1.8248    0.3424    3.9102 C   0  0  0  0  0  0  0  0  0  0  0  0
   -0.8774   -0.2723    3.4345 O   0  0  0  0  0  0  0  0  0  0  0  0
   -2.2566    0.0600    5.3109 C   0  0  0  0  0  0  0  0  0  0  0  0
   -3.0163   -0.7363    5.3643 H   0  0  0  0  0  0  0  0  0  0  0  0
   -1.4254   -0.2876    5.9452 H   0  0  0  0  0  0  0  0  0  0  0  0
   -2.6947    0.9149    5.8505 H   0  0  0  0  0  0  0  0  0  0  0  0
   -2.5745    1.3149    3.2691 N   0  0  0  0  0  0  0  0  0  0  0  0
   -2.3276    1.7409    1.9167 C   0  0  2  0  0  0  0  0  0  0  0  0
   -0.9926    1.1555    1.4755 C   0  0  0  0  0  0  0  0  0  0  0  0
   -0.1206    0.8028    2.2668 O   0  0  0  0  0  0  0  0  0  0  0  0
   -2.3188    3.2577    1.8072 C   0  0  0  0  0  0  0  0  0  0  0  0
   -3.3395    1.7507    3.7809 H   0  0  0  0  0  0  0  0  0  0  0  0
   -3.1317    1.3224    1.3015 H   0  0  0  0  0  0  0  0  0  0  0  0
   -1.5198    3.6949    2.4169 H   0  0  0  0  0  0  0  0  0  0  0  0
   -2.1594    3.5799    0.7729 H   0  0  0  0  0  0  0  0  0  0  0  0
   -3.2690    3.6789    2.1530 H   0  0  0  0  0  0  0  0  0  0  0  0
   -0.8700    1.1124    0.0921 N   0  0  0  0  0  0  0  0  0  0  0  0
    0.3073    0.6116   -0.5716 C   0  0  2  0  0  0  0  0  0  0  0  0
    1.4797    1.4778   -0.1249 C   0  0  0  0  0  0  0  0  0  0  0  0
    2.1915    1.1961    0.8367 O   0  0  0  0  0  0  0  0  0  0  0  0
    0.1704    0.6462   -2.0981 C   0  0  0  0  0  0  0  0  0  0  0  0
   -0.8745   -0.3139   -2.6122 C   0  0  0  0  0  0  0  0  0  0  0  0
   -0.5650   -1.6652   -2.7667 C   0  0  0  0  0  0  0  0  0  0  0  0
   -2.1501    0.1506   -2.9327 C   0  0  0  0  0  0  0  0  0  0  0  0
   -1.5312   -2.5521   -3.2417 C   0  0  0  0  0  0  0  0  0  0  0  0
   -3.1163   -0.7363   -3.4077 C   0  0  0  0  0  0  0  0  0  0  0  0
   -2.8068   -2.0876   -3.5621 C   0  0  0  0  0  0  0  0  0  0  0  0
   -1.6531    1.4091   -0.4852 H   0  0  0  0  0  0  0  0  0  0  0  0
    0.4588   -0.4119   -0.2090 H   0  0  0  0  0  0  0  0  0  0  0  0
    1.1372    0.4284   -2.5718 H   0  0  0  0  0  0  0  0  0  0  0  0
   -0.0949    1.6566   -2.4365 H   0  0  0  0  0  0  0  0  0  0  0  0
    0.4262   -2.0360   -2.5194 H   0  0  0  0  0  0  0  0  0  0  0  0
   -2.4003    1.2017   -2.8154 H   0  0  0  0  0  0  0  0  0  0  0  0
   -1.2897   -3.6040   -3.3630 H   0  0  0  0  0  0  0  0  0  0  0  0
   -4.1090   -0.3742   -3.6581 H   0  0  0  0  0  0  0  0  0  0  0  0
   -3.5586   -2.7781   -3.9333 H   0  0  0  0  0  0  0  0  0  0  0  0
    1.6639    2.5726   -0.9580 N   0  0  0  0  0  0  0  0  0  0  0  0
    2.7199    3.5418   -0.7730 C   0  0  2  0  0  0  0  0  0  0  0  0
    2.6935    3.9943    0.6810 C   0  0  0  0  0  0  0  0  0  0  0  0
    1.6960    3.9036    1.3937 O   0  0  0  0  0  0  0  0  0  0  0  0
    2.5557    4.7253   -1.7137 C   0  0  0  0  0  0  0  0  0  0  0  0
    1.0243    2.6989   -1.7369 H   0  0  0  0  0  0  0  0  0  0  0  0
    3.6635    3.0244   -0.9780 H   0  0  0  0  0  0  0  0  0  0  0  0
    1.6158    5.2562   -1.5233 H   0  0  0  0  0  0  0  0  0  0  0  0
    3.3721    5.4449   -1.5922 H   0  0  0  0  0  0  0  0  0  0  0  0
    2.5451    4.3947   -2.7579 H   0  0  0  0  0  0  0  0  0  0  0  0
    3.9018    4.5509    1.0764 N   0  0  0  0  0  0  0  0  0  0  0  0
    4.1243    5.0665    2.4070 C   0  0  0  0  0  0  0  0  0  0  0  0
    4.6810    4.5679    0.4250 H   0  0  0  0  0  0  0  0  0  0  0  0
    3.8944    6.1420    2.4273 H   0  0  0  0  0  0  0  0  0  0  0  0
    3.4721    4.5388    3.1184 H   0  0  0  0  0  0  0  0  0  0  0  0
    5.1761    4.9111    2.6892 H   0  0  0  0  0  0  0  0  0  0  0  0
 25 27  1  0  0  0  0
 26 27  2  0  0  0  0
 23 25  2  0  0  0  0
 24 26  1  0  0  0  0
 22 23  1  0  0  0  0
 22 24  2  0  0  0  0
 21 22  1  0  0  0  0
  1  3  1  0  0  0  0
  1  7  1  0  0  0  0
  1  2  2  0  0  0  0
 38 39  1  0  0  0  0
 39 47  1  0  0  0  0
 39 40  2  0  0  0  0
  8  9  1  0  0  0  0
  9 17  1  0  0  0  0
  9 10  2  0  0  0  0
 18 19  1  0  0  0  0
 19 37  1  0  0  0  0
 19 20  2  0  0  0  0
 38 41  1  0  0  0  0
  8 11  1  0  0  0  0
 47 48  1  0  0  0  0
 18 21  1  0  0  0  0
 37 38  1  0  0  0  0
  7  8  1  0  0  0  0
 17 18  1  0  0  0  0
 27 36  1  0  0  0  0
 25 34  1  0  0  0  0
 26 35  1  0  0  0  0
 23 32  1  0  0  0  0
 24 33  1  0  0  0  0
  3  4  1  0  0  0  0
  3  5  1  0  0  0  0
  3  6  1  0  0  0  0
 41 44  1  0  0  0  0
 41 45  1  0  0  0  0
 41 46  1  0  0  0  0
 11 14  1  0  0  0  0
 11 15  1  0  0  0  0
 11 16  1  0  0  0  0
 48 50  1  0  0  0  0
 48 51  1  0  0  0  0
 48 52  1  0  0  0  0
 21 30  1  0  0  0  0
 21 31  1  0  0  0  0
 38 43  1  0  0  0  0
  8 13  1  0  0  0  0
 18 29  1  0  0  0  0
 47 49  1  0  0  0  0
  7 12  1  0  0  0  0
 37 42  1  0  0  0  0
 17 28  1  0  0  0  0
M  END
$$$$

  -OEChem-05262214473D

 52 52  0     1  0  0  0  0  0999 V2000
   -1.8248    0.3424    3.9102 C   0  0  0  0  0  0  0  0  0  0  0  0
   -0.8774   -0.2723    3.4345 O   0  0  0  0  0  0  0  0  0  0  0  0
   -2.2566    0.0600    5.3109 C   0  0  0  0  0  0  0  0  0  0  0  0
   -3.0163   -0.7363    5.3643 H   0  0  0  0  0  0  0  0  0  0  0  0
   -1.4254   -0.2876    5.9452 H   0  0  0  0  0  0  0  0  0  0  0  0
   -2.6947    0.9149    5.8505 H   0  0  0  0  0  0  0  0  0  0  0  0
   -2.5745    1.3149    3.2691 N   0  0  0  0  0  0  0  0  0  0  0  0
   -2.3276    1.7409    1.9167 C   0  0  2  0  0  0  0  0  0  0  0  0
   -0.9926    1.1555    1.4755 C   0  0  0  0  0  0  0  0  0  0  0  0
   -0.1206    0.8028    2.2668 O   0  0  0  0  0  0  0  0  0  0  0  0
   -2.3188    3.2577    1.8072 C   0  0  0  0  0  0  0  0  0  0  0  0
   -3.3395    1.7507    3.7809 H   0  0  0  0  0  0  0  0  0  0  0  0
   -3.1317    1.3224    1.3015 H   0  0  0  0  0  0  0  0  0  0  0  0
   -1.5198    3.6949    2.4169 H   0  0  0  0  0  0  0  0  0  0  0  0
   -2.1594    3.5799    0.7729 H   0  0  0  0  0  0  0  0  0  0  0  0
   -3.2690    3.6789    2.1530 H   0  0  0  0  0  0  0  0  0  0  0  0
   -0.8700    1.1124    0.0921 N   0  0  0  0  0  0  0  0  0  0  0  0
    0.3073    0.6116   -0.5716 C   0  0  2  0  0  0  0  0  0  0  0  0
    1.4797    1.4778   -0.1249 C   0  0  0  0  0  0  0  0  0  0  0  0
    2.3476    1.0812    0.6499 O   0  0  0  0  0  0  0  0  0  0  0  0
    0.1704    0.6462   -2.0981 C   0  0  0  0  0  0  0  0  0  0  0  0
   -0.8745   -0.3139   -2.6122 C   0  0  0  0  0  0  0  0  0  0  0  0
   -0.5650   -1.6652   -2.7667 C   0  0  0  0  0  0  0  0  0  0  0  0
   -2.1501    0.1506   -2.9327 C   0  0  0  0  0  0  0  0  0  0  0  0
   -1.5312   -2.5521   -3.2417 C   0  0  0  0  0  0  0  0  0  0  0  0
   -3.1163   -0.7363   -3.4077 C   0  0  0  0  0  0  0  0  0  0  0  0
   -2.8068   -2.0876   -3.5621 C   0  0  0  0  0  0  0  0  0  0  0  0
   -1.6531    1.4091   -0.4852 H   0  0  0  0  0  0  0  0  0  0  0  0
    0.4588   -0.4119   -0.2090 H   0  0  0  0  0  0  0  0  0  0  0  0
    1.1372    0.4284   -2.5718 H   0  0  0  0  0  0  0  0  0  0  0  0
   -0.0949    1.6566   -2.4365 H   0  0  0  0  0  0  0  0  0  0  0  0
    0.4262   -2.0360   -2.5194 H   0  0  0  0  0  0  0  0  0  0  0  0
   -2.4003    1.2017   -2.8154 H   0  0  0  0  0  0  0  0  0  0  0  0
   -1.2897   -3.6040   -3.3630 H   0  0  0  0  0  0  0  0  0  0  0  0
   -4.1090   -0.3742   -3.6581 H   0  0  0  0  0  0  0  0  0  0  0  0
   -3.5586   -2.7781   -3.9333 H   0  0  0  0  0  0  0  0  0  0  0  0
    1.4657    2.7251   -0.7336 N   0  0  0  0  0  0  0  0  0  0  0  0
    2.4766    3.7320   -0.5031 C   0  0  2  0  0  0  0  0  0  0  0  0
    2.6479    3.8905    1.0019 C   0  0  0  0  0  0  0  0  0  0  0  0
    1.7802    3.5736    1.8128 O   0  0  0  0  0  0  0  0  0  0  0  0
    2.0970    5.0552   -1.1494 C   0  0  0  0  0  0  0  0  0  0  0  0
    0.7068    2.9411   -1.3733 H   0  0  0  0  0  0  0  0  0  0  0  0
    3.4068    3.3518   -0.9392 H   0  0  0  0  0  0  0  0  0  0  0  0
    1.1673    5.4517   -0.7253 H   0  0  0  0  0  0  0  0  0  0  0  0
    2.8770    5.8088   -0.9982 H   0  0  0  0  0  0  0  0  0  0  0  0
    1.9451    4.9332   -2.2272 H   0  0  0  0  0  0  0  0  0  0  0  0
    3.8666    4.4675    1.3305 N   0  0  0  0  0  0  0  0  0  0  0  0
    4.2606    4.7341    2.6942 C   0  0  0  0  0  0  0  0  0  0  0  0
    4.5332    4.6807    0.5943 H   0  0  0  0  0  0  0  0  0  0  0  0
    3.9715    5.7600    2.9660 H   0  0  0  0  0  0  0  0  0  0  0  0
    3.7596    4.0218    3.3663 H   0  0  0  0  0  0  0  0  0  0  0  0
    5.3508    4.6231    2.7891 H   0  0  0  0  0  0  0  0  0  0  0  0
 25 27  1  0  0  0  0
 26 27  2  0  0  0  0
 23 25  2  0  0  0  0
 24 26  1  0  0  0  0
 22 23  1  0  0  0  0
 22 24  2  0  0  0  0
 21 22  1  0  0  0  0
  1  3  1  0  0  0  0
  1  7  1  0  0  0  0
  1  2  2  0  0  0  0
 38 39  1  0  0  0  0
 39 47  1  0  0  0  0
 39 40  2  0  0  0  0
  8  9  1  0  0  0  0
  9 17  1  0  0  0  0
  9 10  2  0  0  0  0
 18 19  1  0  0  0  0
 19 37  1  0  0  0  0
 19 20  2  0  0  0  0
 38 41  1  0  0  0  0
  8 11  1  0  0  0  0
 47 48  1  0  0  0  0
 18 21  1  0  0  0  0
 37 38  1  0  0  0  0
  7  8  1  0  0  0  0
 17 18  1  0  0  0  0
 27 36  1  0  0  0  0
 25 34  1  0  0  0  0
 26 35  1  0  0  0  0
 23 32  1  0  0  0  0
 24 33  1  0  0  0  0
  3  4  1  0  0  0  0
  3  5  1  0  0  0  0
  3  6  1  0  0  0  0
 41 44  1  0  0  0  0
 41 45  1  0  0  0  0
 41 46  1  0  0  0  0
 11 14  1  0  0  0  0
 11 15  1  0  0  0  0
 11 16  1  0  0  0  0
 48 50  1  0  0  0  0
 48 51  1  0  0  0  0
 48 52  1  0  0  0  0
 21 30  1  0  0  0  0
 21 31  1  0  0  0  0
 38 43  1  0  0  0  0
  8 13  1  0  0  0  0
 18 29  1  0  0  0  0
 47 49  1  0  0  0  0
  7 12  1  0  0  0  0
 37 42  1  0  0  0  0
 17 28  1  0  0  0  0
M  END
$$$$

  -OEChem-05262214473D

 52 52  0     1  0  0  0  0  0999 V2000
   -1.8248    0.3424    3.9102 C   0  0  0  0  0  0  0  0  0  0  0  0
   -0.8774   -0.2723    3.4345 O   0  0  0  0  0  0  0  0  0  0  0  0
   -2.2566    0.0600    5.3109 C   0  0  0  0  0  0  0  0  0  0  0  0
   -3.0163   -0.7363    5.3643 H   0  0  0  0  0  0  0  0  0  0  0  0
   -1.4254   -0.2876    5.9452 H   0  0  0  0  0  0  0  0  0  0  0  0
   -2.6947    0.9149    5.8505 H   0  0  0  0  0  0  0  0  0  0  0  0
   -2.5745    1.3149    3.2691 N   0  0  0  0  0  0  0  0  0  0  0  0
   -2.3276    1.7409    1.9167 C   0  0  2  0  0  0  0  0  0  0  0  0
   -0.9926    1.1555    1.4755 C   0  0  0  0  0  0  0  0  0  0  0  0
   -0.1206    0.8028    2.2668 O   0  0  0  0  0  0  0  0  0  0  0  0
   -2.3188    3.2577    1.8072 C   0  0  0  0  0  0  0  0  0  0  0  0
   -3.3395    1.7507    3.7809 H   0  0  0  0  0  0  0  0  0  0  0  0
   -3.1317    1.3224    1.3015 H   0  0  0  0  0  0  0  0  0  0  0  0
   -1.5198    3.6949    2.4169 H   0  0  0  0  0  0  0  0  0  0  0  0
   -2.1594    3.5799    0.7729 H   0  0  0  0  0  0  0  0  0  0  0  0
   -3.2690    3.6789    2.1530 H   0  0  0  0  0  0  0  0  0  0  0  0
   -0.8700    1.1124    0.0921 N   0  0  0  0  0  0  0  0  0  0  0  0
    0.3073    0.6116   -0.5716 C   0  0  2  0  0  0  0  0  0  0  0  0
    1.4797    1.4778   -0.1249 C   0  0  0  0  0  0  0  0  0  0  0  0
    2.4796    1.0193    0.4236 O   0  0  0  0  0  0  0  0  0  0  0  0
    0.1704    0.6462   -2.0981 C   0  0  0  0  0  0  0  0  0  0  0  0
   -0.8745   -0.3139   -2.6122 C   0  0  0  0  0  0  0  0  0  0  0  0
   -0.5650   -1.6652   -2.7667 C   0  0  0  0  0  0  0  0  0  0  0  0
   -2.1501    0.1506   -2.9327 C   0  0  0  0  0  0  0  0  0  0  0  0
   -1.5312   -2.5521   -3.2417 C   0  0  0  0  0  0  0  0  0  0  0  0
   -3.1163   -0.7363   -3.4077 C   0  0  0  0  0  0  0  0  0  0  0  0
   -2.8068   -2.0876   -3.5621 C   0  0  0  0  0  0  0  0  0  0  0  0
   -1.6531    1.4091   -0.4852 H   0  0  0  0  0  0  0  0  0  0  0  0
    0.4588   -0.4119   -0.2090 H   0  0  0  0  0  0  0  0  0  0  0  0
    1.1372    0.4284   -2.5718 H   0  0  0  0  0  0  0  0  0  0  0  0
   -0.0949    1.6566   -2.4365 H   0  0  0  0  0  0  0  0  0  0  0  0
    0.4262   -2.0360   -2.5194 H   0  0  0  0  0  0  0  0  0  0  0  0
   -2.4003    1.2017   -2.8154 H   0  0  0  0  0  0  0  0  0  0  0  0
   -1.2897   -3.6040   -3.3630 H   0  0  0  0  0  0  0  0  0  0  0  0
   -4.1090   -0.3742   -3.6581 H   0  0  0  0  0  0  0  0  0  0  0  0
   -3.5586   -2.7781   -3.9333 H   0  0  0  0  0  0  0  0  0  0  0  0
    1.2957    2.8127   -0.4574 N   0  0  0  0  0  0  0  0  0  0  0  0
    2.2668    3.8435   -0.1689 C   0  0  2  0  0  0  0  0  0  0  0  0
    2.6590    3.7229    1.2978 C   0  0  0  0  0  0  0  0  0  0  0  0
    1.9481    3.1778    2.1396 O   0  0  0  0  0  0  0  0  0  0  0  0
    1.7119    5.2268   -0.4712 C   0  0  0  0  0  0  0  0  0  0  0  0
    0.4352    3.0786   -0.9271 H   0  0  0  0  0  0  0  0  0  0  0  0
    3.1398    3.6408   -0.7988 H   0  0  0  0  0  0  0  0  0  0  0  0
    0.8365    5.4478    0.1505 H   0  0  0  0  0  0  0  0  0  0  0  0
    2.4584    6.0044   -0.2792 H   0  0  0  0  0  0  0  0  0  0  0  0
    1.4027    5.3021   -1.5193 H   0  0  0  0  0  0  0  0  0  0  0  0
    3.8764    4.3336    1.5644 N   0  0  0  0  0  0  0  0  0  0  0  0
    4.4596    4.3661    2.8854 C   0  0  0  0  0  0  0  0  0  0  0  0
    4.4068    4.7448    0.8019 H   0  0  0  0  0  0  0  0  0  0  0  0
    4.1540    5.2896    3.3990 H   0  0  0  0  0  0  0  0  0  0  0  0
    4.1130    3.4949    3.4606 H   0  0  0  0  0  0  0  0  0  0  0  0
    5.5561    4.3383    2.8027 H   0  0  0  0  0  0  0  0  0  0  0  0
 25 27  1  0  0  0  0
 26 27  2  0  0  0  0
 23 25  2  0  0  0  0
 24 26  1  0  0  0  0
 22 23  1  0  0  0  0
 22 24  2  0  0  0  0
 21 22  1  0  0  0  0
  1  3  1  0  0  0  0
  1  7  1  0  0  0  0
  1  2  2  0  0  0  0
 38 39  1  0  0  0  0
 39 47  1  0  0  0  0
 39 40  2  0  0  0  0
  8  9  1  0  0  0  0
  9 17  1  0  0  0  0
  9 10  2  0  0  0  0
 18 19  1  0  0  0  0
 19 37  1  0  0  0  0
 19 20  2  0  0  0  0
 38 41  1  0  0  0  0
  8 11  1  0  0  0  0
 47 48  1  0  0  0  0
 18 21  1  0  0  0  0
 37 38  1  0  0  0  0
  7  8  1  0  0  0  0
 17 18  1  0  0  0  0
 27 36  1  0  0  0  0
 25 34  1  0  0  0  0
 26 35  1  0  0  0  0
 23 32  1  0  0  0  0
 24 33  1  0  0  0  0
  3  4  1  0  0  0  0
  3  5  1  0  0  0  0
  3  6  1  0  0  0  0
 41 44  1  0  0  0  0
 41 45  1  0  0  0  0
 41 46  1  0  0  0  0
 11 14  1  0  0  0  0
 11 15  1  0  0  0  0
 11 16  1  0  0  0  0
 48 50  1  0  0  0  0
 48 51  1  0  0  0  0
 48 52  1  0  0  0  0
 21 30  1  0  0  0  0
 21 31  1  0  0  0  0
 38 43  1  0  0  0  0
  8 13  1  0  0  0  0
 18 29  1  0  0  0  0
 47 49  1  0  0  0  0
  7 12  1  0  0  0  0
 37 42  1  0  0  0  0
 17 28  1  0  0  0  0
M  END
$$$$

  -OEChem-05262214473D

 52 52  0     1  0  0  0  0  0999 V2000
   -1.8248    0.3424    3.9102 C   0  0  0  0  0  0  0  0  0  0  0  0
   -0.8774   -0.2723    3.4345 O   0  0  0  0  0  0  0  0  0  0  0  0
   -2.2566    0.0600    5.3109 C   0  0  0  0  0  0  0  0  0  0  0  0
   -3.0163   -0.7363    5.3643 H   0  0  0  0  0  0  0  0  0  0  0  0
   -1.4254   -0.2876    5.9452 H   0  0  0  0  0  0  0  0  0  0  0  0
   -2.6947    0.9149    5.8505 H   0  0  0  0  0  0  0  0  0  0  0  0
   -2.5745    1.3149    3.2691 N   0  0  0  0  0  0  0  0  0  0  0  0
   -2.3276    1.7409    1.9167 C   0  0  2  0  0  0  0  0  0  0  0  0
   -0.9926    1.1555    1.4755 C   0  0  0  0  0  0  0  0  0  0  0  0
   -0.1206    0.8028    2.2668 O   0  0  0  0  0  0  0  0  0  0  0  0
   -2.3188    3.2577    1.8072 C   0  0  0  0  0  0  0  0  0  0  0  0
   -3.3395    1.7507    3.7809 H   0  0  0  0  0  0  0  0  0  0  0  0
   -3.1317    1.3224    1.3015 H   0  0  0  0  0  0  0  0  0  0  0  0
   -1.5198    3.6949    2.4169 H   0  0  0  0  0  0  0  0  0  0  0  0
   -2.1594    3.5799    0.7729 H   0  0  0  0  0  0  0  0  0  0  0  0
   -3.2690    3.6789    2.1530 H   0  0  0  0  0  0  0  0  0  0  0  0
   -0.8700    1.1124    0.0921 N   0  0  0  0  0  0  0  0  0  0  0  0
    0.3073    0.6116   -0.5716 C   0  0  2  0  0  0  0  0  0  0  0  0
    1.4797    1.4778   -0.1249 C   0  0  0  0  0  0  0  0  0  0  0  0
    2.5785    1.0145    0.1733 O   0  0  0  0  0  0  0  0  0  0  0  0
    0.1704    0.6462   -2.0981 C   0  0  0  0  0  0  0  0  0  0  0  0
   -0.8745   -0.3139   -2.6122 C   0  0  0  0  0  0  0  0  0  0  0  0
   -0.5650   -1.6652   -2.7667 C   0  0  0  0  0  0  0  0  0  0  0  0
   -2.1501    0.1506   -2.9327 C   0  0  0  0  0  0  0  0  0  0  0  0
   -1.5312   -2.5521   -3.2417 C   0  0  0  0  0  0  0  0  0  0  0  0
   -3.1163   -0.7363   -3.4077 C   0  0  0  0  0  0  0  0  0  0  0  0
   -2.8068   -2.0876   -3.5621 C   0  0  0  0  0  0  0  0  0  0  0  0
   -1.6531    1.4091   -0.4852 H   0  0  0  0  0  0  0  0  0  0  0  0
    0.4588   -0.4119   -0.2090 H   0  0  0  0  0  0  0  0  0  0  0  0
    1.1372    0.4284   -2.5718 H   0  0  0  0  0  0  0  0  0  0  0  0
   -0.0949    1.6566   -2.4365 H   0  0  0  0  0  0  0  0  0  0  0  0
    0.4262   -2.0360   -2.5194 H   0  0  0  0  0  0  0  0  0  0  0  0
   -2.4003    1.2017   -2.8154 H   0  0  0  0  0  0  0  0  0  0  0  0
   -1.2897   -3.6040   -3.3630 H   0  0  0  0  0  0  0  0  0  0  0  0
   -4.1090   -0.3742   -3.6581 H   0  0  0  0  0  0  0  0  0  0  0  0
   -3.5586   -2.7781   -3.9333 H   0  0  0  0  0  0  0  0  0  0  0  0
    1.1655    2.8295   -0.1481 N   0  0  0  0  0  0  0  0  0  0  0  0
    2.1049    3.8688    0.2071 C   0  0  2  0  0  0  0  0  0  0  0  0
    2.7258    3.5030    1.5487 C   0  0  0  0  0  0  0  0  0  0  0  0
    2.1883    2.7432    2.3518 O   0  0  0  0  0  0  0  0  0  0  0  0
    1.4266    5.2283    0.2747 C   0  0  0  0  0  0  0  0  0  0  0  0
    0.2281    3.1021   -0.4289 H   0  0  0  0  0  0  0  0  0  0  0  0
    2.8806    3.8718   -0.5664 H   0  0  0  0  0  0  0  0  0  0  0  0
    0.6462    5.2446    1.0442 H   0  0  0  0  0  0  0  0  0  0  0  0
    2.1451    6.0186    0.5158 H   0  0  0  0  0  0  0  0  0  0  0  0
    0.9550    5.4765   -0.6823 H   0  0  0  0  0  0  0  0  0  0  0  0
    3.9304    4.1585    1.7624 N   0  0  0  0  0  0  0  0  0  0  0  0
    4.7078    3.9877    2.9675 C   0  0  0  0  0  0  0  0  0  0  0  0
    4.3103    4.7557    1.0339 H   0  0  0  0  0  0  0  0  0  0  0  0
    4.4298    4.7628    3.6968 H   0  0  0  0  0  0  0  0  0  0  0  0
    4.5082    2.9939    3.3948 H   0  0  0  0  0  0  0  0  0  0  0  0
    5.7780    4.0760    2.7289 H   0  0  0  0  0  0  0  0  0  0  0  0
 25 27  1  0  0  0  0
 26 27  2  0  0  0  0
 23 25  2  0  0  0  0
 24 26  1  0  0  0  0
 22 23  1  0  0  0  0
 22 24  2  0  0  0  0
 21 22  1  0  0  0  0
  1  3  1  0  0  0  0
  1  7  1  0  0  0  0
  1  2  2  0  0  0  0
 38 39  1  0  0  0  0
 39 47  1  0  0  0  0
 39 40  2  0  0  0  0
  8  9  1  0  0  0  0
  9 17  1  0  0  0  0
  9 10  2  0  0  0  0
 18 19  1  0  0  0  0
 19 37  1  0  0  0  0
 19 20  2  0  0  0  0
 38 41  1  0  0  0  0
  8 11  1  0  0  0  0
 47 48  1  0  0  0  0
 18 21  1  0  0  0  0
 37 38  1  0  0  0  0
  7  8  1  0  0  0  0
 17 18  1  0  0  0  0
 27 36  1  0  0  0  0
 25 34  1  0  0  0  0
 26 35  1  0  0  0  0
 23 32  1  0  0  0  0
 24 33  1  0  0  0  0
  3  4  1  0  0  0  0
  3  5  1  0  0  0  0
  3  6  1  0  0  0  0
 41 44  1  0  0  0  0
 41 45  1  0  0  0  0
 41 46  1  0  0  0  0
 11 14  1  0  0  0  0
 11 15  1  0  0  0  0
 11 16  1  0  0  0  0
 48 50  1  0  0  0  0
 48 51  1  0  0  0  0
 48 52  1  0  0  0  0
 21 30  1  0  0  0  0
 21 31  1  0  0  0  0
 38 43  1  0  0  0  0
  8 13  1  0  0  0  0
 18 29  1  0  0  0  0
 47 49  1  0  0  0  0
  7 12  1  0  0  0  0
 37 42  1  0  0  0  0
 17 28  1  0  0  0  0
M  END
$$$$

  -OEChem-05262214473D

 52 52  0     1  0  0  0  0  0999 V2000
   -1.8248    0.3424    3.9102 C   0  0  0  0  0  0  0  0  0  0  0  0
   -0.8774   -0.2723    3.4345 O   0  0  0  0  0  0  0  0  0  0  0  0
   -2.2566    0.0600    5.3109 C   0  0  0  0  0  0  0  0  0  0  0  0
   -3.0163   -0.7363    5.3643 H   0  0  0  0  0  0  0  0  0  0  0  0
   -1.4254   -0.2876    5.9452 H   0  0  0  0  0  0  0  0  0  0  0  0
   -2.6947    0.9149    5.8505 H   0  0  0  0  0  0  0  0  0  0  0  0
   -2.5745    1.3149    3.2691 N   0  0  0  0  0  0  0  0  0  0  0  0
   -2.3276    1.7409    1.9167 C   0  0  2  0  0  0  0  0  0  0  0  0
   -0.9926    1.1555    1.4755 C   0  0  0  0  0  0  0  0  0  0  0  0
   -0.1206    0.8028    2.2668 O   0  0  0  0  0  0  0  0  0  0  0  0
   -2.3188    3.2577    1.8072 C   0  0  0  0  0  0  0  0  0  0  0  0
   -3.3395    1.7507    3.7809 H   0  0  0  0  0  0  0  0  0  0  0  0
   -3.1317    1.3224    1.3015 H   0  0  0  0  0  0  0  0  0  0  0  0
   -1.5198    3.6949    2.4169 H   0  0  0  0  0  0  0  0  0  0  0  0
   -2.1594    3.5799    0.7729 H   0  0  0  0  0  0  0  0  0  0  0  0
   -3.2690    3.6789    2.1530 H   0  0  0  0  0  0  0  0  0  0  0  0
   -0.8700    1.1124    0.0921 N   0  0  0  0  0  0  0  0  0  0  0  0
    0.3073    0.6116   -0.5716 C   0  0  2  0  0  0  0  0  0  0  0  0
    1.4797    1.4778   -0.1249 C   0  0  0  0  0  0  0  0  0  0  0  0
    2.6375    1.0672   -0.0839 O   0  0  0  0  0  0  0  0  0  0  0  0
    0.1704    0.6462   -2.0981 C   0  0  0  0  0  0  0  0  0  0  0  0
   -0.8745   -0.3139   -2.6122 C   0  0  0  0  0  0  0  0  0  0  0  0
   -0.5650   -1.6652   -2.7667 C   0  0  0  0  0  0  0  0  0  0  0  0
   -2.1501    0.1506   -2.9327 C   0  0  0  0  0  0  0  0  0  0  0  0
   -1.5312   -2.5521   -3.2417 C   0  0  0  0  0  0  0  0  0  0  0  0
   -3.1163   -0.7363   -3.4077 C   0  0  0  0  0  0  0  0  0  0  0  0
   -2.8068   -2.0876   -3.5621 C   0  0  0  0  0  0  0  0  0  0  0  0
   -1.6531    1.4091   -0.4852 H   0  0  0  0  0  0  0  0  0  0  0  0
    0.4588   -0.4119   -0.2090 H   0  0  0  0  0  0  0  0  0  0  0  0
    1.1372    0.4284   -2.5718 H   0  0  0  0  0  0  0  0  0  0  0  0
   -0.0949    1.6566   -2.4365 H   0  0  0  0  0  0  0  0  0  0  0  0
    0.4262   -2.0360   -2.5194 H   0  0  0  0  0  0  0  0  0  0  0  0
   -2.4003    1.2017   -2.8154 H   0  0  0  0  0  0  0  0  0  0  0  0
   -1.2897   -3.6040   -3.3630 H   0  0  0  0  0  0  0  0  0  0  0  0
   -4.1090   -0.3742   -3.6581 H   0  0  0  0  0  0  0  0  0  0  0  0
   -3.5586   -2.7781   -3.9333 H   0  0  0  0  0  0  0  0  0  0  0  0
    1.0839    2.7743    0.1731 N   0  0  0  0  0  0  0  0  0  0  0  0
    2.0018    3.8062    0.5990 C   0  0  2  0  0  0  0  0  0  0  0  0
    2.8440    3.2457    1.7375 C   0  0  0  0  0  0  0  0  0  0  0  0
    2.4846    2.2994    2.4349 O   0  0  0  0  0  0  0  0  0  0  0  0
    1.2606    5.0597    1.0373 C   0  0  0  0  0  0  0  0  0  0  0  0
    0.0995    3.0098    0.0875 H   0  0  0  0  0  0  0  0  0  0  0  0
    2.6469    4.0290   -0.2578 H   0  0  0  0  0  0  0  0  0  0  0  0
    0.6091    4.8560    1.8950 H   0  0  0  0  0  0  0  0  0  0  0  0
    1.9582    5.8503    1.3327 H   0  0  0  0  0  0  0  0  0  0  0  0
    0.6324    5.4444    0.2268 H   0  0  0  0  0  0  0  0  0  0  0  0
    4.0249    3.9540    1.9108 N   0  0  0  0  0  0  0  0  0  0  0  0
    4.9884    3.6247    2.9350 C   0  0  0  0  0  0  0  0  0  0  0  0
    4.2504    4.7128    1.2742 H   0  0  0  0  0  0  0  0  0  0  0  0
    4.7798    4.2157    3.8390 H   0  0  0  0  0  0  0  0  0  0  0  0
    4.9182    2.5531    3.1734 H   0  0  0  0  0  0  0  0  0  0  0  0
    6.0014    3.8542    2.5728 H   0  0  0  0  0  0  0  0  0  0  0  0
 25 27  1  0  0  0  0
 26 27  2  0  0  0  0
 23 25  2  0  0  0  0
 24 26  1  0  0  0  0
 22 23  1  0  0  0  0
 22 24  2  0  0  0  0
 21 22  1  0  0  0  0
  1  3  1  0  0  0  0
  1  7  1  0  0  0  0
  1  2  2  0  0  0  0
 38 39  1  0  0  0  0
 39 47  1  0  0  0  0
 39 40  2  0  0  0  0
  8  9  1  0  0  0  0
  9 17  1  0  0  0  0
  9 10  2  0  0  0  0
 18 19  1  0  0  0  0
 19 37  1  0  0  0  0
 19 20  2  0  0  0  0
 38 41  1  0  0  0  0
  8 11  1  0  0  0  0
 47 48  1  0  0  0  0
 18 21  1  0  0  0  0
 37 38  1  0  0  0  0
  7  8  1  0  0  0  0
 17 18  1  0  0  0  0
 27 36  1  0  0  0  0
 25 34  1  0  0  0  0
 26 35  1  0  0  0  0
 23 32  1  0  0  0  0
 24 33  1  0  0  0  0
  3  4  1  0  0  0  0
  3  5  1  0  0  0  0
  3  6  1  0  0  0  0
 41 44  1  0  0  0  0
 41 45  1  0  0  0  0
 41 46  1  0  0  0  0
 11 14  1  0  0  0  0
 11 15  1  0  0  0  0
 11 16  1  0  0  0  0
 48 50  1  0  0  0  0
 48 51  1  0  0  0  0
 48 52  1  0  0  0  0
 21 30  1  0  0  0  0
 21 31  1  0  0  0  0
 38 43  1  0  0  0  0
  8 13  1  0  0  0  0
 18 29  1  0  0  0  0
 47 49  1  0  0  0  0
  7 12  1  0  0  0  0
 37 42  1  0  0  0  0
 17 28  1  0  0  0  0
M  END
$$$$

  -OEChem-05262214473D

 52 52  0     1  0  0  0  0  0999 V2000
   -1.8248    0.3424    3.9102 C   0  0  0  0  0  0  0  0  0  0  0  0
   -0.8774   -0.2723    3.4345 O   0  0  0  0  0  0  0  0  0  0  0  0
   -2.2566    0.0600    5.3109 C   0  0  0  0  0  0  0  0  0  0  0  0
   -3.0163   -0.7363    5.3643 H   0  0  0  0  0  0  0  0  0  0  0  0
   -1.4254   -0.2876    5.9452 H   0  0  0  0  0  0  0  0  0  0  0  0
   -2.6947    0.9149    5.8505 H   0  0  0  0  0  0  0  0  0  0  0  0
   -2.5745    1.3149    3.2691 N   0  0  0  0  0  0  0  0  0  0  0  0
   -2.3276    1.7409    1.9167 C   0  0  2  0  0  0  0  0  0  0  0  0
   -0.9926    1.1555    1.4755 C   0  0  0  0  0  0  0  0  0  0  0  0
   -0.1206    0.8028    2.2668 O   0  0  0  0  0  0  0  0  0  0  0  0
   -2.3188    3.2577    1.8072 C   0  0  0  0  0  0  0  0  0  0  0  0
   -3.3395    1.7507    3.7809 H   0  0  0  0  0  0  0  0  0  0  0  0
   -3.1317    1.3224    1.3015 H   0  0  0  0  0  0  0  0  0  0  0  0
   -1.5198    3.6949    2.4169 H   0  0  0  0  0  0  0  0  0  0  0  0
   -2.1594    3.5799    0.7729 H   0  0  0  0  0  0  0  0  0  0  0  0
   -3.2690    3.6789    2.1530 H   0  0  0  0  0  0  0  0  0  0  0  0
   -0.8700    1.1124    0.0921 N   0  0  0  0  0  0  0  0  0  0  0  0
    0.3073    0.6116   -0.5716 C   0  0  2  0  0  0  0  0  0  0  0  0
    1.4797    1.4778   -0.1249 C   0  0  0  0  0  0  0  0  0  0  0  0
    2.6528    1.1738   -0.3306 O   0  0  0  0  0  0  0  0  0  0  0  0
    0.1704    0.6462   -2.0981 C   0  0  0  0  0  0  0  0  0  0  0  0
   -0.8745   -0.3139   -2.6122 C   0  0  0  0  0  0  0  0  0  0  0  0
   -0.5650   -1.6652   -2.7667 C   0  0  0  0  0  0  0  0  0  0  0  0
   -2.1501    0.1506   -2.9327 C   0  0  0  0  0  0  0  0  0  0  0  0
   -1.5312   -2.5521   -3.2417 C   0  0  0  0  0  0  0  0  0  0  0  0
   -3.1163   -0.7363   -3.4077 C   0  0  0  0  0  0  0  0  0  0  0  0
   -2.8068   -2.0876   -3.5621 C   0  0  0  0  0  0  0  0  0  0  0  0
   -1.6531    1.4091   -0.4852 H   0  0  0  0  0  0  0  0  0  0  0  0
    0.4588   -0.4119   -0.2090 H   0  0  0  0  0  0  0  0  0  0  0  0
    1.1372    0.4284   -2.5718 H   0  0  0  0  0  0  0  0  0  0  0  0
   -0.0949    1.6566   -2.4365 H   0  0  0  0  0  0  0  0  0  0  0  0
    0.4262   -2.0360   -2.5194 H   0  0  0  0  0  0  0  0  0  0  0  0
   -2.4003    1.2017   -2.8154 H   0  0  0  0  0  0  0  0  0  0  0  0
   -1.2897   -3.6040   -3.3630 H   0  0  0  0  0  0  0  0  0  0  0  0
   -4.1090   -0.3742   -3.6581 H   0  0  0  0  0  0  0  0  0  0  0  0
   -3.5586   -2.7781   -3.9333 H   0  0  0  0  0  0  0  0  0  0  0  0
    1.0565    2.6509    0.4844 N   0  0  0  0  0  0  0  0  0  0  0  0
    1.9647    3.6598    0.9803 C   0  0  2  0  0  0  0  0  0  0  0  0
    3.0055    2.9686    1.8512 C   0  0  0  0  0  0  0  0  0  0  0  0
    2.8166    1.8767    2.3833 O   0  0  0  0  0  0  0  0  0  0  0  0
    1.2252    4.7324    1.7649 C   0  0  0  0  0  0  0  0  0  0  0  0
    0.0582    2.8082    0.5868 H   0  0  0  0  0  0  0  0  0  0  0  0
    2.4546    4.1017    0.1059 H   0  0  0  0  0  0  0  0  0  0  0  0
    0.7279    4.3085    2.6449 H   0  0  0  0  0  0  0  0  0  0  0  0
    1.9106    5.5110    2.1156 H   0  0  0  0  0  0  0  0  0  0  0  0
    0.4568    5.2080    1.1459 H   0  0  0  0  0  0  0  0  0  0  0  0
    4.1535    3.7342    1.9995 N   0  0  0  0  0  0  0  0  0  0  0  0
    5.2822    3.3018    2.7902 C   0  0  0  0  0  0  0  0  0  0  0  0
    4.2312    4.6190    1.5067 H   0  0  0  0  0  0  0  0  0  0  0  0
    5.1803    3.6854    3.8161 H   0  0  0  0  0  0  0  0  0  0  0  0
    5.3152    2.2025    2.8115 H   0  0  0  0  0  0  0  0  0  0  0  0
    6.2110    3.6879    2.3450 H   0  0  0  0  0  0  0  0  0  0  0  0
 25 27  1  0  0  0  0
 26 27  2  0  0  0  0
 23 25  2  0  0  0  0
 24 26  1  0  0  0  0
 22 23  1  0  0  0  0
 22 24  2  0  0  0  0
 21 22  1  0  0  0  0
  1  3  1  0  0  0  0
  1  7  1  0  0  0  0
  1  2  2  0  0  0  0
 38 39  1  0  0  0  0
 39 47  1  0  0  0  0
 39 40  2  0  0  0  0
  8  9  1  0  0  0  0
  9 17  1  0  0  0  0
  9 10  2  0  0  0  0
 18 19  1  0  0  0  0
 19 37  1  0  0  0  0
 19 20  2  0  0  0  0
 38 41  1  0  0  0  0
  8 11  1  0  0  0  0
 47 48  1  0  0  0  0
 18 21  1  0  0  0  0
 37 38  1  0  0  0  0
  7  8  1  0  0  0  0
 17 18  1  0  0  0  0
 27 36  1  0  0  0  0
 25 34  1  0  0  0  0
 26 35  1  0  0  0  0
 23 32  1  0  0  0  0
 24 33  1  0  0  0  0
  3  4  1  0  0  0  0
  3  5  1  0  0  0  0
  3  6  1  0  0  0  0
 41 44  1  0  0  0  0
 41 45  1  0  0  0  0
 41 46  1  0  0  0  0
 11 14  1  0  0  0  0
 11 15  1  0  0  0  0
 11 16  1  0  0  0  0
 48 50  1  0  0  0  0
 48 51  1  0  0  0  0
 48 52  1  0  0  0  0
 21 30  1  0  0  0  0
 21 31  1  0  0  0  0
 38 43  1  0  0  0  0
  8 13  1  0  0  0  0
 18 29  1  0  0  0  0
 47 49  1  0  0  0  0
  7 12  1  0  0  0  0
 37 42  1  0  0  0  0
 17 28  1  0  0  0  0
M  END
$$$$

  -OEChem-05262214473D

 52 52  0     1  0  0  0  0  0999 V2000
   -1.8248    0.3424    3.9102 C   0  0  0  0  0  0  0  0  0  0  0  0
   -0.8774   -0.2723    3.4345 O   0  0  0  0  0  0  0  0  0  0  0  0
   -2.2566    0.0600    5.3109 C   0  0  0  0  0  0  0  0  0  0  0  0
   -3.0163   -0.7363    5.3643 H   0  0  0  0  0  0  0  0  0  0  0  0
   -1.4254   -0.2876    5.9452 H   0  0  0  0  0  0  0  0  0  0  0  0
   -2.6947    0.9149    5.8505 H   0  0  0  0  0  0  0  0  0  0  0  0
   -2.5745    1.3149    3.2691 N   0  0  0  0  0  0  0  0  0  0  0  0
   -2.3276    1.7409    1.9167 C   0  0  2  0  0  0  0  0  0  0  0  0
   -0.9926    1.1555    1.4755 C   0  0  0  0  0  0  0  0  0  0  0  0
   -0.1206    0.8028    2.2668 O   0  0  0  0  0  0  0  0  0  0  0  0
   -2.3188    3.2577    1.8072 C   0  0  0  0  0  0  0  0  0  0  0  0
   -3.3395    1.7507    3.7809 H   0  0  0  0  0  0  0  0  0  0  0  0
   -3.1317    1.3224    1.3015 H   0  0  0  0  0  0  0  0  0  0  0  0
   -1.5198    3.6949    2.4169 H   0  0  0  0  0  0  0  0  0  0  0  0
   -2.1594    3.5799    0.7729 H   0  0  0  0  0  0  0  0  0  0  0  0
   -3.2690    3.6789    2.1530 H   0  0  0  0  0  0  0  0  0  0  0  0
   -0.8700    1.1124    0.0921 N   0  0  0  0  0  0  0  0  0  0  0  0
    0.3073    0.6116   -0.5716 C   0  0  2  0  0  0  0  0  0  0  0  0
    1.4797    1.4778   -0.1249 C   0  0  0  0  0  0  0  0  0  0  0  0
    2.6231    1.3270   -0.5500 O   0  0  0  0  0  0  0  0  0  0  0  0
    0.1704    0.6462   -2.0981 C   0  0  0  0  0  0  0  0  0  0  0  0
   -0.8745   -0.3139   -2.6122 C   0  0  0  0  0  0  0  0  0  0  0  0
   -0.5650   -1.6652   -2.7667 C   0  0  0  0  0  0  0  0  0  0  0  0
   -2.1501    0.1506   -2.9327 C   0  0  0  0  0  0  0  0  0  0  0  0
   -1.5312   -2.5521   -3.2417 C   0  0  0  0  0  0  0  0  0  0  0  0
   -3.1163   -0.7363   -3.4077 C   0  0  0  0  0  0  0  0  0  0  0  0
   -2.8068   -2.0876   -3.5621 C   0  0  0  0  0  0  0  0  0  0  0  0
   -1.6531    1.4091   -0.4852 H   0  0  0  0  0  0  0  0  0  0  0  0
    0.4588   -0.4119   -0.2090 H   0  0  0  0  0  0  0  0  0  0  0  0
    1.1372    0.4284   -2.5718 H   0  0  0  0  0  0  0  0  0  0  0  0
   -0.0949    1.6566   -2.4365 H   0  0  0  0  0  0  0  0  0  0  0  0
    0.4262   -2.0360   -2.5194 H   0  0  0  0  0  0  0  0  0  0  0  0
   -2.4003    1.2017   -2.8154 H   0  0  0  0  0  0  0  0  0  0  0  0
   -1.2897   -3.6040   -3.3630 H   0  0  0  0  0  0  0  0  0  0  0  0
   -4.1090   -0.3742   -3.6581 H   0  0  0  0  0  0  0  0  0  0  0  0
   -3.5586   -2.7781   -3.9333 H   0  0  0  0  0  0  0  0  0  0  0  0
    1.0851    2.4676    0.7645 N   0  0  0  0  0  0  0  0  0  0  0  0
    1.9959    3.4398    1.3250 C   0  0  2  0  0  0  0  0  0  0  0  0
    3.1991    2.6905    1.8822 C   0  0  0  0  0  0  0  0  0  0  0  0
    3.1617    1.5038    2.2005 O   0  0  0  0  0  0  0  0  0  0  0  0
    1.3228    4.2688    2.4077 C   0  0  0  0  0  0  0  0  0  0  0  0
    0.1071    2.5109    1.0351 H   0  0  0  0  0  0  0  0  0  0  0  0
    2.3168    4.0850    0.4999 H   0  0  0  0  0  0  0  0  0  0  0  0
    0.9944    3.6394    3.2429 H   0  0  0  0  0  0  0  0  0  0  0  0
    2.0055    5.0238    2.8114 H   0  0  0  0  0  0  0  0  0  0  0  0
    0.4404    4.7835    2.0124 H   0  0  0  0  0  0  0  0  0  0  0  0
    4.3075    3.5139    2.0225 N   0  0  0  0  0  0  0  0  0  0  0  0
    5.5691    3.0410    2.5428 C   0  0  0  0  0  0  0  0  0  0  0  0
    4.2539    4.4806    1.7154 H   0  0  0  0  0  0  0  0  0  0  0  0
    5.6040    3.2082    3.6294 H   0  0  0  0  0  0  0  0  0  0  0  0
    5.6719    1.9660    2.3338 H   0  0  0  0  0  0  0  0  0  0  0  0
    6.3926    3.5886    2.0610 H   0  0  0  0  0  0  0  0  0  0  0  0
 25 27  1  0  0  0  0
 26 27  2  0  0  0  0
 23 25  2  0  0  0  0
 24 26  1  0  0  0  0
 22 23  1  0  0  0  0
 22 24  2  0  0  0  0
 21 22  1  0  0  0  0
  1  3  1  0  0  0  0
  1  7  1  0  0  0  0
  1  2  2  0  0  0  0
 38 39  1  0  0  0  0
 39 47  1  0  0  0  0
 39 40  2  0  0  0  0
  8  9  1  0  0  0  0
  9 17  1  0  0  0  0
  9 10  2  0  0  0  0
 18 19  1  0  0  0  0
 19 37  1  0  0  0  0
 19 20  2  0  0  0  0
 38 41  1  0  0  0  0
  8 11  1  0  0  0  0
 47 48  1  0  0  0  0
 18 21  1  0  0  0  0
 37 38  1  0  0  0  0
  7  8  1  0  0  0  0
 17 18  1  0  0  0  0
 27 36  1  0  0  0  0
 25 34  1  0  0  0  0
 26 35  1  0  0  0  0
 23 32  1  0  0  0  0
 24 33  1  0  0  0  0
  3  4  1  0  0  0  0
  3  5  1  0  0  0  0
  3  6  1  0  0  0  0
 41 44  1  0  0  0  0
 41 45  1  0  0  0  0
 41 46  1  0  0  0  0
 11 14  1  0  0  0  0
 11 15  1  0  0  0  0
 11 16  1  0  0  0  0
 48 50  1  0  0  0  0
 48 51  1  0  0  0  0
 48 52  1  0  0  0  0
 21 30  1  0  0  0  0
 21 31  1  0  0  0  0
 38 43  1  0  0  0  0
  8 13  1  0  0  0  0
 18 29  1  0  0  0  0
 47 49  1  0  0  0  0
  7 12  1  0  0  0  0
 37 42  1  0  0  0  0
 17 28  1  0  0  0  0
M  END
$$$$

  -OEChem-05262214473D

 52 52  0     1  0  0  0  0  0999 V2000
   -1.8248    0.3424    3.9102 C   0  0  0  0  0  0  0  0  0  0  0  0
   -0.8774   -0.2723    3.4345 O   0  0  0  0  0  0  0  0  0  0  0  0
   -2.2566    0.0600    5.3109 C   0  0  0  0  0  0  0  0  0  0  0  0
   -3.0163   -0.7363    5.3643 H   0  0  0  0  0  0  0  0  0  0  0  0
   -1.4254   -0.2876    5.9452 H   0  0  0  0  0  0  0  0  0  0  0  0
   -2.6947    0.9149    5.8505 H   0  0  0  0  0  0  0  0  0  0  0  0
   -2.5745    1.3149    3.2691 N   0  0  0  0  0  0  0  0  0  0  0  0
   -2.3276    1.7409    1.9167 C   0  0  2  0  0  0  0  0  0  0  0  0
   -0.9926    1.1555    1.4755 C   0  0  0  0  0  0  0  0  0  0  0  0
   -0.1206    0.8028    2.2668 O   0  0  0  0  0  0  0  0  0  0  0  0
   -2.3188    3.2577    1.8072 C   0  0  0  0  0  0  0  0  0  0  0  0
   -3.3395    1.7507    3.7809 H   0  0  0  0  0  0  0  0  0  0  0  0
   -3.1317    1.3224    1.3015 H   0  0  0  0  0  0  0  0  0  0  0  0
   -1.5198    3.6949    2.4169 H   0  0  0  0  0  0  0  0  0  0  0  0
   -2.1594    3.5799    0.7729 H   0  0  0  0  0  0  0  0  0  0  0  0
   -3.2690    3.6789    2.1530 H   0  0  0  0  0  0  0  0  0  0  0  0
   -0.8700    1.1124    0.0921 N   0  0  0  0  0  0  0  0  0  0  0  0
    0.3073    0.6116   -0.5716 C   0  0  2  0  0  0  0  0  0  0  0  0
    1.4797    1.4778   -0.1249 C   0  0  0  0  0  0  0  0  0  0  0  0
    2.5506    1.5164   -0.7269 O   0  0  0  0  0  0  0  0  0  0  0  0
    0.1704    0.6462   -2.0981 C   0  0  0  0  0  0  0  0  0  0  0  0
   -0.8745   -0.3139   -2.6122 C   0  0  0  0  0  0  0  0  0  0  0  0
   -0.5650   -1.6652   -2.7667 C   0  0  0  0  0  0  0  0  0  0  0  0
   -2.1501    0.1506   -2.9327 C   0  0  0  0  0  0  0  0  0  0  0  0
   -1.5312   -2.5521   -3.2417 C   0  0  0  0  0  0  0  0  0  0  0  0
   -3.1163   -0.7363   -3.4077 C   0  0  0  0  0  0  0  0  0  0  0  0
   -2.8068   -2.0876   -3.5621 C   0  0  0  0  0  0  0  0  0  0  0  0
   -1.6531    1.4091   -0.4852 H   0  0  0  0  0  0  0  0  0  0  0  0
    0.4588   -0.4119   -0.2090 H   0  0  0  0  0  0  0  0  0  0  0  0
    1.1372    0.4284   -2.5718 H   0  0  0  0  0  0  0  0  0  0  0  0
   -0.0949    1.6566   -2.4365 H   0  0  0  0  0  0  0  0  0  0  0  0
    0.4262   -2.0360   -2.5194 H   0  0  0  0  0  0  0  0  0  0  0  0
   -2.4003    1.2017   -2.8154 H   0  0  0  0  0  0  0  0  0  0  0  0
   -1.2897   -3.6040   -3.3630 H   0  0  0  0  0  0  0  0  0  0  0  0
   -4.1090   -0.3742   -3.6581 H   0  0  0  0  0  0  0  0  0  0  0  0
   -3.5586   -2.7781   -3.9333 H   0  0  0  0  0  0  0  0  0  0  0  0
    1.1679    2.2370    0.9944 N   0  0  0  0  0  0  0  0  0  0  0  0
    2.0935    3.1610    1.6095 C   0  0  2  0  0  0  0  0  0  0  0  0
    3.4118    2.4304    1.8282 C   0  0  0  0  0  0  0  0  0  0  0  0
    3.4965    1.2061    1.8989 O   0  0  0  0  0  0  0  0  0  0  0  0
    1.5468    3.7005    2.9220 C   0  0  0  0  0  0  0  0  0  0  0  0
    0.2427    2.1383    1.4018 H   0  0  0  0  0  0  0  0  0  0  0  0
    2.2429    3.9800    0.8975 H   0  0  0  0  0  0  0  0  0  0  0  0
    1.3905    2.8943    3.6481 H   0  0  0  0  0  0  0  0  0  0  0  0
    2.2364    4.4219    3.3725 H   0  0  0  0  0  0  0  0  0  0  0  0
    0.5841    4.1996    2.7674 H   0  0  0  0  0  0  0  0  0  0  0  0
    4.4763    3.3082    1.9783 N   0  0  0  0  0  0  0  0  0  0  0  0
    5.8297    2.8601    2.2097 C   0  0  0  0  0  0  0  0  0  0  0  0
    4.3170    4.3072    1.8861 H   0  0  0  0  0  0  0  0  0  0  0  0
    6.0221    2.8165    3.2919 H   0  0  0  0  0  0  0  0  0  0  0  0
    5.9643    1.8596    1.7729 H   0  0  0  0  0  0  0  0  0  0  0  0
    6.5338    3.5629    1.7403 H   0  0  0  0  0  0  0  0  0  0  0  0
 25 27  1  0  0  0  0
 26 27  2  0  0  0  0
 23 25  2  0  0  0  0
 24 26  1  0  0  0  0
 22 23  1  0  0  0  0
 22 24  2  0  0  0  0
 21 22  1  0  0  0  0
  1  3  1  0  0  0  0
  1  7  1  0  0  0  0
  1  2  2  0  0  0  0
 38 39  1  0  0  0  0
 39 47  1  0  0  0  0
 39 40  2  0  0  0  0
  8  9  1  0  0  0  0
  9 17  1  0  0  0  0
  9 10  2  0  0  0  0
 18 19  1  0  0  0  0
 19 37  1  0  0  0  0
 19 20  2  0  0  0  0
 38 41  1  0  0  0  0
  8 11  1  0  0  0  0
 47 48  1  0  0  0  0
 18 21  1  0  0  0  0
 37 38  1  0  0  0  0
  7  8  1  0  0  0  0
 17 18  1  0  0  0  0
 27 36  1  0  0  0  0
 25 34  1  0  0  0  0
 26 35  1  0  0  0  0
 23 32  1  0  0  0  0
 24 33  1  0  0  0  0
  3  4  1  0  0  0  0
  3  5  1  0  0  0  0
  3  6  1  0  0  0  0
 41 44  1  0  0  0  0
 41 45  1  0  0  0  0
 41 46  1  0  0  0  0
 11 14  1  0  0  0  0
 11 15  1  0  0  0  0
 11 16  1  0  0  0  0
 48 50  1  0  0  0  0
 48 51  1  0  0  0  0
 48 52  1  0  0  0  0
 21 30  1  0  0  0  0
 21 31  1  0  0  0  0
 38 43  1  0  0  0  0
  8 13  1  0  0  0  0
 18 29  1  0  0  0  0
 47 49  1  0  0  0  0
  7 12  1  0  0  0  0
 37 42  1  0  0  0  0
 17 28  1  0  0  0  0
M  END
$$$$

  -OEChem-05262214473D

 52 52  0     1  0  0  0  0  0999 V2000
   -1.8248    0.3424    3.9102 C   0  0  0  0  0  0  0  0  0  0  0  0
   -0.8774   -0.2723    3.4345 O   0  0  0  0  0  0  0  0  0  0  0  0
   -2.2566    0.0600    5.3109 C   0  0  0  0  0  0  0  0  0  0  0  0
   -3.0163   -0.7363    5.3643 H   0  0  0  0  0  0  0  0  0  0  0  0
   -1.4254   -0.2876    5.9452 H   0  0  0  0  0  0  0  0  0  0  0  0
   -2.6947    0.9149    5.8505 H   0  0  0  0  0  0  0  0  0  0  0  0
   -2.5745    1.3149    3.2691 N   0  0  0  0  0  0  0  0  0  0  0  0
   -2.3276    1.7409    1.9167 C   0  0  2  0  0  0  0  0  0  0  0  0
   -0.9926    1.1555    1.4755 C   0  0  0  0  0  0  0  0  0  0  0  0
   -0.1206    0.8028    2.2668 O   0  0  0  0  0  0  0  0  0  0  0  0
   -2.3188    3.2577    1.8072 C   0  0  0  0  0  0  0  0  0  0  0  0
   -3.3395    1.7507    3.7809 H   0  0  0  0  0  0  0  0  0  0  0  0
   -3.1317    1.3224    1.3015 H   0  0  0  0  0  0  0  0  0  0  0  0
   -1.5198    3.6949    2.4169 H   0  0  0  0  0  0  0  0  0  0  0  0
   -2.1594    3.5799    0.7729 H   0  0  0  0  0  0  0  0  0  0  0  0
   -3.2690    3.6789    2.1530 H   0  0  0  0  0  0  0  0  0  0  0  0
   -0.8700    1.1124    0.0921 N   0  0  0  0  0  0  0  0  0  0  0  0
    0.3073    0.6116   -0.5716 C   0  0  2  0  0  0  0  0  0  0  0  0
    1.4797    1.4778   -0.1249 C   0  0  0  0  0  0  0  0  0  0  0  0
    2.4402    1.7291   -0.8496 O   0  0  0  0  0  0  0  0  0  0  0  0
    0.1704    0.6462   -2.0981 C   0  0  0  0  0  0  0  0  0  0  0  0
   -0.8745   -0.3139   -2.6122 C   0  0  0  0  0  0  0  0  0  0  0  0
   -0.5650   -1.6652   -2.7667 C   0  0  0  0  0  0  0  0  0  0  0  0
   -2.1501    0.1506   -2.9327 C   0  0  0  0  0  0  0  0  0  0  0  0
   -1.5312   -2.5521   -3.2417 C   0  0  0  0  0  0  0  0  0  0  0  0
   -3.1163   -0.7363   -3.4077 C   0  0  0  0  0  0  0  0  0  0  0  0
   -2.8068   -2.0876   -3.5621 C   0  0  0  0  0  0  0  0  0  0  0  0
   -1.6531    1.4091   -0.4852 H   0  0  0  0  0  0  0  0  0  0  0  0
    0.4588   -0.4119   -0.2090 H   0  0  0  0  0  0  0  0  0  0  0  0
    1.1372    0.4284   -2.5718 H   0  0  0  0  0  0  0  0  0  0  0  0
   -0.0949    1.6566   -2.4365 H   0  0  0  0  0  0  0  0  0  0  0  0
    0.4262   -2.0360   -2.5194 H   0  0  0  0  0  0  0  0  0  0  0  0
   -2.4003    1.2017   -2.8154 H   0  0  0  0  0  0  0  0  0  0  0  0
   -1.2897   -3.6040   -3.3630 H   0  0  0  0  0  0  0  0  0  0  0  0
   -4.1090   -0.3742   -3.6581 H   0  0  0  0  0  0  0  0  0  0  0  0
   -3.5586   -2.7781   -3.9333 H   0  0  0  0  0  0  0  0  0  0  0  0
    1.2992    1.9748    1.1584 N   0  0  0  0  0  0  0  0  0  0  0  0
    2.2508    2.8425    1.8145 C   0  0  2  0  0  0  0  0  0  0  0  0
    3.6291    2.2061    1.6931 C   0  0  0  0  0  0  0  0  0  0  0  0
    3.7982    1.0040    1.4992 O   0  0  0  0  0  0  0  0  0  0  0  0
    1.8818    3.0661    3.2727 C   0  0  0  0  0  0  0  0  0  0  0  0
    0.4559    1.7156    1.6618 H   0  0  0  0  0  0  0  0  0  0  0  0
    2.2380    3.7938    1.2715 H   0  0  0  0  0  0  0  0  0  0  0  0
    1.8892    2.1240    3.8330 H   0  0  0  0  0  0  0  0  0  0  0  0
    2.5876    3.7464    3.7608 H   0  0  0  0  0  0  0  0  0  0  0  0
    0.8782    3.4963    3.3593 H   0  0  0  0  0  0  0  0  0  0  0  0
    4.6484    3.1312    1.8698 N   0  0  0  0  0  0  0  0  0  0  0  0
    6.0461    2.7714    1.8137 C   0  0  0  0  0  0  0  0  0  0  0  0
    4.4162    4.1104    2.0072 H   0  0  0  0  0  0  0  0  0  0  0  0
    6.4059    2.5370    2.8264 H   0  0  0  0  0  0  0  0  0  0  0  0
    6.1722    1.8907    1.1669 H   0  0  0  0  0  0  0  0  0  0  0  0
    6.6249    3.6126    1.4046 H   0  0  0  0  0  0  0  0  0  0  0  0
 25 27  1  0  0  0  0
 26 27  2  0  0  0  0
 23 25  2  0  0  0  0
 24 26  1  0  0  0  0
 22 23  1  0  0  0  0
 22 24  2  0  0  0  0
 21 22  1  0  0  0  0
  1  3  1  0  0  0  0
  1  7  1  0  0  0  0
  1  2  2  0  0  0  0
 38 39  1  0  0  0  0
 39 47  1  0  0  0  0
 39 40  2  0  0  0  0
  8  9  1  0  0  0  0
  9 17  1  0  0  0  0
  9 10  2  0  0  0  0
 18 19  1  0  0  0  0
 19 37  1  0  0  0  0
 19 20  2  0  0  0  0
 38 41  1  0  0  0  0
  8 11  1  0  0  0  0
 47 48  1  0  0  0  0
 18 21  1  0  0  0  0
 37 38  1  0  0  0  0
  7  8  1  0  0  0  0
 17 18  1  0  0  0  0
 27 36  1  0  0  0  0
 25 34  1  0  0  0  0
 26 35  1  0  0  0  0
 23 32  1  0  0  0  0
 24 33  1  0  0  0  0
  3  4  1  0  0  0  0
  3  5  1  0  0  0  0
  3  6  1  0  0  0  0
 41 44  1  0  0  0  0
 41 45  1  0  0  0  0
 41 46  1  0  0  0  0
 11 14  1  0  0  0  0
 11 15  1  0  0  0  0
 11 16  1  0  0  0  0
 48 50  1  0  0  0  0
 48 51  1  0  0  0  0
 48 52  1  0  0  0  0
 21 30  1  0  0  0  0
 21 31  1  0  0  0  0
 38 43  1  0  0  0  0
  8 13  1  0  0  0  0
 18 29  1  0  0  0  0
 47 49  1  0  0  0  0
  7 12  1  0  0  0  0
 37 42  1  0  0  0  0
 17 28  1  0  0  0  0
M  END
$$$$

  -OEChem-05262214473D

 52 52  0     1  0  0  0  0  0999 V2000
   -1.8248    0.3424    3.9102 C   0  0  0  0  0  0  0  0  0  0  0  0
   -0.8774   -0.2723    3.4345 O   0  0  0  0  0  0  0  0  0  0  0  0
   -2.2566    0.0600    5.3109 C   0  0  0  0  0  0  0  0  0  0  0  0
   -3.0163   -0.7363    5.3643 H   0  0  0  0  0  0  0  0  0  0  0  0
   -1.4254   -0.2876    5.9452 H   0  0  0  0  0  0  0  0  0  0  0  0
   -2.6947    0.9149    5.8505 H   0  0  0  0  0  0  0  0  0  0  0  0
   -2.5745    1.3149    3.2691 N   0  0  0  0  0  0  0  0  0  0  0  0
   -2.3276    1.7409    1.9167 C   0  0  2  0  0  0  0  0  0  0  0  0
   -0.9926    1.1555    1.4755 C   0  0  0  0  0  0  0  0  0  0  0  0
   -0.1206    0.8028    2.2668 O   0  0  0  0  0  0  0  0  0  0  0  0
   -2.3188    3.2577    1.8072 C   0  0  0  0  0  0  0  0  0  0  0  0
   -3.3395    1.7507    3.7809 H   0  0  0  0  0  0  0  0  0  0  0  0
   -3.1317    1.3224    1.3015 H   0  0  0  0  0  0  0  0  0  0  0  0
   -1.5198    3.6949    2.4169 H   0  0  0  0  0  0  0  0  0  0  0  0
   -2.1594    3.5799    0.7729 H   0  0  0  0  0  0  0  0  0  0  0  0
   -3.2690    3.6789    2.1530 H   0  0  0  0  0  0  0  0  0  0  0  0
   -0.8700    1.1124    0.0921 N   0  0  0  0  0  0  0  0  0  0  0  0
    0.3073    0.6116   -0.5716 C   0  0  2  0  0  0  0  0  0  0  0  0
    1.4797    1.4778   -0.1249 C   0  0  0  0  0  0  0  0  0  0  0  0
    2.2994    1.9505   -0.9094 O   0  0  0  0  0  0  0  0  0  0  0  0
    0.1704    0.6462   -2.0981 C   0  0  0  0  0  0  0  0  0  0  0  0
   -0.8745   -0.3139   -2.6122 C   0  0  0  0  0  0  0  0  0  0  0  0
   -0.5650   -1.6652   -2.7667 C   0  0  0  0  0  0  0  0  0  0  0  0
   -2.1501    0.1506   -2.9327 C   0  0  0  0  0  0  0  0  0  0  0  0
   -1.5312   -2.5521   -3.2417 C   0  0  0  0  0  0  0  0  0  0  0  0
   -3.1163   -0.7363   -3.4077 C   0  0  0  0  0  0  0  0  0  0  0  0
   -2.8068   -2.0876   -3.5621 C   0  0  0  0  0  0  0  0  0  0  0  0
   -1.6531    1.4091   -0.4852 H   0  0  0  0  0  0  0  0  0  0  0  0
    0.4588   -0.4119   -0.2090 H   0  0  0  0  0  0  0  0  0  0  0  0
    1.1372    0.4284   -2.5718 H   0  0  0  0  0  0  0  0  0  0  0  0
   -0.0949    1.6566   -2.4365 H   0  0  0  0  0  0  0  0  0  0  0  0
    0.4262   -2.0360   -2.5194 H   0  0  0  0  0  0  0  0  0  0  0  0
   -2.4003    1.2017   -2.8154 H   0  0  0  0  0  0  0  0  0  0  0  0
   -1.2897   -3.6040   -3.3630 H   0  0  0  0  0  0  0  0  0  0  0  0
   -4.1090   -0.3742   -3.6581 H   0  0  0  0  0  0  0  0  0  0  0  0
   -3.5586   -2.7781   -3.9333 H   0  0  0  0  0  0  0  0  0  0  0  0
    1.4700    1.6988    1.2453 N   0  0  0  0  0  0  0  0  0  0  0  0
    2.4569    2.5059    1.9259 C   0  0  2  0  0  0  0  0  0  0  0  0
    3.8361    2.0327    1.4860 C   0  0  0  0  0  0  0  0  0  0  0  0
    4.0460    0.9113    1.0285 O   0  0  0  0  0  0  0  0  0  0  0  0
    2.3051    2.4090    3.4360 C   0  0  0  0  0  0  0  0  0  0  0  0
    0.7321    1.2718    1.7975 H   0  0  0  0  0  0  0  0  0  0  0  0
    2.3024    3.5392    1.5964 H   0  0  0  0  0  0  0  0  0  0  0  0
    2.4566    1.3810    3.7849 H   0  0  0  0  0  0  0  0  0  0  0  0
    3.0351    3.0432    3.9497 H   0  0  0  0  0  0  0  0  0  0  0  0
    1.3027    2.7215    3.7478 H   0  0  0  0  0  0  0  0  0  0  0  0
    4.8122    2.9948    1.7045 N   0  0  0  0  0  0  0  0  0  0  0  0
    6.2036    2.7810    1.3817 C   0  0  0  0  0  0  0  0  0  0  0  0
    4.5448    3.9038    2.0704 H   0  0  0  0  0  0  0  0  0  0  0  0
    6.7294    2.3888    2.2647 H   0  0  0  0  0  0  0  0  0  0  0  0
    6.2816    2.0570    0.5571 H   0  0  0  0  0  0  0  0  0  0  0  0
    6.6598    3.7344    1.0768 H   0  0  0  0  0  0  0  0  0  0  0  0
 25 27  1  0  0  0  0
 26 27  2  0  0  0  0
 23 25  2  0  0  0  0
 24 26  1  0  0  0  0
 22 23  1  0  0  0  0
 22 24  2  0  0  0  0
 21 22  1  0  0  0  0
  1  3  1  0  0  0  0
  1  7  1  0  0  0  0
  1  2  2  0  0  0  0
 38 39  1  0  0  0  0
 39 47  1  0  0  0  0
 39 40  2  0  0  0  0
  8  9  1  0  0  0  0
  9 17  1  0  0  0  0
  9 10  2  0  0  0  0
 18 19  1  0  0  0  0
 19 37  1  0  0  0  0
 19 20  2  0  0  0  0
 38 41  1  0  0  0  0
  8 11  1  0  0  0  0
 47 48  1  0  0  0  0
 18 21  1  0  0  0  0
 37 38  1  0  0  0  0
  7  8  1  0  0  0  0
 17 18  1  0  0  0  0
 27 36  1  0  0  0  0
 25 34  1  0  0  0  0
 26 35  1  0  0  0  0
 23 32  1  0  0  0  0
 24 33  1  0  0  0  0
  3  4  1  0  0  0  0
  3  5  1  0  0  0  0
  3  6  1  0  0  0  0
 41 44  1  0  0  0  0
 41 45  1  0  0  0  0
 41 46  1  0  0  0  0
 11 14  1  0  0  0  0
 11 15  1  0  0  0  0
 11 16  1  0  0  0  0
 48 50  1  0  0  0  0
 48 51  1  0  0  0  0
 48 52  1  0  0  0  0
 21 30  1  0  0  0  0
 21 31  1  0  0  0  0
 38 43  1  0  0  0  0
  8 13  1  0  0  0  0
 18 29  1  0  0  0  0
 47 49  1  0  0  0  0
  7 12  1  0  0  0  0
 37 42  1  0  0  0  0
 17 28  1  0  0  0  0
M  END
$$$$

  -OEChem-05262214473D

 52 52  0     1  0  0  0  0  0999 V2000
   -1.8248    0.3424    3.9102 C   0  0  0  0  0  0  0  0  0  0  0  0
   -0.8774   -0.2723    3.4345 O   0  0  0  0  0  0  0  0  0  0  0  0
   -2.2566    0.0600    5.3109 C   0  0  0  0  0  0  0  0  0  0  0  0
   -3.0163   -0.7363    5.3643 H   0  0  0  0  0  0  0  0  0  0  0  0
   -1.4254   -0.2876    5.9452 H   0  0  0  0  0  0  0  0  0  0  0  0
   -2.6947    0.9149    5.8505 H   0  0  0  0  0  0  0  0  0  0  0  0
   -2.5745    1.3149    3.2691 N   0  0  0  0  0  0  0  0  0  0  0  0
   -2.3276    1.7409    1.9167 C   0  0  2  0  0  0  0  0  0  0  0  0
   -0.9926    1.1555    1.4755 C   0  0  0  0  0  0  0  0  0  0  0  0
   -0.1206    0.8028    2.2668 O   0  0  0  0  0  0  0  0  0  0  0  0
   -2.3188    3.2577    1.8072 C   0  0  0  0  0  0  0  0  0  0  0  0
   -3.3395    1.7507    3.7809 H   0  0  0  0  0  0  0  0  0  0  0  0
   -3.1317    1.3224    1.3015 H   0  0  0  0  0  0  0  0  0  0  0  0
   -1.5198    3.6949    2.4169 H   0  0  0  0  0  0  0  0  0  0  0  0
   -2.1594    3.5799    0.7729 H   0  0  0  0  0  0  0  0  0  0  0  0
   -3.2690    3.6789    2.1530 H   0  0  0  0  0  0  0  0  0  0  0  0
   -0.8700    1.1124    0.0921 N   0  0  0  0  0  0  0  0  0  0  0  0
    0.3073    0.6116   -0.5716 C   0  0  2  0  0  0  0  0  0  0  0  0
    1.4797    1.4778   -0.1249 C   0  0  0  0  0  0  0  0  0  0  0  0
    2.1378    2.1657   -0.9025 O   0  0  0  0  0  0  0  0  0  0  0  0
    0.1704    0.6462   -2.0981 C   0  0  0  0  0  0  0  0  0  0  0  0
   -0.8745   -0.3139   -2.6122 C   0  0  0  0  0  0  0  0  0  0  0  0
   -0.5650   -1.6652   -2.7667 C   0  0  0  0  0  0  0  0  0  0  0  0
   -2.1501    0.1506   -2.9327 C   0  0  0  0  0  0  0  0  0  0  0  0
   -1.5312   -2.5521   -3.2417 C   0  0  0  0  0  0  0  0  0  0  0  0
   -3.1163   -0.7363   -3.4077 C   0  0  0  0  0  0  0  0  0  0  0  0
   -2.8068   -2.0876   -3.5621 C   0  0  0  0  0  0  0  0  0  0  0  0
   -1.6531    1.4091   -0.4852 H   0  0  0  0  0  0  0  0  0  0  0  0
    0.4588   -0.4119   -0.2090 H   0  0  0  0  0  0  0  0  0  0  0  0
    1.1372    0.4284   -2.5718 H   0  0  0  0  0  0  0  0  0  0  0  0
   -0.0949    1.6566   -2.4365 H   0  0  0  0  0  0  0  0  0  0  0  0
    0.4262   -2.0360   -2.5194 H   0  0  0  0  0  0  0  0  0  0  0  0
   -2.4003    1.2017   -2.8154 H   0  0  0  0  0  0  0  0  0  0  0  0
   -1.2897   -3.6040   -3.3630 H   0  0  0  0  0  0  0  0  0  0  0  0
   -4.1090   -0.3742   -3.6581 H   0  0  0  0  0  0  0  0  0  0  0  0
   -3.5586   -2.7781   -3.9333 H   0  0  0  0  0  0  0  0  0  0  0  0
    1.6687    1.4279    1.2492 N   0  0  0  0  0  0  0  0  0  0  0  0
    2.6980    2.1743    1.9363 C   0  0  2  0  0  0  0  0  0  0  0  0
    4.0187    1.9222    1.2210 C   0  0  0  0  0  0  0  0  0  0  0  0
    4.2233    0.9341    0.5189 O   0  0  0  0  0  0  0  0  0  0  0  0
    2.7879    1.7739    3.4006 C   0  0  0  0  0  0  0  0  0  0  0  0
    1.0525    0.8370    1.7997 H   0  0  0  0  0  0  0  0  0  0  0  0
    2.4316    3.2334    1.8500 H   0  0  0  0  0  0  0  0  0  0  0  0
    3.0538    0.7158    3.5071 H   0  0  0  0  0  0  0  0  0  0  0  0
    3.5485    2.3604    3.9264 H   0  0  0  0  0  0  0  0  0  0  0  0
    1.8286    1.9279    3.9064 H   0  0  0  0  0  0  0  0  0  0  0  0
    4.9564    2.9083    1.4936 N   0  0  0  0  0  0  0  0  0  0  0  0
    6.2915    2.8882    0.9431 C   0  0  0  0  0  0  0  0  0  0  0  0
    4.6940    3.7014    2.0714 H   0  0  0  0  0  0  0  0  0  0  0  0
    6.9705    2.3820    1.6451 H   0  0  0  0  0  0  0  0  0  0  0  0
    6.2849    2.3474   -0.0148 H   0  0  0  0  0  0  0  0  0  0  0  0
    6.6361    3.9199    0.7793 H   0  0  0  0  0  0  0  0  0  0  0  0
 25 27  1  0  0  0  0
 26 27  2  0  0  0  0
 23 25  2  0  0  0  0
 24 26  1  0  0  0  0
 22 23  1  0  0  0  0
 22 24  2  0  0  0  0
 21 22  1  0  0  0  0
  1  3  1  0  0  0  0
  1  7  1  0  0  0  0
  1  2  2  0  0  0  0
 38 39  1  0  0  0  0
 39 47  1  0  0  0  0
 39 40  2  0  0  0  0
  8  9  1  0  0  0  0
  9 17  1  0  0  0  0
  9 10  2  0  0  0  0
 18 19  1  0  0  0  0
 19 37  1  0  0  0  0
 19 20  2  0  0  0  0
 38 41  1  0  0  0  0
  8 11  1  0  0  0  0
 47 48  1  0  0  0  0
 18 21  1  0  0  0  0
 37 38  1  0  0  0  0
  7  8  1  0  0  0  0
 17 18  1  0  0  0  0
 27 36  1  0  0  0  0
 25 34  1  0  0  0  0
 26 35  1  0  0  0  0
 23 32  1  0  0  0  0
 24 33  1  0  0  0  0
  3  4  1  0  0  0  0
  3  5  1  0  0  0  0
  3  6  1  0  0  0  0
 41 44  1  0  0  0  0
 41 45  1  0  0  0  0
 41 46  1  0  0  0  0
 11 14  1  0  0  0  0
 11 15  1  0  0  0  0
 11 16  1  0  0  0  0
 48 50  1  0  0  0  0
 48 51  1  0  0  0  0
 48 52  1  0  0  0  0
 21 30  1  0  0  0  0
 21 31  1  0  0  0  0
 38 43  1  0  0  0  0
  8 13  1  0  0  0  0
 18 29  1  0  0  0  0
 47 49  1  0  0  0  0
  7 12  1  0  0  0  0
 37 42  1  0  0  0  0
 17 28  1  0  0  0  0
M  END
$$$$

  -OEChem-05262214473D

 52 52  0     1  0  0  0  0  0999 V2000
   -1.8248    0.3424    3.9102 C   0  0  0  0  0  0  0  0  0  0  0  0
   -0.8774   -0.2723    3.4345 O   0  0  0  0  0  0  0  0  0  0  0  0
   -2.2566    0.0600    5.3109 C   0  0  0  0  0  0  0  0  0  0  0  0
   -3.0163   -0.7363    5.3643 H   0  0  0  0  0  0  0  0  0  0  0  0
   -1.4254   -0.2876    5.9452 H   0  0  0  0  0  0  0  0  0  0  0  0
   -2.6947    0.9149    5.8505 H   0  0  0  0  0  0  0  0  0  0  0  0
   -2.5745    1.3149    3.2691 N   0  0  0  0  0  0  0  0  0  0  0  0
   -2.3276    1.7409    1.9167 C   0  0  2  0  0  0  0  0  0  0  0  0
   -0.9926    1.1555    1.4755 C   0  0  0  0  0  0  0  0  0  0  0  0
   -0.1206    0.8028    2.2668 O   0  0  0  0  0  0  0  0  0  0  0  0
   -2.3188    3.2577    1.8072 C   0  0  0  0  0  0  0  0  0  0  0  0
   -3.3395    1.7507    3.7809 H   0  0  0  0  0  0  0  0  0  0  0  0
   -3.1317    1.3224    1.3015 H   0  0  0  0  0  0  0  0  0  0  0  0
   -1.5198    3.6949    2.4169 H   0  0  0  0  0  0  0  0  0  0  0  0
   -2.1594    3.5799    0.7729 H   0  0  0  0  0  0  0  0  0  0  0  0
   -3.2690    3.6789    2.1530 H   0  0  0  0  0  0  0  0  0  0  0  0
   -0.8700    1.1124    0.0921 N   0  0  0  0  0  0  0  0  0  0  0  0
    0.3073    0.6116   -0.5716 C   0  0  2  0  0  0  0  0  0  0  0  0
    1.4797    1.4778   -0.1249 C   0  0  0  0  0  0  0  0  0  0  0  0
    1.9664    2.3599   -0.8291 O   0  0  0  0  0  0  0  0  0  0  0  0
    0.1704    0.6462   -2.0981 C   0  0  0  0  0  0  0  0  0  0  0  0
   -0.8745   -0.3139   -2.6122 C   0  0  0  0  0  0  0  0  0  0  0  0
   -0.5650   -1.6652   -2.7667 C   0  0  0  0  0  0  0  0  0  0  0  0
   -2.1501    0.1506   -2.9327 C   0  0  0  0  0  0  0  0  0  0  0  0
   -1.5312   -2.5521   -3.2417 C   0  0  0  0  0  0  0  0  0  0  0  0
   -3.1163   -0.7363   -3.4077 C   0  0  0  0  0  0  0  0  0  0  0  0
   -2.8068   -2.0876   -3.5621 C   0  0  0  0  0  0  0  0  0  0  0  0
   -1.6531    1.4091   -0.4852 H   0  0  0  0  0  0  0  0  0  0  0  0
    0.4588   -0.4119   -0.2090 H   0  0  0  0  0  0  0  0  0  0  0  0
    1.1372    0.4284   -2.5718 H   0  0  0  0  0  0  0  0  0  0  0  0
   -0.0949    1.6566   -2.4365 H   0  0  0  0  0  0  0  0  0  0  0  0
    0.4262   -2.0360   -2.5194 H   0  0  0  0  0  0  0  0  0  0  0  0
   -2.4003    1.2017   -2.8154 H   0  0  0  0  0  0  0  0  0  0  0  0
   -1.2897   -3.6040   -3.3630 H   0  0  0  0  0  0  0  0  0  0  0  0
   -4.1090   -0.3742   -3.6581 H   0  0  0  0  0  0  0  0  0  0  0  0
   -3.5586   -2.7781   -3.9333 H   0  0  0  0  0  0  0  0  0  0  0  0
    1.8817    1.1805    1.1699 N   0  0  0  0  0  0  0  0  0  0  0  0
    2.9575    1.8702    1.8449 C   0  0  2  0  0  0  0  0  0  0  0  0
    4.1645    1.8820    0.9162 C   0  0  0  0  0  0  0  0  0  0  0  0
    4.3178    1.0711    0.0052 O   0  0  0  0  0  0  0  0  0  0  0  0
    3.2971    1.2040    3.1691 C   0  0  0  0  0  0  0  0  0  0  0  0
    1.3953    0.4409    1.6681 H   0  0  0  0  0  0  0  0  0  0  0  0
    2.6170    2.8974    2.0152 H   0  0  0  0  0  0  0  0  0  0  0  0
    3.6403    0.1739    3.0186 H   0  0  0  0  0  0  0  0  0  0  0  0
    4.0928    1.7443    3.6925 H   0  0  0  0  0  0  0  0  0  0  0  0
    2.4200    1.1697    3.8243 H   0  0  0  0  0  0  0  0  0  0  0  0
    5.0713    2.8778    1.2514 N   0  0  0  0  0  0  0  0  0  0  0  0
    6.3038    3.0856    0.5279 C   0  0  0  0  0  0  0  0  0  0  0  0
    4.8535    3.5170    2.0102 H   0  0  0  0  0  0  0  0  0  0  0  0
    7.1128    2.5170    1.0097 H   0  0  0  0  0  0  0  0  0  0  0  0
    6.1821    2.7420   -0.5099 H   0  0  0  0  0  0  0  0  0  0  0  0
    6.5554    4.1565    0.5324 H   0  0  0  0  0  0  0  0  0  0  0  0
 25 27  1  0  0  0  0
 26 27  2  0  0  0  0
 23 25  2  0  0  0  0
 24 26  1  0  0  0  0
 22 23  1  0  0  0  0
 22 24  2  0  0  0  0
 21 22  1  0  0  0  0
  1  3  1  0  0  0  0
  1  7  1  0  0  0  0
  1  2  2  0  0  0  0
 38 39  1  0  0  0  0
 39 47  1  0  0  0  0
 39 40  2  0  0  0  0
  8  9  1  0  0  0  0
  9 17  1  0  0  0  0
  9 10  2  0  0  0  0
 18 19  1  0  0  0  0
 19 37  1  0  0  0  0
 19 20  2  0  0  0  0
 38 41  1  0  0  0  0
  8 11  1  0  0  0  0
 47 48  1  0  0  0  0
 18 21  1  0  0  0  0
 37 38  1  0  0  0  0
  7  8  1  0  0  0  0
 17 18  1  0  0  0  0
 27 36  1  0  0  0  0
 25 34  1  0  0  0  0
 26 35  1  0  0  0  0
 23 32  1  0  0  0  0
 24 33  1  0  0  0  0
  3  4  1  0  0  0  0
  3  5  1  0  0  0  0
  3  6  1  0  0  0  0
 41 44  1  0  0  0  0
 41 45  1  0  0  0  0
 41 46  1  0  0  0  0
 11 14  1  0  0  0  0
 11 15  1  0  0  0  0
 11 16  1  0  0  0  0
 48 50  1  0  0  0  0
 48 51  1  0  0  0  0
 48 52  1  0  0  0  0
 21 30  1  0  0  0  0
 21 31  1  0  0  0  0
 38 43  1  0  0  0  0
  8 13  1  0  0  0  0
 18 29  1  0  0  0  0
 47 49  1  0  0  0  0
  7 12  1  0  0  0  0
 37 42  1  0  0  0  0
 17 28  1  0  0  0  0
M  END
$$$$

  -OEChem-05262214473D

 52 52  0     1  0  0  0  0  0999 V2000
   -1.8248    0.3424    3.9102 C   0  0  0  0  0  0  0  0  0  0  0  0
   -0.8774   -0.2723    3.4345 O   0  0  0  0  0  0  0  0  0  0  0  0
   -2.2566    0.0600    5.3109 C   0  0  0  0  0  0  0  0  0  0  0  0
   -3.0163   -0.7363    5.3643 H   0  0  0  0  0  0  0  0  0  0  0  0
   -1.4254   -0.2876    5.9452 H   0  0  0  0  0  0  0  0  0  0  0  0
   -2.6947    0.9149    5.8505 H   0  0  0  0  0  0  0  0  0  0  0  0
   -2.5745    1.3149    3.2691 N   0  0  0  0  0  0  0  0  0  0  0  0
   -2.3276    1.7409    1.9167 C   0  0  2  0  0  0  0  0  0  0  0  0
   -0.9926    1.1555    1.4755 C   0  0  0  0  0  0  0  0  0  0  0  0
   -0.1206    0.8028    2.2668 O   0  0  0  0  0  0  0  0  0  0  0  0
   -2.3188    3.2577    1.8072 C   0  0  0  0  0  0  0  0  0  0  0  0
   -3.3395    1.7507    3.7809 H   0  0  0  0  0  0  0  0  0  0  0  0
   -3.1317    1.3224    1.3015 H   0  0  0  0  0  0  0  0  0  0  0  0
   -1.5198    3.6949    2.4169 H   0  0  0  0  0  0  0  0  0  0  0  0
   -2.1594    3.5799    0.7729 H   0  0  0  0  0  0  0  0  0  0  0  0
   -3.2690    3.6789    2.1530 H   0  0  0  0  0  0  0  0  0  0  0  0
   -0.8700    1.1124    0.0921 N   0  0  0  0  0  0  0  0  0  0  0  0
    0.3073    0.6116   -0.5716 C   0  0  2  0  0  0  0  0  0  0  0  0
    1.4797    1.4778   -0.1249 C   0  0  0  0  0  0  0  0  0  0  0  0
    1.7969    2.5198   -0.6945 O   0  0  0  0  0  0  0  0  0  0  0  0
    0.1704    0.6462   -2.0981 C   0  0  0  0  0  0  0  0  0  0  0  0
   -0.8745   -0.3139   -2.6122 C   0  0  0  0  0  0  0  0  0  0  0  0
   -0.5650   -1.6652   -2.7667 C   0  0  0  0  0  0  0  0  0  0  0  0
   -2.1501    0.1506   -2.9327 C   0  0  0  0  0  0  0  0  0  0  0  0
   -1.5312   -2.5521   -3.2417 C   0  0  0  0  0  0  0  0  0  0  0  0
   -3.1163   -0.7363   -3.4077 C   0  0  0  0  0  0  0  0  0  0  0  0
   -2.8068   -2.0876   -3.5621 C   0  0  0  0  0  0  0  0  0  0  0  0
   -1.6531    1.4091   -0.4852 H   0  0  0  0  0  0  0  0  0  0  0  0
    0.4588   -0.4119   -0.2090 H   0  0  0  0  0  0  0  0  0  0  0  0
    1.1372    0.4284   -2.5718 H   0  0  0  0  0  0  0  0  0  0  0  0
   -0.0949    1.6566   -2.4365 H   0  0  0  0  0  0  0  0  0  0  0  0
    0.4262   -2.0360   -2.5194 H   0  0  0  0  0  0  0  0  0  0  0  0
   -2.4003    1.2017   -2.8154 H   0  0  0  0  0  0  0  0  0  0  0  0
   -1.2897   -3.6040   -3.3630 H   0  0  0  0  0  0  0  0  0  0  0  0
   -4.1090   -0.3742   -3.6581 H   0  0  0  0  0  0  0  0  0  0  0  0
   -3.5586   -2.7781   -3.9333 H   0  0  0  0  0  0  0  0  0  0  0  0
    2.0946    0.9735    1.0126 N   0  0  0  0  0  0  0  0  0  0  0  0
    3.2178    1.6144    1.6579 C   0  0  2  0  0  0  0  0  0  0  0  0
    4.2636    1.9150    0.5923 C   0  0  0  0  0  0  0  0  0  0  0  0
    4.3232    1.3128   -0.4777 O   0  0  0  0  0  0  0  0  0  0  0  0
    3.7982    0.7383    2.7571 C   0  0  0  0  0  0  0  0  0  0  0  0
    1.7371    0.1105    1.4117 H   0  0  0  0  0  0  0  0  0  0  0  0
    2.8457    2.5540    2.0806 H   0  0  0  0  0  0  0  0  0  0  0  0
    4.1761   -0.2078    2.3526 H   0  0  0  0  0  0  0  0  0  0  0  0
    4.6308    1.2371    3.2640 H   0  0  0  0  0  0  0  0  0  0  0  0
    3.0368    0.4985    3.5072 H   0  0  0  0  0  0  0  0  0  0  0  0
    5.1489    2.9052    0.9946 N   0  0  0  0  0  0  0  0  0  0  0  0
    6.2397    3.3599    0.1643 C   0  0  0  0  0  0  0  0  0  0  0  0
    5.0126    3.3632    1.8909 H   0  0  0  0  0  0  0  0  0  0  0  0
    7.1466    2.7847    0.4020 H   0  0  0  0  0  0  0  0  0  0  0  0
    5.9800    3.2138   -0.8946 H   0  0  0  0  0  0  0  0  0  0  0  0
    6.4232    4.4280    0.3528 H   0  0  0  0  0  0  0  0  0  0  0  0
 25 27  1  0  0  0  0
 26 27  2  0  0  0  0
 23 25  2  0  0  0  0
 24 26  1  0  0  0  0
 22 23  1  0  0  0  0
 22 24  2  0  0  0  0
 21 22  1  0  0  0  0
  1  3  1  0  0  0  0
  1  7  1  0  0  0  0
  1  2  2  0  0  0  0
 38 39  1  0  0  0  0
 39 47  1  0  0  0  0
 39 40  2  0  0  0  0
  8  9  1  0  0  0  0
  9 17  1  0  0  0  0
  9 10  2  0  0  0  0
 18 19  1  0  0  0  0
 19 37  1  0  0  0  0
 19 20  2  0  0  0  0
 38 41  1  0  0  0  0
  8 11  1  0  0  0  0
 47 48  1  0  0  0  0
 18 21  1  0  0  0  0
 37 38  1  0  0  0  0
  7  8  1  0  0  0  0
 17 18  1  0  0  0  0
 27 36  1  0  0  0  0
 25 34  1  0  0  0  0
 26 35  1  0  0  0  0
 23 32  1  0  0  0  0
 24 33  1  0  0  0  0
  3  4  1  0  0  0  0
  3  5  1  0  0  0  0
  3  6  1  0  0  0  0
 41 44  1  0  0  0  0
 41 45  1  0  0  0  0
 41 46  1  0  0  0  0
 11 14  1  0  0  0  0
 11 15  1  0  0  0  0
 11 16  1  0  0  0  0
 48 50  1  0  0  0  0
 48 51  1  0  0  0  0
 48 52  1  0  0  0  0
 21 30  1  0  0  0  0
 21 31  1  0  0  0  0
 38 43  1  0  0  0  0
  8 13  1  0  0  0  0
 18 29  1  0  0  0  0
 47 49  1  0  0  0  0
  7 12  1  0  0  0  0
 37 42  1  0  0  0  0
 17 28  1  0  0  0  0
M  END
$$$$

  -OEChem-05262214473D

 52 52  0     1  0  0  0  0  0999 V2000
   -1.8248    0.3424    3.9102 C   0  0  0  0  0  0  0  0  0  0  0  0
   -0.8774   -0.2723    3.4345 O   0  0  0  0  0  0  0  0  0  0  0  0
   -2.2566    0.0600    5.3109 C   0  0  0  0  0  0  0  0  0  0  0  0
   -3.0163   -0.7363    5.3643 H   0  0  0  0  0  0  0  0  0  0  0  0
   -1.4254   -0.2876    5.9452 H   0  0  0  0  0  0  0  0  0  0  0  0
   -2.6947    0.9149    5.8505 H   0  0  0  0  0  0  0  0  0  0  0  0
   -2.5745    1.3149    3.2691 N   0  0  0  0  0  0  0  0  0  0  0  0
   -2.3276    1.7409    1.9167 C   0  0  2  0  0  0  0  0  0  0  0  0
   -0.9926    1.1555    1.4755 C   0  0  0  0  0  0  0  0  0  0  0  0
   -0.1206    0.8028    2.2668 O   0  0  0  0  0  0  0  0  0  0  0  0
   -2.3188    3.2577    1.8072 C   0  0  0  0  0  0  0  0  0  0  0  0
   -3.3395    1.7507    3.7809 H   0  0  0  0  0  0  0  0  0  0  0  0
   -3.1317    1.3224    1.3015 H   0  0  0  0  0  0  0  0  0  0  0  0
   -1.5198    3.6949    2.4169 H   0  0  0  0  0  0  0  0  0  0  0  0
   -2.1594    3.5799    0.7729 H   0  0  0  0  0  0  0  0  0  0  0  0
   -3.2690    3.6789    2.1530 H   0  0  0  0  0  0  0  0  0  0  0  0
   -0.8700    1.1124    0.0921 N   0  0  0  0  0  0  0  0  0  0  0  0
    0.3073    0.6116   -0.5716 C   0  0  2  0  0  0  0  0  0  0  0  0
    1.4797    1.4778   -0.1249 C   0  0  0  0  0  0  0  0  0  0  0  0
    1.6408    2.6347   -0.5076 O   0  0  0  0  0  0  0  0  0  0  0  0
    0.1704    0.6462   -2.0981 C   0  0  0  0  0  0  0  0  0  0  0  0
   -0.8745   -0.3139   -2.6122 C   0  0  0  0  0  0  0  0  0  0  0  0
   -0.5650   -1.6652   -2.7667 C   0  0  0  0  0  0  0  0  0  0  0  0
   -2.1501    0.1506   -2.9327 C   0  0  0  0  0  0  0  0  0  0  0  0
   -1.5312   -2.5521   -3.2417 C   0  0  0  0  0  0  0  0  0  0  0  0
   -3.1163   -0.7363   -3.4077 C   0  0  0  0  0  0  0  0  0  0  0  0
   -2.8068   -2.0876   -3.5621 C   0  0  0  0  0  0  0  0  0  0  0  0
   -1.6531    1.4091   -0.4852 H   0  0  0  0  0  0  0  0  0  0  0  0
    0.4588   -0.4119   -0.2090 H   0  0  0  0  0  0  0  0  0  0  0  0
    1.1372    0.4284   -2.5718 H   0  0  0  0  0  0  0  0  0  0  0  0
   -0.0949    1.6566   -2.4365 H   0  0  0  0  0  0  0  0  0  0  0  0
    0.4262   -2.0360   -2.5194 H   0  0  0  0  0  0  0  0  0  0  0  0
   -2.4003    1.2017   -2.8154 H   0  0  0  0  0  0  0  0  0  0  0  0
   -1.2897   -3.6040   -3.3630 H   0  0  0  0  0  0  0  0  0  0  0  0
   -4.1090   -0.3742   -3.6581 H   0  0  0  0  0  0  0  0  0  0  0  0
   -3.5586   -2.7781   -3.9333 H   0  0  0  0  0  0  0  0  0  0  0  0
    2.2927    0.8209    0.7883 N   0  0  0  0  0  0  0  0  0  0  0  0
    3.4611    1.4242    1.3881 C   0  0  2  0  0  0  0  0  0  0  0  0
    4.3091    2.0188    0.2714 C   0  0  0  0  0  0  0  0  0  0  0  0
    4.2391    1.6428   -0.8968 O   0  0  0  0  0  0  0  0  0  0  0  0
    4.2569    0.4084    2.1929 C   0  0  0  0  0  0  0  0  0  0  0  0
    2.0546   -0.1317    1.0481 H   0  0  0  0  0  0  0  0  0  0  0  0
    3.1024    2.2266    2.0418 H   0  0  0  0  0  0  0  0  0  0  0  0
    4.6246   -0.4033    1.5546 H   0  0  0  0  0  0  0  0  0  0  0  0
    5.1260    0.8732    2.6700 H   0  0  0  0  0  0  0  0  0  0  0  0
    3.6368   -0.0400    2.9766 H   0  0  0  0  0  0  0  0  0  0  0  0
    5.1840    2.9886    0.7405 N   0  0  0  0  0  0  0  0  0  0  0  0
    6.1035    3.6924   -0.1228 C   0  0  0  0  0  0  0  0  0  0  0  0
    5.1604    3.2504    1.7216 H   0  0  0  0  0  0  0  0  0  0  0  0
    7.0696    3.1667   -0.1367 H   0  0  0  0  0  0  0  0  0  0  0  0
    5.6924    3.7309   -1.1424 H   0  0  0  0  0  0  0  0  0  0  0  0
    6.2485    4.7160    0.2529 H   0  0  0  0  0  0  0  0  0  0  0  0
 25 27  1  0  0  0  0
 26 27  2  0  0  0  0
 23 25  2  0  0  0  0
 24 26  1  0  0  0  0
 22 23  1  0  0  0  0
 22 24  2  0  0  0  0
 21 22  1  0  0  0  0
  1  3  1  0  0  0  0
  1  7  1  0  0  0  0
  1  2  2  0  0  0  0
 38 39  1  0  0  0  0
 39 47  1  0  0  0  0
 39 40  2  0  0  0  0
  8  9  1  0  0  0  0
  9 17  1  0  0  0  0
  9 10  2  0  0  0  0
 18 19  1  0  0  0  0
 19 37  1  0  0  0  0
 19 20  2  0  0  0  0
 38 41  1  0  0  0  0
  8 11  1  0  0  0  0
 47 48  1  0  0  0  0
 18 21  1  0  0  0  0
 37 38  1  0  0  0  0
  7  8  1  0  0  0  0
 17 18  1  0  0  0  0
 27 36  1  0  0  0  0
 25 34  1  0  0  0  0
 26 35  1  0  0  0  0
 23 32  1  0  0  0  0
 24 33  1  0  0  0  0
  3  4  1  0  0  0  0
  3  5  1  0  0  0  0
  3  6  1  0  0  0  0
 41 44  1  0  0  0  0
 41 45  1  0  0  0  0
 41 46  1  0  0  0  0
 11 14  1  0  0  0  0
 11 15  1  0  0  0  0
 11 16  1  0  0  0  0
 48 50  1  0  0  0  0
 48 51  1  0  0  0  0
 48 52  1  0  0  0  0
 21 30  1  0  0  0  0
 21 31  1  0  0  0  0
 38 43  1  0  0  0  0
  8 13  1  0  0  0  0
 18 29  1  0  0  0  0
 47 49  1  0  0  0  0
  7 12  1  0  0  0  0
 37 42  1  0  0  0  0
 17 28  1  0  0  0  0
M  END
$$$$

  -OEChem-05262214473D

 52 52  0     1  0  0  0  0  0999 V2000
   -1.8248    0.3424    3.9102 C   0  0  0  0  0  0  0  0  0  0  0  0
   -0.8774   -0.2723    3.4345 O   0  0  0  0  0  0  0  0  0  0  0  0
   -2.2566    0.0600    5.3109 C   0  0  0  0  0  0  0  0  0  0  0  0
   -3.0163   -0.7363    5.3643 H   0  0  0  0  0  0  0  0  0  0  0  0
   -1.4254   -0.2876    5.9452 H   0  0  0  0  0  0  0  0  0  0  0  0
   -2.6947    0.9149    5.8505 H   0  0  0  0  0  0  0  0  0  0  0  0
   -2.5745    1.3149    3.2691 N   0  0  0  0  0  0  0  0  0  0  0  0
   -2.3276    1.7409    1.9167 C   0  0  2  0  0  0  0  0  0  0  0  0
   -0.9926    1.1555    1.4755 C   0  0  0  0  0  0  0  0  0  0  0  0
   -0.1206    0.8028    2.2668 O   0  0  0  0  0  0  0  0  0  0  0  0
   -2.3188    3.2577    1.8072 C   0  0  0  0  0  0  0  0  0  0  0  0
   -3.3395    1.7507    3.7809 H   0  0  0  0  0  0  0  0  0  0  0  0
   -3.1317    1.3224    1.3015 H   0  0  0  0  0  0  0  0  0  0  0  0
   -1.5198    3.6949    2.4169 H   0  0  0  0  0  0  0  0  0  0  0  0
   -2.1594    3.5799    0.7729 H   0  0  0  0  0  0  0  0  0  0  0  0
   -3.2690    3.6789    2.1530 H   0  0  0  0  0  0  0  0  0  0  0  0
   -0.8700    1.1124    0.0921 N   0  0  0  0  0  0  0  0  0  0  0  0
    0.3073    0.6116   -0.5716 C   0  0  2  0  0  0  0  0  0  0  0  0
    1.4797    1.4778   -0.1249 C   0  0  0  0  0  0  0  0  0  0  0  0
    1.5089    2.6966   -0.2814 O   0  0  0  0  0  0  0  0  0  0  0  0
    0.1704    0.6462   -2.0981 C   0  0  0  0  0  0  0  0  0  0  0  0
   -0.8745   -0.3139   -2.6122 C   0  0  0  0  0  0  0  0  0  0  0  0
   -0.5650   -1.6652   -2.7667 C   0  0  0  0  0  0  0  0  0  0  0  0
   -2.1501    0.1506   -2.9327 C   0  0  0  0  0  0  0  0  0  0  0  0
   -1.5312   -2.5521   -3.2417 C   0  0  0  0  0  0  0  0  0  0  0  0
   -3.1163   -0.7363   -3.4077 C   0  0  0  0  0  0  0  0  0  0  0  0
   -2.8068   -2.0876   -3.5621 C   0  0  0  0  0  0  0  0  0  0  0  0
   -1.6531    1.4091   -0.4852 H   0  0  0  0  0  0  0  0  0  0  0  0
    0.4588   -0.4119   -0.2090 H   0  0  0  0  0  0  0  0  0  0  0  0
    1.1372    0.4284   -2.5718 H   0  0  0  0  0  0  0  0  0  0  0  0
   -0.0949    1.6566   -2.4365 H   0  0  0  0  0  0  0  0  0  0  0  0
    0.4262   -2.0360   -2.5194 H   0  0  0  0  0  0  0  0  0  0  0  0
   -2.4003    1.2017   -2.8154 H   0  0  0  0  0  0  0  0  0  0  0  0
   -1.2897   -3.6040   -3.3630 H   0  0  0  0  0  0  0  0  0  0  0  0
   -4.1090   -0.3742   -3.6581 H   0  0  0  0  0  0  0  0  0  0  0  0
   -3.5586   -2.7781   -3.9333 H   0  0  0  0  0  0  0  0  0  0  0  0
    2.4627    0.7333    0.5120 N   0  0  0  0  0  0  0  0  0  0  0  0
    3.6709    1.3126    1.0538 C   0  0  2  0  0  0  0  0  0  0  0  0
    4.2981    2.1863   -0.0245 C   0  0  0  0  0  0  0  0  0  0  0  0
    4.0712    2.0386   -1.2236 O   0  0  0  0  0  0  0  0  0  0  0  0
    4.6420    0.2369    1.5147 C   0  0  0  0  0  0  0  0  0  0  0  0
    2.3262   -0.2692    0.6019 H   0  0  0  0  0  0  0  0  0  0  0  0
    3.3694    1.9376    1.9015 H   0  0  0  0  0  0  0  0  0  0  0  0
    4.9553   -0.3994    0.6789 H   0  0  0  0  0  0  0  0  0  0  0  0
    5.5445    0.6776    1.9509 H   0  0  0  0  0  0  0  0  0  0  0  0
    4.1791   -0.4089    2.2686 H   0  0  0  0  0  0  0  0  0  0  0  0
    5.1743    3.1225    0.5065 N   0  0  0  0  0  0  0  0  0  0  0  0
    5.9044    4.0604   -0.3140 C   0  0  0  0  0  0  0  0  0  0  0  0
    5.2869    3.1864    1.5140 H   0  0  0  0  0  0  0  0  0  0  0  0
    6.8870    3.6371   -0.5697 H   0  0  0  0  0  0  0  0  0  0  0  0
    5.3390    4.2578   -1.2367 H   0  0  0  0  0  0  0  0  0  0  0  0
    6.0432    5.0009    0.2393 H   0  0  0  0  0  0  0  0  0  0  0  0
 25 27  1  0  0  0  0
 26 27  2  0  0  0  0
 23 25  2  0  0  0  0
 24 26  1  0  0  0  0
 22 23  1  0  0  0  0
 22 24  2  0  0  0  0
 21 22  1  0  0  0  0
  1  3  1  0  0  0  0
  1  7  1  0  0  0  0
  1  2  2  0  0  0  0
 38 39  1  0  0  0  0
 39 47  1  0  0  0  0
 39 40  2  0  0  0  0
  8  9  1  0  0  0  0
  9 17  1  0  0  0  0
  9 10  2  0  0  0  0
 18 19  1  0  0  0  0
 19 37  1  0  0  0  0
 19 20  2  0  0  0  0
 38 41  1  0  0  0  0
  8 11  1  0  0  0  0
 47 48  1  0  0  0  0
 18 21  1  0  0  0  0
 37 38  1  0  0  0  0
  7  8  1  0  0  0  0
 17 18  1  0  0  0  0
 27 36  1  0  0  0  0
 25 34  1  0  0  0  0
 26 35  1  0  0  0  0
 23 32  1  0  0  0  0
 24 33  1  0  0  0  0
  3  4  1  0  0  0  0
  3  5  1  0  0  0  0
  3  6  1  0  0  0  0
 41 44  1  0  0  0  0
 41 45  1  0  0  0  0
 41 46  1  0  0  0  0
 11 14  1  0  0  0  0
 11 15  1  0  0  0  0
 11 16  1  0  0  0  0
 48 50  1  0  0  0  0
 48 51  1  0  0  0  0
 48 52  1  0  0  0  0
 21 30  1  0  0  0  0
 21 31  1  0  0  0  0
 38 43  1  0  0  0  0
  8 13  1  0  0  0  0
 18 29  1  0  0  0  0
 47 49  1  0  0  0  0
  7 12  1  0  0  0  0
 37 42  1  0  0  0  0
 17 28  1  0  0  0  0
M  END
$$$$

  -OEChem-05262214473D

 52 52  0     1  0  0  0  0  0999 V2000
   -1.8248    0.3424    3.9102 C   0  0  0  0  0  0  0  0  0  0  0  0
   -0.8774   -0.2723    3.4345 O   0  0  0  0  0  0  0  0  0  0  0  0
   -2.2566    0.0600    5.3109 C   0  0  0  0  0  0  0  0  0  0  0  0
   -3.0163   -0.7363    5.3643 H   0  0  0  0  0  0  0  0  0  0  0  0
   -1.4254   -0.2876    5.9452 H   0  0  0  0  0  0  0  0  0  0  0  0
   -2.6947    0.9149    5.8505 H   0  0  0  0  0  0  0  0  0  0  0  0
   -2.5745    1.3149    3.2691 N   0  0  0  0  0  0  0  0  0  0  0  0
   -2.3276    1.7409    1.9167 C   0  0  2  0  0  0  0  0  0  0  0  0
   -0.9926    1.1555    1.4755 C   0  0  0  0  0  0  0  0  0  0  0  0
   -0.1206    0.8028    2.2668 O   0  0  0  0  0  0  0  0  0  0  0  0
   -2.3188    3.2577    1.8072 C   0  0  0  0  0  0  0  0  0  0  0  0
   -3.3395    1.7507    3.7809 H   0  0  0  0  0  0  0  0  0  0  0  0
   -3.1317    1.3224    1.3015 H   0  0  0  0  0  0  0  0  0  0  0  0
   -1.5198    3.6949    2.4169 H   0  0  0  0  0  0  0  0  0  0  0  0
   -2.1594    3.5799    0.7729 H   0  0  0  0  0  0  0  0  0  0  0  0
   -3.2690    3.6789    2.1530 H   0  0  0  0  0  0  0  0  0  0  0  0
   -0.8700    1.1124    0.0921 N   0  0  0  0  0  0  0  0  0  0  0  0
    0.3073    0.6116   -0.5716 C   0  0  2  0  0  0  0  0  0  0  0  0
    1.4797    1.4778   -0.1249 C   0  0  0  0  0  0  0  0  0  0  0  0
    1.4100    2.7014   -0.0311 O   0  0  0  0  0  0  0  0  0  0  0  0
    0.1704    0.6462   -2.0981 C   0  0  0  0  0  0  0  0  0  0  0  0
   -0.8745   -0.3139   -2.6122 C   0  0  0  0  0  0  0  0  0  0  0  0
   -0.5650   -1.6652   -2.7667 C   0  0  0  0  0  0  0  0  0  0  0  0
   -2.1501    0.1506   -2.9327 C   0  0  0  0  0  0  0  0  0  0  0  0
   -1.5312   -2.5521   -3.2417 C   0  0  0  0  0  0  0  0  0  0  0  0
   -3.1163   -0.7363   -3.4077 C   0  0  0  0  0  0  0  0  0  0  0  0
   -2.8068   -2.0876   -3.5621 C   0  0  0  0  0  0  0  0  0  0  0  0
   -1.6531    1.4091   -0.4852 H   0  0  0  0  0  0  0  0  0  0  0  0
    0.4588   -0.4119   -0.2090 H   0  0  0  0  0  0  0  0  0  0  0  0
    1.1372    0.4284   -2.5718 H   0  0  0  0  0  0  0  0  0  0  0  0
   -0.0949    1.6566   -2.4365 H   0  0  0  0  0  0  0  0  0  0  0  0
    0.4262   -2.0360   -2.5194 H   0  0  0  0  0  0  0  0  0  0  0  0
   -2.4003    1.2017   -2.8154 H   0  0  0  0  0  0  0  0  0  0  0  0
   -1.2897   -3.6040   -3.3630 H   0  0  0  0  0  0  0  0  0  0  0  0
   -4.1090   -0.3742   -3.6581 H   0  0  0  0  0  0  0  0  0  0  0  0
   -3.5586   -2.7781   -3.9333 H   0  0  0  0  0  0  0  0  0  0  0  0
    2.5930    0.7165    0.2028 N   0  0  0  0  0  0  0  0  0  0  0  0
    3.8328    1.2873    0.6779 C   0  0  2  0  0  0  0  0  0  0  0  0
    4.2312    2.4062   -0.2754 C   0  0  0  0  0  0  0  0  0  0  0  0
    3.8309    2.4732   -1.4358 O   0  0  0  0  0  0  0  0  0  0  0  0
    4.9273    0.2353    0.7688 C   0  0  0  0  0  0  0  0  0  0  0  0
    2.5333   -0.2927    0.1037 H   0  0  0  0  0  0  0  0  0  0  0  0
    3.6286    1.7066    1.6691 H   0  0  0  0  0  0  0  0  0  0  0  0
    5.1457   -0.1962   -0.2148 H   0  0  0  0  0  0  0  0  0  0  0  0
    5.8579    0.6634    1.1559 H   0  0  0  0  0  0  0  0  0  0  0  0
    4.6269   -0.5833    1.4316 H   0  0  0  0  0  0  0  0  0  0  0  0
    5.1203    3.2976    0.3086 N   0  0  0  0  0  0  0  0  0  0  0  0
    5.6562    4.4387   -0.3962 C   0  0  0  0  0  0  0  0  0  0  0  0
    5.3833    3.1754    1.2821 H   0  0  0  0  0  0  0  0  0  0  0  0
    6.6113    4.1639   -0.8675 H   0  0  0  0  0  0  0  0  0  0  0  0
    4.9438    4.7587   -1.1709 H   0  0  0  0  0  0  0  0  0  0  0  0
    5.8213    5.2632    0.3131 H   0  0  0  0  0  0  0  0  0  0  0  0
 25 27  1  0  0  0  0
 26 27  2  0  0  0  0
 23 25  2  0  0  0  0
 24 26  1  0  0  0  0
 22 23  1  0  0  0  0
 22 24  2  0  0  0  0
 21 22  1  0  0  0  0
  1  3  1  0  0  0  0
  1  7  1  0  0  0  0
  1  2  2  0  0  0  0
 38 39  1  0  0  0  0
 39 47  1  0  0  0  0
 39 40  2  0  0  0  0
  8  9  1  0  0  0  0
  9 17  1  0  0  0  0
  9 10  2  0  0  0  0
 18 19  1  0  0  0  0
 19 37  1  0  0  0  0
 19 20  2  0  0  0  0
 38 41  1  0  0  0  0
  8 11  1  0  0  0  0
 47 48  1  0  0  0  0
 18 21  1  0  0  0  0
 37 38  1  0  0  0  0
  7  8  1  0  0  0  0
 17 18  1  0  0  0  0
 27 36  1  0  0  0  0
 25 34  1  0  0  0  0
 26 35  1  0  0  0  0
 23 32  1  0  0  0  0
 24 33  1  0  0  0  0
  3  4  1  0  0  0  0
  3  5  1  0  0  0  0
  3  6  1  0  0  0  0
 41 44  1  0  0  0  0
 41 45  1  0  0  0  0
 41 46  1  0  0  0  0
 11 14  1  0  0  0  0
 11 15  1  0  0  0  0
 11 16  1  0  0  0  0
 48 50  1  0  0  0  0
 48 51  1  0  0  0  0
 48 52  1  0  0  0  0
 21 30  1  0  0  0  0
 21 31  1  0  0  0  0
 38 43  1  0  0  0  0
  8 13  1  0  0  0  0
 18 29  1  0  0  0  0
 47 49  1  0  0  0  0
  7 12  1  0  0  0  0
 37 42  1  0  0  0  0
 17 28  1  0  0  0  0
M  END
$$$$

  -OEChem-05262214473D

 52 52  0     1  0  0  0  0  0999 V2000
   -1.8248    0.3424    3.9102 C   0  0  0  0  0  0  0  0  0  0  0  0
   -0.8774   -0.2723    3.4345 O   0  0  0  0  0  0  0  0  0  0  0  0
   -2.2566    0.0600    5.3109 C   0  0  0  0  0  0  0  0  0  0  0  0
   -3.0163   -0.7363    5.3643 H   0  0  0  0  0  0  0  0  0  0  0  0
   -1.4254   -0.2876    5.9452 H   0  0  0  0  0  0  0  0  0  0  0  0
   -2.6947    0.9149    5.8505 H   0  0  0  0  0  0  0  0  0  0  0  0
   -2.5745    1.3149    3.2691 N   0  0  0  0  0  0  0  0  0  0  0  0
   -2.3276    1.7409    1.9167 C   0  0  2  0  0  0  0  0  0  0  0  0
   -0.9926    1.1555    1.4755 C   0  0  0  0  0  0  0  0  0  0  0  0
   -0.1206    0.8028    2.2668 O   0  0  0  0  0  0  0  0  0  0  0  0
   -2.3188    3.2577    1.8072 C   0  0  0  0  0  0  0  0  0  0  0  0
   -3.3395    1.7507    3.7809 H   0  0  0  0  0  0  0  0  0  0  0  0
   -3.1317    1.3224    1.3015 H   0  0  0  0  0  0  0  0  0  0  0  0
   -1.5198    3.6949    2.4169 H   0  0  0  0  0  0  0  0  0  0  0  0
   -2.1594    3.5799    0.7729 H   0  0  0  0  0  0  0  0  0  0  0  0
   -3.2690    3.6789    2.1530 H   0  0  0  0  0  0  0  0  0  0  0  0
   -0.8700    1.1124    0.0921 N   0  0  0  0  0  0  0  0  0  0  0  0
    0.3073    0.6116   -0.5716 C   0  0  2  0  0  0  0  0  0  0  0  0
    1.4797    1.4778   -0.1249 C   0  0  0  0  0  0  0  0  0  0  0  0
    1.3509    2.6487    0.2262 O   0  0  0  0  0  0  0  0  0  0  0  0
    0.1704    0.6462   -2.0981 C   0  0  0  0  0  0  0  0  0  0  0  0
   -0.8745   -0.3139   -2.6122 C   0  0  0  0  0  0  0  0  0  0  0  0
   -0.5650   -1.6652   -2.7667 C   0  0  0  0  0  0  0  0  0  0  0  0
   -2.1501    0.1506   -2.9327 C   0  0  0  0  0  0  0  0  0  0  0  0
   -1.5312   -2.5521   -3.2417 C   0  0  0  0  0  0  0  0  0  0  0  0
   -3.1163   -0.7363   -3.4077 C   0  0  0  0  0  0  0  0  0  0  0  0
   -2.8068   -2.0876   -3.5621 C   0  0  0  0  0  0  0  0  0  0  0  0
   -1.6531    1.4091   -0.4852 H   0  0  0  0  0  0  0  0  0  0  0  0
    0.4588   -0.4119   -0.2090 H   0  0  0  0  0  0  0  0  0  0  0  0
    1.1372    0.4284   -2.5718 H   0  0  0  0  0  0  0  0  0  0  0  0
   -0.0949    1.6566   -2.4365 H   0  0  0  0  0  0  0  0  0  0  0  0
    0.4262   -2.0360   -2.5194 H   0  0  0  0  0  0  0  0  0  0  0  0
   -2.4003    1.2017   -2.8154 H   0  0  0  0  0  0  0  0  0  0  0  0
   -1.2897   -3.6040   -3.3630 H   0  0  0  0  0  0  0  0  0  0  0  0
   -4.1090   -0.3742   -3.6581 H   0  0  0  0  0  0  0  0  0  0  0  0
   -3.5586   -2.7781   -3.9333 H   0  0  0  0  0  0  0  0  0  0  0  0
    2.6746    0.7717   -0.1185 N   0  0  0  0  0  0  0  0  0  0  0  0
    3.9359    1.3499    0.2859 C   0  0  2  0  0  0  0  0  0  0  0  0
    4.1130    2.6635   -0.4642 C   0  0  0  0  0  0  0  0  0  0  0  0
    3.5347    2.9170   -1.5189 O   0  0  0  0  0  0  0  0  0  0  0  0
    5.0933    0.4040    0.0061 C   0  0  0  0  0  0  0  0  0  0  0  0
    2.6619   -0.2004   -0.4127 H   0  0  0  0  0  0  0  0  0  0  0  0
    3.8623    1.5494    1.3605 H   0  0  0  0  0  0  0  0  0  0  0  0
    5.1828    0.1924   -1.0656 H   0  0  0  0  0  0  0  0  0  0  0  0
    6.0447    0.8317    0.3391 H   0  0  0  0  0  0  0  0  0  0  0  0
    4.9495   -0.5512    0.5226 H   0  0  0  0  0  0  0  0  0  0  0  0
    5.0258    3.5021    0.1602 N   0  0  0  0  0  0  0  0  0  0  0  0
    5.3756    4.8017   -0.3637 C   0  0  0  0  0  0  0  0  0  0  0  0
    5.4432    3.2184    1.0417 H   0  0  0  0  0  0  0  0  0  0  0  0
    6.2613    4.7110   -1.0097 H   0  0  0  0  0  0  0  0  0  0  0  0
    4.5338    5.1995   -0.9495 H   0  0  0  0  0  0  0  0  0  0  0  0
    5.5979    5.4850    0.4692 H   0  0  0  0  0  0  0  0  0  0  0  0
 25 27  1  0  0  0  0
 26 27  2  0  0  0  0
 23 25  2  0  0  0  0
 24 26  1  0  0  0  0
 22 23  1  0  0  0  0
 22 24  2  0  0  0  0
 21 22  1  0  0  0  0
  1  3  1  0  0  0  0
  1  7  1  0  0  0  0
  1  2  2  0  0  0  0
 38 39  1  0  0  0  0
 39 47  1  0  0  0  0
 39 40  2  0  0  0  0
  8  9  1  0  0  0  0
  9 17  1  0  0  0  0
  9 10  2  0  0  0  0
 18 19  1  0  0  0  0
 19 37  1  0  0  0  0
 19 20  2  0  0  0  0
 38 41  1  0  0  0  0
  8 11  1  0  0  0  0
 47 48  1  0  0  0  0
 18 21  1  0  0  0  0
 37 38  1  0  0  0  0
  7  8  1  0  0  0  0
 17 18  1  0  0  0  0
 27 36  1  0  0  0  0
 25 34  1  0  0  0  0
 26 35  1  0  0  0  0
 23 32  1  0  0  0  0
 24 33  1  0  0  0  0
  3  4  1  0  0  0  0
  3  5  1  0  0  0  0
  3  6  1  0  0  0  0
 41 44  1  0  0  0  0
 41 45  1  0  0  0  0
 41 46  1  0  0  0  0
 11 14  1  0  0  0  0
 11 15  1  0  0  0  0
 11 16  1  0  0  0  0
 48 50  1  0  0  0  0
 48 51  1  0  0  0  0
 48 52  1  0  0  0  0
 21 30  1  0  0  0  0
 21 31  1  0  0  0  0
 38 43  1  0  0  0  0
  8 13  1  0  0  0  0
 18 29  1  0  0  0  0
 47 49  1  0  0  0  0
  7 12  1  0  0  0  0
 37 42  1  0  0  0  0
 17 28  1  0  0  0  0
M  END
$$$$

  -OEChem-05262214473D

 52 52  0     1  0  0  0  0  0999 V2000
   -1.8248    0.3424    3.9102 C   0  0  0  0  0  0  0  0  0  0  0  0
   -0.8774   -0.2723    3.4345 O   0  0  0  0  0  0  0  0  0  0  0  0
   -2.2566    0.0600    5.3109 C   0  0  0  0  0  0  0  0  0  0  0  0
   -3.0163   -0.7363    5.3643 H   0  0  0  0  0  0  0  0  0  0  0  0
   -1.4254   -0.2876    5.9452 H   0  0  0  0  0  0  0  0  0  0  0  0
   -2.6947    0.9149    5.8505 H   0  0  0  0  0  0  0  0  0  0  0  0
   -2.5745    1.3149    3.2691 N   0  0  0  0  0  0  0  0  0  0  0  0
   -2.3276    1.7409    1.9167 C   0  0  2  0  0  0  0  0  0  0  0  0
   -0.9926    1.1555    1.4755 C   0  0  0  0  0  0  0  0  0  0  0  0
   -0.1206    0.8028    2.2668 O   0  0  0  0  0  0  0  0  0  0  0  0
   -2.3188    3.2577    1.8072 C   0  0  0  0  0  0  0  0  0  0  0  0
   -3.3395    1.7507    3.7809 H   0  0  0  0  0  0  0  0  0  0  0  0
   -3.1317    1.3224    1.3015 H   0  0  0  0  0  0  0  0  0  0  0  0
   -1.5198    3.6949    2.4169 H   0  0  0  0  0  0  0  0  0  0  0  0
   -2.1594    3.5799    0.7729 H   0  0  0  0  0  0  0  0  0  0  0  0
   -3.2690    3.6789    2.1530 H   0  0  0  0  0  0  0  0  0  0  0  0
   -0.8700    1.1124    0.0921 N   0  0  0  0  0  0  0  0  0  0  0  0
    0.3073    0.6116   -0.5716 C   0  0  2  0  0  0  0  0  0  0  0  0
    1.4797    1.4778   -0.1249 C   0  0  0  0  0  0  0  0  0  0  0  0
    1.3357    2.5421    0.4729 O   0  0  0  0  0  0  0  0  0  0  0  0
    0.1704    0.6462   -2.0981 C   0  0  0  0  0  0  0  0  0  0  0  0
   -0.8745   -0.3139   -2.6122 C   0  0  0  0  0  0  0  0  0  0  0  0
   -0.5650   -1.6652   -2.7667 C   0  0  0  0  0  0  0  0  0  0  0  0
   -2.1501    0.1506   -2.9327 C   0  0  0  0  0  0  0  0  0  0  0  0
   -1.5312   -2.5521   -3.2417 C   0  0  0  0  0  0  0  0  0  0  0  0
   -3.1163   -0.7363   -3.4077 C   0  0  0  0  0  0  0  0  0  0  0  0
   -2.8068   -2.0876   -3.5621 C   0  0  0  0  0  0  0  0  0  0  0  0
   -1.6531    1.4091   -0.4852 H   0  0  0  0  0  0  0  0  0  0  0  0
    0.4588   -0.4119   -0.2090 H   0  0  0  0  0  0  0  0  0  0  0  0
    1.1372    0.4284   -2.5718 H   0  0  0  0  0  0  0  0  0  0  0  0
   -0.0949    1.6566   -2.4365 H   0  0  0  0  0  0  0  0  0  0  0  0
    0.4262   -2.0360   -2.5194 H   0  0  0  0  0  0  0  0  0  0  0  0
   -2.4003    1.2017   -2.8154 H   0  0  0  0  0  0  0  0  0  0  0  0
   -1.2897   -3.6040   -3.3630 H   0  0  0  0  0  0  0  0  0  0  0  0
   -4.1090   -0.3742   -3.6581 H   0  0  0  0  0  0  0  0  0  0  0  0
   -3.5586   -2.7781   -3.9333 H   0  0  0  0  0  0  0  0  0  0  0  0
    2.7020    0.8951   -0.4297 N   0  0  0  0  0  0  0  0  0  0  0  0
    3.9730    1.4963   -0.0954 C   0  0  2  0  0  0  0  0  0  0  0  0
    3.9516    2.9407   -0.5779 C   0  0  0  0  0  0  0  0  0  0  0  0
    3.2027    3.3397   -1.4673 O   0  0  0  0  0  0  0  0  0  0  0  0
    5.1287    0.7312   -0.7214 C   0  0  0  0  0  0  0  0  0  0  0  0
    2.7032    0.0012   -0.9121 H   0  0  0  0  0  0  0  0  0  0  0  0
    4.0546    1.4767    0.9968 H   0  0  0  0  0  0  0  0  0  0  0  0
    5.0640    0.7399   -1.8156 H   0  0  0  0  0  0  0  0  0  0  0  0
    6.0923    1.1710   -0.4438 H   0  0  0  0  0  0  0  0  0  0  0  0
    5.1250   -0.3148   -0.3965 H   0  0  0  0  0  0  0  0  0  0  0  0
    4.8971    3.7219    0.0715 N   0  0  0  0  0  0  0  0  0  0  0  0
    5.0818    5.1246   -0.2188 C   0  0  0  0  0  0  0  0  0  0  0  0
    5.4624    3.3122    0.8092 H   0  0  0  0  0  0  0  0  0  0  0  0
    5.8607    5.2412   -0.9868 H   0  0  0  0  0  0  0  0  0  0  0  0
    4.1369    5.5501   -0.5876 H   0  0  0  0  0  0  0  0  0  0  0  0
    5.3883    5.6512    0.6970 H   0  0  0  0  0  0  0  0  0  0  0  0
 25 27  1  0  0  0  0
 26 27  2  0  0  0  0
 23 25  2  0  0  0  0
 24 26  1  0  0  0  0
 22 23  1  0  0  0  0
 22 24  2  0  0  0  0
 21 22  1  0  0  0  0
  1  3  1  0  0  0  0
  1  7  1  0  0  0  0
  1  2  2  0  0  0  0
 38 39  1  0  0  0  0
 39 47  1  0  0  0  0
 39 40  2  0  0  0  0
  8  9  1  0  0  0  0
  9 17  1  0  0  0  0
  9 10  2  0  0  0  0
 18 19  1  0  0  0  0
 19 37  1  0  0  0  0
 19 20  2  0  0  0  0
 38 41  1  0  0  0  0
  8 11  1  0  0  0  0
 47 48  1  0  0  0  0
 18 21  1  0  0  0  0
 37 38  1  0  0  0  0
  7  8  1  0  0  0  0
 17 18  1  0  0  0  0
 27 36  1  0  0  0  0
 25 34  1  0  0  0  0
 26 35  1  0  0  0  0
 23 32  1  0  0  0  0
 24 33  1  0  0  0  0
  3  4  1  0  0  0  0
  3  5  1  0  0  0  0
  3  6  1  0  0  0  0
 41 44  1  0  0  0  0
 41 45  1  0  0  0  0
 41 46  1  0  0  0  0
 11 14  1  0  0  0  0
 11 15  1  0  0  0  0
 11 16  1  0  0  0  0
 48 50  1  0  0  0  0
 48 51  1  0  0  0  0
 48 52  1  0  0  0  0
 21 30  1  0  0  0  0
 21 31  1  0  0  0  0
 38 43  1  0  0  0  0
  8 13  1  0  0  0  0
 18 29  1  0  0  0  0
 47 49  1  0  0  0  0
  7 12  1  0  0  0  0
 37 42  1  0  0  0  0
 17 28  1  0  0  0  0
M  END
$$$$

  -OEChem-05262214473D

 52 52  0     1  0  0  0  0  0999 V2000
   -1.8248    0.3424    3.9102 C   0  0  0  0  0  0  0  0  0  0  0  0
   -0.8774   -0.2723    3.4345 O   0  0  0  0  0  0  0  0  0  0  0  0
   -2.2566    0.0600    5.3109 C   0  0  0  0  0  0  0  0  0  0  0  0
   -3.0163   -0.7363    5.3643 H   0  0  0  0  0  0  0  0  0  0  0  0
   -1.4254   -0.2876    5.9452 H   0  0  0  0  0  0  0  0  0  0  0  0
   -2.6947    0.9149    5.8505 H   0  0  0  0  0  0  0  0  0  0  0  0
   -2.5745    1.3149    3.2691 N   0  0  0  0  0  0  0  0  0  0  0  0
   -2.3276    1.7409    1.9167 C   0  0  2  0  0  0  0  0  0  0  0  0
   -0.9926    1.1555    1.4755 C   0  0  0  0  0  0  0  0  0  0  0  0
   -0.1206    0.8028    2.2668 O   0  0  0  0  0  0  0  0  0  0  0  0
   -2.3188    3.2577    1.8072 C   0  0  0  0  0  0  0  0  0  0  0  0
   -3.3395    1.7507    3.7809 H   0  0  0  0  0  0  0  0  0  0  0  0
   -3.1317    1.3224    1.3015 H   0  0  0  0  0  0  0  0  0  0  0  0
   -1.5198    3.6949    2.4169 H   0  0  0  0  0  0  0  0  0  0  0  0
   -2.1594    3.5799    0.7729 H   0  0  0  0  0  0  0  0  0  0  0  0
   -3.2690    3.6789    2.1530 H   0  0  0  0  0  0  0  0  0  0  0  0
   -0.8700    1.1124    0.0921 N   0  0  0  0  0  0  0  0  0  0  0  0
    0.3073    0.6116   -0.5716 C   0  0  2  0  0  0  0  0  0  0  0  0
    1.5153    1.2088    0.1413 C   0  0  0  0  0  0  0  0  0  0  0  0
    1.4181    1.9390    1.1253 O   0  0  0  0  0  0  0  0  0  0  0  0
    0.3325    0.9772   -2.0601 C   0  0  0  0  0  0  0  0  0  0  0  0
   -0.7527    0.2864   -2.8492 C   0  0  0  0  0  0  0  0  0  0  0  0
   -0.5789   -1.0325   -3.2688 C   0  0  0  0  0  0  0  0  0  0  0  0
   -1.9301    0.9673   -3.1588 C   0  0  0  0  0  0  0  0  0  0  0  0
   -1.5824   -1.6704   -3.9979 C   0  0  0  0  0  0  0  0  0  0  0  0
   -2.9337    0.3293   -3.8879 C   0  0  0  0  0  0  0  0  0  0  0  0
   -2.7598   -0.9896   -4.3074 C   0  0  0  0  0  0  0  0  0  0  0  0
   -1.6531    1.4091   -0.4852 H   0  0  0  0  0  0  0  0  0  0  0  0
    0.3077   -0.4754   -0.4291 H   0  0  0  0  0  0  0  0  0  0  0  0
    1.3132    0.7390   -2.4938 H   0  0  0  0  0  0  0  0  0  0  0  0
    0.2157    2.0612   -2.1909 H   0  0  0  0  0  0  0  0  0  0  0  0
    0.3351   -1.5708   -3.0321 H   0  0  0  0  0  0  0  0  0  0  0  0
   -2.0744    1.9950   -2.8360 H   0  0  0  0  0  0  0  0  0  0  0  0
   -1.4464   -2.6970   -4.3254 H   0  0  0  0  0  0  0  0  0  0  0  0
   -3.8497    0.8601   -4.1296 H   0  0  0  0  0  0  0  0  0  0  0  0
   -3.5405   -1.4860   -4.8763 H   0  0  0  0  0  0  0  0  0  0  0  0
    2.7118    0.7880   -0.4225 N   0  0  0  0  0  0  0  0  0  0  0  0
    4.0080    1.1879    0.0763 C   0  0  2  0  0  0  0  0  0  0  0  0
    4.0081    2.7037    0.2236 C   0  0  0  0  0  0  0  0  0  0  0  0
    3.2414    3.4380   -0.3962 O   0  0  0  0  0  0  0  0  0  0  0  0
    5.1228    0.7319   -0.8522 C   0  0  0  0  0  0  0  0  0  0  0  0
    2.6745    0.1679   -1.2261 H   0  0  0  0  0  0  0  0  0  0  0  0
    4.1243    0.7245    1.0621 H   0  0  0  0  0  0  0  0  0  0  0  0
    5.0231    1.1859   -1.8449 H   0  0  0  0  0  0  0  0  0  0  0  0
    6.1059    1.0107   -0.4586 H   0  0  0  0  0  0  0  0  0  0  0  0
    5.1028   -0.3557   -0.9806 H   0  0  0  0  0  0  0  0  0  0  0  0
    4.9939    3.1432    1.0961 N   0  0  0  0  0  0  0  0  0  0  0  0
    5.2051    4.5406    1.3938 C   0  0  0  0  0  0  0  0  0  0  0  0
    5.5720    2.4628    1.5805 H   0  0  0  0  0  0  0  0  0  0  0  0
    5.9616    4.9516    0.7091 H   0  0  0  0  0  0  0  0  0  0  0  0
    4.2600    5.0891    1.2678 H   0  0  0  0  0  0  0  0  0  0  0  0
    5.5544    4.6456    2.4316 H   0  0  0  0  0  0  0  0  0  0  0  0
 25 27  1  0  0  0  0
 26 27  2  0  0  0  0
 23 25  2  0  0  0  0
 24 26  1  0  0  0  0
 22 23  1  0  0  0  0
 22 24  2  0  0  0  0
 21 22  1  0  0  0  0
  1  3  1  0  0  0  0
  1  7  1  0  0  0  0
  1  2  2  0  0  0  0
 38 39  1  0  0  0  0
 39 47  1  0  0  0  0
 39 40  2  0  0  0  0
  8  9  1  0  0  0  0
  9 17  1  0  0  0  0
  9 10  2  0  0  0  0
 18 19  1  0  0  0  0
 19 37  1  0  0  0  0
 19 20  2  0  0  0  0
 38 41  1  0  0  0  0
  8 11  1  0  0  0  0
 47 48  1  0  0  0  0
 18 21  1  0  0  0  0
 37 38  1  0  0  0  0
  7  8  1  0  0  0  0
 17 18  1  0  0  0  0
 27 36  1  0  0  0  0
 25 34  1  0  0  0  0
 26 35  1  0  0  0  0
 23 32  1  0  0  0  0
 24 33  1  0  0  0  0
  3  4  1  0  0  0  0
  3  5  1  0  0  0  0
  3  6  1  0  0  0  0
 41 44  1  0  0  0  0
 41 45  1  0  0  0  0
 41 46  1  0  0  0  0
 11 14  1  0  0  0  0
 11 15  1  0  0  0  0
 11 16  1  0  0  0  0
 48 50  1  0  0  0  0
 48 51  1  0  0  0  0
 48 52  1  0  0  0  0
 21 30  1  0  0  0  0
 21 31  1  0  0  0  0
 38 43  1  0  0  0  0
  8 13  1  0  0  0  0
 18 29  1  0  0  0  0
 47 49  1  0  0  0  0
  7 12  1  0  0  0  0
 37 42  1  0  0  0  0
 17 28  1  0  0  0  0
M  END
$$$$

  -OEChem-05262214473D

 52 52  0     1  0  0  0  0  0999 V2000
   -1.8248    0.3424    3.9102 C   0  0  0  0  0  0  0  0  0  0  0  0
   -0.8774   -0.2723    3.4345 O   0  0  0  0  0  0  0  0  0  0  0  0
   -2.2566    0.0600    5.3109 C   0  0  0  0  0  0  0  0  0  0  0  0
   -3.0163   -0.7363    5.3643 H   0  0  0  0  0  0  0  0  0  0  0  0
   -1.4254   -0.2876    5.9452 H   0  0  0  0  0  0  0  0  0  0  0  0
   -2.6947    0.9149    5.8505 H   0  0  0  0  0  0  0  0  0  0  0  0
   -2.5745    1.3149    3.2691 N   0  0  0  0  0  0  0  0  0  0  0  0
   -2.3276    1.7409    1.9167 C   0  0  2  0  0  0  0  0  0  0  0  0
   -0.9926    1.1555    1.4755 C   0  0  0  0  0  0  0  0  0  0  0  0
   -0.1206    0.8028    2.2668 O   0  0  0  0  0  0  0  0  0  0  0  0
   -2.3188    3.2577    1.8072 C   0  0  0  0  0  0  0  0  0  0  0  0
   -3.3395    1.7507    3.7809 H   0  0  0  0  0  0  0  0  0  0  0  0
   -3.1317    1.3224    1.3015 H   0  0  0  0  0  0  0  0  0  0  0  0
   -1.5198    3.6949    2.4169 H   0  0  0  0  0  0  0  0  0  0  0  0
   -2.1594    3.5799    0.7729 H   0  0  0  0  0  0  0  0  0  0  0  0
   -3.2690    3.6789    2.1530 H   0  0  0  0  0  0  0  0  0  0  0  0
   -0.8700    1.1124    0.0921 N   0  0  0  0  0  0  0  0  0  0  0  0
    0.3073    0.6116   -0.5716 C   0  0  2  0  0  0  0  0  0  0  0  0
    1.5153    1.2088    0.1413 C   0  0  0  0  0  0  0  0  0  0  0  0
    1.4508    1.7095    1.2621 O   0  0  0  0  0  0  0  0  0  0  0  0
    0.3325    0.9772   -2.0601 C   0  0  0  0  0  0  0  0  0  0  0  0
   -0.7527    0.2864   -2.8492 C   0  0  0  0  0  0  0  0  0  0  0  0
   -0.5789   -1.0325   -3.2688 C   0  0  0  0  0  0  0  0  0  0  0  0
   -1.9301    0.9673   -3.1588 C   0  0  0  0  0  0  0  0  0  0  0  0
   -1.5824   -1.6704   -3.9979 C   0  0  0  0  0  0  0  0  0  0  0  0
   -2.9337    0.3293   -3.8879 C   0  0  0  0  0  0  0  0  0  0  0  0
   -2.7598   -0.9896   -4.3074 C   0  0  0  0  0  0  0  0  0  0  0  0
   -1.6531    1.4091   -0.4852 H   0  0  0  0  0  0  0  0  0  0  0  0
    0.3077   -0.4754   -0.4291 H   0  0  0  0  0  0  0  0  0  0  0  0
    1.3132    0.7390   -2.4938 H   0  0  0  0  0  0  0  0  0  0  0  0
    0.2157    2.0612   -2.1909 H   0  0  0  0  0  0  0  0  0  0  0  0
    0.3351   -1.5708   -3.0321 H   0  0  0  0  0  0  0  0  0  0  0  0
   -2.0744    1.9950   -2.8360 H   0  0  0  0  0  0  0  0  0  0  0  0
   -1.4464   -2.6970   -4.3254 H   0  0  0  0  0  0  0  0  0  0  0  0
   -3.8497    0.8601   -4.1296 H   0  0  0  0  0  0  0  0  0  0  0  0
   -3.5405   -1.4860   -4.8763 H   0  0  0  0  0  0  0  0  0  0  0  0
    2.6788    1.0698   -0.6026 N   0  0  0  0  0  0  0  0  0  0  0  0
    3.9713    1.5295   -0.1477 C   0  0  2  0  0  0  0  0  0  0  0  0
    3.8208    2.9723    0.3161 C   0  0  0  0  0  0  0  0  0  0  0  0
    2.9120    3.7077   -0.0640 O   0  0  0  0  0  0  0  0  0  0  0  0
    5.0165    1.4180   -1.2467 C   0  0  0  0  0  0  0  0  0  0  0  0
    2.6189    0.6224   -1.5125 H   0  0  0  0  0  0  0  0  0  0  0  0
    4.2497    0.8988    0.7036 H   0  0  0  0  0  0  0  0  0  0  0  0
    4.7547    2.0432   -2.1082 H   0  0  0  0  0  0  0  0  0  0  0  0
    6.0012    1.7398   -0.8919 H   0  0  0  0  0  0  0  0  0  0  0  0
    5.1022    0.3847   -1.5997 H   0  0  0  0  0  0  0  0  0  0  0  0
    4.8450    3.3553    1.1707 N   0  0  0  0  0  0  0  0  0  0  0  0
    4.9331    4.6810    1.7371 C   0  0  0  0  0  0  0  0  0  0  0  0
    5.5461    2.6743    1.4471 H   0  0  0  0  0  0  0  0  0  0  0  0
    5.5565    5.3159    1.0903 H   0  0  0  0  0  0  0  0  0  0  0  0
    3.9250    5.1144    1.8142 H   0  0  0  0  0  0  0  0  0  0  0  0
    5.3847    4.6226    2.7384 H   0  0  0  0  0  0  0  0  0  0  0  0
 25 27  1  0  0  0  0
 26 27  2  0  0  0  0
 23 25  2  0  0  0  0
 24 26  1  0  0  0  0
 22 23  1  0  0  0  0
 22 24  2  0  0  0  0
 21 22  1  0  0  0  0
  1  3  1  0  0  0  0
  1  7  1  0  0  0  0
  1  2  2  0  0  0  0
 38 39  1  0  0  0  0
 39 47  1  0  0  0  0
 39 40  2  0  0  0  0
  8  9  1  0  0  0  0
  9 17  1  0  0  0  0
  9 10  2  0  0  0  0
 18 19  1  0  0  0  0
 19 37  1  0  0  0  0
 19 20  2  0  0  0  0
 38 41  1  0  0  0  0
  8 11  1  0  0  0  0
 47 48  1  0  0  0  0
 18 21  1  0  0  0  0
 37 38  1  0  0  0  0
  7  8  1  0  0  0  0
 17 18  1  0  0  0  0
 27 36  1  0  0  0  0
 25 34  1  0  0  0  0
 26 35  1  0  0  0  0
 23 32  1  0  0  0  0
 24 33  1  0  0  0  0
  3  4  1  0  0  0  0
  3  5  1  0  0  0  0
  3  6  1  0  0  0  0
 41 44  1  0  0  0  0
 41 45  1  0  0  0  0
 41 46  1  0  0  0  0
 11 14  1  0  0  0  0
 11 15  1  0  0  0  0
 11 16  1  0  0  0  0
 48 50  1  0  0  0  0
 48 51  1  0  0  0  0
 48 52  1  0  0  0  0
 21 30  1  0  0  0  0
 21 31  1  0  0  0  0
 38 43  1  0  0  0  0
  8 13  1  0  0  0  0
 18 29  1  0  0  0  0
 47 49  1  0  0  0  0
  7 12  1  0  0  0  0
 37 42  1  0  0  0  0
 17 28  1  0  0  0  0
M  END
$$$$

  -OEChem-05262214473D

 52 52  0     1  0  0  0  0  0999 V2000
   -1.8248    0.3424    3.9102 C   0  0  0  0  0  0  0  0  0  0  0  0
   -0.8774   -0.2723    3.4345 O   0  0  0  0  0  0  0  0  0  0  0  0
   -2.2566    0.0600    5.3109 C   0  0  0  0  0  0  0  0  0  0  0  0
   -3.0163   -0.7363    5.3643 H   0  0  0  0  0  0  0  0  0  0  0  0
   -1.4254   -0.2876    5.9452 H   0  0  0  0  0  0  0  0  0  0  0  0
   -2.6947    0.9149    5.8505 H   0  0  0  0  0  0  0  0  0  0  0  0
   -2.5745    1.3149    3.2691 N   0  0  0  0  0  0  0  0  0  0  0  0
   -2.3276    1.7409    1.9167 C   0  0  2  0  0  0  0  0  0  0  0  0
   -0.9926    1.1555    1.4755 C   0  0  0  0  0  0  0  0  0  0  0  0
   -0.1206    0.8028    2.2668 O   0  0  0  0  0  0  0  0  0  0  0  0
   -2.3188    3.2577    1.8072 C   0  0  0  0  0  0  0  0  0  0  0  0
   -3.3395    1.7507    3.7809 H   0  0  0  0  0  0  0  0  0  0  0  0
   -3.1317    1.3224    1.3015 H   0  0  0  0  0  0  0  0  0  0  0  0
   -1.5198    3.6949    2.4169 H   0  0  0  0  0  0  0  0  0  0  0  0
   -2.1594    3.5799    0.7729 H   0  0  0  0  0  0  0  0  0  0  0  0
   -3.2690    3.6789    2.1530 H   0  0  0  0  0  0  0  0  0  0  0  0
   -0.8700    1.1124    0.0921 N   0  0  0  0  0  0  0  0  0  0  0  0
    0.3073    0.6116   -0.5716 C   0  0  2  0  0  0  0  0  0  0  0  0
    1.5153    1.2088    0.1413 C   0  0  0  0  0  0  0  0  0  0  0  0
    1.5241    1.4637    1.3438 O   0  0  0  0  0  0  0  0  0  0  0  0
    0.3325    0.9772   -2.0601 C   0  0  0  0  0  0  0  0  0  0  0  0
   -0.7527    0.2864   -2.8492 C   0  0  0  0  0  0  0  0  0  0  0  0
   -0.5789   -1.0325   -3.2688 C   0  0  0  0  0  0  0  0  0  0  0  0
   -1.9301    0.9673   -3.1588 C   0  0  0  0  0  0  0  0  0  0  0  0
   -1.5824   -1.6704   -3.9979 C   0  0  0  0  0  0  0  0  0  0  0  0
   -2.9337    0.3293   -3.8879 C   0  0  0  0  0  0  0  0  0  0  0  0
   -2.7598   -0.9896   -4.3074 C   0  0  0  0  0  0  0  0  0  0  0  0
   -1.6531    1.4091   -0.4852 H   0  0  0  0  0  0  0  0  0  0  0  0
    0.3077   -0.4754   -0.4291 H   0  0  0  0  0  0  0  0  0  0  0  0
    1.3132    0.7390   -2.4938 H   0  0  0  0  0  0  0  0  0  0  0  0
    0.2157    2.0612   -2.1909 H   0  0  0  0  0  0  0  0  0  0  0  0
    0.3351   -1.5708   -3.0321 H   0  0  0  0  0  0  0  0  0  0  0  0
   -2.0744    1.9950   -2.8360 H   0  0  0  0  0  0  0  0  0  0  0  0
   -1.4464   -2.6970   -4.3254 H   0  0  0  0  0  0  0  0  0  0  0  0
   -3.8497    0.8601   -4.1296 H   0  0  0  0  0  0  0  0  0  0  0  0
   -3.5405   -1.4860   -4.8763 H   0  0  0  0  0  0  0  0  0  0  0  0
    2.5946    1.3748   -0.7154 N   0  0  0  0  0  0  0  0  0  0  0  0
    3.8718    1.9009   -0.2902 C   0  0  2  0  0  0  0  0  0  0  0  0
    3.6167    3.1901    0.4795 C   0  0  0  0  0  0  0  0  0  0  0  0
    2.5949    3.8603    0.3456 O   0  0  0  0  0  0  0  0  0  0  0  0
    4.7907    2.1488   -1.4763 C   0  0  0  0  0  0  0  0  0  0  0  0
    2.4811    1.1134   -1.6904 H   0  0  0  0  0  0  0  0  0  0  0  0
    4.3133    1.1557    0.3805 H   0  0  0  0  0  0  0  0  0  0  0  0
    4.3650    2.8927   -2.1595 H   0  0  0  0  0  0  0  0  0  0  0  0
    5.7678    2.5203   -1.1503 H   0  0  0  0  0  0  0  0  0  0  0  0
    4.9492    1.2267   -2.0459 H   0  0  0  0  0  0  0  0  0  0  0  0
    4.6830    3.5269    1.3014 N   0  0  0  0  0  0  0  0  0  0  0  0
    4.6882    4.7134    2.1250 C   0  0  0  0  0  0  0  0  0  0  0  0
    5.4820    2.9029    1.3643 H   0  0  0  0  0  0  0  0  0  0  0  0
    5.1598    5.5406    1.5743 H   0  0  0  0  0  0  0  0  0  0  0  0
    3.6538    4.9863    2.3811 H   0  0  0  0  0  0  0  0  0  0  0  0
    5.2546    4.5170    3.0472 H   0  0  0  0  0  0  0  0  0  0  0  0
 25 27  1  0  0  0  0
 26 27  2  0  0  0  0
 23 25  2  0  0  0  0
 24 26  1  0  0  0  0
 22 23  1  0  0  0  0
 22 24  2  0  0  0  0
 21 22  1  0  0  0  0
  1  3  1  0  0  0  0
  1  7  1  0  0  0  0
  1  2  2  0  0  0  0
 38 39  1  0  0  0  0
 39 47  1  0  0  0  0
 39 40  2  0  0  0  0
  8  9  1  0  0  0  0
  9 17  1  0  0  0  0
  9 10  2  0  0  0  0
 18 19  1  0  0  0  0
 19 37  1  0  0  0  0
 19 20  2  0  0  0  0
 38 41  1  0  0  0  0
  8 11  1  0  0  0  0
 47 48  1  0  0  0  0
 18 21  1  0  0  0  0
 37 38  1  0  0  0  0
  7  8  1  0  0  0  0
 17 18  1  0  0  0  0
 27 36  1  0  0  0  0
 25 34  1  0  0  0  0
 26 35  1  0  0  0  0
 23 32  1  0  0  0  0
 24 33  1  0  0  0  0
  3  4  1  0  0  0  0
  3  5  1  0  0  0  0
  3  6  1  0  0  0  0
 41 44  1  0  0  0  0
 41 45  1  0  0  0  0
 41 46  1  0  0  0  0
 11 14  1  0  0  0  0
 11 15  1  0  0  0  0
 11 16  1  0  0  0  0
 48 50  1  0  0  0  0
 48 51  1  0  0  0  0
 48 52  1  0  0  0  0
 21 30  1  0  0  0  0
 21 31  1  0  0  0  0
 38 43  1  0  0  0  0
  8 13  1  0  0  0  0
 18 29  1  0  0  0  0
 47 49  1  0  0  0  0
  7 12  1  0  0  0  0
 37 42  1  0  0  0  0
 17 28  1  0  0  0  0
M  END
$$$$

  -OEChem-05262214473D

 52 52  0     1  0  0  0  0  0999 V2000
   -1.8248    0.3424    3.9102 C   0  0  0  0  0  0  0  0  0  0  0  0
   -0.8774   -0.2723    3.4345 O   0  0  0  0  0  0  0  0  0  0  0  0
   -2.2566    0.0600    5.3109 C   0  0  0  0  0  0  0  0  0  0  0  0
   -3.0163   -0.7363    5.3643 H   0  0  0  0  0  0  0  0  0  0  0  0
   -1.4254   -0.2876    5.9452 H   0  0  0  0  0  0  0  0  0  0  0  0
   -2.6947    0.9149    5.8505 H   0  0  0  0  0  0  0  0  0  0  0  0
   -2.5745    1.3149    3.2691 N   0  0  0  0  0  0  0  0  0  0  0  0
   -2.3276    1.7409    1.9167 C   0  0  2  0  0  0  0  0  0  0  0  0
   -0.9926    1.1555    1.4755 C   0  0  0  0  0  0  0  0  0  0  0  0
   -0.1206    0.8028    2.2668 O   0  0  0  0  0  0  0  0  0  0  0  0
   -2.3188    3.2577    1.8072 C   0  0  0  0  0  0  0  0  0  0  0  0
   -3.3395    1.7507    3.7809 H   0  0  0  0  0  0  0  0  0  0  0  0
   -3.1317    1.3224    1.3015 H   0  0  0  0  0  0  0  0  0  0  0  0
   -1.5198    3.6949    2.4169 H   0  0  0  0  0  0  0  0  0  0  0  0
   -2.1594    3.5799    0.7729 H   0  0  0  0  0  0  0  0  0  0  0  0
   -3.2690    3.6789    2.1530 H   0  0  0  0  0  0  0  0  0  0  0  0
   -0.8700    1.1124    0.0921 N   0  0  0  0  0  0  0  0  0  0  0  0
    0.3073    0.6116   -0.5716 C   0  0  2  0  0  0  0  0  0  0  0  0
    1.5153    1.2088    0.1413 C   0  0  0  0  0  0  0  0  0  0  0  0
    1.6329    1.2185    1.3649 O   0  0  0  0  0  0  0  0  0  0  0  0
    0.3325    0.9772   -2.0601 C   0  0  0  0  0  0  0  0  0  0  0  0
   -0.7527    0.2864   -2.8492 C   0  0  0  0  0  0  0  0  0  0  0  0
   -0.5789   -1.0325   -3.2688 C   0  0  0  0  0  0  0  0  0  0  0  0
   -1.9301    0.9673   -3.1588 C   0  0  0  0  0  0  0  0  0  0  0  0
   -1.5824   -1.6704   -3.9979 C   0  0  0  0  0  0  0  0  0  0  0  0
   -2.9337    0.3293   -3.8879 C   0  0  0  0  0  0  0  0  0  0  0  0
   -2.7598   -0.9896   -4.3074 C   0  0  0  0  0  0  0  0  0  0  0  0
   -1.6531    1.4091   -0.4852 H   0  0  0  0  0  0  0  0  0  0  0  0
    0.3077   -0.4754   -0.4291 H   0  0  0  0  0  0  0  0  0  0  0  0
    1.3132    0.7390   -2.4938 H   0  0  0  0  0  0  0  0  0  0  0  0
    0.2157    2.0612   -2.1909 H   0  0  0  0  0  0  0  0  0  0  0  0
    0.3351   -1.5708   -3.0321 H   0  0  0  0  0  0  0  0  0  0  0  0
   -2.0744    1.9950   -2.8360 H   0  0  0  0  0  0  0  0  0  0  0  0
   -1.4464   -2.6970   -4.3254 H   0  0  0  0  0  0  0  0  0  0  0  0
   -3.8497    0.8601   -4.1296 H   0  0  0  0  0  0  0  0  0  0  0  0
   -3.5405   -1.4860   -4.8763 H   0  0  0  0  0  0  0  0  0  0  0  0
    2.4649    1.6824   -0.7533 N   0  0  0  0  0  0  0  0  0  0  0  0
    3.7163    2.2769   -0.3416 C   0  0  2  0  0  0  0  0  0  0  0  0
    3.4097    3.3423    0.7027 C   0  0  0  0  0  0  0  0  0  0  0  0
    2.3116    3.8853    0.8047 O   0  0  0  0  0  0  0  0  0  0  0  0
    4.4610    2.8744   -1.5253 C   0  0  0  0  0  0  0  0  0  0  0  0
    2.2706    1.6075   -1.7475 H   0  0  0  0  0  0  0  0  0  0  0  0
    4.3110    1.4780    0.1146 H   0  0  0  0  0  0  0  0  0  0  0  0
    3.8806    3.6767   -1.9953 H   0  0  0  0  0  0  0  0  0  0  0  0
    5.4218    3.2990   -1.2162 H   0  0  0  0  0  0  0  0  0  0  0  0
    4.6543    2.1130   -2.2887 H   0  0  0  0  0  0  0  0  0  0  0  0
    4.5191    3.6463    1.4793 N   0  0  0  0  0  0  0  0  0  0  0  0
    4.4870    4.6354    2.5312 C   0  0  0  0  0  0  0  0  0  0  0  0
    5.3840    3.1329    1.3377 H   0  0  0  0  0  0  0  0  0  0  0  0
    4.7985    5.6104    2.1281 H   0  0  0  0  0  0  0  0  0  0  0  0
    3.4648    4.7134    2.9300 H   0  0  0  0  0  0  0  0  0  0  0  0
    5.1731    4.3358    3.3371 H   0  0  0  0  0  0  0  0  0  0  0  0
 25 27  1  0  0  0  0
 26 27  2  0  0  0  0
 23 25  2  0  0  0  0
 24 26  1  0  0  0  0
 22 23  1  0  0  0  0
 22 24  2  0  0  0  0
 21 22  1  0  0  0  0
  1  3  1  0  0  0  0
  1  7  1  0  0  0  0
  1  2  2  0  0  0  0
 38 39  1  0  0  0  0
 39 47  1  0  0  0  0
 39 40  2  0  0  0  0
  8  9  1  0  0  0  0
  9 17  1  0  0  0  0
  9 10  2  0  0  0  0
 18 19  1  0  0  0  0
 19 37  1  0  0  0  0
 19 20  2  0  0  0  0
 38 41  1  0  0  0  0
  8 11  1  0  0  0  0
 47 48  1  0  0  0  0
 18 21  1  0  0  0  0
 37 38  1  0  0  0  0
  7  8  1  0  0  0  0
 17 18  1  0  0  0  0
 27 36  1  0  0  0  0
 25 34  1  0  0  0  0
 26 35  1  0  0  0  0
 23 32  1  0  0  0  0
 24 33  1  0  0  0  0
  3  4  1  0  0  0  0
  3  5  1  0  0  0  0
  3  6  1  0  0  0  0
 41 44  1  0  0  0  0
 41 45  1  0  0  0  0
 41 46  1  0  0  0  0
 11 14  1  0  0  0  0
 11 15  1  0  0  0  0
 11 16  1  0  0  0  0
 48 50  1  0  0  0  0
 48 51  1  0  0  0  0
 48 52  1  0  0  0  0
 21 30  1  0  0  0  0
 21 31  1  0  0  0  0
 38 43  1  0  0  0  0
  8 13  1  0  0  0  0
 18 29  1  0  0  0  0
 47 49  1  0  0  0  0
  7 12  1  0  0  0  0
 37 42  1  0  0  0  0
 17 28  1  0  0  0  0
M  END
$$$$

  -OEChem-05262214473D

 52 52  0     1  0  0  0  0  0999 V2000
   -1.8248    0.3424    3.9102 C   0  0  0  0  0  0  0  0  0  0  0  0
   -0.8774   -0.2723    3.4345 O   0  0  0  0  0  0  0  0  0  0  0  0
   -2.2566    0.0600    5.3109 C   0  0  0  0  0  0  0  0  0  0  0  0
   -3.0163   -0.7363    5.3643 H   0  0  0  0  0  0  0  0  0  0  0  0
   -1.4254   -0.2876    5.9452 H   0  0  0  0  0  0  0  0  0  0  0  0
   -2.6947    0.9149    5.8505 H   0  0  0  0  0  0  0  0  0  0  0  0
   -2.5745    1.3149    3.2691 N   0  0  0  0  0  0  0  0  0  0  0  0
   -2.3276    1.7409    1.9167 C   0  0  2  0  0  0  0  0  0  0  0  0
   -0.9926    1.1555    1.4755 C   0  0  0  0  0  0  0  0  0  0  0  0
   -0.1206    0.8028    2.2668 O   0  0  0  0  0  0  0  0  0  0  0  0
   -2.3188    3.2577    1.8072 C   0  0  0  0  0  0  0  0  0  0  0  0
   -3.3395    1.7507    3.7809 H   0  0  0  0  0  0  0  0  0  0  0  0
   -3.1317    1.3224    1.3015 H   0  0  0  0  0  0  0  0  0  0  0  0
   -1.5198    3.6949    2.4169 H   0  0  0  0  0  0  0  0  0  0  0  0
   -2.1594    3.5799    0.7729 H   0  0  0  0  0  0  0  0  0  0  0  0
   -3.2690    3.6789    2.1530 H   0  0  0  0  0  0  0  0  0  0  0  0
   -0.8700    1.1124    0.0921 N   0  0  0  0  0  0  0  0  0  0  0  0
    0.3073    0.6116   -0.5716 C   0  0  2  0  0  0  0  0  0  0  0  0
    1.5153    1.2088    0.1413 C   0  0  0  0  0  0  0  0  0  0  0  0
    1.7699    0.9904    1.3239 O   0  0  0  0  0  0  0  0  0  0  0  0
    0.3325    0.9772   -2.0601 C   0  0  0  0  0  0  0  0  0  0  0  0
   -0.7527    0.2864   -2.8492 C   0  0  0  0  0  0  0  0  0  0  0  0
   -0.5789   -1.0325   -3.2688 C   0  0  0  0  0  0  0  0  0  0  0  0
   -1.9301    0.9673   -3.1588 C   0  0  0  0  0  0  0  0  0  0  0  0
   -1.5824   -1.6704   -3.9979 C   0  0  0  0  0  0  0  0  0  0  0  0
   -2.9337    0.3293   -3.8879 C   0  0  0  0  0  0  0  0  0  0  0  0
   -2.7598   -0.9896   -4.3074 C   0  0  0  0  0  0  0  0  0  0  0  0
   -1.6531    1.4091   -0.4852 H   0  0  0  0  0  0  0  0  0  0  0  0
    0.3077   -0.4754   -0.4291 H   0  0  0  0  0  0  0  0  0  0  0  0
    1.3132    0.7390   -2.4938 H   0  0  0  0  0  0  0  0  0  0  0  0
    0.2157    2.0612   -2.1909 H   0  0  0  0  0  0  0  0  0  0  0  0
    0.3351   -1.5708   -3.0321 H   0  0  0  0  0  0  0  0  0  0  0  0
   -2.0744    1.9950   -2.8360 H   0  0  0  0  0  0  0  0  0  0  0  0
   -1.4464   -2.6970   -4.3254 H   0  0  0  0  0  0  0  0  0  0  0  0
   -3.8497    0.8601   -4.1296 H   0  0  0  0  0  0  0  0  0  0  0  0
   -3.5405   -1.4860   -4.8763 H   0  0  0  0  0  0  0  0  0  0  0  0
    2.2986    1.9716   -0.7137 N   0  0  0  0  0  0  0  0  0  0  0  0
    3.5153    2.6318   -0.2984 C   0  0  2  0  0  0  0  0  0  0  0  0
    3.2141    3.4184    0.9705 C   0  0  0  0  0  0  0  0  0  0  0  0
    2.0815    3.7809    1.2819 O   0  0  0  0  0  0  0  0  0  0  0  0
    4.0496    3.5454   -1.3904 C   0  0  0  0  0  0  0  0  0  0  0  0
    2.0016    2.0710   -1.6800 H   0  0  0  0  0  0  0  0  0  0  0  0
    4.2427    1.8435   -0.0760 H   0  0  0  0  0  0  0  0  0  0  0  0
    3.3344    4.3417   -1.6268 H   0  0  0  0  0  0  0  0  0  0  0  0
    4.9866    4.0228   -1.0851 H   0  0  0  0  0  0  0  0  0  0  0  0
    4.2376    2.9833   -2.3115 H   0  0  0  0  0  0  0  0  0  0  0  0
    4.3643    3.7052    1.6922 N   0  0  0  0  0  0  0  0  0  0  0  0
    4.3433    4.4525    2.9280 C   0  0  0  0  0  0  0  0  0  0  0  0
    5.2588    3.3486    1.3691 H   0  0  0  0  0  0  0  0  0  0  0  0
    4.4972    5.5204    2.7140 H   0  0  0  0  0  0  0  0  0  0  0  0
    3.3709    4.3143    3.4233 H   0  0  0  0  0  0  0  0  0  0  0  0
    5.1457    4.0916    3.5882 H   0  0  0  0  0  0  0  0  0  0  0  0
 25 27  1  0  0  0  0
 26 27  2  0  0  0  0
 23 25  2  0  0  0  0
 24 26  1  0  0  0  0
 22 23  1  0  0  0  0
 22 24  2  0  0  0  0
 21 22  1  0  0  0  0
  1  3  1  0  0  0  0
  1  7  1  0  0  0  0
  1  2  2  0  0  0  0
 38 39  1  0  0  0  0
 39 47  1  0  0  0  0
 39 40  2  0  0  0  0
  8  9  1  0  0  0  0
  9 17  1  0  0  0  0
  9 10  2  0  0  0  0
 18 19  1  0  0  0  0
 19 37  1  0  0  0  0
 19 20  2  0  0  0  0
 38 41  1  0  0  0  0
  8 11  1  0  0  0  0
 47 48  1  0  0  0  0
 18 21  1  0  0  0  0
 37 38  1  0  0  0  0
  7  8  1  0  0  0  0
 17 18  1  0  0  0  0
 27 36  1  0  0  0  0
 25 34  1  0  0  0  0
 26 35  1  0  0  0  0
 23 32  1  0  0  0  0
 24 33  1  0  0  0  0
  3  4  1  0  0  0  0
  3  5  1  0  0  0  0
  3  6  1  0  0  0  0
 41 44  1  0  0  0  0
 41 45  1  0  0  0  0
 41 46  1  0  0  0  0
 11 14  1  0  0  0  0
 11 15  1  0  0  0  0
 11 16  1  0  0  0  0
 48 50  1  0  0  0  0
 48 51  1  0  0  0  0
 48 52  1  0  0  0  0
 21 30  1  0  0  0  0
 21 31  1  0  0  0  0
 38 43  1  0  0  0  0
  8 13  1  0  0  0  0
 18 29  1  0  0  0  0
 47 49  1  0  0  0  0
  7 12  1  0  0  0  0
 37 42  1  0  0  0  0
 17 28  1  0  0  0  0
M  END
$$$$

  -OEChem-05262214473D

 52 52  0     1  0  0  0  0  0999 V2000
   -1.8248    0.3424    3.9102 C   0  0  0  0  0  0  0  0  0  0  0  0
   -0.8774   -0.2723    3.4345 O   0  0  0  0  0  0  0  0  0  0  0  0
   -2.2566    0.0600    5.3109 C   0  0  0  0  0  0  0  0  0  0  0  0
   -3.0163   -0.7363    5.3643 H   0  0  0  0  0  0  0  0  0  0  0  0
   -1.4254   -0.2876    5.9452 H   0  0  0  0  0  0  0  0  0  0  0  0
   -2.6947    0.9149    5.8505 H   0  0  0  0  0  0  0  0  0  0  0  0
   -2.5745    1.3149    3.2691 N   0  0  0  0  0  0  0  0  0  0  0  0
   -2.3276    1.7409    1.9167 C   0  0  2  0  0  0  0  0  0  0  0  0
   -0.9926    1.1555    1.4755 C   0  0  0  0  0  0  0  0  0  0  0  0
   -0.1206    0.8028    2.2668 O   0  0  0  0  0  0  0  0  0  0  0  0
   -2.3188    3.2577    1.8072 C   0  0  0  0  0  0  0  0  0  0  0  0
   -3.3395    1.7507    3.7809 H   0  0  0  0  0  0  0  0  0  0  0  0
   -3.1317    1.3224    1.3015 H   0  0  0  0  0  0  0  0  0  0  0  0
   -1.5198    3.6949    2.4169 H   0  0  0  0  0  0  0  0  0  0  0  0
   -2.1594    3.5799    0.7729 H   0  0  0  0  0  0  0  0  0  0  0  0
   -3.2690    3.6789    2.1530 H   0  0  0  0  0  0  0  0  0  0  0  0
   -0.8700    1.1124    0.0921 N   0  0  0  0  0  0  0  0  0  0  0  0
    0.3073    0.6116   -0.5716 C   0  0  2  0  0  0  0  0  0  0  0  0
    1.5153    1.2088    0.1413 C   0  0  0  0  0  0  0  0  0  0  0  0
    1.9256    0.7950    1.2237 O   0  0  0  0  0  0  0  0  0  0  0  0
    0.3325    0.9772   -2.0601 C   0  0  0  0  0  0  0  0  0  0  0  0
   -0.7527    0.2864   -2.8492 C   0  0  0  0  0  0  0  0  0  0  0  0
   -0.5789   -1.0325   -3.2688 C   0  0  0  0  0  0  0  0  0  0  0  0
   -1.9301    0.9673   -3.1588 C   0  0  0  0  0  0  0  0  0  0  0  0
   -1.5824   -1.6704   -3.9979 C   0  0  0  0  0  0  0  0  0  0  0  0
   -2.9337    0.3293   -3.8879 C   0  0  0  0  0  0  0  0  0  0  0  0
   -2.7598   -0.9896   -4.3074 C   0  0  0  0  0  0  0  0  0  0  0  0
   -1.6531    1.4091   -0.4852 H   0  0  0  0  0  0  0  0  0  0  0  0
    0.3077   -0.4754   -0.4291 H   0  0  0  0  0  0  0  0  0  0  0  0
    1.3132    0.7390   -2.4938 H   0  0  0  0  0  0  0  0  0  0  0  0
    0.2157    2.0612   -2.1909 H   0  0  0  0  0  0  0  0  0  0  0  0
    0.3351   -1.5708   -3.0321 H   0  0  0  0  0  0  0  0  0  0  0  0
   -2.0744    1.9950   -2.8360 H   0  0  0  0  0  0  0  0  0  0  0  0
   -1.4464   -2.6970   -4.3254 H   0  0  0  0  0  0  0  0  0  0  0  0
   -3.8497    0.8601   -4.1296 H   0  0  0  0  0  0  0  0  0  0  0  0
   -3.5405   -1.4860   -4.8763 H   0  0  0  0  0  0  0  0  0  0  0  0
    2.1069    2.2227   -0.5992 N   0  0  0  0  0  0  0  0  0  0  0  0
    3.2826    2.9414   -0.1635 C   0  0  2  0  0  0  0  0  0  0  0  0
    3.0430    3.4134    1.2646 C   0  0  0  0  0  0  0  0  0  0  0  0
    1.9203    3.5545    1.7449 O   0  0  0  0  0  0  0  0  0  0  0  0
    3.5848    4.1161   -1.0807 C   0  0  0  0  0  0  0  0  0  0  0  0
    1.6926    2.4723   -1.4925 H   0  0  0  0  0  0  0  0  0  0  0  0
    4.1133    2.2273   -0.1781 H   0  0  0  0  0  0  0  0  0  0  0  0
    2.7637    4.8423   -1.0791 H   0  0  0  0  0  0  0  0  0  0  0  0
    4.4919    4.6423   -0.7658 H   0  0  0  0  0  0  0  0  0  0  0  0
    3.7274    3.7781   -2.1128 H   0  0  0  0  0  0  0  0  0  0  0  0
    4.2292    3.6998    1.9256 N   0  0  0  0  0  0  0  0  0  0  0  0
    4.2668    4.1770    3.2883 C   0  0  0  0  0  0  0  0  0  0  0  0
    5.1150    3.5354    1.4564 H   0  0  0  0  0  0  0  0  0  0  0  0
    4.2764    5.2769    3.2920 H   0  0  0  0  0  0  0  0  0  0  0  0
    3.3785    3.8164    3.8275 H   0  0  0  0  0  0  0  0  0  0  0  0
    5.1742    3.8008    3.7834 H   0  0  0  0  0  0  0  0  0  0  0  0
 25 27  1  0  0  0  0
 26 27  2  0  0  0  0
 23 25  2  0  0  0  0
 24 26  1  0  0  0  0
 22 23  1  0  0  0  0
 22 24  2  0  0  0  0
 21 22  1  0  0  0  0
  1  3  1  0  0  0  0
  1  7  1  0  0  0  0
  1  2  2  0  0  0  0
 38 39  1  0  0  0  0
 39 47  1  0  0  0  0
 39 40  2  0  0  0  0
  8  9  1  0  0  0  0
  9 17  1  0  0  0  0
  9 10  2  0  0  0  0
 18 19  1  0  0  0  0
 19 37  1  0  0  0  0
 19 20  2  0  0  0  0
 38 41  1  0  0  0  0
  8 11  1  0  0  0  0
 47 48  1  0  0  0  0
 18 21  1  0  0  0  0
 37 38  1  0  0  0  0
  7  8  1  0  0  0  0
 17 18  1  0  0  0  0
 27 36  1  0  0  0  0
 25 34  1  0  0  0  0
 26 35  1  0  0  0  0
 23 32  1  0  0  0  0
 24 33  1  0  0  0  0
  3  4  1  0  0  0  0
  3  5  1  0  0  0  0
  3  6  1  0  0  0  0
 41 44  1  0  0  0  0
 41 45  1  0  0  0  0
 41 46  1  0  0  0  0
 11 14  1  0  0  0  0
 11 15  1  0  0  0  0
 11 16  1  0  0  0  0
 48 50  1  0  0  0  0
 48 51  1  0  0  0  0
 48 52  1  0  0  0  0
 21 30  1  0  0  0  0
 21 31  1  0  0  0  0
 38 43  1  0  0  0  0
  8 13  1  0  0  0  0
 18 29  1  0  0  0  0
 47 49  1  0  0  0  0
  7 12  1  0  0  0  0
 37 42  1  0  0  0  0
 17 28  1  0  0  0  0
M  END
$$$$

  -OEChem-05262214473D

 52 52  0     1  0  0  0  0  0999 V2000
   -1.8248    0.3424    3.9102 C   0  0  0  0  0  0  0  0  0  0  0  0
   -0.8774   -0.2723    3.4345 O   0  0  0  0  0  0  0  0  0  0  0  0
   -2.2566    0.0600    5.3109 C   0  0  0  0  0  0  0  0  0  0  0  0
   -3.0163   -0.7363    5.3643 H   0  0  0  0  0  0  0  0  0  0  0  0
   -1.4254   -0.2876    5.9452 H   0  0  0  0  0  0  0  0  0  0  0  0
   -2.6947    0.9149    5.8505 H   0  0  0  0  0  0  0  0  0  0  0  0
   -2.5745    1.3149    3.2691 N   0  0  0  0  0  0  0  0  0  0  0  0
   -2.3276    1.7409    1.9167 C   0  0  2  0  0  0  0  0  0  0  0  0
   -0.9926    1.1555    1.4755 C   0  0  0  0  0  0  0  0  0  0  0  0
   -0.1206    0.8028    2.2668 O   0  0  0  0  0  0  0  0  0  0  0  0
   -2.3188    3.2577    1.8072 C   0  0  0  0  0  0  0  0  0  0  0  0
   -3.3395    1.7507    3.7809 H   0  0  0  0  0  0  0  0  0  0  0  0
   -3.1317    1.3224    1.3015 H   0  0  0  0  0  0  0  0  0  0  0  0
   -1.5198    3.6949    2.4169 H   0  0  0  0  0  0  0  0  0  0  0  0
   -2.1594    3.5799    0.7729 H   0  0  0  0  0  0  0  0  0  0  0  0
   -3.2690    3.6789    2.1530 H   0  0  0  0  0  0  0  0  0  0  0  0
   -0.8700    1.1124    0.0921 N   0  0  0  0  0  0  0  0  0  0  0  0
    0.3073    0.6116   -0.5716 C   0  0  2  0  0  0  0  0  0  0  0  0
    1.5153    1.2088    0.1413 C   0  0  0  0  0  0  0  0  0  0  0  0
    2.0895    0.6457    1.0710 O   0  0  0  0  0  0  0  0  0  0  0  0
    0.3325    0.9772   -2.0601 C   0  0  0  0  0  0  0  0  0  0  0  0
   -0.7527    0.2864   -2.8492 C   0  0  0  0  0  0  0  0  0  0  0  0
   -0.5789   -1.0325   -3.2688 C   0  0  0  0  0  0  0  0  0  0  0  0
   -1.9301    0.9673   -3.1588 C   0  0  0  0  0  0  0  0  0  0  0  0
   -1.5824   -1.6704   -3.9979 C   0  0  0  0  0  0  0  0  0  0  0  0
   -2.9337    0.3293   -3.8879 C   0  0  0  0  0  0  0  0  0  0  0  0
   -2.7598   -0.9896   -4.3074 C   0  0  0  0  0  0  0  0  0  0  0  0
   -1.6531    1.4091   -0.4852 H   0  0  0  0  0  0  0  0  0  0  0  0
    0.3077   -0.4754   -0.4291 H   0  0  0  0  0  0  0  0  0  0  0  0
    1.3132    0.7390   -2.4938 H   0  0  0  0  0  0  0  0  0  0  0  0
    0.2157    2.0612   -2.1909 H   0  0  0  0  0  0  0  0  0  0  0  0
    0.3351   -1.5708   -3.0321 H   0  0  0  0  0  0  0  0  0  0  0  0
   -2.0744    1.9950   -2.8360 H   0  0  0  0  0  0  0  0  0  0  0  0
   -1.4464   -2.6970   -4.3254 H   0  0  0  0  0  0  0  0  0  0  0  0
   -3.8497    0.8601   -4.1296 H   0  0  0  0  0  0  0  0  0  0  0  0
   -3.5405   -1.4860   -4.8763 H   0  0  0  0  0  0  0  0  0  0  0  0
    1.9029    2.4186   -0.4177 N   0  0  0  0  0  0  0  0  0  0  0  0
    3.0341    3.1846    0.0539 C   0  0  2  0  0  0  0  0  0  0  0  0
    2.9081    3.3275    1.5650 C   0  0  0  0  0  0  0  0  0  0  0  0
    1.8389    3.2212    2.1620 O   0  0  0  0  0  0  0  0  0  0  0  0
    3.0981    4.5476   -0.6175 C   0  0  0  0  0  0  0  0  0  0  0  0
    1.3645    2.7840   -1.1977 H   0  0  0  0  0  0  0  0  0  0  0  0
    3.9314    2.6034   -0.1850 H   0  0  0  0  0  0  0  0  0  0  0  0
    2.2074    5.1444   -0.3896 H   0  0  0  0  0  0  0  0  0  0  0  0
    3.9715    5.1154   -0.2803 H   0  0  0  0  0  0  0  0  0  0  0  0
    3.1586    4.4433   -1.7062 H   0  0  0  0  0  0  0  0  0  0  0  0
    4.1231    3.6303    2.1636 N   0  0  0  0  0  0  0  0  0  0  0  0
    4.2628    3.8277    3.5875 C   0  0  0  0  0  0  0  0  0  0  0  0
    4.9623    3.6806    1.5935 H   0  0  0  0  0  0  0  0  0  0  0  0
    4.1513    4.8965    3.8228 H   0  0  0  0  0  0  0  0  0  0  0  0
    3.4871    3.2534    4.1151 H   0  0  0  0  0  0  0  0  0  0  0  0
    5.2567    3.4834    3.9095 H   0  0  0  0  0  0  0  0  0  0  0  0
 25 27  1  0  0  0  0
 26 27  2  0  0  0  0
 23 25  2  0  0  0  0
 24 26  1  0  0  0  0
 22 23  1  0  0  0  0
 22 24  2  0  0  0  0
 21 22  1  0  0  0  0
  1  3  1  0  0  0  0
  1  7  1  0  0  0  0
  1  2  2  0  0  0  0
 38 39  1  0  0  0  0
 39 47  1  0  0  0  0
 39 40  2  0  0  0  0
  8  9  1  0  0  0  0
  9 17  1  0  0  0  0
  9 10  2  0  0  0  0
 18 19  1  0  0  0  0
 19 37  1  0  0  0  0
 19 20  2  0  0  0  0
 38 41  1  0  0  0  0
  8 11  1  0  0  0  0
 47 48  1  0  0  0  0
 18 21  1  0  0  0  0
 37 38  1  0  0  0  0
  7  8  1  0  0  0  0
 17 18  1  0  0  0  0
 27 36  1  0  0  0  0
 25 34  1  0  0  0  0
 26 35  1  0  0  0  0
 23 32  1  0  0  0  0
 24 33  1  0  0  0  0
  3  4  1  0  0  0  0
  3  5  1  0  0  0  0
  3  6  1  0  0  0  0
 41 44  1  0  0  0  0
 41 45  1  0  0  0  0
 41 46  1  0  0  0  0
 11 14  1  0  0  0  0
 11 15  1  0  0  0  0
 11 16  1  0  0  0  0
 48 50  1  0  0  0  0
 48 51  1  0  0  0  0
 48 52  1  0  0  0  0
 21 30  1  0  0  0  0
 21 31  1  0  0  0  0
 38 43  1  0  0  0  0
  8 13  1  0  0  0  0
 18 29  1  0  0  0  0
 47 49  1  0  0  0  0
  7 12  1  0  0  0  0
 37 42  1  0  0  0  0
 17 28  1  0  0  0  0
M  END
$$$$

  -OEChem-05262214473D

 52 52  0     1  0  0  0  0  0999 V2000
   -1.8248    0.3424    3.9102 C   0  0  0  0  0  0  0  0  0  0  0  0
   -0.8774   -0.2723    3.4345 O   0  0  0  0  0  0  0  0  0  0  0  0
   -2.2566    0.0600    5.3109 C   0  0  0  0  0  0  0  0  0  0  0  0
   -3.0163   -0.7363    5.3643 H   0  0  0  0  0  0  0  0  0  0  0  0
   -1.4254   -0.2876    5.9452 H   0  0  0  0  0  0  0  0  0  0  0  0
   -2.6947    0.9149    5.8505 H   0  0  0  0  0  0  0  0  0  0  0  0
   -2.5745    1.3149    3.2691 N   0  0  0  0  0  0  0  0  0  0  0  0
   -2.3276    1.7409    1.9167 C   0  0  2  0  0  0  0  0  0  0  0  0
   -0.9926    1.1555    1.4755 C   0  0  0  0  0  0  0  0  0  0  0  0
   -0.1206    0.8028    2.2668 O   0  0  0  0  0  0  0  0  0  0  0  0
   -2.3188    3.2577    1.8072 C   0  0  0  0  0  0  0  0  0  0  0  0
   -3.3395    1.7507    3.7809 H   0  0  0  0  0  0  0  0  0  0  0  0
   -3.1317    1.3224    1.3015 H   0  0  0  0  0  0  0  0  0  0  0  0
   -1.5198    3.6949    2.4169 H   0  0  0  0  0  0  0  0  0  0  0  0
   -2.1594    3.5799    0.7729 H   0  0  0  0  0  0  0  0  0  0  0  0
   -3.2690    3.6789    2.1530 H   0  0  0  0  0  0  0  0  0  0  0  0
   -0.8700    1.1124    0.0921 N   0  0  0  0  0  0  0  0  0  0  0  0
    0.3073    0.6116   -0.5716 C   0  0  2  0  0  0  0  0  0  0  0  0
    1.5153    1.2088    0.1413 C   0  0  0  0  0  0  0  0  0  0  0  0
    2.2504    0.5527    0.8763 O   0  0  0  0  0  0  0  0  0  0  0  0
    0.3325    0.9772   -2.0601 C   0  0  0  0  0  0  0  0  0  0  0  0
   -0.7527    0.2864   -2.8492 C   0  0  0  0  0  0  0  0  0  0  0  0
   -0.5789   -1.0325   -3.2688 C   0  0  0  0  0  0  0  0  0  0  0  0
   -1.9301    0.9673   -3.1588 C   0  0  0  0  0  0  0  0  0  0  0  0
   -1.5824   -1.6704   -3.9979 C   0  0  0  0  0  0  0  0  0  0  0  0
   -2.9337    0.3293   -3.8879 C   0  0  0  0  0  0  0  0  0  0  0  0
   -2.7598   -0.9896   -4.3074 C   0  0  0  0  0  0  0  0  0  0  0  0
   -1.6531    1.4091   -0.4852 H   0  0  0  0  0  0  0  0  0  0  0  0
    0.3077   -0.4754   -0.4291 H   0  0  0  0  0  0  0  0  0  0  0  0
    1.3132    0.7390   -2.4938 H   0  0  0  0  0  0  0  0  0  0  0  0
    0.2157    2.0612   -2.1909 H   0  0  0  0  0  0  0  0  0  0  0  0
    0.3351   -1.5708   -3.0321 H   0  0  0  0  0  0  0  0  0  0  0  0
   -2.0744    1.9950   -2.8360 H   0  0  0  0  0  0  0  0  0  0  0  0
   -1.4464   -2.6970   -4.3254 H   0  0  0  0  0  0  0  0  0  0  0  0
   -3.8497    0.8601   -4.1296 H   0  0  0  0  0  0  0  0  0  0  0  0
   -3.5405   -1.4860   -4.8763 H   0  0  0  0  0  0  0  0  0  0  0  0
    1.7007    2.5459   -0.1816 N   0  0  0  0  0  0  0  0  0  0  0  0
    2.7867    3.3449    0.3390 C   0  0  2  0  0  0  0  0  0  0  0  0
    2.8188    3.1666    1.8512 C   0  0  0  0  0  0  0  0  0  0  0  0
    1.8428    2.8040    2.5047 O   0  0  0  0  0  0  0  0  0  0  0  0
    2.6227    4.8105   -0.0322 C   0  0  0  0  0  0  0  0  0  0  0  0
    1.0398    2.9850   -0.8158 H   0  0  0  0  0  0  0  0  0  0  0  0
    3.7095    2.9460   -0.0960 H   0  0  0  0  0  0  0  0  0  0  0  0
    1.7033    5.2276    0.3948 H   0  0  0  0  0  0  0  0  0  0  0  0
    3.4608    5.4098    0.3385 H   0  0  0  0  0  0  0  0  0  0  0  0
    2.5699    4.9337   -1.1193 H   0  0  0  0  0  0  0  0  0  0  0  0
    4.0531    3.5016    2.3901 N   0  0  0  0  0  0  0  0  0  0  0  0
    4.3316    3.4285    3.8054 C   0  0  0  0  0  0  0  0  0  0  0  0
    4.8111    3.7742    1.7713 H   0  0  0  0  0  0  0  0  0  0  0  0
    4.1302    4.4050    4.2701 H   0  0  0  0  0  0  0  0  0  0  0  0
    3.6893    2.6637    4.2664 H   0  0  0  0  0  0  0  0  0  0  0  0
    5.3876    3.1609    3.9578 H   0  0  0  0  0  0  0  0  0  0  0  0
 25 27  1  0  0  0  0
 26 27  2  0  0  0  0
 23 25  2  0  0  0  0
 24 26  1  0  0  0  0
 22 23  1  0  0  0  0
 22 24  2  0  0  0  0
 21 22  1  0  0  0  0
  1  3  1  0  0  0  0
  1  7  1  0  0  0  0
  1  2  2  0  0  0  0
 38 39  1  0  0  0  0
 39 47  1  0  0  0  0
 39 40  2  0  0  0  0
  8  9  1  0  0  0  0
  9 17  1  0  0  0  0
  9 10  2  0  0  0  0
 18 19  1  0  0  0  0
 19 37  1  0  0  0  0
 19 20  2  0  0  0  0
 38 41  1  0  0  0  0
  8 11  1  0  0  0  0
 47 48  1  0  0  0  0
 18 21  1  0  0  0  0
 37 38  1  0  0  0  0
  7  8  1  0  0  0  0
 17 18  1  0  0  0  0
 27 36  1  0  0  0  0
 25 34  1  0  0  0  0
 26 35  1  0  0  0  0
 23 32  1  0  0  0  0
 24 33  1  0  0  0  0
  3  4  1  0  0  0  0
  3  5  1  0  0  0  0
  3  6  1  0  0  0  0
 41 44  1  0  0  0  0
 41 45  1  0  0  0  0
 41 46  1  0  0  0  0
 11 14  1  0  0  0  0
 11 15  1  0  0  0  0
 11 16  1  0  0  0  0
 48 50  1  0  0  0  0
 48 51  1  0  0  0  0
 48 52  1  0  0  0  0
 21 30  1  0  0  0  0
 21 31  1  0  0  0  0
 38 43  1  0  0  0  0
  8 13  1  0  0  0  0
 18 29  1  0  0  0  0
 47 49  1  0  0  0  0
  7 12  1  0  0  0  0
 37 42  1  0  0  0  0
 17 28  1  0  0  0  0
M  END
$$$$

  -OEChem-05262214473D

 52 52  0     1  0  0  0  0  0999 V2000
   -1.8248    0.3424    3.9102 C   0  0  0  0  0  0  0  0  0  0  0  0
   -0.8774   -0.2723    3.4345 O   0  0  0  0  0  0  0  0  0  0  0  0
   -2.2566    0.0600    5.3109 C   0  0  0  0  0  0  0  0  0  0  0  0
   -3.0163   -0.7363    5.3643 H   0  0  0  0  0  0  0  0  0  0  0  0
   -1.4254   -0.2876    5.9452 H   0  0  0  0  0  0  0  0  0  0  0  0
   -2.6947    0.9149    5.8505 H   0  0  0  0  0  0  0  0  0  0  0  0
   -2.5745    1.3149    3.2691 N   0  0  0  0  0  0  0  0  0  0  0  0
   -2.3276    1.7409    1.9167 C   0  0  2  0  0  0  0  0  0  0  0  0
   -0.9926    1.1555    1.4755 C   0  0  0  0  0  0  0  0  0  0  0  0
   -0.1206    0.8028    2.2668 O   0  0  0  0  0  0  0  0  0  0  0  0
   -2.3188    3.2577    1.8072 C   0  0  0  0  0  0  0  0  0  0  0  0
   -3.3395    1.7507    3.7809 H   0  0  0  0  0  0  0  0  0  0  0  0
   -3.1317    1.3224    1.3015 H   0  0  0  0  0  0  0  0  0  0  0  0
   -1.5198    3.6949    2.4169 H   0  0  0  0  0  0  0  0  0  0  0  0
   -2.1594    3.5799    0.7729 H   0  0  0  0  0  0  0  0  0  0  0  0
   -3.2690    3.6789    2.1530 H   0  0  0  0  0  0  0  0  0  0  0  0
   -0.8700    1.1124    0.0921 N   0  0  0  0  0  0  0  0  0  0  0  0
    0.3073    0.6116   -0.5716 C   0  0  2  0  0  0  0  0  0  0  0  0
    1.5153    1.2088    0.1413 C   0  0  0  0  0  0  0  0  0  0  0  0
    2.3973    0.5222    0.6528 O   0  0  0  0  0  0  0  0  0  0  0  0
    0.3325    0.9772   -2.0601 C   0  0  0  0  0  0  0  0  0  0  0  0
   -0.7527    0.2864   -2.8492 C   0  0  0  0  0  0  0  0  0  0  0  0
   -0.5789   -1.0325   -3.2688 C   0  0  0  0  0  0  0  0  0  0  0  0
   -1.9301    0.9673   -3.1588 C   0  0  0  0  0  0  0  0  0  0  0  0
   -1.5824   -1.6704   -3.9979 C   0  0  0  0  0  0  0  0  0  0  0  0
   -2.9337    0.3293   -3.8879 C   0  0  0  0  0  0  0  0  0  0  0  0
   -2.7598   -0.9896   -4.3074 C   0  0  0  0  0  0  0  0  0  0  0  0
   -1.6531    1.4091   -0.4852 H   0  0  0  0  0  0  0  0  0  0  0  0
    0.3077   -0.4754   -0.4291 H   0  0  0  0  0  0  0  0  0  0  0  0
    1.3132    0.7390   -2.4938 H   0  0  0  0  0  0  0  0  0  0  0  0
    0.2157    2.0612   -2.1909 H   0  0  0  0  0  0  0  0  0  0  0  0
    0.3351   -1.5708   -3.0321 H   0  0  0  0  0  0  0  0  0  0  0  0
   -2.0744    1.9950   -2.8360 H   0  0  0  0  0  0  0  0  0  0  0  0
   -1.4464   -2.6970   -4.3254 H   0  0  0  0  0  0  0  0  0  0  0  0
   -3.8497    0.8601   -4.1296 H   0  0  0  0  0  0  0  0  0  0  0  0
   -3.5405   -1.4860   -4.8763 H   0  0  0  0  0  0  0  0  0  0  0  0
    1.5138    2.5959    0.0931 N   0  0  0  0  0  0  0  0  0  0  0  0
    2.5571    3.4113    0.6723 C   0  0  2  0  0  0  0  0  0  0  0  0
    2.7809    2.9417    2.1037 C   0  0  0  0  0  0  0  0  0  0  0  0
    1.9319    2.3311    2.7499 O   0  0  0  0  0  0  0  0  0  0  0  0
    2.1910    4.8868    0.6353 C   0  0  0  0  0  0  0  0  0  0  0  0
    0.7405    3.0615   -0.3727 H   0  0  0  0  0  0  0  0  0  0  0  0
    3.4628    3.2319    0.0827 H   0  0  0  0  0  0  0  0  0  0  0  0
    1.2860    5.0860    1.2207 H   0  0  0  0  0  0  0  0  0  0  0  0
    2.9946    5.5055    1.0484 H   0  0  0  0  0  0  0  0  0  0  0  0
    2.0013    5.2157   -0.3922 H   0  0  0  0  0  0  0  0  0  0  0  0
    4.0240    3.3223    2.5895 N   0  0  0  0  0  0  0  0  0  0  0  0
    4.4685    3.0066    3.9270 C   0  0  0  0  0  0  0  0  0  0  0  0
    4.6718    3.8098    1.9775 H   0  0  0  0  0  0  0  0  0  0  0  0
    4.2147    3.8360    4.6035 H   0  0  0  0  0  0  0  0  0  0  0  0
    3.9713    2.0876    4.2711 H   0  0  0  0  0  0  0  0  0  0  0  0
    5.5580    2.8553    3.9250 H   0  0  0  0  0  0  0  0  0  0  0  0
 25 27  1  0  0  0  0
 26 27  2  0  0  0  0
 23 25  2  0  0  0  0
 24 26  1  0  0  0  0
 22 23  1  0  0  0  0
 22 24  2  0  0  0  0
 21 22  1  0  0  0  0
  1  3  1  0  0  0  0
  1  7  1  0  0  0  0
  1  2  2  0  0  0  0
 38 39  1  0  0  0  0
 39 47  1  0  0  0  0
 39 40  2  0  0  0  0
  8  9  1  0  0  0  0
  9 17  1  0  0  0  0
  9 10  2  0  0  0  0
 18 19  1  0  0  0  0
 19 37  1  0  0  0  0
 19 20  2  0  0  0  0
 38 41  1  0  0  0  0
  8 11  1  0  0  0  0
 47 48  1  0  0  0  0
 18 21  1  0  0  0  0
 37 38  1  0  0  0  0
  7  8  1  0  0  0  0
 17 18  1  0  0  0  0
 27 36  1  0  0  0  0
 25 34  1  0  0  0  0
 26 35  1  0  0  0  0
 23 32  1  0  0  0  0
 24 33  1  0  0  0  0
  3  4  1  0  0  0  0
  3  5  1  0  0  0  0
  3  6  1  0  0  0  0
 41 44  1  0  0  0  0
 41 45  1  0  0  0  0
 41 46  1  0  0  0  0
 11 14  1  0  0  0  0
 11 15  1  0  0  0  0
 11 16  1  0  0  0  0
 48 50  1  0  0  0  0
 48 51  1  0  0  0  0
 48 52  1  0  0  0  0
 21 30  1  0  0  0  0
 21 31  1  0  0  0  0
 38 43  1  0  0  0  0
  8 13  1  0  0  0  0
 18 29  1  0  0  0  0
 47 49  1  0  0  0  0
  7 12  1  0  0  0  0
 37 42  1  0  0  0  0
 17 28  1  0  0  0  0
M  END
$$$$

  -OEChem-05262214473D

 52 52  0     1  0  0  0  0  0999 V2000
   -1.8248    0.3424    3.9102 C   0  0  0  0  0  0  0  0  0  0  0  0
   -0.8774   -0.2723    3.4345 O   0  0  0  0  0  0  0  0  0  0  0  0
   -2.2566    0.0600    5.3109 C   0  0  0  0  0  0  0  0  0  0  0  0
   -3.0163   -0.7363    5.3643 H   0  0  0  0  0  0  0  0  0  0  0  0
   -1.4254   -0.2876    5.9452 H   0  0  0  0  0  0  0  0  0  0  0  0
   -2.6947    0.9149    5.8505 H   0  0  0  0  0  0  0  0  0  0  0  0
   -2.5745    1.3149    3.2691 N   0  0  0  0  0  0  0  0  0  0  0  0
   -2.3276    1.7409    1.9167 C   0  0  2  0  0  0  0  0  0  0  0  0
   -0.9926    1.1555    1.4755 C   0  0  0  0  0  0  0  0  0  0  0  0
   -0.1206    0.8028    2.2668 O   0  0  0  0  0  0  0  0  0  0  0  0
   -2.3188    3.2577    1.8072 C   0  0  0  0  0  0  0  0  0  0  0  0
   -3.3395    1.7507    3.7809 H   0  0  0  0  0  0  0  0  0  0  0  0
   -3.1317    1.3224    1.3015 H   0  0  0  0  0  0  0  0  0  0  0  0
   -1.5198    3.6949    2.4169 H   0  0  0  0  0  0  0  0  0  0  0  0
   -2.1594    3.5799    0.7729 H   0  0  0  0  0  0  0  0  0  0  0  0
   -3.2690    3.6789    2.1530 H   0  0  0  0  0  0  0  0  0  0  0  0
   -0.8700    1.1124    0.0921 N   0  0  0  0  0  0  0  0  0  0  0  0
    0.3073    0.6116   -0.5716 C   0  0  2  0  0  0  0  0  0  0  0  0
    1.5153    1.2088    0.1413 C   0  0  0  0  0  0  0  0  0  0  0  0
    2.5203    0.5564    0.4158 O   0  0  0  0  0  0  0  0  0  0  0  0
    0.3325    0.9772   -2.0601 C   0  0  0  0  0  0  0  0  0  0  0  0
   -0.7527    0.2864   -2.8492 C   0  0  0  0  0  0  0  0  0  0  0  0
   -0.5789   -1.0325   -3.2688 C   0  0  0  0  0  0  0  0  0  0  0  0
   -1.9301    0.9673   -3.1588 C   0  0  0  0  0  0  0  0  0  0  0  0
   -1.5824   -1.6704   -3.9979 C   0  0  0  0  0  0  0  0  0  0  0  0
   -2.9337    0.3293   -3.8879 C   0  0  0  0  0  0  0  0  0  0  0  0
   -2.7598   -0.9896   -4.3074 C   0  0  0  0  0  0  0  0  0  0  0  0
   -1.6531    1.4091   -0.4852 H   0  0  0  0  0  0  0  0  0  0  0  0
    0.3077   -0.4754   -0.4291 H   0  0  0  0  0  0  0  0  0  0  0  0
    1.3132    0.7390   -2.4938 H   0  0  0  0  0  0  0  0  0  0  0  0
    0.2157    2.0612   -2.1909 H   0  0  0  0  0  0  0  0  0  0  0  0
    0.3351   -1.5708   -3.0321 H   0  0  0  0  0  0  0  0  0  0  0  0
   -2.0744    1.9950   -2.8360 H   0  0  0  0  0  0  0  0  0  0  0  0
   -1.4464   -2.6970   -4.3254 H   0  0  0  0  0  0  0  0  0  0  0  0
   -3.8497    0.8601   -4.1296 H   0  0  0  0  0  0  0  0  0  0  0  0
   -3.5405   -1.4860   -4.8763 H   0  0  0  0  0  0  0  0  0  0  0  0
    1.3551    2.5653    0.3877 N   0  0  0  0  0  0  0  0  0  0  0  0
    2.3612    3.3793    1.0312 C   0  0  2  0  0  0  0  0  0  0  0  0
    2.7972    2.6680    2.3053 C   0  0  0  0  0  0  0  0  0  0  0  0
    2.1001    1.8349    2.8806 O   0  0  0  0  0  0  0  0  0  0  0  0
    1.8325    4.7714    1.3395 C   0  0  0  0  0  0  0  0  0  0  0  0
    0.4871    3.0083    0.1013 H   0  0  0  0  0  0  0  0  0  0  0  0
    3.2079    3.4415    0.3389 H   0  0  0  0  0  0  0  0  0  0  0  0
    0.9837    4.7293    2.0317 H   0  0  0  0  0  0  0  0  0  0  0  0
    2.6046    5.3959    1.8010 H   0  0  0  0  0  0  0  0  0  0  0  0
    1.4918    5.2701    0.4257 H   0  0  0  0  0  0  0  0  0  0  0  0
    4.0379    3.1047    2.7483 N   0  0  0  0  0  0  0  0  0  0  0  0
    4.6640    2.5906    3.9440 C   0  0  0  0  0  0  0  0  0  0  0  0
    4.5538    3.7851    2.1982 H   0  0  0  0  0  0  0  0  0  0  0  0
    4.3991    3.2282    4.8003 H   0  0  0  0  0  0  0  0  0  0  0  0
    4.3139    1.5644    4.1289 H   0  0  0  0  0  0  0  0  0  0  0  0
    5.7562    2.5875    3.8134 H   0  0  0  0  0  0  0  0  0  0  0  0
 25 27  1  0  0  0  0
 26 27  2  0  0  0  0
 23 25  2  0  0  0  0
 24 26  1  0  0  0  0
 22 23  1  0  0  0  0
 22 24  2  0  0  0  0
 21 22  1  0  0  0  0
  1  3  1  0  0  0  0
  1  7  1  0  0  0  0
  1  2  2  0  0  0  0
 38 39  1  0  0  0  0
 39 47  1  0  0  0  0
 39 40  2  0  0  0  0
  8  9  1  0  0  0  0
  9 17  1  0  0  0  0
  9 10  2  0  0  0  0
 18 19  1  0  0  0  0
 19 37  1  0  0  0  0
 19 20  2  0  0  0  0
 38 41  1  0  0  0  0
  8 11  1  0  0  0  0
 47 48  1  0  0  0  0
 18 21  1  0  0  0  0
 37 38  1  0  0  0  0
  7  8  1  0  0  0  0
 17 18  1  0  0  0  0
 27 36  1  0  0  0  0
 25 34  1  0  0  0  0
 26 35  1  0  0  0  0
 23 32  1  0  0  0  0
 24 33  1  0  0  0  0
  3  4  1  0  0  0  0
  3  5  1  0  0  0  0
  3  6  1  0  0  0  0
 41 44  1  0  0  0  0
 41 45  1  0  0  0  0
 41 46  1  0  0  0  0
 11 14  1  0  0  0  0
 11 15  1  0  0  0  0
 11 16  1  0  0  0  0
 48 50  1  0  0  0  0
 48 51  1  0  0  0  0
 48 52  1  0  0  0  0
 21 30  1  0  0  0  0
 21 31  1  0  0  0  0
 38 43  1  0  0  0  0
  8 13  1  0  0  0  0
 18 29  1  0  0  0  0
 47 49  1  0  0  0  0
  7 12  1  0  0  0  0
 37 42  1  0  0  0  0
 17 28  1  0  0  0  0
M  END
$$$$

  -OEChem-05262214473D

 52 52  0     1  0  0  0  0  0999 V2000
   -1.8248    0.3424    3.9102 C   0  0  0  0  0  0  0  0  0  0  0  0
   -0.8774   -0.2723    3.4345 O   0  0  0  0  0  0  0  0  0  0  0  0
   -2.2566    0.0600    5.3109 C   0  0  0  0  0  0  0  0  0  0  0  0
   -3.0163   -0.7363    5.3643 H   0  0  0  0  0  0  0  0  0  0  0  0
   -1.4254   -0.2876    5.9452 H   0  0  0  0  0  0  0  0  0  0  0  0
   -2.6947    0.9149    5.8505 H   0  0  0  0  0  0  0  0  0  0  0  0
   -2.5745    1.3149    3.2691 N   0  0  0  0  0  0  0  0  0  0  0  0
   -2.3276    1.7409    1.9167 C   0  0  2  0  0  0  0  0  0  0  0  0
   -0.9926    1.1555    1.4755 C   0  0  0  0  0  0  0  0  0  0  0  0
   -0.1206    0.8028    2.2668 O   0  0  0  0  0  0  0  0  0  0  0  0
   -2.3188    3.2577    1.8072 C   0  0  0  0  0  0  0  0  0  0  0  0
   -3.3395    1.7507    3.7809 H   0  0  0  0  0  0  0  0  0  0  0  0
   -3.1317    1.3224    1.3015 H   0  0  0  0  0  0  0  0  0  0  0  0
   -1.5198    3.6949    2.4169 H   0  0  0  0  0  0  0  0  0  0  0  0
   -2.1594    3.5799    0.7729 H   0  0  0  0  0  0  0  0  0  0  0  0
   -3.2690    3.6789    2.1530 H   0  0  0  0  0  0  0  0  0  0  0  0
   -0.8700    1.1124    0.0921 N   0  0  0  0  0  0  0  0  0  0  0  0
    0.3073    0.6116   -0.5716 C   0  0  2  0  0  0  0  0  0  0  0  0
    1.5153    1.2088    0.1413 C   0  0  0  0  0  0  0  0  0  0  0  0
    2.6109    0.6529    0.1815 O   0  0  0  0  0  0  0  0  0  0  0  0
    0.3325    0.9772   -2.0601 C   0  0  0  0  0  0  0  0  0  0  0  0
   -0.7527    0.2864   -2.8492 C   0  0  0  0  0  0  0  0  0  0  0  0
   -0.5789   -1.0325   -3.2688 C   0  0  0  0  0  0  0  0  0  0  0  0
   -1.9301    0.9673   -3.1588 C   0  0  0  0  0  0  0  0  0  0  0  0
   -1.5824   -1.6704   -3.9979 C   0  0  0  0  0  0  0  0  0  0  0  0
   -2.9337    0.3293   -3.8879 C   0  0  0  0  0  0  0  0  0  0  0  0
   -2.7598   -0.9896   -4.3074 C   0  0  0  0  0  0  0  0  0  0  0  0
   -1.6531    1.4091   -0.4852 H   0  0  0  0  0  0  0  0  0  0  0  0
    0.3077   -0.4754   -0.4291 H   0  0  0  0  0  0  0  0  0  0  0  0
    1.3132    0.7390   -2.4938 H   0  0  0  0  0  0  0  0  0  0  0  0
    0.2157    2.0612   -2.1909 H   0  0  0  0  0  0  0  0  0  0  0  0
    0.3351   -1.5708   -3.0321 H   0  0  0  0  0  0  0  0  0  0  0  0
   -2.0744    1.9950   -2.8360 H   0  0  0  0  0  0  0  0  0  0  0  0
   -1.4464   -2.6970   -4.3254 H   0  0  0  0  0  0  0  0  0  0  0  0
   -3.8497    0.8601   -4.1296 H   0  0  0  0  0  0  0  0  0  0  0  0
   -3.5405   -1.4860   -4.8763 H   0  0  0  0  0  0  0  0  0  0  0  0
    1.2354    2.4561    0.6820 N   0  0  0  0  0  0  0  0  0  0  0  0
    2.2121    3.2510    1.3911 C   0  0  2  0  0  0  0  0  0  0  0  0
    2.8665    2.3644    2.4423 C   0  0  0  0  0  0  0  0  0  0  0  0
    2.3358    1.3491    2.8881 O   0  0  0  0  0  0  0  0  0  0  0  0
    1.5716    4.4722    2.0323 C   0  0  0  0  0  0  0  0  0  0  0  0
    0.2968    2.8290    0.5739 H   0  0  0  0  0  0  0  0  0  0  0  0
    2.9624    3.5606    0.6553 H   0  0  0  0  0  0  0  0  0  0  0  0
    0.8170    4.1819    2.7725 H   0  0  0  0  0  0  0  0  0  0  0  0
    2.3175    5.0884    2.5449 H   0  0  0  0  0  0  0  0  0  0  0  0
    1.0759    5.0933    1.2785 H   0  0  0  0  0  0  0  0  0  0  0  0
    4.0937    2.8636    2.8556 N   0  0  0  0  0  0  0  0  0  0  0  0
    4.9050    2.2090    3.8553 C   0  0  0  0  0  0  0  0  0  0  0  0
    4.4652    3.7017    2.4182 H   0  0  0  0  0  0  0  0  0  0  0  0
    4.6706    2.6230    4.8471 H   0  0  0  0  0  0  0  0  0  0  0  0
    4.6938    1.1295    3.8495 H   0  0  0  0  0  0  0  0  0  0  0  0
    5.9688    2.3757    3.6306 H   0  0  0  0  0  0  0  0  0  0  0  0
 25 27  1  0  0  0  0
 26 27  2  0  0  0  0
 23 25  2  0  0  0  0
 24 26  1  0  0  0  0
 22 23  1  0  0  0  0
 22 24  2  0  0  0  0
 21 22  1  0  0  0  0
  1  3  1  0  0  0  0
  1  7  1  0  0  0  0
  1  2  2  0  0  0  0
 38 39  1  0  0  0  0
 39 47  1  0  0  0  0
 39 40  2  0  0  0  0
  8  9  1  0  0  0  0
  9 17  1  0  0  0  0
  9 10  2  0  0  0  0
 18 19  1  0  0  0  0
 19 37  1  0  0  0  0
 19 20  2  0  0  0  0
 38 41  1  0  0  0  0
  8 11  1  0  0  0  0
 47 48  1  0  0  0  0
 18 21  1  0  0  0  0
 37 38  1  0  0  0  0
  7  8  1  0  0  0  0
 17 18  1  0  0  0  0
 27 36  1  0  0  0  0
 25 34  1  0  0  0  0
 26 35  1  0  0  0  0
 23 32  1  0  0  0  0
 24 33  1  0  0  0  0
  3  4  1  0  0  0  0
  3  5  1  0  0  0  0
  3  6  1  0  0  0  0
 41 44  1  0  0  0  0
 41 45  1  0  0  0  0
 41 46  1  0  0  0  0
 11 14  1  0  0  0  0
 11 15  1  0  0  0  0
 11 16  1  0  0  0  0
 48 50  1  0  0  0  0
 48 51  1  0  0  0  0
 48 52  1  0  0  0  0
 21 30  1  0  0  0  0
 21 31  1  0  0  0  0
 38 43  1  0  0  0  0
  8 13  1  0  0  0  0
 18 29  1  0  0  0  0
 47 49  1  0  0  0  0
  7 12  1  0  0  0  0
 37 42  1  0  0  0  0
 17 28  1  0  0  0  0
M  END
$$$$

  -OEChem-05262214473D

 52 52  0     1  0  0  0  0  0999 V2000
   -1.8248    0.3424    3.9102 C   0  0  0  0  0  0  0  0  0  0  0  0
   -0.8774   -0.2723    3.4345 O   0  0  0  0  0  0  0  0  0  0  0  0
   -2.2566    0.0600    5.3109 C   0  0  0  0  0  0  0  0  0  0  0  0
   -3.0163   -0.7363    5.3643 H   0  0  0  0  0  0  0  0  0  0  0  0
   -1.4254   -0.2876    5.9452 H   0  0  0  0  0  0  0  0  0  0  0  0
   -2.6947    0.9149    5.8505 H   0  0  0  0  0  0  0  0  0  0  0  0
   -2.5745    1.3149    3.2691 N   0  0  0  0  0  0  0  0  0  0  0  0
   -2.3276    1.7409    1.9167 C   0  0  2  0  0  0  0  0  0  0  0  0
   -0.9926    1.1555    1.4755 C   0  0  0  0  0  0  0  0  0  0  0  0
   -0.1206    0.8028    2.2668 O   0  0  0  0  0  0  0  0  0  0  0  0
   -2.3188    3.2577    1.8072 C   0  0  0  0  0  0  0  0  0  0  0  0
   -3.3395    1.7507    3.7809 H   0  0  0  0  0  0  0  0  0  0  0  0
   -3.1317    1.3224    1.3015 H   0  0  0  0  0  0  0  0  0  0  0  0
   -1.5198    3.6949    2.4169 H   0  0  0  0  0  0  0  0  0  0  0  0
   -2.1594    3.5799    0.7729 H   0  0  0  0  0  0  0  0  0  0  0  0
   -3.2690    3.6789    2.1530 H   0  0  0  0  0  0  0  0  0  0  0  0
   -0.8700    1.1124    0.0921 N   0  0  0  0  0  0  0  0  0  0  0  0
    0.3073    0.6116   -0.5716 C   0  0  2  0  0  0  0  0  0  0  0  0
    1.5153    1.2088    0.1413 C   0  0  0  0  0  0  0  0  0  0  0  0
    2.6630    0.8051   -0.0343 O   0  0  0  0  0  0  0  0  0  0  0  0
    0.3325    0.9772   -2.0601 C   0  0  0  0  0  0  0  0  0  0  0  0
   -0.7527    0.2864   -2.8492 C   0  0  0  0  0  0  0  0  0  0  0  0
   -0.5789   -1.0325   -3.2688 C   0  0  0  0  0  0  0  0  0  0  0  0
   -1.9301    0.9673   -3.1588 C   0  0  0  0  0  0  0  0  0  0  0  0
   -1.5824   -1.6704   -3.9979 C   0  0  0  0  0  0  0  0  0  0  0  0
   -2.9337    0.3293   -3.8879 C   0  0  0  0  0  0  0  0  0  0  0  0
   -2.7598   -0.9896   -4.3074 C   0  0  0  0  0  0  0  0  0  0  0  0
   -1.6531    1.4091   -0.4852 H   0  0  0  0  0  0  0  0  0  0  0  0
    0.3077   -0.4754   -0.4291 H   0  0  0  0  0  0  0  0  0  0  0  0
    1.3132    0.7390   -2.4938 H   0  0  0  0  0  0  0  0  0  0  0  0
    0.2157    2.0612   -2.1909 H   0  0  0  0  0  0  0  0  0  0  0  0
    0.3351   -1.5708   -3.0321 H   0  0  0  0  0  0  0  0  0  0  0  0
   -2.0744    1.9950   -2.8360 H   0  0  0  0  0  0  0  0  0  0  0  0
   -1.4464   -2.6970   -4.3254 H   0  0  0  0  0  0  0  0  0  0  0  0
   -3.8497    0.8601   -4.1296 H   0  0  0  0  0  0  0  0  0  0  0  0
   -3.5405   -1.4860   -4.8763 H   0  0  0  0  0  0  0  0  0  0  0  0
    1.1628    2.2758    0.9560 N   0  0  0  0  0  0  0  0  0  0  0  0
    2.1202    3.0353    1.7275 C   0  0  2  0  0  0  0  0  0  0  0  0
    2.9840    2.0513    2.5054 C   0  0  0  0  0  0  0  0  0  0  0  0
    2.6231    0.9069    2.7718 O   0  0  0  0  0  0  0  0  0  0  0  0
    1.4260    4.0094    2.6666 C   0  0  0  0  0  0  0  0  0  0  0  0
    0.1826    2.5359    1.0129 H   0  0  0  0  0  0  0  0  0  0  0  0
    2.7428    3.5810    1.0101 H   0  0  0  0  0  0  0  0  0  0  0  0
    0.7975    3.4811    3.3927 H   0  0  0  0  0  0  0  0  0  0  0  0
    2.1529    4.6042    3.2296 H   0  0  0  0  0  0  0  0  0  0  0  0
    0.7820    4.6973    2.1081 H   0  0  0  0  0  0  0  0  0  0  0  0
    4.1877    2.6155    2.9042 N   0  0  0  0  0  0  0  0  0  0  0  0
    5.1750    1.8878    3.6670 C   0  0  0  0  0  0  0  0  0  0  0  0
    4.4120    3.5653    2.6225 H   0  0  0  0  0  0  0  0  0  0  0  0
    5.0109    2.0618    4.7406 H   0  0  0  0  0  0  0  0  0  0  0  0
    5.0850    0.8128    3.4519 H   0  0  0  0  0  0  0  0  0  0  0  0
    6.1813    2.2344    3.3891 H   0  0  0  0  0  0  0  0  0  0  0  0
 25 27  1  0  0  0  0
 26 27  2  0  0  0  0
 23 25  2  0  0  0  0
 24 26  1  0  0  0  0
 22 23  1  0  0  0  0
 22 24  2  0  0  0  0
 21 22  1  0  0  0  0
  1  3  1  0  0  0  0
  1  7  1  0  0  0  0
  1  2  2  0  0  0  0
 38 39  1  0  0  0  0
 39 47  1  0  0  0  0
 39 40  2  0  0  0  0
  8  9  1  0  0  0  0
  9 17  1  0  0  0  0
  9 10  2  0  0  0  0
 18 19  1  0  0  0  0
 19 37  1  0  0  0  0
 19 20  2  0  0  0  0
 38 41  1  0  0  0  0
  8 11  1  0  0  0  0
 47 48  1  0  0  0  0
 18 21  1  0  0  0  0
 37 38  1  0  0  0  0
  7  8  1  0  0  0  0
 17 18  1  0  0  0  0
 27 36  1  0  0  0  0
 25 34  1  0  0  0  0
 26 35  1  0  0  0  0
 23 32  1  0  0  0  0
 24 33  1  0  0  0  0
  3  4  1  0  0  0  0
  3  5  1  0  0  0  0
  3  6  1  0  0  0  0
 41 44  1  0  0  0  0
 41 45  1  0  0  0  0
 41 46  1  0  0  0  0
 11 14  1  0  0  0  0
 11 15  1  0  0  0  0
 11 16  1  0  0  0  0
 48 50  1  0  0  0  0
 48 51  1  0  0  0  0
 48 52  1  0  0  0  0
 21 30  1  0  0  0  0
 21 31  1  0  0  0  0
 38 43  1  0  0  0  0
  8 13  1  0  0  0  0
 18 29  1  0  0  0  0
 47 49  1  0  0  0  0
  7 12  1  0  0  0  0
 37 42  1  0  0  0  0
 17 28  1  0  0  0  0
M  END
$$$$

  -OEChem-05262214473D

 52 52  0     1  0  0  0  0  0999 V2000
   -1.8248    0.3424    3.9102 C   0  0  0  0  0  0  0  0  0  0  0  0
   -0.8774   -0.2723    3.4345 O   0  0  0  0  0  0  0  0  0  0  0  0
   -2.2566    0.0600    5.3109 C   0  0  0  0  0  0  0  0  0  0  0  0
   -3.0163   -0.7363    5.3643 H   0  0  0  0  0  0  0  0  0  0  0  0
   -1.4254   -0.2876    5.9452 H   0  0  0  0  0  0  0  0  0  0  0  0
   -2.6947    0.9149    5.8505 H   0  0  0  0  0  0  0  0  0  0  0  0
   -2.5745    1.3149    3.2691 N   0  0  0  0  0  0  0  0  0  0  0  0
   -2.3276    1.7409    1.9167 C   0  0  2  0  0  0  0  0  0  0  0  0
   -0.9926    1.1555    1.4755 C   0  0  0  0  0  0  0  0  0  0  0  0
   -0.1206    0.8028    2.2668 O   0  0  0  0  0  0  0  0  0  0  0  0
   -2.3188    3.2577    1.8072 C   0  0  0  0  0  0  0  0  0  0  0  0
   -3.3395    1.7507    3.7809 H   0  0  0  0  0  0  0  0  0  0  0  0
   -3.1317    1.3224    1.3015 H   0  0  0  0  0  0  0  0  0  0  0  0
   -1.5198    3.6949    2.4169 H   0  0  0  0  0  0  0  0  0  0  0  0
   -2.1594    3.5799    0.7729 H   0  0  0  0  0  0  0  0  0  0  0  0
   -3.2690    3.6789    2.1530 H   0  0  0  0  0  0  0  0  0  0  0  0
   -0.8700    1.1124    0.0921 N   0  0  0  0  0  0  0  0  0  0  0  0
    0.3073    0.6116   -0.5716 C   0  0  2  0  0  0  0  0  0  0  0  0
    1.5153    1.2088    0.1413 C   0  0  0  0  0  0  0  0  0  0  0  0
    2.6730    1.0027   -0.2168 O   0  0  0  0  0  0  0  0  0  0  0  0
    0.3325    0.9772   -2.0601 C   0  0  0  0  0  0  0  0  0  0  0  0
   -0.7527    0.2864   -2.8492 C   0  0  0  0  0  0  0  0  0  0  0  0
   -0.5789   -1.0325   -3.2688 C   0  0  0  0  0  0  0  0  0  0  0  0
   -1.9301    0.9673   -3.1588 C   0  0  0  0  0  0  0  0  0  0  0  0
   -1.5824   -1.6704   -3.9979 C   0  0  0  0  0  0  0  0  0  0  0  0
   -2.9337    0.3293   -3.8879 C   0  0  0  0  0  0  0  0  0  0  0  0
   -2.7598   -0.9896   -4.3074 C   0  0  0  0  0  0  0  0  0  0  0  0
   -1.6531    1.4091   -0.4852 H   0  0  0  0  0  0  0  0  0  0  0  0
    0.3077   -0.4754   -0.4291 H   0  0  0  0  0  0  0  0  0  0  0  0
    1.3132    0.7390   -2.4938 H   0  0  0  0  0  0  0  0  0  0  0  0
    0.2157    2.0612   -2.1909 H   0  0  0  0  0  0  0  0  0  0  0  0
    0.3351   -1.5708   -3.0321 H   0  0  0  0  0  0  0  0  0  0  0  0
   -2.0744    1.9950   -2.8360 H   0  0  0  0  0  0  0  0  0  0  0  0
   -1.4464   -2.6970   -4.3254 H   0  0  0  0  0  0  0  0  0  0  0  0
   -3.8497    0.8601   -4.1296 H   0  0  0  0  0  0  0  0  0  0  0  0
   -3.5405   -1.4860   -4.8763 H   0  0  0  0  0  0  0  0  0  0  0  0
    1.1423    2.0366    1.1911 N   0  0  0  0  0  0  0  0  0  0  0  0
    2.0916    2.7468    2.0176 C   0  0  2  0  0  0  0  0  0  0  0  0
    3.1419    1.7502    2.4901 C   0  0  0  0  0  0  0  0  0  0  0  0
    2.9423    0.5383    2.5397 O   0  0  0  0  0  0  0  0  0  0  0  0
    1.4057    3.4148    3.1992 C   0  0  0  0  0  0  0  0  0  0  0  0
    0.1522    2.1489    1.3884 H   0  0  0  0  0  0  0  0  0  0  0  0
    2.5643    3.5013    1.3794 H   0  0  0  0  0  0  0  0  0  0  0  0
    0.9263    2.6745    3.8501 H   0  0  0  0  0  0  0  0  0  0  0  0
    2.1218    3.9760    3.8083 H   0  0  0  0  0  0  0  0  0  0  0  0
    0.6302    4.1091    2.8581 H   0  0  0  0  0  0  0  0  0  0  0  0
    4.3134    2.3772    2.8908 N   0  0  0  0  0  0  0  0  0  0  0  0
    5.4555    1.6488    3.3918 C   0  0  0  0  0  0  0  0  0  0  0  0
    4.3979    3.3851    2.7974 H   0  0  0  0  0  0  0  0  0  0  0  0
    5.3967    1.5827    4.4882 H   0  0  0  0  0  0  0  0  0  0  0  0
    5.4609    0.6357    2.9632 H   0  0  0  0  0  0  0  0  0  0  0  0
    6.3791    2.1731    3.1052 H   0  0  0  0  0  0  0  0  0  0  0  0
 25 27  1  0  0  0  0
 26 27  2  0  0  0  0
 23 25  2  0  0  0  0
 24 26  1  0  0  0  0
 22 23  1  0  0  0  0
 22 24  2  0  0  0  0
 21 22  1  0  0  0  0
  1  3  1  0  0  0  0
  1  7  1  0  0  0  0
  1  2  2  0  0  0  0
 38 39  1  0  0  0  0
 39 47  1  0  0  0  0
 39 40  2  0  0  0  0
  8  9  1  0  0  0  0
  9 17  1  0  0  0  0
  9 10  2  0  0  0  0
 18 19  1  0  0  0  0
 19 37  1  0  0  0  0
 19 20  2  0  0  0  0
 38 41  1  0  0  0  0
  8 11  1  0  0  0  0
 47 48  1  0  0  0  0
 18 21  1  0  0  0  0
 37 38  1  0  0  0  0
  7  8  1  0  0  0  0
 17 18  1  0  0  0  0
 27 36  1  0  0  0  0
 25 34  1  0  0  0  0
 26 35  1  0  0  0  0
 23 32  1  0  0  0  0
 24 33  1  0  0  0  0
  3  4  1  0  0  0  0
  3  5  1  0  0  0  0
  3  6  1  0  0  0  0
 41 44  1  0  0  0  0
 41 45  1  0  0  0  0
 41 46  1  0  0  0  0
 11 14  1  0  0  0  0
 11 15  1  0  0  0  0
 11 16  1  0  0  0  0
 48 50  1  0  0  0  0
 48 51  1  0  0  0  0
 48 52  1  0  0  0  0
 21 30  1  0  0  0  0
 21 31  1  0  0  0  0
 38 43  1  0  0  0  0
  8 13  1  0  0  0  0
 18 29  1  0  0  0  0
 47 49  1  0  0  0  0
  7 12  1  0  0  0  0
 37 42  1  0  0  0  0
 17 28  1  0  0  0  0
M  END
$$$$

  -OEChem-05262214473D

 52 52  0     1  0  0  0  0  0999 V2000
   -1.8248    0.3424    3.9102 C   0  0  0  0  0  0  0  0  0  0  0  0
   -0.8774   -0.2723    3.4345 O   0  0  0  0  0  0  0  0  0  0  0  0
   -2.2566    0.0600    5.3109 C   0  0  0  0  0  0  0  0  0  0  0  0
   -3.0163   -0.7363    5.3643 H   0  0  0  0  0  0  0  0  0  0  0  0
   -1.4254   -0.2876    5.9452 H   0  0  0  0  0  0  0  0  0  0  0  0
   -2.6947    0.9149    5.8505 H   0  0  0  0  0  0  0  0  0  0  0  0
   -2.5745    1.3149    3.2691 N   0  0  0  0  0  0  0  0  0  0  0  0
   -2.3276    1.7409    1.9167 C   0  0  2  0  0  0  0  0  0  0  0  0
   -0.9926    1.1555    1.4755 C   0  0  0  0  0  0  0  0  0  0  0  0
   -0.1206    0.8028    2.2668 O   0  0  0  0  0  0  0  0  0  0  0  0
   -2.3188    3.2577    1.8072 C   0  0  0  0  0  0  0  0  0  0  0  0
   -3.3395    1.7507    3.7809 H   0  0  0  0  0  0  0  0  0  0  0  0
   -3.1317    1.3224    1.3015 H   0  0  0  0  0  0  0  0  0  0  0  0
   -1.5198    3.6949    2.4169 H   0  0  0  0  0  0  0  0  0  0  0  0
   -2.1594    3.5799    0.7729 H   0  0  0  0  0  0  0  0  0  0  0  0
   -3.2690    3.6789    2.1530 H   0  0  0  0  0  0  0  0  0  0  0  0
   -0.8700    1.1124    0.0921 N   0  0  0  0  0  0  0  0  0  0  0  0
    0.3073    0.6116   -0.5716 C   0  0  2  0  0  0  0  0  0  0  0  0
    1.5153    1.2088    0.1413 C   0  0  0  0  0  0  0  0  0  0  0  0
    2.6402    1.2323   -0.3536 O   0  0  0  0  0  0  0  0  0  0  0  0
    0.3325    0.9772   -2.0601 C   0  0  0  0  0  0  0  0  0  0  0  0
   -0.7527    0.2864   -2.8492 C   0  0  0  0  0  0  0  0  0  0  0  0
   -0.5789   -1.0325   -3.2688 C   0  0  0  0  0  0  0  0  0  0  0  0
   -1.9301    0.9673   -3.1588 C   0  0  0  0  0  0  0  0  0  0  0  0
   -1.5824   -1.6704   -3.9979 C   0  0  0  0  0  0  0  0  0  0  0  0
   -2.9337    0.3293   -3.8879 C   0  0  0  0  0  0  0  0  0  0  0  0
   -2.7598   -0.9896   -4.3074 C   0  0  0  0  0  0  0  0  0  0  0  0
   -1.6531    1.4091   -0.4852 H   0  0  0  0  0  0  0  0  0  0  0  0
    0.3077   -0.4754   -0.4291 H   0  0  0  0  0  0  0  0  0  0  0  0
    1.3132    0.7390   -2.4938 H   0  0  0  0  0  0  0  0  0  0  0  0
    0.2157    2.0612   -2.1909 H   0  0  0  0  0  0  0  0  0  0  0  0
    0.3351   -1.5708   -3.0321 H   0  0  0  0  0  0  0  0  0  0  0  0
   -2.0744    1.9950   -2.8360 H   0  0  0  0  0  0  0  0  0  0  0  0
   -1.4464   -2.6970   -4.3254 H   0  0  0  0  0  0  0  0  0  0  0  0
   -3.8497    0.8601   -4.1296 H   0  0  0  0  0  0  0  0  0  0  0  0
   -3.5405   -1.4860   -4.8763 H   0  0  0  0  0  0  0  0  0  0  0  0
    1.1753    1.7549    1.3712 N   0  0  0  0  0  0  0  0  0  0  0  0
    2.1283    2.4052    2.2416 C   0  0  2  0  0  0  0  0  0  0  0  0
    3.3292    1.4816    2.3976 C   0  0  0  0  0  0  0  0  0  0  0  0
    3.2717    0.2686    2.2075 O   0  0  0  0  0  0  0  0  0  0  0  0
    1.5120    2.7287    3.5937 C   0  0  0  0  0  0  0  0  0  0  0  0
    0.2079    1.6944    1.6749 H   0  0  0  0  0  0  0  0  0  0  0  0
    2.4389    3.3271    1.7378 H   0  0  0  0  0  0  0  0  0  0  0  0
    1.1947    1.8173    4.1134 H   0  0  0  0  0  0  0  0  0  0  0  0
    2.2265    3.2469    4.2417 H   0  0  0  0  0  0  0  0  0  0  0  0
    0.6308    3.3688    3.4772 H   0  0  0  0  0  0  0  0  0  0  0  0
    4.4623    2.1651    2.8161 N   0  0  0  0  0  0  0  0  0  0  0  0
    5.7275    1.5084    3.0485 C   0  0  0  0  0  0  0  0  0  0  0  0
    4.4237    3.1736    2.9307 H   0  0  0  0  0  0  0  0  0  0  0  0
    5.8018    1.2184    4.1070 H   0  0  0  0  0  0  0  0  0  0  0  0
    5.7959    0.6104    2.4168 H   0  0  0  0  0  0  0  0  0  0  0  0
    6.5488    2.1960    2.7984 H   0  0  0  0  0  0  0  0  0  0  0  0
 25 27  1  0  0  0  0
 26 27  2  0  0  0  0
 23 25  2  0  0  0  0
 24 26  1  0  0  0  0
 22 23  1  0  0  0  0
 22 24  2  0  0  0  0
 21 22  1  0  0  0  0
  1  3  1  0  0  0  0
  1  7  1  0  0  0  0
  1  2  2  0  0  0  0
 38 39  1  0  0  0  0
 39 47  1  0  0  0  0
 39 40  2  0  0  0  0
  8  9  1  0  0  0  0
  9 17  1  0  0  0  0
  9 10  2  0  0  0  0
 18 19  1  0  0  0  0
 19 37  1  0  0  0  0
 19 20  2  0  0  0  0
 38 41  1  0  0  0  0
  8 11  1  0  0  0  0
 47 48  1  0  0  0  0
 18 21  1  0  0  0  0
 37 38  1  0  0  0  0
  7  8  1  0  0  0  0
 17 18  1  0  0  0  0
 27 36  1  0  0  0  0
 25 34  1  0  0  0  0
 26 35  1  0  0  0  0
 23 32  1  0  0  0  0
 24 33  1  0  0  0  0
  3  4  1  0  0  0  0
  3  5  1  0  0  0  0
  3  6  1  0  0  0  0
 41 44  1  0  0  0  0
 41 45  1  0  0  0  0
 41 46  1  0  0  0  0
 11 14  1  0  0  0  0
 11 15  1  0  0  0  0
 11 16  1  0  0  0  0
 48 50  1  0  0  0  0
 48 51  1  0  0  0  0
 48 52  1  0  0  0  0
 21 30  1  0  0  0  0
 21 31  1  0  0  0  0
 38 43  1  0  0  0  0
  8 13  1  0  0  0  0
 18 29  1  0  0  0  0
 47 49  1  0  0  0  0
  7 12  1  0  0  0  0
 37 42  1  0  0  0  0
 17 28  1  0  0  0  0
M  END
$$$$

  -OEChem-05262214473D

 52 52  0     1  0  0  0  0  0999 V2000
   -1.8248    0.3424    3.9102 C   0  0  0  0  0  0  0  0  0  0  0  0
   -0.8774   -0.2723    3.4345 O   0  0  0  0  0  0  0  0  0  0  0  0
   -2.2566    0.0600    5.3109 C   0  0  0  0  0  0  0  0  0  0  0  0
   -3.0163   -0.7363    5.3643 H   0  0  0  0  0  0  0  0  0  0  0  0
   -1.4254   -0.2876    5.9452 H   0  0  0  0  0  0  0  0  0  0  0  0
   -2.6947    0.9149    5.8505 H   0  0  0  0  0  0  0  0  0  0  0  0
   -2.5745    1.3149    3.2691 N   0  0  0  0  0  0  0  0  0  0  0  0
   -2.3276    1.7409    1.9167 C   0  0  2  0  0  0  0  0  0  0  0  0
   -0.9926    1.1555    1.4755 C   0  0  0  0  0  0  0  0  0  0  0  0
   -0.1206    0.8028    2.2668 O   0  0  0  0  0  0  0  0  0  0  0  0
   -2.3188    3.2577    1.8072 C   0  0  0  0  0  0  0  0  0  0  0  0
   -3.3395    1.7507    3.7809 H   0  0  0  0  0  0  0  0  0  0  0  0
   -3.1317    1.3224    1.3015 H   0  0  0  0  0  0  0  0  0  0  0  0
   -1.5198    3.6949    2.4169 H   0  0  0  0  0  0  0  0  0  0  0  0
   -2.1594    3.5799    0.7729 H   0  0  0  0  0  0  0  0  0  0  0  0
   -3.2690    3.6789    2.1530 H   0  0  0  0  0  0  0  0  0  0  0  0
   -0.8700    1.1124    0.0921 N   0  0  0  0  0  0  0  0  0  0  0  0
    0.3073    0.6116   -0.5716 C   0  0  2  0  0  0  0  0  0  0  0  0
    1.5153    1.2088    0.1413 C   0  0  0  0  0  0  0  0  0  0  0  0
    2.5670    1.4780   -0.4353 O   0  0  0  0  0  0  0  0  0  0  0  0
    0.3325    0.9772   -2.0601 C   0  0  0  0  0  0  0  0  0  0  0  0
   -0.7527    0.2864   -2.8492 C   0  0  0  0  0  0  0  0  0  0  0  0
   -0.5789   -1.0325   -3.2688 C   0  0  0  0  0  0  0  0  0  0  0  0
   -1.9301    0.9673   -3.1588 C   0  0  0  0  0  0  0  0  0  0  0  0
   -1.5824   -1.6704   -3.9979 C   0  0  0  0  0  0  0  0  0  0  0  0
   -2.9337    0.3293   -3.8879 C   0  0  0  0  0  0  0  0  0  0  0  0
   -2.7598   -0.9896   -4.3074 C   0  0  0  0  0  0  0  0  0  0  0  0
   -1.6531    1.4091   -0.4852 H   0  0  0  0  0  0  0  0  0  0  0  0
    0.3077   -0.4754   -0.4291 H   0  0  0  0  0  0  0  0  0  0  0  0
    1.3132    0.7390   -2.4938 H   0  0  0  0  0  0  0  0  0  0  0  0
    0.2157    2.0612   -2.1909 H   0  0  0  0  0  0  0  0  0  0  0  0
    0.3351   -1.5708   -3.0321 H   0  0  0  0  0  0  0  0  0  0  0  0
   -2.0744    1.9950   -2.8360 H   0  0  0  0  0  0  0  0  0  0  0  0
   -1.4464   -2.6970   -4.3254 H   0  0  0  0  0  0  0  0  0  0  0  0
   -3.8497    0.8601   -4.1296 H   0  0  0  0  0  0  0  0  0  0  0  0
   -3.5405   -1.4860   -4.8763 H   0  0  0  0  0  0  0  0  0  0  0  0
    1.2595    1.4498    1.4841 N   0  0  0  0  0  0  0  0  0  0  0  0
    2.2279    2.0338    2.3841 C   0  0  2  0  0  0  0  0  0  0  0  0
    3.5333    1.2638    2.2342 C   0  0  0  0  0  0  0  0  0  0  0  0
    3.5888    0.1160    1.7979 O   0  0  0  0  0  0  0  0  0  0  0  0
    1.7378    1.9979    3.8232 C   0  0  0  0  0  0  0  0  0  0  0  0
    0.3456    1.2034    1.8527 H   0  0  0  0  0  0  0  0  0  0  0  0
    2.3752    3.0701    2.0610 H   0  0  0  0  0  0  0  0  0  0  0  0
    1.5844    0.9677    4.1647 H   0  0  0  0  0  0  0  0  0  0  0  0
    2.4599    2.4664    4.5001 H   0  0  0  0  0  0  0  0  0  0  0  0
    0.7837    2.5267    3.9234 H   0  0  0  0  0  0  0  0  0  0  0  0
    4.6243    1.9935    2.6855 N   0  0  0  0  0  0  0  0  0  0  0  0
    5.9725    1.4760    2.6606 C   0  0  0  0  0  0  0  0  0  0  0  0
    4.4878    2.9450    3.0136 H   0  0  0  0  0  0  0  0  0  0  0  0
    6.1985    0.9937    3.6230 H   0  0  0  0  0  0  0  0  0  0  0  0
    6.0671    0.7386    1.8498 H   0  0  0  0  0  0  0  0  0  0  0  0
    6.6789    2.3017    2.4895 H   0  0  0  0  0  0  0  0  0  0  0  0
 25 27  1  0  0  0  0
 26 27  2  0  0  0  0
 23 25  2  0  0  0  0
 24 26  1  0  0  0  0
 22 23  1  0  0  0  0
 22 24  2  0  0  0  0
 21 22  1  0  0  0  0
  1  3  1  0  0  0  0
  1  7  1  0  0  0  0
  1  2  2  0  0  0  0
 38 39  1  0  0  0  0
 39 47  1  0  0  0  0
 39 40  2  0  0  0  0
  8  9  1  0  0  0  0
  9 17  1  0  0  0  0
  9 10  2  0  0  0  0
 18 19  1  0  0  0  0
 19 37  1  0  0  0  0
 19 20  2  0  0  0  0
 38 41  1  0  0  0  0
  8 11  1  0  0  0  0
 47 48  1  0  0  0  0
 18 21  1  0  0  0  0
 37 38  1  0  0  0  0
  7  8  1  0  0  0  0
 17 18  1  0  0  0  0
 27 36  1  0  0  0  0
 25 34  1  0  0  0  0
 26 35  1  0  0  0  0
 23 32  1  0  0  0  0
 24 33  1  0  0  0  0
  3  4  1  0  0  0  0
  3  5  1  0  0  0  0
  3  6  1  0  0  0  0
 41 44  1  0  0  0  0
 41 45  1  0  0  0  0
 41 46  1  0  0  0  0
 11 14  1  0  0  0  0
 11 15  1  0  0  0  0
 11 16  1  0  0  0  0
 48 50  1  0  0  0  0
 48 51  1  0  0  0  0
 48 52  1  0  0  0  0
 21 30  1  0  0  0  0
 21 31  1  0  0  0  0
 38 43  1  0  0  0  0
  8 13  1  0  0  0  0
 18 29  1  0  0  0  0
 47 49  1  0  0  0  0
  7 12  1  0  0  0  0
 37 42  1  0  0  0  0
 17 28  1  0  0  0  0
M  END
$$$$

  -OEChem-05262214473D

 52 52  0     1  0  0  0  0  0999 V2000
   -1.8248    0.3424    3.9102 C   0  0  0  0  0  0  0  0  0  0  0  0
   -0.8774   -0.2723    3.4345 O   0  0  0  0  0  0  0  0  0  0  0  0
   -2.2566    0.0600    5.3109 C   0  0  0  0  0  0  0  0  0  0  0  0
   -3.0163   -0.7363    5.3643 H   0  0  0  0  0  0  0  0  0  0  0  0
   -1.4254   -0.2876    5.9452 H   0  0  0  0  0  0  0  0  0  0  0  0
   -2.6947    0.9149    5.8505 H   0  0  0  0  0  0  0  0  0  0  0  0
   -2.5745    1.3149    3.2691 N   0  0  0  0  0  0  0  0  0  0  0  0
   -2.3276    1.7409    1.9167 C   0  0  2  0  0  0  0  0  0  0  0  0
   -0.9926    1.1555    1.4755 C   0  0  0  0  0  0  0  0  0  0  0  0
   -0.1206    0.8028    2.2668 O   0  0  0  0  0  0  0  0  0  0  0  0
   -2.3188    3.2577    1.8072 C   0  0  0  0  0  0  0  0  0  0  0  0
   -3.3395    1.7507    3.7809 H   0  0  0  0  0  0  0  0  0  0  0  0
   -3.1317    1.3224    1.3015 H   0  0  0  0  0  0  0  0  0  0  0  0
   -1.5198    3.6949    2.4169 H   0  0  0  0  0  0  0  0  0  0  0  0
   -2.1594    3.5799    0.7729 H   0  0  0  0  0  0  0  0  0  0  0  0
   -3.2690    3.6789    2.1530 H   0  0  0  0  0  0  0  0  0  0  0  0
   -0.8700    1.1124    0.0921 N   0  0  0  0  0  0  0  0  0  0  0  0
    0.3073    0.6116   -0.5716 C   0  0  2  0  0  0  0  0  0  0  0  0
    1.5153    1.2088    0.1413 C   0  0  0  0  0  0  0  0  0  0  0  0
    2.4581    1.7233   -0.4564 O   0  0  0  0  0  0  0  0  0  0  0  0
    0.3325    0.9772   -2.0601 C   0  0  0  0  0  0  0  0  0  0  0  0
   -0.7527    0.2864   -2.8492 C   0  0  0  0  0  0  0  0  0  0  0  0
   -0.5789   -1.0325   -3.2688 C   0  0  0  0  0  0  0  0  0  0  0  0
   -1.9301    0.9673   -3.1588 C   0  0  0  0  0  0  0  0  0  0  0  0
   -1.5824   -1.6704   -3.9979 C   0  0  0  0  0  0  0  0  0  0  0  0
   -2.9337    0.3293   -3.8879 C   0  0  0  0  0  0  0  0  0  0  0  0
   -2.7598   -0.9896   -4.3074 C   0  0  0  0  0  0  0  0  0  0  0  0
   -1.6531    1.4091   -0.4852 H   0  0  0  0  0  0  0  0  0  0  0  0
    0.3077   -0.4754   -0.4291 H   0  0  0  0  0  0  0  0  0  0  0  0
    1.3132    0.7390   -2.4938 H   0  0  0  0  0  0  0  0  0  0  0  0
    0.2157    2.0612   -2.1909 H   0  0  0  0  0  0  0  0  0  0  0  0
    0.3351   -1.5708   -3.0321 H   0  0  0  0  0  0  0  0  0  0  0  0
   -2.0744    1.9950   -2.8360 H   0  0  0  0  0  0  0  0  0  0  0  0
   -1.4464   -2.6970   -4.3254 H   0  0  0  0  0  0  0  0  0  0  0  0
   -3.8497    0.8601   -4.1296 H   0  0  0  0  0  0  0  0  0  0  0  0
   -3.5405   -1.4860   -4.8763 H   0  0  0  0  0  0  0  0  0  0  0  0
    1.3892    1.1422    1.5220 N   0  0  0  0  0  0  0  0  0  0  0  0
    2.3834    1.6578    2.4355 C   0  0  2  0  0  0  0  0  0  0  0  0
    3.7403    1.1117    2.0110 C   0  0  0  0  0  0  0  0  0  0  0  0
    3.8721    0.0910    1.3388 O   0  0  0  0  0  0  0  0  0  0  0  0
    2.0675    1.2723    3.8722 C   0  0  0  0  0  0  0  0  0  0  0  0
    0.5562    0.7093    1.9098 H   0  0  0  0  0  0  0  0  0  0  0  0
    2.3776    2.7479    2.3269 H   0  0  0  0  0  0  0  0  0  0  0  0
    2.0688    0.1837    4.0005 H   0  0  0  0  0  0  0  0  0  0  0  0
    2.8059    1.6877    4.5660 H   0  0  0  0  0  0  0  0  0  0  0  0
    1.0786    1.6404    4.1661 H   0  0  0  0  0  0  0  0  0  0  0  0
    4.7882    1.8741    2.5076 N   0  0  0  0  0  0  0  0  0  0  0  0
    6.1736    1.5540    2.2544 C   0  0  0  0  0  0  0  0  0  0  0  0
    4.5858    2.7150    3.0402 H   0  0  0  0  0  0  0  0  0  0  0  0
    6.5598    0.9239    3.0692 H   0  0  0  0  0  0  0  0  0  0  0  0
    6.2561    1.0115    1.3010 H   0  0  0  0  0  0  0  0  0  0  0  0
    6.7604    2.4828    2.1997 H   0  0  0  0  0  0  0  0  0  0  0  0
 25 27  1  0  0  0  0
 26 27  2  0  0  0  0
 23 25  2  0  0  0  0
 24 26  1  0  0  0  0
 22 23  1  0  0  0  0
 22 24  2  0  0  0  0
 21 22  1  0  0  0  0
  1  3  1  0  0  0  0
  1  7  1  0  0  0  0
  1  2  2  0  0  0  0
 38 39  1  0  0  0  0
 39 47  1  0  0  0  0
 39 40  2  0  0  0  0
  8  9  1  0  0  0  0
  9 17  1  0  0  0  0
  9 10  2  0  0  0  0
 18 19  1  0  0  0  0
 19 37  1  0  0  0  0
 19 20  2  0  0  0  0
 38 41  1  0  0  0  0
  8 11  1  0  0  0  0
 47 48  1  0  0  0  0
 18 21  1  0  0  0  0
 37 38  1  0  0  0  0
  7  8  1  0  0  0  0
 17 18  1  0  0  0  0
 27 36  1  0  0  0  0
 25 34  1  0  0  0  0
 26 35  1  0  0  0  0
 23 32  1  0  0  0  0
 24 33  1  0  0  0  0
  3  4  1  0  0  0  0
  3  5  1  0  0  0  0
  3  6  1  0  0  0  0
 41 44  1  0  0  0  0
 41 45  1  0  0  0  0
 41 46  1  0  0  0  0
 11 14  1  0  0  0  0
 11 15  1  0  0  0  0
 11 16  1  0  0  0  0
 48 50  1  0  0  0  0
 48 51  1  0  0  0  0
 48 52  1  0  0  0  0
 21 30  1  0  0  0  0
 21 31  1  0  0  0  0
 38 43  1  0  0  0  0
  8 13  1  0  0  0  0
 18 29  1  0  0  0  0
 47 49  1  0  0  0  0
  7 12  1  0  0  0  0
 37 42  1  0  0  0  0
 17 28  1  0  0  0  0
M  END
$$$$

  -OEChem-05262214473D

 52 52  0     1  0  0  0  0  0999 V2000
   -1.8248    0.3424    3.9102 C   0  0  0  0  0  0  0  0  0  0  0  0
   -0.8774   -0.2723    3.4345 O   0  0  0  0  0  0  0  0  0  0  0  0
   -2.2566    0.0600    5.3109 C   0  0  0  0  0  0  0  0  0  0  0  0
   -3.0163   -0.7363    5.3643 H   0  0  0  0  0  0  0  0  0  0  0  0
   -1.4254   -0.2876    5.9452 H   0  0  0  0  0  0  0  0  0  0  0  0
   -2.6947    0.9149    5.8505 H   0  0  0  0  0  0  0  0  0  0  0  0
   -2.5745    1.3149    3.2691 N   0  0  0  0  0  0  0  0  0  0  0  0
   -2.3276    1.7409    1.9167 C   0  0  2  0  0  0  0  0  0  0  0  0
   -0.9926    1.1555    1.4755 C   0  0  0  0  0  0  0  0  0  0  0  0
   -0.1206    0.8028    2.2668 O   0  0  0  0  0  0  0  0  0  0  0  0
   -2.3188    3.2577    1.8072 C   0  0  0  0  0  0  0  0  0  0  0  0
   -3.3395    1.7507    3.7809 H   0  0  0  0  0  0  0  0  0  0  0  0
   -3.1317    1.3224    1.3015 H   0  0  0  0  0  0  0  0  0  0  0  0
   -1.5198    3.6949    2.4169 H   0  0  0  0  0  0  0  0  0  0  0  0
   -2.1594    3.5799    0.7729 H   0  0  0  0  0  0  0  0  0  0  0  0
   -3.2690    3.6789    2.1530 H   0  0  0  0  0  0  0  0  0  0  0  0
   -0.8700    1.1124    0.0921 N   0  0  0  0  0  0  0  0  0  0  0  0
    0.3073    0.6116   -0.5716 C   0  0  2  0  0  0  0  0  0  0  0  0
    1.5153    1.2088    0.1413 C   0  0  0  0  0  0  0  0  0  0  0  0
    2.3212    1.9514   -0.4154 O   0  0  0  0  0  0  0  0  0  0  0  0
    0.3325    0.9772   -2.0601 C   0  0  0  0  0  0  0  0  0  0  0  0
   -0.7527    0.2864   -2.8492 C   0  0  0  0  0  0  0  0  0  0  0  0
   -0.5789   -1.0325   -3.2688 C   0  0  0  0  0  0  0  0  0  0  0  0
   -1.9301    0.9673   -3.1588 C   0  0  0  0  0  0  0  0  0  0  0  0
   -1.5824   -1.6704   -3.9979 C   0  0  0  0  0  0  0  0  0  0  0  0
   -2.9337    0.3293   -3.8879 C   0  0  0  0  0  0  0  0  0  0  0  0
   -2.7598   -0.9896   -4.3074 C   0  0  0  0  0  0  0  0  0  0  0  0
   -1.6531    1.4091   -0.4852 H   0  0  0  0  0  0  0  0  0  0  0  0
    0.3077   -0.4754   -0.4291 H   0  0  0  0  0  0  0  0  0  0  0  0
    1.3132    0.7390   -2.4938 H   0  0  0  0  0  0  0  0  0  0  0  0
    0.2157    2.0612   -2.1909 H   0  0  0  0  0  0  0  0  0  0  0  0
    0.3351   -1.5708   -3.0321 H   0  0  0  0  0  0  0  0  0  0  0  0
   -2.0744    1.9950   -2.8360 H   0  0  0  0  0  0  0  0  0  0  0  0
   -1.4464   -2.6970   -4.3254 H   0  0  0  0  0  0  0  0  0  0  0  0
   -3.8497    0.8601   -4.1296 H   0  0  0  0  0  0  0  0  0  0  0  0
   -3.5405   -1.4860   -4.8763 H   0  0  0  0  0  0  0  0  0  0  0  0
    1.5555    0.8530    1.4823 N   0  0  0  0  0  0  0  0  0  0  0  0
    2.5843    1.3029    2.3922 C   0  0  2  0  0  0  0  0  0  0  0  0
    3.9359    1.0355    1.7433 C   0  0  0  0  0  0  0  0  0  0  0  0
    4.1022    0.1953    0.8615 O   0  0  0  0  0  0  0  0  0  0  0  0
    2.4789    0.6013    3.7373 C   0  0  0  0  0  0  0  0  0  0  0  0
    0.8251    0.2458    1.8423 H   0  0  0  0  0  0  0  0  0  0  0  0
    2.4458    2.3824    2.5174 H   0  0  0  0  0  0  0  0  0  0  0  0
    2.6150   -0.4812    3.6320 H   0  0  0  0  0  0  0  0  0  0  0  0
    3.2411    0.9639    4.4348 H   0  0  0  0  0  0  0  0  0  0  0  0
    1.4954    0.7702    4.1889 H   0  0  0  0  0  0  0  0  0  0  0  0
    4.9430    1.8152    2.2947 N   0  0  0  0  0  0  0  0  0  0  0  0
    6.3174    1.7369    1.8576 C   0  0  0  0  0  0  0  0  0  0  0  0
    4.7110    2.4993    3.0088 H   0  0  0  0  0  0  0  0  0  0  0  0
    6.8611    1.0138    2.4833 H   0  0  0  0  0  0  0  0  0  0  0  0
    6.3500    1.4105    0.8077 H   0  0  0  0  0  0  0  0  0  0  0  0
    6.7878    2.7271    1.9486 H   0  0  0  0  0  0  0  0  0  0  0  0
 25 27  1  0  0  0  0
 26 27  2  0  0  0  0
 23 25  2  0  0  0  0
 24 26  1  0  0  0  0
 22 23  1  0  0  0  0
 22 24  2  0  0  0  0
 21 22  1  0  0  0  0
  1  3  1  0  0  0  0
  1  7  1  0  0  0  0
  1  2  2  0  0  0  0
 38 39  1  0  0  0  0
 39 47  1  0  0  0  0
 39 40  2  0  0  0  0
  8  9  1  0  0  0  0
  9 17  1  0  0  0  0
  9 10  2  0  0  0  0
 18 19  1  0  0  0  0
 19 37  1  0  0  0  0
 19 20  2  0  0  0  0
 38 41  1  0  0  0  0
  8 11  1  0  0  0  0
 47 48  1  0  0  0  0
 18 21  1  0  0  0  0
 37 38  1  0  0  0  0
  7  8  1  0  0  0  0
 17 18  1  0  0  0  0
 27 36  1  0  0  0  0
 25 34  1  0  0  0  0
 26 35  1  0  0  0  0
 23 32  1  0  0  0  0
 24 33  1  0  0  0  0
  3  4  1  0  0  0  0
  3  5  1  0  0  0  0
  3  6  1  0  0  0  0
 41 44  1  0  0  0  0
 41 45  1  0  0  0  0
 41 46  1  0  0  0  0
 11 14  1  0  0  0  0
 11 15  1  0  0  0  0
 11 16  1  0  0  0  0
 48 50  1  0  0  0  0
 48 51  1  0  0  0  0
 48 52  1  0  0  0  0
 21 30  1  0  0  0  0
 21 31  1  0  0  0  0
 38 43  1  0  0  0  0
  8 13  1  0  0  0  0
 18 29  1  0  0  0  0
 47 49  1  0  0  0  0
  7 12  1  0  0  0  0
 37 42  1  0  0  0  0
 17 28  1  0  0  0  0
M  END
$$$$

  -OEChem-05262214473D

 52 52  0     1  0  0  0  0  0999 V2000
   -1.8248    0.3424    3.9102 C   0  0  0  0  0  0  0  0  0  0  0  0
   -0.8774   -0.2723    3.4345 O   0  0  0  0  0  0  0  0  0  0  0  0
   -2.2566    0.0600    5.3109 C   0  0  0  0  0  0  0  0  0  0  0  0
   -3.0163   -0.7363    5.3643 H   0  0  0  0  0  0  0  0  0  0  0  0
   -1.4254   -0.2876    5.9452 H   0  0  0  0  0  0  0  0  0  0  0  0
   -2.6947    0.9149    5.8505 H   0  0  0  0  0  0  0  0  0  0  0  0
   -2.5745    1.3149    3.2691 N   0  0  0  0  0  0  0  0  0  0  0  0
   -2.3276    1.7409    1.9167 C   0  0  2  0  0  0  0  0  0  0  0  0
   -0.9926    1.1555    1.4755 C   0  0  0  0  0  0  0  0  0  0  0  0
   -0.1206    0.8028    2.2668 O   0  0  0  0  0  0  0  0  0  0  0  0
   -2.3188    3.2577    1.8072 C   0  0  0  0  0  0  0  0  0  0  0  0
   -3.3395    1.7507    3.7809 H   0  0  0  0  0  0  0  0  0  0  0  0
   -3.1317    1.3224    1.3015 H   0  0  0  0  0  0  0  0  0  0  0  0
   -1.5198    3.6949    2.4169 H   0  0  0  0  0  0  0  0  0  0  0  0
   -2.1594    3.5799    0.7729 H   0  0  0  0  0  0  0  0  0  0  0  0
   -3.2690    3.6789    2.1530 H   0  0  0  0  0  0  0  0  0  0  0  0
   -0.8700    1.1124    0.0921 N   0  0  0  0  0  0  0  0  0  0  0  0
    0.3073    0.6116   -0.5716 C   0  0  2  0  0  0  0  0  0  0  0  0
    1.5153    1.2088    0.1413 C   0  0  0  0  0  0  0  0  0  0  0  0
    2.1655    2.1468   -0.3152 O   0  0  0  0  0  0  0  0  0  0  0  0
    0.3325    0.9772   -2.0601 C   0  0  0  0  0  0  0  0  0  0  0  0
   -0.7527    0.2864   -2.8492 C   0  0  0  0  0  0  0  0  0  0  0  0
   -0.5789   -1.0325   -3.2688 C   0  0  0  0  0  0  0  0  0  0  0  0
   -1.9301    0.9673   -3.1588 C   0  0  0  0  0  0  0  0  0  0  0  0
   -1.5824   -1.6704   -3.9979 C   0  0  0  0  0  0  0  0  0  0  0  0
   -2.9337    0.3293   -3.8879 C   0  0  0  0  0  0  0  0  0  0  0  0
   -2.7598   -0.9896   -4.3074 C   0  0  0  0  0  0  0  0  0  0  0  0
   -1.6531    1.4091   -0.4852 H   0  0  0  0  0  0  0  0  0  0  0  0
    0.3077   -0.4754   -0.4291 H   0  0  0  0  0  0  0  0  0  0  0  0
    1.3132    0.7390   -2.4938 H   0  0  0  0  0  0  0  0  0  0  0  0
    0.2157    2.0612   -2.1909 H   0  0  0  0  0  0  0  0  0  0  0  0
    0.3351   -1.5708   -3.0321 H   0  0  0  0  0  0  0  0  0  0  0  0
   -2.0744    1.9950   -2.8360 H   0  0  0  0  0  0  0  0  0  0  0  0
   -1.4464   -2.6970   -4.3254 H   0  0  0  0  0  0  0  0  0  0  0  0
   -3.8497    0.8601   -4.1296 H   0  0  0  0  0  0  0  0  0  0  0  0
   -3.5405   -1.4860   -4.8763 H   0  0  0  0  0  0  0  0  0  0  0  0
    1.7472    0.6019    1.3679 N   0  0  0  0  0  0  0  0  0  0  0  0
    2.8170    0.9933    2.2573 C   0  0  2  0  0  0  0  0  0  0  0  0
    4.1070    1.0406    1.4492 C   0  0  0  0  0  0  0  0  0  0  0  0
    4.2634    0.4218    0.3986 O   0  0  0  0  0  0  0  0  0  0  0  0
    2.9437    0.0306    3.4277 C   0  0  0  0  0  0  0  0  0  0  0  0
    1.1342   -0.1555    1.6548 H   0  0  0  0  0  0  0  0  0  0  0  0
    2.5753    1.9985    2.6196 H   0  0  0  0  0  0  0  0  0  0  0  0
    3.1857   -0.9819    3.0843 H   0  0  0  0  0  0  0  0  0  0  0  0
    3.7358    0.3444    4.1156 H   0  0  0  0  0  0  0  0  0  0  0  0
    2.0055   -0.0246    3.9903 H   0  0  0  0  0  0  0  0  0  0  0  0
    5.0781    1.8206    2.0613 N   0  0  0  0  0  0  0  0  0  0  0  0
    6.3938    2.0124    1.4973 C   0  0  0  0  0  0  0  0  0  0  0  0
    4.8549    2.3125    2.9215 H   0  0  0  0  0  0  0  0  0  0  0  0
    7.0818    1.2573    1.9053 H   0  0  0  0  0  0  0  0  0  0  0  0
    6.3424    1.9085    0.4034 H   0  0  0  0  0  0  0  0  0  0  0  0
    6.7593    3.0178    1.7533 H   0  0  0  0  0  0  0  0  0  0  0  0
 25 27  1  0  0  0  0
 26 27  2  0  0  0  0
 23 25  2  0  0  0  0
 24 26  1  0  0  0  0
 22 23  1  0  0  0  0
 22 24  2  0  0  0  0
 21 22  1  0  0  0  0
  1  3  1  0  0  0  0
  1  7  1  0  0  0  0
  1  2  2  0  0  0  0
 38 39  1  0  0  0  0
 39 47  1  0  0  0  0
 39 40  2  0  0  0  0
  8  9  1  0  0  0  0
  9 17  1  0  0  0  0
  9 10  2  0  0  0  0
 18 19  1  0  0  0  0
 19 37  1  0  0  0  0
 19 20  2  0  0  0  0
 38 41  1  0  0  0  0
  8 11  1  0  0  0  0
 47 48  1  0  0  0  0
 18 21  1  0  0  0  0
 37 38  1  0  0  0  0
  7  8  1  0  0  0  0
 17 18  1  0  0  0  0
 27 36  1  0  0  0  0
 25 34  1  0  0  0  0
 26 35  1  0  0  0  0
 23 32  1  0  0  0  0
 24 33  1  0  0  0  0
  3  4  1  0  0  0  0
  3  5  1  0  0  0  0
  3  6  1  0  0  0  0
 41 44  1  0  0  0  0
 41 45  1  0  0  0  0
 41 46  1  0  0  0  0
 11 14  1  0  0  0  0
 11 15  1  0  0  0  0
 11 16  1  0  0  0  0
 48 50  1  0  0  0  0
 48 51  1  0  0  0  0
 48 52  1  0  0  0  0
 21 30  1  0  0  0  0
 21 31  1  0  0  0  0
 38 43  1  0  0  0  0
  8 13  1  0  0  0  0
 18 29  1  0  0  0  0
 47 49  1  0  0  0  0
  7 12  1  0  0  0  0
 37 42  1  0  0  0  0
 17 28  1  0  0  0  0
M  END
$$$$

  -OEChem-05262214473D

 52 52  0     1  0  0  0  0  0999 V2000
   -1.8248    0.3424    3.9102 C   0  0  0  0  0  0  0  0  0  0  0  0
   -0.8774   -0.2723    3.4345 O   0  0  0  0  0  0  0  0  0  0  0  0
   -2.2566    0.0600    5.3109 C   0  0  0  0  0  0  0  0  0  0  0  0
   -3.0163   -0.7363    5.3643 H   0  0  0  0  0  0  0  0  0  0  0  0
   -1.4254   -0.2876    5.9452 H   0  0  0  0  0  0  0  0  0  0  0  0
   -2.6947    0.9149    5.8505 H   0  0  0  0  0  0  0  0  0  0  0  0
   -2.5745    1.3149    3.2691 N   0  0  0  0  0  0  0  0  0  0  0  0
   -2.3276    1.7409    1.9167 C   0  0  2  0  0  0  0  0  0  0  0  0
   -0.9926    1.1555    1.4755 C   0  0  0  0  0  0  0  0  0  0  0  0
   -0.1206    0.8028    2.2668 O   0  0  0  0  0  0  0  0  0  0  0  0
   -2.3188    3.2577    1.8072 C   0  0  0  0  0  0  0  0  0  0  0  0
   -3.3395    1.7507    3.7809 H   0  0  0  0  0  0  0  0  0  0  0  0
   -3.1317    1.3224    1.3015 H   0  0  0  0  0  0  0  0  0  0  0  0
   -1.5198    3.6949    2.4169 H   0  0  0  0  0  0  0  0  0  0  0  0
   -2.1594    3.5799    0.7729 H   0  0  0  0  0  0  0  0  0  0  0  0
   -3.2690    3.6789    2.1530 H   0  0  0  0  0  0  0  0  0  0  0  0
   -0.8700    1.1124    0.0921 N   0  0  0  0  0  0  0  0  0  0  0  0
    0.3073    0.6116   -0.5716 C   0  0  2  0  0  0  0  0  0  0  0  0
    1.5153    1.2088    0.1413 C   0  0  0  0  0  0  0  0  0  0  0  0
    2.0016    2.2960   -0.1625 O   0  0  0  0  0  0  0  0  0  0  0  0
    0.3325    0.9772   -2.0601 C   0  0  0  0  0  0  0  0  0  0  0  0
   -0.7527    0.2864   -2.8492 C   0  0  0  0  0  0  0  0  0  0  0  0
   -0.5789   -1.0325   -3.2688 C   0  0  0  0  0  0  0  0  0  0  0  0
   -1.9301    0.9673   -3.1588 C   0  0  0  0  0  0  0  0  0  0  0  0
   -1.5824   -1.6704   -3.9979 C   0  0  0  0  0  0  0  0  0  0  0  0
   -2.9337    0.3293   -3.8879 C   0  0  0  0  0  0  0  0  0  0  0  0
   -2.7598   -0.9896   -4.3074 C   0  0  0  0  0  0  0  0  0  0  0  0
   -1.6531    1.4091   -0.4852 H   0  0  0  0  0  0  0  0  0  0  0  0
    0.3077   -0.4754   -0.4291 H   0  0  0  0  0  0  0  0  0  0  0  0
    1.3132    0.7390   -2.4938 H   0  0  0  0  0  0  0  0  0  0  0  0
    0.2157    2.0612   -2.1909 H   0  0  0  0  0  0  0  0  0  0  0  0
    0.3351   -1.5708   -3.0321 H   0  0  0  0  0  0  0  0  0  0  0  0
   -2.0744    1.9950   -2.8360 H   0  0  0  0  0  0  0  0  0  0  0  0
   -1.4464   -2.6970   -4.3254 H   0  0  0  0  0  0  0  0  0  0  0  0
   -3.8497    0.8601   -4.1296 H   0  0  0  0  0  0  0  0  0  0  0  0
   -3.5405   -1.4860   -4.8763 H   0  0  0  0  0  0  0  0  0  0  0  0
    1.9511    0.4060    1.1864 N   0  0  0  0  0  0  0  0  0  0  0  0
    3.0655    0.7501    2.0399 C   0  0  2  0  0  0  0  0  0  0  0  0
    4.2418    1.1264    1.1488 C   0  0  0  0  0  0  0  0  0  0  0  0
    4.3448    0.7550   -0.0185 O   0  0  0  0  0  0  0  0  0  0  0  0
    3.4304   -0.4009    2.9644 C   0  0  0  0  0  0  0  0  0  0  0  0
    1.4623   -0.4672    1.3600 H   0  0  0  0  0  0  0  0  0  0  0  0
    2.7572    1.6225    2.6264 H   0  0  0  0  0  0  0  0  0  0  0  0
    3.7420   -1.2840    2.3948 H   0  0  0  0  0  0  0  0  0  0  0  0
    4.2562   -0.1287    3.6300 H   0  0  0  0  0  0  0  0  0  0  0  0
    2.5744   -0.6899    3.5836 H   0  0  0  0  0  0  0  0  0  0  0  0
    5.1842    1.8901    1.8233 N   0  0  0  0  0  0  0  0  0  0  0  0
    6.3978    2.3617    1.1980 C   0  0  0  0  0  0  0  0  0  0  0  0
    5.0076    2.1673    2.7844 H   0  0  0  0  0  0  0  0  0  0  0  0
    7.2070    1.6378    1.3745 H   0  0  0  0  0  0  0  0  0  0  0  0
    6.2338    2.4715    0.1159 H   0  0  0  0  0  0  0  0  0  0  0  0
    6.6768    3.3353    1.6273 H   0  0  0  0  0  0  0  0  0  0  0  0
 25 27  1  0  0  0  0
 26 27  2  0  0  0  0
 23 25  2  0  0  0  0
 24 26  1  0  0  0  0
 22 23  1  0  0  0  0
 22 24  2  0  0  0  0
 21 22  1  0  0  0  0
  1  3  1  0  0  0  0
  1  7  1  0  0  0  0
  1  2  2  0  0  0  0
 38 39  1  0  0  0  0
 39 47  1  0  0  0  0
 39 40  2  0  0  0  0
  8  9  1  0  0  0  0
  9 17  1  0  0  0  0
  9 10  2  0  0  0  0
 18 19  1  0  0  0  0
 19 37  1  0  0  0  0
 19 20  2  0  0  0  0
 38 41  1  0  0  0  0
  8 11  1  0  0  0  0
 47 48  1  0  0  0  0
 18 21  1  0  0  0  0
 37 38  1  0  0  0  0
  7  8  1  0  0  0  0
 17 18  1  0  0  0  0
 27 36  1  0  0  0  0
 25 34  1  0  0  0  0
 26 35  1  0  0  0  0
 23 32  1  0  0  0  0
 24 33  1  0  0  0  0
  3  4  1  0  0  0  0
  3  5  1  0  0  0  0
  3  6  1  0  0  0  0
 41 44  1  0  0  0  0
 41 45  1  0  0  0  0
 41 46  1  0  0  0  0
 11 14  1  0  0  0  0
 11 15  1  0  0  0  0
 11 16  1  0  0  0  0
 48 50  1  0  0  0  0
 48 51  1  0  0  0  0
 48 52  1  0  0  0  0
 21 30  1  0  0  0  0
 21 31  1  0  0  0  0
 38 43  1  0  0  0  0
  8 13  1  0  0  0  0
 18 29  1  0  0  0  0
 47 49  1  0  0  0  0
  7 12  1  0  0  0  0
 37 42  1  0  0  0  0
 17 28  1  0  0  0  0
M  END
$$$$

  -OEChem-05262214473D

 52 52  0     1  0  0  0  0  0999 V2000
   -1.8248    0.3424    3.9102 C   0  0  0  0  0  0  0  0  0  0  0  0
   -0.8774   -0.2723    3.4345 O   0  0  0  0  0  0  0  0  0  0  0  0
   -2.2566    0.0600    5.3109 C   0  0  0  0  0  0  0  0  0  0  0  0
   -3.0163   -0.7363    5.3643 H   0  0  0  0  0  0  0  0  0  0  0  0
   -1.4254   -0.2876    5.9452 H   0  0  0  0  0  0  0  0  0  0  0  0
   -2.6947    0.9149    5.8505 H   0  0  0  0  0  0  0  0  0  0  0  0
   -2.5745    1.3149    3.2691 N   0  0  0  0  0  0  0  0  0  0  0  0
   -2.3276    1.7409    1.9167 C   0  0  2  0  0  0  0  0  0  0  0  0
   -0.9926    1.1555    1.4755 C   0  0  0  0  0  0  0  0  0  0  0  0
   -0.1206    0.8028    2.2668 O   0  0  0  0  0  0  0  0  0  0  0  0
   -2.3188    3.2577    1.8072 C   0  0  0  0  0  0  0  0  0  0  0  0
   -3.3395    1.7507    3.7809 H   0  0  0  0  0  0  0  0  0  0  0  0
   -3.1317    1.3224    1.3015 H   0  0  0  0  0  0  0  0  0  0  0  0
   -1.5198    3.6949    2.4169 H   0  0  0  0  0  0  0  0  0  0  0  0
   -2.1594    3.5799    0.7729 H   0  0  0  0  0  0  0  0  0  0  0  0
   -3.2690    3.6789    2.1530 H   0  0  0  0  0  0  0  0  0  0  0  0
   -0.8700    1.1124    0.0921 N   0  0  0  0  0  0  0  0  0  0  0  0
    0.3073    0.6116   -0.5716 C   0  0  2  0  0  0  0  0  0  0  0  0
    1.5153    1.2088    0.1413 C   0  0  0  0  0  0  0  0  0  0  0  0
    1.8407    2.3891    0.0322 O   0  0  0  0  0  0  0  0  0  0  0  0
    0.3325    0.9772   -2.0601 C   0  0  0  0  0  0  0  0  0  0  0  0
   -0.7527    0.2864   -2.8492 C   0  0  0  0  0  0  0  0  0  0  0  0
   -0.5789   -1.0325   -3.2688 C   0  0  0  0  0  0  0  0  0  0  0  0
   -1.9301    0.9673   -3.1588 C   0  0  0  0  0  0  0  0  0  0  0  0
   -1.5824   -1.6704   -3.9979 C   0  0  0  0  0  0  0  0  0  0  0  0
   -2.9337    0.3293   -3.8879 C   0  0  0  0  0  0  0  0  0  0  0  0
   -2.7598   -0.9896   -4.3074 C   0  0  0  0  0  0  0  0  0  0  0  0
   -1.6531    1.4091   -0.4852 H   0  0  0  0  0  0  0  0  0  0  0  0
    0.3077   -0.4754   -0.4291 H   0  0  0  0  0  0  0  0  0  0  0  0
    1.3132    0.7390   -2.4938 H   0  0  0  0  0  0  0  0  0  0  0  0
    0.2157    2.0612   -2.1909 H   0  0  0  0  0  0  0  0  0  0  0  0
    0.3351   -1.5708   -3.0321 H   0  0  0  0  0  0  0  0  0  0  0  0
   -2.0744    1.9950   -2.8360 H   0  0  0  0  0  0  0  0  0  0  0  0
   -1.4464   -2.6970   -4.3254 H   0  0  0  0  0  0  0  0  0  0  0  0
   -3.8497    0.8601   -4.1296 H   0  0  0  0  0  0  0  0  0  0  0  0
   -3.5405   -1.4860   -4.8763 H   0  0  0  0  0  0  0  0  0  0  0  0
    2.1534    0.2788    0.9502 N   0  0  0  0  0  0  0  0  0  0  0  0
    3.3130    0.5898    1.7549 C   0  0  2  0  0  0  0  0  0  0  0  0
    4.3312    1.2873    0.8626 C   0  0  0  0  0  0  0  0  0  0  0  0
    4.3409    1.1723   -0.3613 O   0  0  0  0  0  0  0  0  0  0  0  0
    3.9058   -0.6638    2.3791 C   0  0  0  0  0  0  0  0  0  0  0  0
    1.7870   -0.6682    0.9781 H   0  0  0  0  0  0  0  0  0  0  0  0
    2.9790    1.2798    2.5374 H   0  0  0  0  0  0  0  0  0  0  0  0
    4.2460   -1.3671    1.6103 H   0  0  0  0  0  0  0  0  0  0  0  0
    4.7669   -0.4231    3.0112 H   0  0  0  0  0  0  0  0  0  0  0  0
    3.1631   -1.1802    2.9968 H   0  0  0  0  0  0  0  0  0  0  0  0
    5.2542    2.0188    1.5968 N   0  0  0  0  0  0  0  0  0  0  0  0
    6.3290    2.7609    0.9802 C   0  0  0  0  0  0  0  0  0  0  0  0
    5.1587    2.0737    2.6066 H   0  0  0  0  0  0  0  0  0  0  0  0
    7.2281    2.1293    0.9272 H   0  0  0  0  0  0  0  0  0  0  0  0
    6.0316    3.0611   -0.0354 H   0  0  0  0  0  0  0  0  0  0  0  0
    6.5459    3.6577    1.5790 H   0  0  0  0  0  0  0  0  0  0  0  0
 25 27  1  0  0  0  0
 26 27  2  0  0  0  0
 23 25  2  0  0  0  0
 24 26  1  0  0  0  0
 22 23  1  0  0  0  0
 22 24  2  0  0  0  0
 21 22  1  0  0  0  0
  1  3  1  0  0  0  0
  1  7  1  0  0  0  0
  1  2  2  0  0  0  0
 38 39  1  0  0  0  0
 39 47  1  0  0  0  0
 39 40  2  0  0  0  0
  8  9  1  0  0  0  0
  9 17  1  0  0  0  0
  9 10  2  0  0  0  0
 18 19  1  0  0  0  0
 19 37  1  0  0  0  0
 19 20  2  0  0  0  0
 38 41  1  0  0  0  0
  8 11  1  0  0  0  0
 47 48  1  0  0  0  0
 18 21  1  0  0  0  0
 37 38  1  0  0  0  0
  7  8  1  0  0  0  0
 17 18  1  0  0  0  0
 27 36  1  0  0  0  0
 25 34  1  0  0  0  0
 26 35  1  0  0  0  0
 23 32  1  0  0  0  0
 24 33  1  0  0  0  0
  3  4  1  0  0  0  0
  3  5  1  0  0  0  0
  3  6  1  0  0  0  0
 41 44  1  0  0  0  0
 41 45  1  0  0  0  0
 41 46  1  0  0  0  0
 11 14  1  0  0  0  0
 11 15  1  0  0  0  0
 11 16  1  0  0  0  0
 48 50  1  0  0  0  0
 48 51  1  0  0  0  0
 48 52  1  0  0  0  0
 21 30  1  0  0  0  0
 21 31  1  0  0  0  0
 38 43  1  0  0  0  0
  8 13  1  0  0  0  0
 18 29  1  0  0  0  0
 47 49  1  0  0  0  0
  7 12  1  0  0  0  0
 37 42  1  0  0  0  0
 17 28  1  0  0  0  0
M  END
$$$$

  -OEChem-05262214473D

 52 52  0     1  0  0  0  0  0999 V2000
   -1.8248    0.3424    3.9102 C   0  0  0  0  0  0  0  0  0  0  0  0
   -0.8774   -0.2723    3.4345 O   0  0  0  0  0  0  0  0  0  0  0  0
   -2.2566    0.0600    5.3109 C   0  0  0  0  0  0  0  0  0  0  0  0
   -3.0163   -0.7363    5.3643 H   0  0  0  0  0  0  0  0  0  0  0  0
   -1.4254   -0.2876    5.9452 H   0  0  0  0  0  0  0  0  0  0  0  0
   -2.6947    0.9149    5.8505 H   0  0  0  0  0  0  0  0  0  0  0  0
   -2.5745    1.3149    3.2691 N   0  0  0  0  0  0  0  0  0  0  0  0
   -2.3276    1.7409    1.9167 C   0  0  2  0  0  0  0  0  0  0  0  0
   -0.9926    1.1555    1.4755 C   0  0  0  0  0  0  0  0  0  0  0  0
   -0.1206    0.8028    2.2668 O   0  0  0  0  0  0  0  0  0  0  0  0
   -2.3188    3.2577    1.8072 C   0  0  0  0  0  0  0  0  0  0  0  0
   -3.3395    1.7507    3.7809 H   0  0  0  0  0  0  0  0  0  0  0  0
   -3.1317    1.3224    1.3015 H   0  0  0  0  0  0  0  0  0  0  0  0
   -1.5198    3.6949    2.4169 H   0  0  0  0  0  0  0  0  0  0  0  0
   -2.1594    3.5799    0.7729 H   0  0  0  0  0  0  0  0  0  0  0  0
   -3.2690    3.6789    2.1530 H   0  0  0  0  0  0  0  0  0  0  0  0
   -0.8700    1.1124    0.0921 N   0  0  0  0  0  0  0  0  0  0  0  0
    0.3073    0.6116   -0.5716 C   0  0  2  0  0  0  0  0  0  0  0  0
    1.5153    1.2088    0.1413 C   0  0  0  0  0  0  0  0  0  0  0  0
    1.6938    2.4196    0.2557 O   0  0  0  0  0  0  0  0  0  0  0  0
    0.3325    0.9772   -2.0601 C   0  0  0  0  0  0  0  0  0  0  0  0
   -0.7527    0.2864   -2.8492 C   0  0  0  0  0  0  0  0  0  0  0  0
   -0.5789   -1.0325   -3.2688 C   0  0  0  0  0  0  0  0  0  0  0  0
   -1.9301    0.9673   -3.1588 C   0  0  0  0  0  0  0  0  0  0  0  0
   -1.5824   -1.6704   -3.9979 C   0  0  0  0  0  0  0  0  0  0  0  0
   -2.9337    0.3293   -3.8879 C   0  0  0  0  0  0  0  0  0  0  0  0
   -2.7598   -0.9896   -4.3074 C   0  0  0  0  0  0  0  0  0  0  0  0
   -1.6531    1.4091   -0.4852 H   0  0  0  0  0  0  0  0  0  0  0  0
    0.3077   -0.4754   -0.4291 H   0  0  0  0  0  0  0  0  0  0  0  0
    1.3132    0.7390   -2.4938 H   0  0  0  0  0  0  0  0  0  0  0  0
    0.2157    2.0612   -2.1909 H   0  0  0  0  0  0  0  0  0  0  0  0
    0.3351   -1.5708   -3.0321 H   0  0  0  0  0  0  0  0  0  0  0  0
   -2.0744    1.9950   -2.8360 H   0  0  0  0  0  0  0  0  0  0  0  0
   -1.4464   -2.6970   -4.3254 H   0  0  0  0  0  0  0  0  0  0  0  0
   -3.8497    0.8601   -4.1296 H   0  0  0  0  0  0  0  0  0  0  0  0
   -3.5405   -1.4860   -4.8763 H   0  0  0  0  0  0  0  0  0  0  0  0
    2.3403    0.2287    0.6755 N   0  0  0  0  0  0  0  0  0  0  0  0
    3.5425    0.5234    1.4216 C   0  0  2  0  0  0  0  0  0  0  0  0
    4.3691    1.5123    0.6100 C   0  0  0  0  0  0  0  0  0  0  0  0
    4.2518    1.6451   -0.6064 O   0  0  0  0  0  0  0  0  0  0  0  0
    4.3375   -0.7401    1.7116 C   0  0  0  0  0  0  0  0  0  0  0  0
    2.0863   -0.7447    0.5351 H   0  0  0  0  0  0  0  0  0  0  0  0
    3.2258    0.9940    2.3588 H   0  0  0  0  0  0  0  0  0  0  0  0
    4.6634   -1.2255    0.7845 H   0  0  0  0  0  0  0  0  0  0  0  0
    5.2332   -0.5188    2.3014 H   0  0  0  0  0  0  0  0  0  0  0  0
    3.7316   -1.4622    2.2696 H   0  0  0  0  0  0  0  0  0  0  0  0
    5.2833    2.1981    1.3974 N   0  0  0  0  0  0  0  0  0  0  0  0
    6.1922    3.1828    0.8586 C   0  0  0  0  0  0  0  0  0  0  0  0
    5.2981    2.0381    2.4004 H   0  0  0  0  0  0  0  0  0  0  0  0
    7.1435    2.6983    0.5937 H   0  0  0  0  0  0  0  0  0  0  0  0
    5.7496    3.6372   -0.0401 H   0  0  0  0  0  0  0  0  0  0  0  0
    6.3755    3.9633    1.6117 H   0  0  0  0  0  0  0  0  0  0  0  0
 25 27  1  0  0  0  0
 26 27  2  0  0  0  0
 23 25  2  0  0  0  0
 24 26  1  0  0  0  0
 22 23  1  0  0  0  0
 22 24  2  0  0  0  0
 21 22  1  0  0  0  0
  1  3  1  0  0  0  0
  1  7  1  0  0  0  0
  1  2  2  0  0  0  0
 38 39  1  0  0  0  0
 39 47  1  0  0  0  0
 39 40  2  0  0  0  0
  8  9  1  0  0  0  0
  9 17  1  0  0  0  0
  9 10  2  0  0  0  0
 18 19  1  0  0  0  0
 19 37  1  0  0  0  0
 19 20  2  0  0  0  0
 38 41  1  0  0  0  0
  8 11  1  0  0  0  0
 47 48  1  0  0  0  0
 18 21  1  0  0  0  0
 37 38  1  0  0  0  0
  7  8  1  0  0  0  0
 17 18  1  0  0  0  0
 27 36  1  0  0  0  0
 25 34  1  0  0  0  0
 26 35  1  0  0  0  0
 23 32  1  0  0  0  0
 24 33  1  0  0  0  0
  3  4  1  0  0  0  0
  3  5  1  0  0  0  0
  3  6  1  0  0  0  0
 41 44  1  0  0  0  0
 41 45  1  0  0  0  0
 41 46  1  0  0  0  0
 11 14  1  0  0  0  0
 11 15  1  0  0  0  0
 11 16  1  0  0  0  0
 48 50  1  0  0  0  0
 48 51  1  0  0  0  0
 48 52  1  0  0  0  0
 21 30  1  0  0  0  0
 21 31  1  0  0  0  0
 38 43  1  0  0  0  0
  8 13  1  0  0  0  0
 18 29  1  0  0  0  0
 47 49  1  0  0  0  0
  7 12  1  0  0  0  0
 37 42  1  0  0  0  0
 17 28  1  0  0  0  0
M  END
$$$$

  -OEChem-05262214473D

 52 52  0     1  0  0  0  0  0999 V2000
   -1.8248    0.3424    3.9102 C   0  0  0  0  0  0  0  0  0  0  0  0
   -0.8774   -0.2723    3.4345 O   0  0  0  0  0  0  0  0  0  0  0  0
   -2.2566    0.0600    5.3109 C   0  0  0  0  0  0  0  0  0  0  0  0
   -3.0163   -0.7363    5.3643 H   0  0  0  0  0  0  0  0  0  0  0  0
   -1.4254   -0.2876    5.9452 H   0  0  0  0  0  0  0  0  0  0  0  0
   -2.6947    0.9149    5.8505 H   0  0  0  0  0  0  0  0  0  0  0  0
   -2.5745    1.3149    3.2691 N   0  0  0  0  0  0  0  0  0  0  0  0
   -2.3276    1.7409    1.9167 C   0  0  2  0  0  0  0  0  0  0  0  0
   -0.9926    1.1555    1.4755 C   0  0  0  0  0  0  0  0  0  0  0  0
   -0.1206    0.8028    2.2668 O   0  0  0  0  0  0  0  0  0  0  0  0
   -2.3188    3.2577    1.8072 C   0  0  0  0  0  0  0  0  0  0  0  0
   -3.3395    1.7507    3.7809 H   0  0  0  0  0  0  0  0  0  0  0  0
   -3.1317    1.3224    1.3015 H   0  0  0  0  0  0  0  0  0  0  0  0
   -1.5198    3.6949    2.4169 H   0  0  0  0  0  0  0  0  0  0  0  0
   -2.1594    3.5799    0.7729 H   0  0  0  0  0  0  0  0  0  0  0  0
   -3.2690    3.6789    2.1530 H   0  0  0  0  0  0  0  0  0  0  0  0
   -0.8700    1.1124    0.0921 N   0  0  0  0  0  0  0  0  0  0  0  0
    0.3073    0.6116   -0.5716 C   0  0  2  0  0  0  0  0  0  0  0  0
    1.5153    1.2088    0.1413 C   0  0  0  0  0  0  0  0  0  0  0  0
    1.5708    2.3854    0.4927 O   0  0  0  0  0  0  0  0  0  0  0  0
    0.3325    0.9772   -2.0601 C   0  0  0  0  0  0  0  0  0  0  0  0
   -0.7527    0.2864   -2.8492 C   0  0  0  0  0  0  0  0  0  0  0  0
   -0.5789   -1.0325   -3.2688 C   0  0  0  0  0  0  0  0  0  0  0  0
   -1.9301    0.9673   -3.1588 C   0  0  0  0  0  0  0  0  0  0  0  0
   -1.5824   -1.6704   -3.9979 C   0  0  0  0  0  0  0  0  0  0  0  0
   -2.9337    0.3293   -3.8879 C   0  0  0  0  0  0  0  0  0  0  0  0
   -2.7598   -0.9896   -4.3074 C   0  0  0  0  0  0  0  0  0  0  0  0
   -1.6531    1.4091   -0.4852 H   0  0  0  0  0  0  0  0  0  0  0  0
    0.3077   -0.4754   -0.4291 H   0  0  0  0  0  0  0  0  0  0  0  0
    1.3132    0.7390   -2.4938 H   0  0  0  0  0  0  0  0  0  0  0  0
    0.2157    2.0612   -2.1909 H   0  0  0  0  0  0  0  0  0  0  0  0
    0.3351   -1.5708   -3.0321 H   0  0  0  0  0  0  0  0  0  0  0  0
   -2.0744    1.9950   -2.8360 H   0  0  0  0  0  0  0  0  0  0  0  0
   -1.4464   -2.6970   -4.3254 H   0  0  0  0  0  0  0  0  0  0  0  0
   -3.8497    0.8601   -4.1296 H   0  0  0  0  0  0  0  0  0  0  0  0
   -3.5405   -1.4860   -4.8763 H   0  0  0  0  0  0  0  0  0  0  0  0
    2.4990    0.2593    0.3810 N   0  0  0  0  0  0  0  0  0  0  0  0
    3.7385    0.5554    1.0627 C   0  0  2  0  0  0  0  0  0  0  0  0
    4.3528    1.7859    0.4084 C   0  0  0  0  0  0  0  0  0  0  0  0
    4.0836    2.1414   -0.7371 O   0  0  0  0  0  0  0  0  0  0  0  0
    4.6960   -0.6247    1.0075 C   0  0  0  0  0  0  0  0  0  0  0  0
    2.3397   -0.6915    0.0611 H   0  0  0  0  0  0  0  0  0  0  0  0
    3.4807    0.7843    2.1025 H   0  0  0  0  0  0  0  0  0  0  0  0
    4.9657   -0.8689   -0.0265 H   0  0  0  0  0  0  0  0  0  0  0  0
    5.6231   -0.4092    1.5488 H   0  0  0  0  0  0  0  0  0  0  0  0
    4.2412   -1.5167    1.4518 H   0  0  0  0  0  0  0  0  0  0  0  0
    5.2694    2.4157    1.2386 N   0  0  0  0  0  0  0  0  0  0  0  0
    5.9966    3.5987    0.8416 C   0  0  0  0  0  0  0  0  0  0  0  0
    5.4161    2.0628    2.1797 H   0  0  0  0  0  0  0  0  0  0  0  0
    6.9592    3.3061    0.3969 H   0  0  0  0  0  0  0  0  0  0  0  0
    5.4070    4.1605    0.1021 H   0  0  0  0  0  0  0  0  0  0  0  0
    6.1773    4.2311    1.7233 H   0  0  0  0  0  0  0  0  0  0  0  0
 25 27  1  0  0  0  0
 26 27  2  0  0  0  0
 23 25  2  0  0  0  0
 24 26  1  0  0  0  0
 22 23  1  0  0  0  0
 22 24  2  0  0  0  0
 21 22  1  0  0  0  0
  1  3  1  0  0  0  0
  1  7  1  0  0  0  0
  1  2  2  0  0  0  0
 38 39  1  0  0  0  0
 39 47  1  0  0  0  0
 39 40  2  0  0  0  0
  8  9  1  0  0  0  0
  9 17  1  0  0  0  0
  9 10  2  0  0  0  0
 18 19  1  0  0  0  0
 19 37  1  0  0  0  0
 19 20  2  0  0  0  0
 38 41  1  0  0  0  0
  8 11  1  0  0  0  0
 47 48  1  0  0  0  0
 18 21  1  0  0  0  0
 37 38  1  0  0  0  0
  7  8  1  0  0  0  0
 17 18  1  0  0  0  0
 27 36  1  0  0  0  0
 25 34  1  0  0  0  0
 26 35  1  0  0  0  0
 23 32  1  0  0  0  0
 24 33  1  0  0  0  0
  3  4  1  0  0  0  0
  3  5  1  0  0  0  0
  3  6  1  0  0  0  0
 41 44  1  0  0  0  0
 41 45  1  0  0  0  0
 41 46  1  0  0  0  0
 11 14  1  0  0  0  0
 11 15  1  0  0  0  0
 11 16  1  0  0  0  0
 48 50  1  0  0  0  0
 48 51  1  0  0  0  0
 48 52  1  0  0  0  0
 21 30  1  0  0  0  0
 21 31  1  0  0  0  0
 38 43  1  0  0  0  0
  8 13  1  0  0  0  0
 18 29  1  0  0  0  0
 47 49  1  0  0  0  0
  7 12  1  0  0  0  0
 37 42  1  0  0  0  0
 17 28  1  0  0  0  0
M  END
$$$$

  -OEChem-05262214473D

 52 52  0     1  0  0  0  0  0999 V2000
   -1.8248    0.3424    3.9102 C   0  0  0  0  0  0  0  0  0  0  0  0
   -0.8774   -0.2723    3.4345 O   0  0  0  0  0  0  0  0  0  0  0  0
   -2.2566    0.0600    5.3109 C   0  0  0  0  0  0  0  0  0  0  0  0
   -3.0163   -0.7363    5.3643 H   0  0  0  0  0  0  0  0  0  0  0  0
   -1.4254   -0.2876    5.9452 H   0  0  0  0  0  0  0  0  0  0  0  0
   -2.6947    0.9149    5.8505 H   0  0  0  0  0  0  0  0  0  0  0  0
   -2.5745    1.3149    3.2691 N   0  0  0  0  0  0  0  0  0  0  0  0
   -2.3276    1.7409    1.9167 C   0  0  2  0  0  0  0  0  0  0  0  0
   -0.9926    1.1555    1.4755 C   0  0  0  0  0  0  0  0  0  0  0  0
   -0.1206    0.8028    2.2668 O   0  0  0  0  0  0  0  0  0  0  0  0
   -2.3188    3.2577    1.8072 C   0  0  0  0  0  0  0  0  0  0  0  0
   -3.3395    1.7507    3.7809 H   0  0  0  0  0  0  0  0  0  0  0  0
   -3.1317    1.3224    1.3015 H   0  0  0  0  0  0  0  0  0  0  0  0
   -1.5198    3.6949    2.4169 H   0  0  0  0  0  0  0  0  0  0  0  0
   -2.1594    3.5799    0.7729 H   0  0  0  0  0  0  0  0  0  0  0  0
   -3.2690    3.6789    2.1530 H   0  0  0  0  0  0  0  0  0  0  0  0
   -0.8700    1.1124    0.0921 N   0  0  0  0  0  0  0  0  0  0  0  0
    0.3073    0.6116   -0.5716 C   0  0  2  0  0  0  0  0  0  0  0  0
    1.5153    1.2088    0.1413 C   0  0  0  0  0  0  0  0  0  0  0  0
    1.4802    2.2889    0.7270 O   0  0  0  0  0  0  0  0  0  0  0  0
    0.3325    0.9772   -2.0601 C   0  0  0  0  0  0  0  0  0  0  0  0
   -0.7527    0.2864   -2.8492 C   0  0  0  0  0  0  0  0  0  0  0  0
   -0.5789   -1.0325   -3.2688 C   0  0  0  0  0  0  0  0  0  0  0  0
   -1.9301    0.9673   -3.1588 C   0  0  0  0  0  0  0  0  0  0  0  0
   -1.5824   -1.6704   -3.9979 C   0  0  0  0  0  0  0  0  0  0  0  0
   -2.9337    0.3293   -3.8879 C   0  0  0  0  0  0  0  0  0  0  0  0
   -2.7598   -0.9896   -4.3074 C   0  0  0  0  0  0  0  0  0  0  0  0
   -1.6531    1.4091   -0.4852 H   0  0  0  0  0  0  0  0  0  0  0  0
    0.3077   -0.4754   -0.4291 H   0  0  0  0  0  0  0  0  0  0  0  0
    1.3132    0.7390   -2.4938 H   0  0  0  0  0  0  0  0  0  0  0  0
    0.2157    2.0612   -2.1909 H   0  0  0  0  0  0  0  0  0  0  0  0
    0.3351   -1.5708   -3.0321 H   0  0  0  0  0  0  0  0  0  0  0  0
   -2.0744    1.9950   -2.8360 H   0  0  0  0  0  0  0  0  0  0  0  0
   -1.4464   -2.6970   -4.3254 H   0  0  0  0  0  0  0  0  0  0  0  0
   -3.8497    0.8601   -4.1296 H   0  0  0  0  0  0  0  0  0  0  0  0
   -3.5405   -1.4860   -4.8763 H   0  0  0  0  0  0  0  0  0  0  0  0
    2.6187    0.3685    0.0866 N   0  0  0  0  0  0  0  0  0  0  0  0
    3.8875    0.6837    0.7028 C   0  0  2  0  0  0  0  0  0  0  0  0
    4.2835    2.0896    0.2714 C   0  0  0  0  0  0  0  0  0  0  0  0
    3.8479    2.6272   -0.7446 O   0  0  0  0  0  0  0  0  0  0  0  0
    4.9569   -0.3255    0.3147 C   0  0  0  0  0  0  0  0  0  0  0  0
    2.5300   -0.5122   -0.4115 H   0  0  0  0  0  0  0  0  0  0  0  0
    3.7262    0.6653    1.7862 H   0  0  0  0  0  0  0  0  0  0  0  0
    5.1323   -0.3215   -0.7673 H   0  0  0  0  0  0  0  0  0  0  0  0
    5.9102   -0.1017    0.8048 H   0  0  0  0  0  0  0  0  0  0  0  0
    4.6571   -1.3399    0.5990 H   0  0  0  0  0  0  0  0  0  0  0  0
    5.2136    2.6568    1.1313 N   0  0  0  0  0  0  0  0  0  0  0  0
    5.7556    3.9803    0.9303 C   0  0  0  0  0  0  0  0  0  0  0  0
    5.5047    2.1462    1.9597 H   0  0  0  0  0  0  0  0  0  0  0  0
    6.6877    3.9112    0.3502 H   0  0  0  0  0  0  0  0  0  0  0  0
    5.0271    4.5953    0.3815 H   0  0  0  0  0  0  0  0  0  0  0  0
    5.9647    4.4429    1.9061 H   0  0  0  0  0  0  0  0  0  0  0  0
 25 27  1  0  0  0  0
 26 27  2  0  0  0  0
 23 25  2  0  0  0  0
 24 26  1  0  0  0  0
 22 23  1  0  0  0  0
 22 24  2  0  0  0  0
 21 22  1  0  0  0  0
  1  3  1  0  0  0  0
  1  7  1  0  0  0  0
  1  2  2  0  0  0  0
 38 39  1  0  0  0  0
 39 47  1  0  0  0  0
 39 40  2  0  0  0  0
  8  9  1  0  0  0  0
  9 17  1  0  0  0  0
  9 10  2  0  0  0  0
 18 19  1  0  0  0  0
 19 37  1  0  0  0  0
 19 20  2  0  0  0  0
 38 41  1  0  0  0  0
  8 11  1  0  0  0  0
 47 48  1  0  0  0  0
 18 21  1  0  0  0  0
 37 38  1  0  0  0  0
  7  8  1  0  0  0  0
 17 18  1  0  0  0  0
 27 36  1  0  0  0  0
 25 34  1  0  0  0  0
 26 35  1  0  0  0  0
 23 32  1  0  0  0  0
 24 33  1  0  0  0  0
  3  4  1  0  0  0  0
  3  5  1  0  0  0  0
  3  6  1  0  0  0  0
 41 44  1  0  0  0  0
 41 45  1  0  0  0  0
 41 46  1  0  0  0  0
 11 14  1  0  0  0  0
 11 15  1  0  0  0  0
 11 16  1  0  0  0  0
 48 50  1  0  0  0  0
 48 51  1  0  0  0  0
 48 52  1  0  0  0  0
 21 30  1  0  0  0  0
 21 31  1  0  0  0  0
 38 43  1  0  0  0  0
  8 13  1  0  0  0  0
 18 29  1  0  0  0  0
 47 49  1  0  0  0  0
  7 12  1  0  0  0  0
 37 42  1  0  0  0  0
 17 28  1  0  0  0  0
M  END
$$$$

  -OEChem-05262214473D

 52 52  0     1  0  0  0  0  0999 V2000
   -1.8248    0.3424    3.9102 C   0  0  0  0  0  0  0  0  0  0  0  0
   -0.8774   -0.2723    3.4345 O   0  0  0  0  0  0  0  0  0  0  0  0
   -2.2566    0.0600    5.3109 C   0  0  0  0  0  0  0  0  0  0  0  0
   -3.0163   -0.7363    5.3643 H   0  0  0  0  0  0  0  0  0  0  0  0
   -1.4254   -0.2876    5.9452 H   0  0  0  0  0  0  0  0  0  0  0  0
   -2.6947    0.9149    5.8505 H   0  0  0  0  0  0  0  0  0  0  0  0
   -2.5745    1.3149    3.2691 N   0  0  0  0  0  0  0  0  0  0  0  0
   -2.3276    1.7409    1.9167 C   0  0  2  0  0  0  0  0  0  0  0  0
   -0.9926    1.1555    1.4755 C   0  0  0  0  0  0  0  0  0  0  0  0
   -0.1206    0.8028    2.2668 O   0  0  0  0  0  0  0  0  0  0  0  0
   -2.3188    3.2577    1.8072 C   0  0  0  0  0  0  0  0  0  0  0  0
   -3.3395    1.7507    3.7809 H   0  0  0  0  0  0  0  0  0  0  0  0
   -3.1317    1.3224    1.3015 H   0  0  0  0  0  0  0  0  0  0  0  0
   -1.5198    3.6949    2.4169 H   0  0  0  0  0  0  0  0  0  0  0  0
   -2.1594    3.5799    0.7729 H   0  0  0  0  0  0  0  0  0  0  0  0
   -3.2690    3.6789    2.1530 H   0  0  0  0  0  0  0  0  0  0  0  0
   -0.8700    1.1124    0.0921 N   0  0  0  0  0  0  0  0  0  0  0  0
    0.3073    0.6116   -0.5716 C   0  0  2  0  0  0  0  0  0  0  0  0
    1.5153    1.2088    0.1413 C   0  0  0  0  0  0  0  0  0  0  0  0
    1.4281    2.1367    0.9428 O   0  0  0  0  0  0  0  0  0  0  0  0
    0.3325    0.9772   -2.0601 C   0  0  0  0  0  0  0  0  0  0  0  0
   -0.7527    0.2864   -2.8492 C   0  0  0  0  0  0  0  0  0  0  0  0
   -0.5789   -1.0325   -3.2688 C   0  0  0  0  0  0  0  0  0  0  0  0
   -1.9301    0.9673   -3.1588 C   0  0  0  0  0  0  0  0  0  0  0  0
   -1.5824   -1.6704   -3.9979 C   0  0  0  0  0  0  0  0  0  0  0  0
   -2.9337    0.3293   -3.8879 C   0  0  0  0  0  0  0  0  0  0  0  0
   -2.7598   -0.9896   -4.3074 C   0  0  0  0  0  0  0  0  0  0  0  0
   -1.6531    1.4091   -0.4852 H   0  0  0  0  0  0  0  0  0  0  0  0
    0.3077   -0.4754   -0.4291 H   0  0  0  0  0  0  0  0  0  0  0  0
    1.3132    0.7390   -2.4938 H   0  0  0  0  0  0  0  0  0  0  0  0
    0.2157    2.0612   -2.1909 H   0  0  0  0  0  0  0  0  0  0  0  0
    0.3351   -1.5708   -3.0321 H   0  0  0  0  0  0  0  0  0  0  0  0
   -2.0744    1.9950   -2.8360 H   0  0  0  0  0  0  0  0  0  0  0  0
   -1.4464   -2.6970   -4.3254 H   0  0  0  0  0  0  0  0  0  0  0  0
   -3.8497    0.8601   -4.1296 H   0  0  0  0  0  0  0  0  0  0  0  0
   -3.5405   -1.4860   -4.8763 H   0  0  0  0  0  0  0  0  0  0  0  0
    2.6913    0.5489   -0.1874 N   0  0  0  0  0  0  0  0  0  0  0  0
    3.9794    0.8994    0.3663 C   0  0  2  0  0  0  0  0  0  0  0  0
    4.1660    2.4026    0.2084 C   0  0  0  0  0  0  0  0  0  0  0  0
    3.5606    3.0694   -0.6283 O   0  0  0  0  0  0  0  0  0  0  0  0
    5.1025    0.1373   -0.3196 C   0  0  0  0  0  0  0  0  0  0  0  0
    2.6442   -0.2191   -0.8506 H   0  0  0  0  0  0  0  0  0  0  0  0
    3.9457    0.6449    1.4313 H   0  0  0  0  0  0  0  0  0  0  0  0
    5.1519    0.3794   -1.3876 H   0  0  0  0  0  0  0  0  0  0  0  0
    6.0749    0.3825    0.1201 H   0  0  0  0  0  0  0  0  0  0  0  0
    4.9509   -0.9439   -0.2306 H   0  0  0  0  0  0  0  0  0  0  0  0
    5.1196    2.9049    1.0827 N   0  0  0  0  0  0  0  0  0  0  0  0
    5.4857    4.3016    1.1186 C   0  0  0  0  0  0  0  0  0  0  0  0
    5.5578    2.2826    1.7554 H   0  0  0  0  0  0  0  0  0  0  0  0
    6.3474    4.4725    0.4566 H   0  0  0  0  0  0  0  0  0  0  0  0
    4.6359    4.9121    0.7791 H   0  0  0  0  0  0  0  0  0  0  0  0
    5.7522    4.5843    2.1477 H   0  0  0  0  0  0  0  0  0  0  0  0
 25 27  1  0  0  0  0
 26 27  2  0  0  0  0
 23 25  2  0  0  0  0
 24 26  1  0  0  0  0
 22 23  1  0  0  0  0
 22 24  2  0  0  0  0
 21 22  1  0  0  0  0
  1  3  1  0  0  0  0
  1  7  1  0  0  0  0
  1  2  2  0  0  0  0
 38 39  1  0  0  0  0
 39 47  1  0  0  0  0
 39 40  2  0  0  0  0
  8  9  1  0  0  0  0
  9 17  1  0  0  0  0
  9 10  2  0  0  0  0
 18 19  1  0  0  0  0
 19 37  1  0  0  0  0
 19 20  2  0  0  0  0
 38 41  1  0  0  0  0
  8 11  1  0  0  0  0
 47 48  1  0  0  0  0
 18 21  1  0  0  0  0
 37 38  1  0  0  0  0
  7  8  1  0  0  0  0
 17 18  1  0  0  0  0
 27 36  1  0  0  0  0
 25 34  1  0  0  0  0
 26 35  1  0  0  0  0
 23 32  1  0  0  0  0
 24 33  1  0  0  0  0
  3  4  1  0  0  0  0
  3  5  1  0  0  0  0
  3  6  1  0  0  0  0
 41 44  1  0  0  0  0
 41 45  1  0  0  0  0
 41 46  1  0  0  0  0
 11 14  1  0  0  0  0
 11 15  1  0  0  0  0
 11 16  1  0  0  0  0
 48 50  1  0  0  0  0
 48 51  1  0  0  0  0
 48 52  1  0  0  0  0
 21 30  1  0  0  0  0
 21 31  1  0  0  0  0
 38 43  1  0  0  0  0
  8 13  1  0  0  0  0
 18 29  1  0  0  0  0
 47 49  1  0  0  0  0
  7 12  1  0  0  0  0
 37 42  1  0  0  0  0
 17 28  1  0  0  0  0
M  END
$$$$

  -OEChem-05262214473D

 52 52  0     1  0  0  0  0  0999 V2000
   -1.8248    0.3424    3.9102 C   0  0  0  0  0  0  0  0  0  0  0  0
   -0.8774   -0.2723    3.4345 O   0  0  0  0  0  0  0  0  0  0  0  0
   -2.2566    0.0600    5.3109 C   0  0  0  0  0  0  0  0  0  0  0  0
   -3.0163   -0.7363    5.3643 H   0  0  0  0  0  0  0  0  0  0  0  0
   -1.4254   -0.2876    5.9452 H   0  0  0  0  0  0  0  0  0  0  0  0
   -2.6947    0.9149    5.8505 H   0  0  0  0  0  0  0  0  0  0  0  0
   -2.5745    1.3149    3.2691 N   0  0  0  0  0  0  0  0  0  0  0  0
   -2.3276    1.7409    1.9167 C   0  0  2  0  0  0  0  0  0  0  0  0
   -0.9926    1.1555    1.4755 C   0  0  0  0  0  0  0  0  0  0  0  0
   -0.1206    0.8028    2.2668 O   0  0  0  0  0  0  0  0  0  0  0  0
   -2.3188    3.2577    1.8072 C   0  0  0  0  0  0  0  0  0  0  0  0
   -3.3395    1.7507    3.7809 H   0  0  0  0  0  0  0  0  0  0  0  0
   -3.1317    1.3224    1.3015 H   0  0  0  0  0  0  0  0  0  0  0  0
   -1.5198    3.6949    2.4169 H   0  0  0  0  0  0  0  0  0  0  0  0
   -2.1594    3.5799    0.7729 H   0  0  0  0  0  0  0  0  0  0  0  0
   -3.2690    3.6789    2.1530 H   0  0  0  0  0  0  0  0  0  0  0  0
   -0.8700    1.1124    0.0921 N   0  0  0  0  0  0  0  0  0  0  0  0
    0.3073    0.6116   -0.5716 C   0  0  2  0  0  0  0  0  0  0  0  0
    1.4938    0.8884    0.3449 C   0  0  0  0  0  0  0  0  0  0  0  0
    1.3765    1.4067    1.4533 O   0  0  0  0  0  0  0  0  0  0  0  0
    0.5252    1.2696   -1.9389 C   0  0  0  0  0  0  0  0  0  0  0  0
   -0.5423    0.9019   -2.9404 C   0  0  0  0  0  0  0  0  0  0  0  0
   -0.4718   -0.3135   -3.6213 C   0  0  0  0  0  0  0  0  0  0  0  0
   -1.6000    1.7778   -3.1847 C   0  0  0  0  0  0  0  0  0  0  0  0
   -1.4589   -0.6529   -4.5465 C   0  0  0  0  0  0  0  0  0  0  0  0
   -2.5871    1.4384   -4.1100 C   0  0  0  0  0  0  0  0  0  0  0  0
   -2.5165    0.2230   -4.7908 C   0  0  0  0  0  0  0  0  0  0  0  0
   -1.6531    1.4091   -0.4852 H   0  0  0  0  0  0  0  0  0  0  0  0
    0.1740   -0.4723   -0.6686 H   0  0  0  0  0  0  0  0  0  0  0  0
    1.5133    1.0015   -2.3370 H   0  0  0  0  0  0  0  0  0  0  0  0
    0.5419    2.3631   -1.8401 H   0  0  0  0  0  0  0  0  0  0  0  0
    0.3486   -1.0023   -3.4372 H   0  0  0  0  0  0  0  0  0  0  0  0
   -1.6632    2.7268   -2.6588 H   0  0  0  0  0  0  0  0  0  0  0  0
   -1.4032   -1.5988   -5.0774 H   0  0  0  0  0  0  0  0  0  0  0  0
   -3.4098    2.1211   -4.3007 H   0  0  0  0  0  0  0  0  0  0  0  0
   -3.2843   -0.0408   -5.5123 H   0  0  0  0  0  0  0  0  0  0  0  0
    2.6885    0.4422   -0.2028 N   0  0  0  0  0  0  0  0  0  0  0  0
    3.9626    0.5603    0.4692 C   0  0  2  0  0  0  0  0  0  0  0  0
    4.1136    2.0004    0.9414 C   0  0  0  0  0  0  0  0  0  0  0  0
    3.4997    2.9391    0.4383 O   0  0  0  0  0  0  0  0  0  0  0  0
    5.1102    0.1657   -0.4472 C   0  0  0  0  0  0  0  0  0  0  0  0
    2.6663    0.0110   -1.1222 H   0  0  0  0  0  0  0  0  0  0  0  0
    3.9255   -0.1072    1.3370 H   0  0  0  0  0  0  0  0  0  0  0  0
    5.1633    0.8233   -1.3225 H   0  0  0  0  0  0  0  0  0  0  0  0
    6.0722    0.2283    0.0721 H   0  0  0  0  0  0  0  0  0  0  0  0
    4.9845   -0.8603   -0.8096 H   0  0  0  0  0  0  0  0  0  0  0  0
    5.0466    2.1200    1.9618 N   0  0  0  0  0  0  0  0  0  0  0  0
    5.3779    3.3870    2.5708 C   0  0  0  0  0  0  0  0  0  0  0  0
    5.4939    1.2857    2.3302 H   0  0  0  0  0  0  0  0  0  0  0  0
    6.2411    3.8292    2.0519 H   0  0  0  0  0  0  0  0  0  0  0  0
    4.5165    4.0668    2.4942 H   0  0  0  0  0  0  0  0  0  0  0  0
    5.6281    3.2301    3.6304 H   0  0  0  0  0  0  0  0  0  0  0  0
 25 27  1  0  0  0  0
 26 27  2  0  0  0  0
 23 25  2  0  0  0  0
 24 26  1  0  0  0  0
 22 23  1  0  0  0  0
 22 24  2  0  0  0  0
 21 22  1  0  0  0  0
  1  3  1  0  0  0  0
  1  7  1  0  0  0  0
  1  2  2  0  0  0  0
 38 39  1  0  0  0  0
 39 47  1  0  0  0  0
 39 40  2  0  0  0  0
  8  9  1  0  0  0  0
  9 17  1  0  0  0  0
  9 10  2  0  0  0  0
 18 19  1  0  0  0  0
 19 37  1  0  0  0  0
 19 20  2  0  0  0  0
 38 41  1  0  0  0  0
  8 11  1  0  0  0  0
 47 48  1  0  0  0  0
 18 21  1  0  0  0  0
 37 38  1  0  0  0  0
  7  8  1  0  0  0  0
 17 18  1  0  0  0  0
 27 36  1  0  0  0  0
 25 34  1  0  0  0  0
 26 35  1  0  0  0  0
 23 32  1  0  0  0  0
 24 33  1  0  0  0  0
  3  4  1  0  0  0  0
  3  5  1  0  0  0  0
  3  6  1  0  0  0  0
 41 44  1  0  0  0  0
 41 45  1  0  0  0  0
 41 46  1  0  0  0  0
 11 14  1  0  0  0  0
 11 15  1  0  0  0  0
 11 16  1  0  0  0  0
 48 50  1  0  0  0  0
 48 51  1  0  0  0  0
 48 52  1  0  0  0  0
 21 30  1  0  0  0  0
 21 31  1  0  0  0  0
 38 43  1  0  0  0  0
  8 13  1  0  0  0  0
 18 29  1  0  0  0  0
 47 49  1  0  0  0  0
  7 12  1  0  0  0  0
 37 42  1  0  0  0  0
 17 28  1  0  0  0  0
M  END
$$$$

  -OEChem-05262214473D

 52 52  0     1  0  0  0  0  0999 V2000
   -1.8248    0.3424    3.9102 C   0  0  0  0  0  0  0  0  0  0  0  0
   -0.8774   -0.2723    3.4345 O   0  0  0  0  0  0  0  0  0  0  0  0
   -2.2566    0.0600    5.3109 C   0  0  0  0  0  0  0  0  0  0  0  0
   -3.0163   -0.7363    5.3643 H   0  0  0  0  0  0  0  0  0  0  0  0
   -1.4254   -0.2876    5.9452 H   0  0  0  0  0  0  0  0  0  0  0  0
   -2.6947    0.9149    5.8505 H   0  0  0  0  0  0  0  0  0  0  0  0
   -2.5745    1.3149    3.2691 N   0  0  0  0  0  0  0  0  0  0  0  0
   -2.3276    1.7409    1.9167 C   0  0  2  0  0  0  0  0  0  0  0  0
   -0.9926    1.1555    1.4755 C   0  0  0  0  0  0  0  0  0  0  0  0
   -0.1206    0.8028    2.2668 O   0  0  0  0  0  0  0  0  0  0  0  0
   -2.3188    3.2577    1.8072 C   0  0  0  0  0  0  0  0  0  0  0  0
   -3.3395    1.7507    3.7809 H   0  0  0  0  0  0  0  0  0  0  0  0
   -3.1317    1.3224    1.3015 H   0  0  0  0  0  0  0  0  0  0  0  0
   -1.5198    3.6949    2.4169 H   0  0  0  0  0  0  0  0  0  0  0  0
   -2.1594    3.5799    0.7729 H   0  0  0  0  0  0  0  0  0  0  0  0
   -3.2690    3.6789    2.1530 H   0  0  0  0  0  0  0  0  0  0  0  0
   -0.8700    1.1124    0.0921 N   0  0  0  0  0  0  0  0  0  0  0  0
    0.3073    0.6116   -0.5716 C   0  0  2  0  0  0  0  0  0  0  0  0
    1.4938    0.8884    0.3449 C   0  0  0  0  0  0  0  0  0  0  0  0
    1.3697    1.1516    1.5391 O   0  0  0  0  0  0  0  0  0  0  0  0
    0.5252    1.2696   -1.9389 C   0  0  0  0  0  0  0  0  0  0  0  0
   -0.5423    0.9019   -2.9404 C   0  0  0  0  0  0  0  0  0  0  0  0
   -0.4718   -0.3135   -3.6213 C   0  0  0  0  0  0  0  0  0  0  0  0
   -1.6000    1.7778   -3.1847 C   0  0  0  0  0  0  0  0  0  0  0  0
   -1.4589   -0.6529   -4.5465 C   0  0  0  0  0  0  0  0  0  0  0  0
   -2.5871    1.4384   -4.1100 C   0  0  0  0  0  0  0  0  0  0  0  0
   -2.5165    0.2230   -4.7908 C   0  0  0  0  0  0  0  0  0  0  0  0
   -1.6531    1.4091   -0.4852 H   0  0  0  0  0  0  0  0  0  0  0  0
    0.1740   -0.4723   -0.6686 H   0  0  0  0  0  0  0  0  0  0  0  0
    1.5133    1.0015   -2.3370 H   0  0  0  0  0  0  0  0  0  0  0  0
    0.5419    2.3631   -1.8401 H   0  0  0  0  0  0  0  0  0  0  0  0
    0.3486   -1.0023   -3.4372 H   0  0  0  0  0  0  0  0  0  0  0  0
   -1.6632    2.7268   -2.6588 H   0  0  0  0  0  0  0  0  0  0  0  0
   -1.4032   -1.5988   -5.0774 H   0  0  0  0  0  0  0  0  0  0  0  0
   -3.4098    2.1211   -4.3007 H   0  0  0  0  0  0  0  0  0  0  0  0
   -3.2843   -0.0408   -5.5123 H   0  0  0  0  0  0  0  0  0  0  0  0
    2.7053    0.7568   -0.3195 N   0  0  0  0  0  0  0  0  0  0  0  0
    3.9867    0.9426    0.3225 C   0  0  2  0  0  0  0  0  0  0  0  0
    3.9482    2.2660    1.0751 C   0  0  0  0  0  0  0  0  0  0  0  0
    3.1694    3.1748    0.7947 O   0  0  0  0  0  0  0  0  0  0  0  0
    5.1208    0.9261   -0.6906 C   0  0  0  0  0  0  0  0  0  0  0  0
    2.6905    0.5180   -1.3067 H   0  0  0  0  0  0  0  0  0  0  0  0
    4.1054    0.1195    1.0357 H   0  0  0  0  0  0  0  0  0  0  0  0
    5.0189    1.7437   -1.4135 H   0  0  0  0  0  0  0  0  0  0  0  0
    6.0931    1.0384   -0.1996 H   0  0  0  0  0  0  0  0  0  0  0  0
    5.1286   -0.0146   -1.2516 H   0  0  0  0  0  0  0  0  0  0  0  0
    4.9150    2.3296    2.0689 N   0  0  0  0  0  0  0  0  0  0  0  0
    5.0891    3.4876    2.9143 C   0  0  0  0  0  0  0  0  0  0  0  0
    5.5052    1.5217    2.2443 H   0  0  0  0  0  0  0  0  0  0  0  0
    5.8414    4.1563    2.4707 H   0  0  0  0  0  0  0  0  0  0  0  0
    4.1320    4.0220    3.0056 H   0  0  0  0  0  0  0  0  0  0  0  0
    5.4263    3.1665    3.9109 H   0  0  0  0  0  0  0  0  0  0  0  0
 25 27  1  0  0  0  0
 26 27  2  0  0  0  0
 23 25  2  0  0  0  0
 24 26  1  0  0  0  0
 22 23  1  0  0  0  0
 22 24  2  0  0  0  0
 21 22  1  0  0  0  0
  1  3  1  0  0  0  0
  1  7  1  0  0  0  0
  1  2  2  0  0  0  0
 38 39  1  0  0  0  0
 39 47  1  0  0  0  0
 39 40  2  0  0  0  0
  8  9  1  0  0  0  0
  9 17  1  0  0  0  0
  9 10  2  0  0  0  0
 18 19  1  0  0  0  0
 19 37  1  0  0  0  0
 19 20  2  0  0  0  0
 38 41  1  0  0  0  0
  8 11  1  0  0  0  0
 47 48  1  0  0  0  0
 18 21  1  0  0  0  0
 37 38  1  0  0  0  0
  7  8  1  0  0  0  0
 17 18  1  0  0  0  0
 27 36  1  0  0  0  0
 25 34  1  0  0  0  0
 26 35  1  0  0  0  0
 23 32  1  0  0  0  0
 24 33  1  0  0  0  0
  3  4  1  0  0  0  0
  3  5  1  0  0  0  0
  3  6  1  0  0  0  0
 41 44  1  0  0  0  0
 41 45  1  0  0  0  0
 41 46  1  0  0  0  0
 11 14  1  0  0  0  0
 11 15  1  0  0  0  0
 11 16  1  0  0  0  0
 48 50  1  0  0  0  0
 48 51  1  0  0  0  0
 48 52  1  0  0  0  0
 21 30  1  0  0  0  0
 21 31  1  0  0  0  0
 38 43  1  0  0  0  0
  8 13  1  0  0  0  0
 18 29  1  0  0  0  0
 47 49  1  0  0  0  0
  7 12  1  0  0  0  0
 37 42  1  0  0  0  0
 17 28  1  0  0  0  0
M  END
$$$$

  -OEChem-05262214473D

 52 52  0     1  0  0  0  0  0999 V2000
   -1.8248    0.3424    3.9102 C   0  0  0  0  0  0  0  0  0  0  0  0
   -0.8774   -0.2723    3.4345 O   0  0  0  0  0  0  0  0  0  0  0  0
   -2.2566    0.0600    5.3109 C   0  0  0  0  0  0  0  0  0  0  0  0
   -3.0163   -0.7363    5.3643 H   0  0  0  0  0  0  0  0  0  0  0  0
   -1.4254   -0.2876    5.9452 H   0  0  0  0  0  0  0  0  0  0  0  0
   -2.6947    0.9149    5.8505 H   0  0  0  0  0  0  0  0  0  0  0  0
   -2.5745    1.3149    3.2691 N   0  0  0  0  0  0  0  0  0  0  0  0
   -2.3276    1.7409    1.9167 C   0  0  2  0  0  0  0  0  0  0  0  0
   -0.9926    1.1555    1.4755 C   0  0  0  0  0  0  0  0  0  0  0  0
   -0.1206    0.8028    2.2668 O   0  0  0  0  0  0  0  0  0  0  0  0
   -2.3188    3.2577    1.8072 C   0  0  0  0  0  0  0  0  0  0  0  0
   -3.3395    1.7507    3.7809 H   0  0  0  0  0  0  0  0  0  0  0  0
   -3.1317    1.3224    1.3015 H   0  0  0  0  0  0  0  0  0  0  0  0
   -1.5198    3.6949    2.4169 H   0  0  0  0  0  0  0  0  0  0  0  0
   -2.1594    3.5799    0.7729 H   0  0  0  0  0  0  0  0  0  0  0  0
   -3.2690    3.6789    2.1530 H   0  0  0  0  0  0  0  0  0  0  0  0
   -0.8700    1.1124    0.0921 N   0  0  0  0  0  0  0  0  0  0  0  0
    0.3073    0.6116   -0.5716 C   0  0  2  0  0  0  0  0  0  0  0  0
    1.4938    0.8884    0.3449 C   0  0  0  0  0  0  0  0  0  0  0  0
    1.4068    0.8869    1.5710 O   0  0  0  0  0  0  0  0  0  0  0  0
    0.5252    1.2696   -1.9389 C   0  0  0  0  0  0  0  0  0  0  0  0
   -0.5423    0.9019   -2.9404 C   0  0  0  0  0  0  0  0  0  0  0  0
   -0.4718   -0.3135   -3.6213 C   0  0  0  0  0  0  0  0  0  0  0  0
   -1.6000    1.7778   -3.1847 C   0  0  0  0  0  0  0  0  0  0  0  0
   -1.4589   -0.6529   -4.5465 C   0  0  0  0  0  0  0  0  0  0  0  0
   -2.5871    1.4384   -4.1100 C   0  0  0  0  0  0  0  0  0  0  0  0
   -2.5165    0.2230   -4.7908 C   0  0  0  0  0  0  0  0  0  0  0  0
   -1.6531    1.4091   -0.4852 H   0  0  0  0  0  0  0  0  0  0  0  0
    0.1740   -0.4723   -0.6686 H   0  0  0  0  0  0  0  0  0  0  0  0
    1.5133    1.0015   -2.3370 H   0  0  0  0  0  0  0  0  0  0  0  0
    0.5419    2.3631   -1.8401 H   0  0  0  0  0  0  0  0  0  0  0  0
    0.3486   -1.0023   -3.4372 H   0  0  0  0  0  0  0  0  0  0  0  0
   -1.6632    2.7268   -2.6588 H   0  0  0  0  0  0  0  0  0  0  0  0
   -1.4032   -1.5988   -5.0774 H   0  0  0  0  0  0  0  0  0  0  0  0
   -3.4098    2.1211   -4.3007 H   0  0  0  0  0  0  0  0  0  0  0  0
   -3.2843   -0.0408   -5.5123 H   0  0  0  0  0  0  0  0  0  0  0  0
    2.6670    1.0869   -0.3697 N   0  0  0  0  0  0  0  0  0  0  0  0
    3.9437    1.3451    0.2567 C   0  0  2  0  0  0  0  0  0  0  0  0
    3.7535    2.4699    1.2657 C   0  0  0  0  0  0  0  0  0  0  0  0
    2.8305    3.2793    1.2019 O   0  0  0  0  0  0  0  0  0  0  0  0
    5.0012    1.7114   -0.7729 C   0  0  0  0  0  0  0  0  0  0  0  0
    2.6264    1.0487   -1.3839 H   0  0  0  0  0  0  0  0  0  0  0  0
    4.2297    0.4272    0.7818 H   0  0  0  0  0  0  0  0  0  0  0  0
    4.7319    2.6286   -1.3093 H   0  0  0  0  0  0  0  0  0  0  0  0
    5.9744    1.8788   -0.2998 H   0  0  0  0  0  0  0  0  0  0  0  0
    5.1154    0.9138   -1.5150 H   0  0  0  0  0  0  0  0  0  0  0  0
    4.7602    2.4900    2.2208 N   0  0  0  0  0  0  0  0  0  0  0  0
    4.8106    3.4706    3.2800 C   0  0  0  0  0  0  0  0  0  0  0  0
    5.4753    1.7687    2.2083 H   0  0  0  0  0  0  0  0  0  0  0  0
    5.4241    4.3257    2.9598 H   0  0  0  0  0  0  0  0  0  0  0  0
    3.7915    3.8159    3.5086 H   0  0  0  0  0  0  0  0  0  0  0  0
    5.2544    3.0172    4.1785 H   0  0  0  0  0  0  0  0  0  0  0  0
 25 27  1  0  0  0  0
 26 27  2  0  0  0  0
 23 25  2  0  0  0  0
 24 26  1  0  0  0  0
 22 23  1  0  0  0  0
 22 24  2  0  0  0  0
 21 22  1  0  0  0  0
  1  3  1  0  0  0  0
  1  7  1  0  0  0  0
  1  2  2  0  0  0  0
 38 39  1  0  0  0  0
 39 47  1  0  0  0  0
 39 40  2  0  0  0  0
  8  9  1  0  0  0  0
  9 17  1  0  0  0  0
  9 10  2  0  0  0  0
 18 19  1  0  0  0  0
 19 37  1  0  0  0  0
 19 20  2  0  0  0  0
 38 41  1  0  0  0  0
  8 11  1  0  0  0  0
 47 48  1  0  0  0  0
 18 21  1  0  0  0  0
 37 38  1  0  0  0  0
  7  8  1  0  0  0  0
 17 18  1  0  0  0  0
 27 36  1  0  0  0  0
 25 34  1  0  0  0  0
 26 35  1  0  0  0  0
 23 32  1  0  0  0  0
 24 33  1  0  0  0  0
  3  4  1  0  0  0  0
  3  5  1  0  0  0  0
  3  6  1  0  0  0  0
 41 44  1  0  0  0  0
 41 45  1  0  0  0  0
 41 46  1  0  0  0  0
 11 14  1  0  0  0  0
 11 15  1  0  0  0  0
 11 16  1  0  0  0  0
 48 50  1  0  0  0  0
 48 51  1  0  0  0  0
 48 52  1  0  0  0  0
 21 30  1  0  0  0  0
 21 31  1  0  0  0  0
 38 43  1  0  0  0  0
  8 13  1  0  0  0  0
 18 29  1  0  0  0  0
 47 49  1  0  0  0  0
  7 12  1  0  0  0  0
 37 42  1  0  0  0  0
 17 28  1  0  0  0  0
M  END
$$$$

  -OEChem-05262214473D

 52 52  0     1  0  0  0  0  0999 V2000
   -1.8248    0.3424    3.9102 C   0  0  0  0  0  0  0  0  0  0  0  0
   -0.8774   -0.2723    3.4345 O   0  0  0  0  0  0  0  0  0  0  0  0
   -2.2566    0.0600    5.3109 C   0  0  0  0  0  0  0  0  0  0  0  0
   -3.0163   -0.7363    5.3643 H   0  0  0  0  0  0  0  0  0  0  0  0
   -1.4254   -0.2876    5.9452 H   0  0  0  0  0  0  0  0  0  0  0  0
   -2.6947    0.9149    5.8505 H   0  0  0  0  0  0  0  0  0  0  0  0
   -2.5745    1.3149    3.2691 N   0  0  0  0  0  0  0  0  0  0  0  0
   -2.3276    1.7409    1.9167 C   0  0  2  0  0  0  0  0  0  0  0  0
   -0.9926    1.1555    1.4755 C   0  0  0  0  0  0  0  0  0  0  0  0
   -0.1206    0.8028    2.2668 O   0  0  0  0  0  0  0  0  0  0  0  0
   -2.3188    3.2577    1.8072 C   0  0  0  0  0  0  0  0  0  0  0  0
   -3.3395    1.7507    3.7809 H   0  0  0  0  0  0  0  0  0  0  0  0
   -3.1317    1.3224    1.3015 H   0  0  0  0  0  0  0  0  0  0  0  0
   -1.5198    3.6949    2.4169 H   0  0  0  0  0  0  0  0  0  0  0  0
   -2.1594    3.5799    0.7729 H   0  0  0  0  0  0  0  0  0  0  0  0
   -3.2690    3.6789    2.1530 H   0  0  0  0  0  0  0  0  0  0  0  0
   -0.8700    1.1124    0.0921 N   0  0  0  0  0  0  0  0  0  0  0  0
    0.3073    0.6116   -0.5716 C   0  0  2  0  0  0  0  0  0  0  0  0
    1.4938    0.8884    0.3449 C   0  0  0  0  0  0  0  0  0  0  0  0
    1.4854    0.6306    1.5467 O   0  0  0  0  0  0  0  0  0  0  0  0
    0.5252    1.2696   -1.9389 C   0  0  0  0  0  0  0  0  0  0  0  0
   -0.5423    0.9019   -2.9404 C   0  0  0  0  0  0  0  0  0  0  0  0
   -0.4718   -0.3135   -3.6213 C   0  0  0  0  0  0  0  0  0  0  0  0
   -1.6000    1.7778   -3.1847 C   0  0  0  0  0  0  0  0  0  0  0  0
   -1.4589   -0.6529   -4.5465 C   0  0  0  0  0  0  0  0  0  0  0  0
   -2.5871    1.4384   -4.1100 C   0  0  0  0  0  0  0  0  0  0  0  0
   -2.5165    0.2230   -4.7908 C   0  0  0  0  0  0  0  0  0  0  0  0
   -1.6531    1.4091   -0.4852 H   0  0  0  0  0  0  0  0  0  0  0  0
    0.1740   -0.4723   -0.6686 H   0  0  0  0  0  0  0  0  0  0  0  0
    1.5133    1.0015   -2.3370 H   0  0  0  0  0  0  0  0  0  0  0  0
    0.5419    2.3631   -1.8401 H   0  0  0  0  0  0  0  0  0  0  0  0
    0.3486   -1.0023   -3.4372 H   0  0  0  0  0  0  0  0  0  0  0  0
   -1.6632    2.7268   -2.6588 H   0  0  0  0  0  0  0  0  0  0  0  0
   -1.4032   -1.5988   -5.0774 H   0  0  0  0  0  0  0  0  0  0  0  0
   -3.4098    2.1211   -4.3007 H   0  0  0  0  0  0  0  0  0  0  0  0
   -3.2843   -0.0408   -5.5123 H   0  0  0  0  0  0  0  0  0  0  0  0
    2.5764    1.4098   -0.3498 N   0  0  0  0  0  0  0  0  0  0  0  0
    3.8363    1.7404    0.2762 C   0  0  2  0  0  0  0  0  0  0  0  0
    3.5427    2.5982    1.4999 C   0  0  0  0  0  0  0  0  0  0  0  0
    2.5060    3.2455    1.6322 O   0  0  0  0  0  0  0  0  0  0  0  0
    4.7596    2.4678   -0.6887 C   0  0  0  0  0  0  0  0  0  0  0  0
    2.4782    1.5669   -1.3486 H   0  0  0  0  0  0  0  0  0  0  0  0
    4.2900    0.7948    0.5927 H   0  0  0  0  0  0  0  0  0  0  0  0
    4.3220    3.4177   -1.0168 H   0  0  0  0  0  0  0  0  0  0  0  0
    5.7243    2.6923   -0.2217 H   0  0  0  0  0  0  0  0  0  0  0  0
    4.9459    1.8616   -1.5817 H   0  0  0  0  0  0  0  0  0  0  0  0
    4.5929    2.5903    2.4071 N   0  0  0  0  0  0  0  0  0  0  0  0
    4.5614    3.3373    3.6428 C   0  0  0  0  0  0  0  0  0  0  0  0
    5.4064    2.0100    2.2247 H   0  0  0  0  0  0  0  0  0  0  0  0
    5.0176    4.3259    3.4860 H   0  0  0  0  0  0  0  0  0  0  0  0
    3.5184    3.4624    3.9690 H   0  0  0  0  0  0  0  0  0  0  0  0
    5.1242    2.7923    4.4150 H   0  0  0  0  0  0  0  0  0  0  0  0
 25 27  1  0  0  0  0
 26 27  2  0  0  0  0
 23 25  2  0  0  0  0
 24 26  1  0  0  0  0
 22 23  1  0  0  0  0
 22 24  2  0  0  0  0
 21 22  1  0  0  0  0
  1  3  1  0  0  0  0
  1  7  1  0  0  0  0
  1  2  2  0  0  0  0
 38 39  1  0  0  0  0
 39 47  1  0  0  0  0
 39 40  2  0  0  0  0
  8  9  1  0  0  0  0
  9 17  1  0  0  0  0
  9 10  2  0  0  0  0
 18 19  1  0  0  0  0
 19 37  1  0  0  0  0
 19 20  2  0  0  0  0
 38 41  1  0  0  0  0
  8 11  1  0  0  0  0
 47 48  1  0  0  0  0
 18 21  1  0  0  0  0
 37 38  1  0  0  0  0
  7  8  1  0  0  0  0
 17 18  1  0  0  0  0
 27 36  1  0  0  0  0
 25 34  1  0  0  0  0
 26 35  1  0  0  0  0
 23 32  1  0  0  0  0
 24 33  1  0  0  0  0
  3  4  1  0  0  0  0
  3  5  1  0  0  0  0
  3  6  1  0  0  0  0
 41 44  1  0  0  0  0
 41 45  1  0  0  0  0
 41 46  1  0  0  0  0
 11 14  1  0  0  0  0
 11 15  1  0  0  0  0
 11 16  1  0  0  0  0
 48 50  1  0  0  0  0
 48 51  1  0  0  0  0
 48 52  1  0  0  0  0
 21 30  1  0  0  0  0
 21 31  1  0  0  0  0
 38 43  1  0  0  0  0
  8 13  1  0  0  0  0
 18 29  1  0  0  0  0
 47 49  1  0  0  0  0
  7 12  1  0  0  0  0
 37 42  1  0  0  0  0
 17 28  1  0  0  0  0
M  END
$$$$

  -OEChem-05262214473D

 52 52  0     1  0  0  0  0  0999 V2000
   -1.8248    0.3424    3.9102 C   0  0  0  0  0  0  0  0  0  0  0  0
   -0.8774   -0.2723    3.4345 O   0  0  0  0  0  0  0  0  0  0  0  0
   -2.2566    0.0600    5.3109 C   0  0  0  0  0  0  0  0  0  0  0  0
   -3.0163   -0.7363    5.3643 H   0  0  0  0  0  0  0  0  0  0  0  0
   -1.4254   -0.2876    5.9452 H   0  0  0  0  0  0  0  0  0  0  0  0
   -2.6947    0.9149    5.8505 H   0  0  0  0  0  0  0  0  0  0  0  0
   -2.5745    1.3149    3.2691 N   0  0  0  0  0  0  0  0  0  0  0  0
   -2.3276    1.7409    1.9167 C   0  0  2  0  0  0  0  0  0  0  0  0
   -0.9926    1.1555    1.4755 C   0  0  0  0  0  0  0  0  0  0  0  0
   -0.1206    0.8028    2.2668 O   0  0  0  0  0  0  0  0  0  0  0  0
   -2.3188    3.2577    1.8072 C   0  0  0  0  0  0  0  0  0  0  0  0
   -3.3395    1.7507    3.7809 H   0  0  0  0  0  0  0  0  0  0  0  0
   -3.1317    1.3224    1.3015 H   0  0  0  0  0  0  0  0  0  0  0  0
   -1.5198    3.6949    2.4169 H   0  0  0  0  0  0  0  0  0  0  0  0
   -2.1594    3.5799    0.7729 H   0  0  0  0  0  0  0  0  0  0  0  0
   -3.2690    3.6789    2.1530 H   0  0  0  0  0  0  0  0  0  0  0  0
   -0.8700    1.1124    0.0921 N   0  0  0  0  0  0  0  0  0  0  0  0
    0.3073    0.6116   -0.5716 C   0  0  2  0  0  0  0  0  0  0  0  0
    1.4938    0.8884    0.3449 C   0  0  0  0  0  0  0  0  0  0  0  0
    1.6000    0.4002    1.4679 O   0  0  0  0  0  0  0  0  0  0  0  0
    0.5252    1.2696   -1.9389 C   0  0  0  0  0  0  0  0  0  0  0  0
   -0.5423    0.9019   -2.9404 C   0  0  0  0  0  0  0  0  0  0  0  0
   -0.4718   -0.3135   -3.6213 C   0  0  0  0  0  0  0  0  0  0  0  0
   -1.6000    1.7778   -3.1847 C   0  0  0  0  0  0  0  0  0  0  0  0
   -1.4589   -0.6529   -4.5465 C   0  0  0  0  0  0  0  0  0  0  0  0
   -2.5871    1.4384   -4.1100 C   0  0  0  0  0  0  0  0  0  0  0  0
   -2.5165    0.2230   -4.7908 C   0  0  0  0  0  0  0  0  0  0  0  0
   -1.6531    1.4091   -0.4852 H   0  0  0  0  0  0  0  0  0  0  0  0
    0.1740   -0.4723   -0.6686 H   0  0  0  0  0  0  0  0  0  0  0  0
    1.5133    1.0015   -2.3370 H   0  0  0  0  0  0  0  0  0  0  0  0
    0.5419    2.3631   -1.8401 H   0  0  0  0  0  0  0  0  0  0  0  0
    0.3486   -1.0023   -3.4372 H   0  0  0  0  0  0  0  0  0  0  0  0
   -1.6632    2.7268   -2.6588 H   0  0  0  0  0  0  0  0  0  0  0  0
   -1.4032   -1.5988   -5.0774 H   0  0  0  0  0  0  0  0  0  0  0  0
   -3.4098    2.1211   -4.3007 H   0  0  0  0  0  0  0  0  0  0  0  0
   -3.2843   -0.0408   -5.5123 H   0  0  0  0  0  0  0  0  0  0  0  0
    2.4395    1.7036   -0.2614 N   0  0  0  0  0  0  0  0  0  0  0  0
    3.6721    2.1016    0.3798 C   0  0  2  0  0  0  0  0  0  0  0  0
    3.3300    2.6422    1.7619 C   0  0  0  0  0  0  0  0  0  0  0  0
    2.2180    3.0756    2.0563 O   0  0  0  0  0  0  0  0  0  0  0  0
    4.4126    3.1440   -0.4436 C   0  0  0  0  0  0  0  0  0  0  0  0
    2.2561    2.0372   -1.2031 H   0  0  0  0  0  0  0  0  0  0  0  0
    4.2821    1.1974    0.4813 H   0  0  0  0  0  0  0  0  0  0  0  0
    3.8169    4.0572   -0.5561 H   0  0  0  0  0  0  0  0  0  0  0  0
    5.3599    3.4234    0.0293 H   0  0  0  0  0  0  0  0  0  0  0  0
    4.6315    2.7642   -1.4474 H   0  0  0  0  0  0  0  0  0  0  0  0
    4.4245    2.6236    2.6151 N   0  0  0  0  0  0  0  0  0  0  0  0
    4.3585    3.0966    3.9782 C   0  0  0  0  0  0  0  0  0  0  0  0
    5.3030    2.2289    2.2924 H   0  0  0  0  0  0  0  0  0  0  0  0
    4.6496    4.1568    4.0134 H   0  0  0  0  0  0  0  0  0  0  0  0
    3.3312    2.9859    4.3553 H   0  0  0  0  0  0  0  0  0  0  0  0
    5.0445    2.5071    4.6043 H   0  0  0  0  0  0  0  0  0  0  0  0
 25 27  1  0  0  0  0
 26 27  2  0  0  0  0
 23 25  2  0  0  0  0
 24 26  1  0  0  0  0
 22 23  1  0  0  0  0
 22 24  2  0  0  0  0
 21 22  1  0  0  0  0
  1  3  1  0  0  0  0
  1  7  1  0  0  0  0
  1  2  2  0  0  0  0
 38 39  1  0  0  0  0
 39 47  1  0  0  0  0
 39 40  2  0  0  0  0
  8  9  1  0  0  0  0
  9 17  1  0  0  0  0
  9 10  2  0  0  0  0
 18 19  1  0  0  0  0
 19 37  1  0  0  0  0
 19 20  2  0  0  0  0
 38 41  1  0  0  0  0
  8 11  1  0  0  0  0
 47 48  1  0  0  0  0
 18 21  1  0  0  0  0
 37 38  1  0  0  0  0
  7  8  1  0  0  0  0
 17 18  1  0  0  0  0
 27 36  1  0  0  0  0
 25 34  1  0  0  0  0
 26 35  1  0  0  0  0
 23 32  1  0  0  0  0
 24 33  1  0  0  0  0
  3  4  1  0  0  0  0
  3  5  1  0  0  0  0
  3  6  1  0  0  0  0
 41 44  1  0  0  0  0
 41 45  1  0  0  0  0
 41 46  1  0  0  0  0
 11 14  1  0  0  0  0
 11 15  1  0  0  0  0
 11 16  1  0  0  0  0
 48 50  1  0  0  0  0
 48 51  1  0  0  0  0
 48 52  1  0  0  0  0
 21 30  1  0  0  0  0
 21 31  1  0  0  0  0
 38 43  1  0  0  0  0
  8 13  1  0  0  0  0
 18 29  1  0  0  0  0
 47 49  1  0  0  0  0
  7 12  1  0  0  0  0
 37 42  1  0  0  0  0
 17 28  1  0  0  0  0
M  END
$$$$

  -OEChem-05262214473D

 52 52  0     1  0  0  0  0  0999 V2000
   -1.8248    0.3424    3.9102 C   0  0  0  0  0  0  0  0  0  0  0  0
   -0.8774   -0.2723    3.4345 O   0  0  0  0  0  0  0  0  0  0  0  0
   -2.2566    0.0600    5.3109 C   0  0  0  0  0  0  0  0  0  0  0  0
   -3.0163   -0.7363    5.3643 H   0  0  0  0  0  0  0  0  0  0  0  0
   -1.4254   -0.2876    5.9452 H   0  0  0  0  0  0  0  0  0  0  0  0
   -2.6947    0.9149    5.8505 H   0  0  0  0  0  0  0  0  0  0  0  0
   -2.5745    1.3149    3.2691 N   0  0  0  0  0  0  0  0  0  0  0  0
   -2.3276    1.7409    1.9167 C   0  0  2  0  0  0  0  0  0  0  0  0
   -0.9926    1.1555    1.4755 C   0  0  0  0  0  0  0  0  0  0  0  0
   -0.1206    0.8028    2.2668 O   0  0  0  0  0  0  0  0  0  0  0  0
   -2.3188    3.2577    1.8072 C   0  0  0  0  0  0  0  0  0  0  0  0
   -3.3395    1.7507    3.7809 H   0  0  0  0  0  0  0  0  0  0  0  0
   -3.1317    1.3224    1.3015 H   0  0  0  0  0  0  0  0  0  0  0  0
   -1.5198    3.6949    2.4169 H   0  0  0  0  0  0  0  0  0  0  0  0
   -2.1594    3.5799    0.7729 H   0  0  0  0  0  0  0  0  0  0  0  0
   -3.2690    3.6789    2.1530 H   0  0  0  0  0  0  0  0  0  0  0  0
   -0.8700    1.1124    0.0921 N   0  0  0  0  0  0  0  0  0  0  0  0
    0.3073    0.6116   -0.5716 C   0  0  2  0  0  0  0  0  0  0  0  0
    1.4938    0.8884    0.3449 C   0  0  0  0  0  0  0  0  0  0  0  0
    1.7429    0.2113    1.3400 O   0  0  0  0  0  0  0  0  0  0  0  0
    0.5252    1.2696   -1.9389 C   0  0  0  0  0  0  0  0  0  0  0  0
   -0.5423    0.9019   -2.9404 C   0  0  0  0  0  0  0  0  0  0  0  0
   -0.4718   -0.3135   -3.6213 C   0  0  0  0  0  0  0  0  0  0  0  0
   -1.6000    1.7778   -3.1847 C   0  0  0  0  0  0  0  0  0  0  0  0
   -1.4589   -0.6529   -4.5465 C   0  0  0  0  0  0  0  0  0  0  0  0
   -2.5871    1.4384   -4.1100 C   0  0  0  0  0  0  0  0  0  0  0  0
   -2.5165    0.2230   -4.7908 C   0  0  0  0  0  0  0  0  0  0  0  0
   -1.6531    1.4091   -0.4852 H   0  0  0  0  0  0  0  0  0  0  0  0
    0.1740   -0.4723   -0.6686 H   0  0  0  0  0  0  0  0  0  0  0  0
    1.5133    1.0015   -2.3370 H   0  0  0  0  0  0  0  0  0  0  0  0
    0.5419    2.3631   -1.8401 H   0  0  0  0  0  0  0  0  0  0  0  0
    0.3486   -1.0023   -3.4372 H   0  0  0  0  0  0  0  0  0  0  0  0
   -1.6632    2.7268   -2.6588 H   0  0  0  0  0  0  0  0  0  0  0  0
   -1.4032   -1.5988   -5.0774 H   0  0  0  0  0  0  0  0  0  0  0  0
   -3.4098    2.1211   -4.3007 H   0  0  0  0  0  0  0  0  0  0  0  0
   -3.2843   -0.0408   -5.5123 H   0  0  0  0  0  0  0  0  0  0  0  0
    2.2657    1.9483   -0.1103 N   0  0  0  0  0  0  0  0  0  0  0  0
    3.4621    2.4041    0.5603 C   0  0  2  0  0  0  0  0  0  0  0  0
    3.1301    2.5988    2.0338 C   0  0  0  0  0  0  0  0  0  0  0  0
    1.9862    2.7814    2.4453 O   0  0  0  0  0  0  0  0  0  0  0  0
    3.9837    3.6937   -0.0543 C   0  0  0  0  0  0  0  0  0  0  0  0
    1.9752    2.4277   -0.9574 H   0  0  0  0  0  0  0  0  0  0  0  0
    4.2066    1.6075    0.4552 H   0  0  0  0  0  0  0  0  0  0  0  0
    3.2513    4.5036    0.0414 H   0  0  0  0  0  0  0  0  0  0  0  0
    4.9058    4.0224    0.4362 H   0  0  0  0  0  0  0  0  0  0  0  0
    4.1938    3.5600   -1.1210 H   0  0  0  0  0  0  0  0  0  0  0  0
    4.2664    2.5876    2.8307 N   0  0  0  0  0  0  0  0  0  0  0  0
    4.2158    2.7650    4.2632 C   0  0  0  0  0  0  0  0  0  0  0  0
    5.1723    2.4107    2.4067 H   0  0  0  0  0  0  0  0  0  0  0  0
    4.3453    3.8300    4.5061 H   0  0  0  0  0  0  0  0  0  0  0  0
    3.2426    2.4186    4.6413 H   0  0  0  0  0  0  0  0  0  0  0  0
    5.0208    2.1812    4.7334 H   0  0  0  0  0  0  0  0  0  0  0  0
 25 27  1  0  0  0  0
 26 27  2  0  0  0  0
 23 25  2  0  0  0  0
 24 26  1  0  0  0  0
 22 23  1  0  0  0  0
 22 24  2  0  0  0  0
 21 22  1  0  0  0  0
  1  3  1  0  0  0  0
  1  7  1  0  0  0  0
  1  2  2  0  0  0  0
 38 39  1  0  0  0  0
 39 47  1  0  0  0  0
 39 40  2  0  0  0  0
  8  9  1  0  0  0  0
  9 17  1  0  0  0  0
  9 10  2  0  0  0  0
 18 19  1  0  0  0  0
 19 37  1  0  0  0  0
 19 20  2  0  0  0  0
 38 41  1  0  0  0  0
  8 11  1  0  0  0  0
 47 48  1  0  0  0  0
 18 21  1  0  0  0  0
 37 38  1  0  0  0  0
  7  8  1  0  0  0  0
 17 18  1  0  0  0  0
 27 36  1  0  0  0  0
 25 34  1  0  0  0  0
 26 35  1  0  0  0  0
 23 32  1  0  0  0  0
 24 33  1  0  0  0  0
  3  4  1  0  0  0  0
  3  5  1  0  0  0  0
  3  6  1  0  0  0  0
 41 44  1  0  0  0  0
 41 45  1  0  0  0  0
 41 46  1  0  0  0  0
 11 14  1  0  0  0  0
 11 15  1  0  0  0  0
 11 16  1  0  0  0  0
 48 50  1  0  0  0  0
 48 51  1  0  0  0  0
 48 52  1  0  0  0  0
 21 30  1  0  0  0  0
 21 31  1  0  0  0  0
 38 43  1  0  0  0  0
  8 13  1  0  0  0  0
 18 29  1  0  0  0  0
 47 49  1  0  0  0  0
  7 12  1  0  0  0  0
 37 42  1  0  0  0  0
 17 28  1  0  0  0  0
M  END
$$$$

  -OEChem-05262214473D

 52 52  0     1  0  0  0  0  0999 V2000
   -1.8248    0.3424    3.9102 C   0  0  0  0  0  0  0  0  0  0  0  0
   -0.8774   -0.2723    3.4345 O   0  0  0  0  0  0  0  0  0  0  0  0
   -2.2566    0.0600    5.3109 C   0  0  0  0  0  0  0  0  0  0  0  0
   -3.0163   -0.7363    5.3643 H   0  0  0  0  0  0  0  0  0  0  0  0
   -1.4254   -0.2876    5.9452 H   0  0  0  0  0  0  0  0  0  0  0  0
   -2.6947    0.9149    5.8505 H   0  0  0  0  0  0  0  0  0  0  0  0
   -2.5745    1.3149    3.2691 N   0  0  0  0  0  0  0  0  0  0  0  0
   -2.3276    1.7409    1.9167 C   0  0  2  0  0  0  0  0  0  0  0  0
   -0.9926    1.1555    1.4755 C   0  0  0  0  0  0  0  0  0  0  0  0
   -0.1206    0.8028    2.2668 O   0  0  0  0  0  0  0  0  0  0  0  0
   -2.3188    3.2577    1.8072 C   0  0  0  0  0  0  0  0  0  0  0  0
   -3.3395    1.7507    3.7809 H   0  0  0  0  0  0  0  0  0  0  0  0
   -3.1317    1.3224    1.3015 H   0  0  0  0  0  0  0  0  0  0  0  0
   -1.5198    3.6949    2.4169 H   0  0  0  0  0  0  0  0  0  0  0  0
   -2.1594    3.5799    0.7729 H   0  0  0  0  0  0  0  0  0  0  0  0
   -3.2690    3.6789    2.1530 H   0  0  0  0  0  0  0  0  0  0  0  0
   -0.8700    1.1124    0.0921 N   0  0  0  0  0  0  0  0  0  0  0  0
    0.3073    0.6116   -0.5716 C   0  0  2  0  0  0  0  0  0  0  0  0
    1.4938    0.8884    0.3449 C   0  0  0  0  0  0  0  0  0  0  0  0
    1.9042    0.0768    1.1717 O   0  0  0  0  0  0  0  0  0  0  0  0
    0.5252    1.2696   -1.9389 C   0  0  0  0  0  0  0  0  0  0  0  0
   -0.5423    0.9019   -2.9404 C   0  0  0  0  0  0  0  0  0  0  0  0
   -0.4718   -0.3135   -3.6213 C   0  0  0  0  0  0  0  0  0  0  0  0
   -1.6000    1.7778   -3.1847 C   0  0  0  0  0  0  0  0  0  0  0  0
   -1.4589   -0.6529   -4.5465 C   0  0  0  0  0  0  0  0  0  0  0  0
   -2.5871    1.4384   -4.1100 C   0  0  0  0  0  0  0  0  0  0  0  0
   -2.5165    0.2230   -4.7908 C   0  0  0  0  0  0  0  0  0  0  0  0
   -1.6531    1.4091   -0.4852 H   0  0  0  0  0  0  0  0  0  0  0  0
    0.1740   -0.4723   -0.6686 H   0  0  0  0  0  0  0  0  0  0  0  0
    1.5133    1.0015   -2.3370 H   0  0  0  0  0  0  0  0  0  0  0  0
    0.5419    2.3631   -1.8401 H   0  0  0  0  0  0  0  0  0  0  0  0
    0.3486   -1.0023   -3.4372 H   0  0  0  0  0  0  0  0  0  0  0  0
   -1.6632    2.7268   -2.6588 H   0  0  0  0  0  0  0  0  0  0  0  0
   -1.4032   -1.5988   -5.0774 H   0  0  0  0  0  0  0  0  0  0  0  0
   -3.4098    2.1211   -4.3007 H   0  0  0  0  0  0  0  0  0  0  0  0
   -3.2843   -0.0408   -5.5123 H   0  0  0  0  0  0  0  0  0  0  0  0
    2.0669    2.1272    0.0930 N   0  0  0  0  0  0  0  0  0  0  0  0
    3.2207    2.6273    0.8054 C   0  0  2  0  0  0  0  0  0  0  0  0
    2.9565    2.4710    2.2971 C   0  0  0  0  0  0  0  0  0  0  0  0
    1.8264    2.3827    2.7726 O   0  0  0  0  0  0  0  0  0  0  0  0
    3.5021    4.0796    0.4525 C   0  0  0  0  0  0  0  0  0  0  0  0
    1.6547    2.7117   -0.6282 H   0  0  0  0  0  0  0  0  0  0  0  0
    4.0687    1.9971    0.5161 H   0  0  0  0  0  0  0  0  0  0  0  0
    2.6635    4.7263    0.7351 H   0  0  0  0  0  0  0  0  0  0  0  0
    4.3932    4.4484    0.9712 H   0  0  0  0  0  0  0  0  0  0  0  0
    3.6625    4.1948   -0.6249 H   0  0  0  0  0  0  0  0  0  0  0  0
    4.1294    2.4849    3.0391 N   0  0  0  0  0  0  0  0  0  0  0  0
    4.1429    2.3651    4.4784 C   0  0  0  0  0  0  0  0  0  0  0  0
    5.0231    2.5429    2.5599 H   0  0  0  0  0  0  0  0  0  0  0  0
    4.1254    3.3677    4.9304 H   0  0  0  0  0  0  0  0  0  0  0  0
    3.2588    1.7992    4.8074 H   0  0  0  0  0  0  0  0  0  0  0  0
    5.0547    1.8367    4.7936 H   0  0  0  0  0  0  0  0  0  0  0  0
 25 27  1  0  0  0  0
 26 27  2  0  0  0  0
 23 25  2  0  0  0  0
 24 26  1  0  0  0  0
 22 23  1  0  0  0  0
 22 24  2  0  0  0  0
 21 22  1  0  0  0  0
  1  3  1  0  0  0  0
  1  7  1  0  0  0  0
  1  2  2  0  0  0  0
 38 39  1  0  0  0  0
 39 47  1  0  0  0  0
 39 40  2  0  0  0  0
  8  9  1  0  0  0  0
  9 17  1  0  0  0  0
  9 10  2  0  0  0  0
 18 19  1  0  0  0  0
 19 37  1  0  0  0  0
 19 20  2  0  0  0  0
 38 41  1  0  0  0  0
  8 11  1  0  0  0  0
 47 48  1  0  0  0  0
 18 21  1  0  0  0  0
 37 38  1  0  0  0  0
  7  8  1  0  0  0  0
 17 18  1  0  0  0  0
 27 36  1  0  0  0  0
 25 34  1  0  0  0  0
 26 35  1  0  0  0  0
 23 32  1  0  0  0  0
 24 33  1  0  0  0  0
  3  4  1  0  0  0  0
  3  5  1  0  0  0  0
  3  6  1  0  0  0  0
 41 44  1  0  0  0  0
 41 45  1  0  0  0  0
 41 46  1  0  0  0  0
 11 14  1  0  0  0  0
 11 15  1  0  0  0  0
 11 16  1  0  0  0  0
 48 50  1  0  0  0  0
 48 51  1  0  0  0  0
 48 52  1  0  0  0  0
 21 30  1  0  0  0  0
 21 31  1  0  0  0  0
 38 43  1  0  0  0  0
  8 13  1  0  0  0  0
 18 29  1  0  0  0  0
 47 49  1  0  0  0  0
  7 12  1  0  0  0  0
 37 42  1  0  0  0  0
 17 28  1  0  0  0  0
M  END
$$$$

  -OEChem-05262214473D

 52 52  0     1  0  0  0  0  0999 V2000
   -1.8248    0.3424    3.9102 C   0  0  0  0  0  0  0  0  0  0  0  0
   -0.8774   -0.2723    3.4345 O   0  0  0  0  0  0  0  0  0  0  0  0
   -2.2566    0.0600    5.3109 C   0  0  0  0  0  0  0  0  0  0  0  0
   -3.0163   -0.7363    5.3643 H   0  0  0  0  0  0  0  0  0  0  0  0
   -1.4254   -0.2876    5.9452 H   0  0  0  0  0  0  0  0  0  0  0  0
   -2.6947    0.9149    5.8505 H   0  0  0  0  0  0  0  0  0  0  0  0
   -2.5745    1.3149    3.2691 N   0  0  0  0  0  0  0  0  0  0  0  0
   -2.3276    1.7409    1.9167 C   0  0  2  0  0  0  0  0  0  0  0  0
   -0.9926    1.1555    1.4755 C   0  0  0  0  0  0  0  0  0  0  0  0
   -0.1206    0.8028    2.2668 O   0  0  0  0  0  0  0  0  0  0  0  0
   -2.3188    3.2577    1.8072 C   0  0  0  0  0  0  0  0  0  0  0  0
   -3.3395    1.7507    3.7809 H   0  0  0  0  0  0  0  0  0  0  0  0
   -3.1317    1.3224    1.3015 H   0  0  0  0  0  0  0  0  0  0  0  0
   -1.5198    3.6949    2.4169 H   0  0  0  0  0  0  0  0  0  0  0  0
   -2.1594    3.5799    0.7729 H   0  0  0  0  0  0  0  0  0  0  0  0
   -3.2690    3.6789    2.1530 H   0  0  0  0  0  0  0  0  0  0  0  0
   -0.8700    1.1124    0.0921 N   0  0  0  0  0  0  0  0  0  0  0  0
    0.3073    0.6116   -0.5716 C   0  0  2  0  0  0  0  0  0  0  0  0
    1.4938    0.8884    0.3449 C   0  0  0  0  0  0  0  0  0  0  0  0
    2.0731    0.0059    0.9745 O   0  0  0  0  0  0  0  0  0  0  0  0
    0.5252    1.2696   -1.9389 C   0  0  0  0  0  0  0  0  0  0  0  0
   -0.5423    0.9019   -2.9404 C   0  0  0  0  0  0  0  0  0  0  0  0
   -0.4718   -0.3135   -3.6213 C   0  0  0  0  0  0  0  0  0  0  0  0
   -1.6000    1.7778   -3.1847 C   0  0  0  0  0  0  0  0  0  0  0  0
   -1.4589   -0.6529   -4.5465 C   0  0  0  0  0  0  0  0  0  0  0  0
   -2.5871    1.4384   -4.1100 C   0  0  0  0  0  0  0  0  0  0  0  0
   -2.5165    0.2230   -4.7908 C   0  0  0  0  0  0  0  0  0  0  0  0
   -1.6531    1.4091   -0.4852 H   0  0  0  0  0  0  0  0  0  0  0  0
    0.1740   -0.4723   -0.6686 H   0  0  0  0  0  0  0  0  0  0  0  0
    1.5133    1.0015   -2.3370 H   0  0  0  0  0  0  0  0  0  0  0  0
    0.5419    2.3631   -1.8401 H   0  0  0  0  0  0  0  0  0  0  0  0
    0.3486   -1.0023   -3.4372 H   0  0  0  0  0  0  0  0  0  0  0  0
   -1.6632    2.7268   -2.6588 H   0  0  0  0  0  0  0  0  0  0  0  0
   -1.4032   -1.5988   -5.0774 H   0  0  0  0  0  0  0  0  0  0  0  0
   -3.4098    2.1211   -4.3007 H   0  0  0  0  0  0  0  0  0  0  0  0
   -3.2843   -0.0408   -5.5123 H   0  0  0  0  0  0  0  0  0  0  0  0
    1.8566    2.2281    0.3349 N   0  0  0  0  0  0  0  0  0  0  0  0
    2.9643    2.7560    1.0985 C   0  0  2  0  0  0  0  0  0  0  0  0
    2.8212    2.2675    2.5339 C   0  0  0  0  0  0  0  0  0  0  0  0
    1.7494    1.9068    3.0160 O   0  0  0  0  0  0  0  0  0  0  0  0
    3.0008    4.2753    1.0425 C   0  0  0  0  0  0  0  0  0  0  0  0
    1.3164    2.8698   -0.2380 H   0  0  0  0  0  0  0  0  0  0  0  0
    3.8777    2.3398    0.6598 H   0  0  0  0  0  0  0  0  0  0  0  0
    2.0937    4.7103    1.4776 H   0  0  0  0  0  0  0  0  0  0  0  0
    3.8570    4.6723    1.5978 H   0  0  0  0  0  0  0  0  0  0  0  0
    3.0738    4.6254    0.0072 H   0  0  0  0  0  0  0  0  0  0  0  0
    4.0228    2.3223    3.2261 N   0  0  0  0  0  0  0  0  0  0  0  0
    4.1448    1.9241    4.6091 C   0  0  0  0  0  0  0  0  0  0  0  0
    4.8656    2.6166    2.7416 H   0  0  0  0  0  0  0  0  0  0  0  0
    4.0048    2.8016    5.2576 H   0  0  0  0  0  0  0  0  0  0  0  0
    3.3786    1.1700    4.8423 H   0  0  0  0  0  0  0  0  0  0  0  0
    5.1438    1.4970    4.7808 H   0  0  0  0  0  0  0  0  0  0  0  0
 25 27  1  0  0  0  0
 26 27  2  0  0  0  0
 23 25  2  0  0  0  0
 24 26  1  0  0  0  0
 22 23  1  0  0  0  0
 22 24  2  0  0  0  0
 21 22  1  0  0  0  0
  1  3  1  0  0  0  0
  1  7  1  0  0  0  0
  1  2  2  0  0  0  0
 38 39  1  0  0  0  0
 39 47  1  0  0  0  0
 39 40  2  0  0  0  0
  8  9  1  0  0  0  0
  9 17  1  0  0  0  0
  9 10  2  0  0  0  0
 18 19  1  0  0  0  0
 19 37  1  0  0  0  0
 19 20  2  0  0  0  0
 38 41  1  0  0  0  0
  8 11  1  0  0  0  0
 47 48  1  0  0  0  0
 18 21  1  0  0  0  0
 37 38  1  0  0  0  0
  7  8  1  0  0  0  0
 17 18  1  0  0  0  0
 27 36  1  0  0  0  0
 25 34  1  0  0  0  0
 26 35  1  0  0  0  0
 23 32  1  0  0  0  0
 24 33  1  0  0  0  0
  3  4  1  0  0  0  0
  3  5  1  0  0  0  0
  3  6  1  0  0  0  0
 41 44  1  0  0  0  0
 41 45  1  0  0  0  0
 41 46  1  0  0  0  0
 11 14  1  0  0  0  0
 11 15  1  0  0  0  0
 11 16  1  0  0  0  0
 48 50  1  0  0  0  0
 48 51  1  0  0  0  0
 48 52  1  0  0  0  0
 21 30  1  0  0  0  0
 21 31  1  0  0  0  0
 38 43  1  0  0  0  0
  8 13  1  0  0  0  0
 18 29  1  0  0  0  0
 47 49  1  0  0  0  0
  7 12  1  0  0  0  0
 37 42  1  0  0  0  0
 17 28  1  0  0  0  0
M  END
$$$$

  -OEChem-05262214473D

 52 52  0     1  0  0  0  0  0999 V2000
   -1.8248    0.3424    3.9102 C   0  0  0  0  0  0  0  0  0  0  0  0
   -0.8774   -0.2723    3.4345 O   0  0  0  0  0  0  0  0  0  0  0  0
   -2.2566    0.0600    5.3109 C   0  0  0  0  0  0  0  0  0  0  0  0
   -3.0163   -0.7363    5.3643 H   0  0  0  0  0  0  0  0  0  0  0  0
   -1.4254   -0.2876    5.9452 H   0  0  0  0  0  0  0  0  0  0  0  0
   -2.6947    0.9149    5.8505 H   0  0  0  0  0  0  0  0  0  0  0  0
   -2.5745    1.3149    3.2691 N   0  0  0  0  0  0  0  0  0  0  0  0
   -2.3276    1.7409    1.9167 C   0  0  2  0  0  0  0  0  0  0  0  0
   -0.9926    1.1555    1.4755 C   0  0  0  0  0  0  0  0  0  0  0  0
   -0.1206    0.8028    2.2668 O   0  0  0  0  0  0  0  0  0  0  0  0
   -2.3188    3.2577    1.8072 C   0  0  0  0  0  0  0  0  0  0  0  0
   -3.3395    1.7507    3.7809 H   0  0  0  0  0  0  0  0  0  0  0  0
   -3.1317    1.3224    1.3015 H   0  0  0  0  0  0  0  0  0  0  0  0
   -1.5198    3.6949    2.4169 H   0  0  0  0  0  0  0  0  0  0  0  0
   -2.1594    3.5799    0.7729 H   0  0  0  0  0  0  0  0  0  0  0  0
   -3.2690    3.6789    2.1530 H   0  0  0  0  0  0  0  0  0  0  0  0
   -0.8700    1.1124    0.0921 N   0  0  0  0  0  0  0  0  0  0  0  0
    0.3073    0.6116   -0.5716 C   0  0  2  0  0  0  0  0  0  0  0  0
    1.4938    0.8884    0.3449 C   0  0  0  0  0  0  0  0  0  0  0  0
    2.2380    0.0034    0.7617 O   0  0  0  0  0  0  0  0  0  0  0  0
    0.5252    1.2696   -1.9389 C   0  0  0  0  0  0  0  0  0  0  0  0
   -0.5423    0.9019   -2.9404 C   0  0  0  0  0  0  0  0  0  0  0  0
   -0.4718   -0.3135   -3.6213 C   0  0  0  0  0  0  0  0  0  0  0  0
   -1.6000    1.7778   -3.1847 C   0  0  0  0  0  0  0  0  0  0  0  0
   -1.4589   -0.6529   -4.5465 C   0  0  0  0  0  0  0  0  0  0  0  0
   -2.5871    1.4384   -4.1100 C   0  0  0  0  0  0  0  0  0  0  0  0
   -2.5165    0.2230   -4.7908 C   0  0  0  0  0  0  0  0  0  0  0  0
   -1.6531    1.4091   -0.4852 H   0  0  0  0  0  0  0  0  0  0  0  0
    0.1740   -0.4723   -0.6686 H   0  0  0  0  0  0  0  0  0  0  0  0
    1.5133    1.0015   -2.3370 H   0  0  0  0  0  0  0  0  0  0  0  0
    0.5419    2.3631   -1.8401 H   0  0  0  0  0  0  0  0  0  0  0  0
    0.3486   -1.0023   -3.4372 H   0  0  0  0  0  0  0  0  0  0  0  0
   -1.6632    2.7268   -2.6588 H   0  0  0  0  0  0  0  0  0  0  0  0
   -1.4032   -1.5988   -5.0774 H   0  0  0  0  0  0  0  0  0  0  0  0
   -3.4098    2.1211   -4.3007 H   0  0  0  0  0  0  0  0  0  0  0  0
   -3.2843   -0.0408   -5.5123 H   0  0  0  0  0  0  0  0  0  0  0  0
    1.6491    2.2441    0.5986 N   0  0  0  0  0  0  0  0  0  0  0  0
    2.7104    2.7813    1.4196 C   0  0  2  0  0  0  0  0  0  0  0  0
    2.7332    2.0021    2.7279 C   0  0  0  0  0  0  0  0  0  0  0  0
    1.7605    1.3862    3.1589 O   0  0  0  0  0  0  0  0  0  0  0  0
    2.5138    4.2675    1.6753 C   0  0  0  0  0  0  0  0  0  0  0  0
    0.9834    2.8913    0.1866 H   0  0  0  0  0  0  0  0  0  0  0  0
    3.6467    2.6121    0.8767 H   0  0  0  0  0  0  0  0  0  0  0  0
    1.5807    4.4567    2.2184 H   0  0  0  0  0  0  0  0  0  0  0  0
    3.3336    4.6790    2.2734 H   0  0  0  0  0  0  0  0  0  0  0  0
    2.4679    4.8225    0.7321 H   0  0  0  0  0  0  0  0  0  0  0  0
    3.9539    2.1111    3.3791 N   0  0  0  0  0  0  0  0  0  0  0  0
    4.2213    1.4721    4.6464 C   0  0  0  0  0  0  0  0  0  0  0  0
    4.7106    2.6266    2.9392 H   0  0  0  0  0  0  0  0  0  0  0  0
    3.9918    2.1700    5.4652 H   0  0  0  0  0  0  0  0  0  0  0  0
    3.5939    0.5739    4.7437 H   0  0  0  0  0  0  0  0  0  0  0  0
    5.2822    1.1854    4.6958 H   0  0  0  0  0  0  0  0  0  0  0  0
 25 27  1  0  0  0  0
 26 27  2  0  0  0  0
 23 25  2  0  0  0  0
 24 26  1  0  0  0  0
 22 23  1  0  0  0  0
 22 24  2  0  0  0  0
 21 22  1  0  0  0  0
  1  3  1  0  0  0  0
  1  7  1  0  0  0  0
  1  2  2  0  0  0  0
 38 39  1  0  0  0  0
 39 47  1  0  0  0  0
 39 40  2  0  0  0  0
  8  9  1  0  0  0  0
  9 17  1  0  0  0  0
  9 10  2  0  0  0  0
 18 19  1  0  0  0  0
 19 37  1  0  0  0  0
 19 20  2  0  0  0  0
 38 41  1  0  0  0  0
  8 11  1  0  0  0  0
 47 48  1  0  0  0  0
 18 21  1  0  0  0  0
 37 38  1  0  0  0  0
  7  8  1  0  0  0  0
 17 18  1  0  0  0  0
 27 36  1  0  0  0  0
 25 34  1  0  0  0  0
 26 35  1  0  0  0  0
 23 32  1  0  0  0  0
 24 33  1  0  0  0  0
  3  4  1  0  0  0  0
  3  5  1  0  0  0  0
  3  6  1  0  0  0  0
 41 44  1  0  0  0  0
 41 45  1  0  0  0  0
 41 46  1  0  0  0  0
 11 14  1  0  0  0  0
 11 15  1  0  0  0  0
 11 16  1  0  0  0  0
 48 50  1  0  0  0  0
 48 51  1  0  0  0  0
 48 52  1  0  0  0  0
 21 30  1  0  0  0  0
 21 31  1  0  0  0  0
 38 43  1  0  0  0  0
  8 13  1  0  0  0  0
 18 29  1  0  0  0  0
 47 49  1  0  0  0  0
  7 12  1  0  0  0  0
 37 42  1  0  0  0  0
 17 28  1  0  0  0  0
M  END
$$$$

  -OEChem-05262214473D

 52 52  0     1  0  0  0  0  0999 V2000
   -1.8248    0.3424    3.9102 C   0  0  0  0  0  0  0  0  0  0  0  0
   -0.8774   -0.2723    3.4345 O   0  0  0  0  0  0  0  0  0  0  0  0
   -2.2566    0.0600    5.3109 C   0  0  0  0  0  0  0  0  0  0  0  0
   -3.0163   -0.7363    5.3643 H   0  0  0  0  0  0  0  0  0  0  0  0
   -1.4254   -0.2876    5.9452 H   0  0  0  0  0  0  0  0  0  0  0  0
   -2.6947    0.9149    5.8505 H   0  0  0  0  0  0  0  0  0  0  0  0
   -2.5745    1.3149    3.2691 N   0  0  0  0  0  0  0  0  0  0  0  0
   -2.3276    1.7409    1.9167 C   0  0  2  0  0  0  0  0  0  0  0  0
   -0.9926    1.1555    1.4755 C   0  0  0  0  0  0  0  0  0  0  0  0
   -0.1206    0.8028    2.2668 O   0  0  0  0  0  0  0  0  0  0  0  0
   -2.3188    3.2577    1.8072 C   0  0  0  0  0  0  0  0  0  0  0  0
   -3.3395    1.7507    3.7809 H   0  0  0  0  0  0  0  0  0  0  0  0
   -3.1317    1.3224    1.3015 H   0  0  0  0  0  0  0  0  0  0  0  0
   -1.5198    3.6949    2.4169 H   0  0  0  0  0  0  0  0  0  0  0  0
   -2.1594    3.5799    0.7729 H   0  0  0  0  0  0  0  0  0  0  0  0
   -3.2690    3.6789    2.1530 H   0  0  0  0  0  0  0  0  0  0  0  0
   -0.8700    1.1124    0.0921 N   0  0  0  0  0  0  0  0  0  0  0  0
    0.3073    0.6116   -0.5716 C   0  0  2  0  0  0  0  0  0  0  0  0
    1.4938    0.8884    0.3449 C   0  0  0  0  0  0  0  0  0  0  0  0
    2.3877    0.0695    0.5480 O   0  0  0  0  0  0  0  0  0  0  0  0
    0.5252    1.2696   -1.9389 C   0  0  0  0  0  0  0  0  0  0  0  0
   -0.5423    0.9019   -2.9404 C   0  0  0  0  0  0  0  0  0  0  0  0
   -0.4718   -0.3135   -3.6213 C   0  0  0  0  0  0  0  0  0  0  0  0
   -1.6000    1.7778   -3.1847 C   0  0  0  0  0  0  0  0  0  0  0  0
   -1.4589   -0.6529   -4.5465 C   0  0  0  0  0  0  0  0  0  0  0  0
   -2.5871    1.4384   -4.1100 C   0  0  0  0  0  0  0  0  0  0  0  0
   -2.5165    0.2230   -4.7908 C   0  0  0  0  0  0  0  0  0  0  0  0
   -1.6531    1.4091   -0.4852 H   0  0  0  0  0  0  0  0  0  0  0  0
    0.1740   -0.4723   -0.6686 H   0  0  0  0  0  0  0  0  0  0  0  0
    1.5133    1.0015   -2.3370 H   0  0  0  0  0  0  0  0  0  0  0  0
    0.5419    2.3631   -1.8401 H   0  0  0  0  0  0  0  0  0  0  0  0
    0.3486   -1.0023   -3.4372 H   0  0  0  0  0  0  0  0  0  0  0  0
   -1.6632    2.7268   -2.6588 H   0  0  0  0  0  0  0  0  0  0  0  0
   -1.4032   -1.5988   -5.0774 H   0  0  0  0  0  0  0  0  0  0  0  0
   -3.4098    2.1211   -4.3007 H   0  0  0  0  0  0  0  0  0  0  0  0
   -3.2843   -0.0408   -5.5123 H   0  0  0  0  0  0  0  0  0  0  0  0
    1.4586    2.1742    0.8664 N   0  0  0  0  0  0  0  0  0  0  0  0
    2.4763    2.7016    1.7467 C   0  0  2  0  0  0  0  0  0  0  0  0
    2.6986    1.6931    2.8661 C   0  0  0  0  0  0  0  0  0  0  0  0
    1.8590    0.8562    3.1915 O   0  0  0  0  0  0  0  0  0  0  0  0
    2.0744    4.0567    2.3079 C   0  0  0  0  0  0  0  0  0  0  0  0
    0.6783    2.7747    0.6168 H   0  0  0  0  0  0  0  0  0  0  0  0
    3.3914    2.7954    1.1519 H   0  0  0  0  0  0  0  0  0  0  0  0
    1.1594    3.9826    2.9069 H   0  0  0  0  0  0  0  0  0  0  0  0
    2.8587    4.4679    2.9520 H   0  0  0  0  0  0  0  0  0  0  0  0
    1.8860    4.7725    1.5005 H   0  0  0  0  0  0  0  0  0  0  0  0
    3.9275    1.8655    3.4875 N   0  0  0  0  0  0  0  0  0  0  0  0
    4.3674    1.0399    4.5879 C   0  0  0  0  0  0  0  0  0  0  0  0
    4.5686    2.5724    3.1395 H   0  0  0  0  0  0  0  0  0  0  0  0
    4.0872    1.5161    5.5391 H   0  0  0  0  0  0  0  0  0  0  0  0
    3.8899    0.0514    4.5182 H   0  0  0  0  0  0  0  0  0  0  0  0
    5.4603    0.9231    4.5444 H   0  0  0  0  0  0  0  0  0  0  0  0
 25 27  1  0  0  0  0
 26 27  2  0  0  0  0
 23 25  2  0  0  0  0
 24 26  1  0  0  0  0
 22 23  1  0  0  0  0
 22 24  2  0  0  0  0
 21 22  1  0  0  0  0
  1  3  1  0  0  0  0
  1  7  1  0  0  0  0
  1  2  2  0  0  0  0
 38 39  1  0  0  0  0
 39 47  1  0  0  0  0
 39 40  2  0  0  0  0
  8  9  1  0  0  0  0
  9 17  1  0  0  0  0
  9 10  2  0  0  0  0
 18 19  1  0  0  0  0
 19 37  1  0  0  0  0
 19 20  2  0  0  0  0
 38 41  1  0  0  0  0
  8 11  1  0  0  0  0
 47 48  1  0  0  0  0
 18 21  1  0  0  0  0
 37 38  1  0  0  0  0
  7  8  1  0  0  0  0
 17 18  1  0  0  0  0
 27 36  1  0  0  0  0
 25 34  1  0  0  0  0
 26 35  1  0  0  0  0
 23 32  1  0  0  0  0
 24 33  1  0  0  0  0
  3  4  1  0  0  0  0
  3  5  1  0  0  0  0
  3  6  1  0  0  0  0
 41 44  1  0  0  0  0
 41 45  1  0  0  0  0
 41 46  1  0  0  0  0
 11 14  1  0  0  0  0
 11 15  1  0  0  0  0
 11 16  1  0  0  0  0
 48 50  1  0  0  0  0
 48 51  1  0  0  0  0
 48 52  1  0  0  0  0
 21 30  1  0  0  0  0
 21 31  1  0  0  0  0
 38 43  1  0  0  0  0
  8 13  1  0  0  0  0
 18 29  1  0  0  0  0
 47 49  1  0  0  0  0
  7 12  1  0  0  0  0
 37 42  1  0  0  0  0
 17 28  1  0  0  0  0
M  END
$$$$

  -OEChem-05262214473D

 52 52  0     1  0  0  0  0  0999 V2000
   -1.8248    0.3424    3.9102 C   0  0  0  0  0  0  0  0  0  0  0  0
   -0.8774   -0.2723    3.4345 O   0  0  0  0  0  0  0  0  0  0  0  0
   -2.2566    0.0600    5.3109 C   0  0  0  0  0  0  0  0  0  0  0  0
   -3.0163   -0.7363    5.3643 H   0  0  0  0  0  0  0  0  0  0  0  0
   -1.4254   -0.2876    5.9452 H   0  0  0  0  0  0  0  0  0  0  0  0
   -2.6947    0.9149    5.8505 H   0  0  0  0  0  0  0  0  0  0  0  0
   -2.5745    1.3149    3.2691 N   0  0  0  0  0  0  0  0  0  0  0  0
   -2.3276    1.7409    1.9167 C   0  0  2  0  0  0  0  0  0  0  0  0
   -0.9926    1.1555    1.4755 C   0  0  0  0  0  0  0  0  0  0  0  0
   -0.1206    0.8028    2.2668 O   0  0  0  0  0  0  0  0  0  0  0  0
   -2.3188    3.2577    1.8072 C   0  0  0  0  0  0  0  0  0  0  0  0
   -3.3395    1.7507    3.7809 H   0  0  0  0  0  0  0  0  0  0  0  0
   -3.1317    1.3224    1.3015 H   0  0  0  0  0  0  0  0  0  0  0  0
   -1.5198    3.6949    2.4169 H   0  0  0  0  0  0  0  0  0  0  0  0
   -2.1594    3.5799    0.7729 H   0  0  0  0  0  0  0  0  0  0  0  0
   -3.2690    3.6789    2.1530 H   0  0  0  0  0  0  0  0  0  0  0  0
   -0.8700    1.1124    0.0921 N   0  0  0  0  0  0  0  0  0  0  0  0
    0.3073    0.6116   -0.5716 C   0  0  2  0  0  0  0  0  0  0  0  0
    1.4938    0.8884    0.3449 C   0  0  0  0  0  0  0  0  0  0  0  0
    2.5119    0.1997    0.3478 O   0  0  0  0  0  0  0  0  0  0  0  0
    0.5252    1.2696   -1.9389 C   0  0  0  0  0  0  0  0  0  0  0  0
   -0.5423    0.9019   -2.9404 C   0  0  0  0  0  0  0  0  0  0  0  0
   -0.4718   -0.3135   -3.6213 C   0  0  0  0  0  0  0  0  0  0  0  0
   -1.6000    1.7778   -3.1847 C   0  0  0  0  0  0  0  0  0  0  0  0
   -1.4589   -0.6529   -4.5465 C   0  0  0  0  0  0  0  0  0  0  0  0
   -2.5871    1.4384   -4.1100 C   0  0  0  0  0  0  0  0  0  0  0  0
   -2.5165    0.2230   -4.7908 C   0  0  0  0  0  0  0  0  0  0  0  0
   -1.6531    1.4091   -0.4852 H   0  0  0  0  0  0  0  0  0  0  0  0
    0.1740   -0.4723   -0.6686 H   0  0  0  0  0  0  0  0  0  0  0  0
    1.5133    1.0015   -2.3370 H   0  0  0  0  0  0  0  0  0  0  0  0
    0.5419    2.3631   -1.8401 H   0  0  0  0  0  0  0  0  0  0  0  0
    0.3486   -1.0023   -3.4372 H   0  0  0  0  0  0  0  0  0  0  0  0
   -1.6632    2.7268   -2.6588 H   0  0  0  0  0  0  0  0  0  0  0  0
   -1.4032   -1.5988   -5.0774 H   0  0  0  0  0  0  0  0  0  0  0  0
   -3.4098    2.1211   -4.3007 H   0  0  0  0  0  0  0  0  0  0  0  0
   -3.2843   -0.0408   -5.5123 H   0  0  0  0  0  0  0  0  0  0  0  0
    1.2980    2.0231    1.1199 N   0  0  0  0  0  0  0  0  0  0  0  0
    2.2779    2.5223    2.0577 C   0  0  2  0  0  0  0  0  0  0  0  0
    2.7197    1.3613    2.9389 C   0  0  0  0  0  0  0  0  0  0  0  0
    2.0381    0.3531    3.1116 O   0  0  0  0  0  0  0  0  0  0  0  0
    1.7125    3.6573    2.8971 C   0  0  0  0  0  0  0  0  0  0  0  0
    0.4220    2.5280    1.0232 H   0  0  0  0  0  0  0  0  0  0  0  0
    3.1291    2.8774    1.4666 H   0  0  0  0  0  0  0  0  0  0  0  0
    0.8586    3.3205    3.4963 H   0  0  0  0  0  0  0  0  0  0  0  0
    2.4648    4.0534    3.5871 H   0  0  0  0  0  0  0  0  0  0  0  0
    1.3679    4.4790    2.2600 H   0  0  0  0  0  0  0  0  0  0  0  0
    3.9452    1.6024    3.5440 N   0  0  0  0  0  0  0  0  0  0  0  0
    4.5730    0.6570    4.4374 C   0  0  0  0  0  0  0  0  0  0  0  0
    4.4492    2.4576    3.3286 H   0  0  0  0  0  0  0  0  0  0  0  0
    4.2846    0.8845    5.4743 H   0  0  0  0  0  0  0  0  0  0  0  0
    4.2465   -0.3618    4.1813 H   0  0  0  0  0  0  0  0  0  0  0  0
    5.6661    0.7279    4.3370 H   0  0  0  0  0  0  0  0  0  0  0  0
 25 27  1  0  0  0  0
 26 27  2  0  0  0  0
 23 25  2  0  0  0  0
 24 26  1  0  0  0  0
 22 23  1  0  0  0  0
 22 24  2  0  0  0  0
 21 22  1  0  0  0  0
  1  3  1  0  0  0  0
  1  7  1  0  0  0  0
  1  2  2  0  0  0  0
 38 39  1  0  0  0  0
 39 47  1  0  0  0  0
 39 40  2  0  0  0  0
  8  9  1  0  0  0  0
  9 17  1  0  0  0  0
  9 10  2  0  0  0  0
 18 19  1  0  0  0  0
 19 37  1  0  0  0  0
 19 20  2  0  0  0  0
 38 41  1  0  0  0  0
  8 11  1  0  0  0  0
 47 48  1  0  0  0  0
 18 21  1  0  0  0  0
 37 38  1  0  0  0  0
  7  8  1  0  0  0  0
 17 18  1  0  0  0  0
 27 36  1  0  0  0  0
 25 34  1  0  0  0  0
 26 35  1  0  0  0  0
 23 32  1  0  0  0  0
 24 33  1  0  0  0  0
  3  4  1  0  0  0  0
  3  5  1  0  0  0  0
  3  6  1  0  0  0  0
 41 44  1  0  0  0  0
 41 45  1  0  0  0  0
 41 46  1  0  0  0  0
 11 14  1  0  0  0  0
 11 15  1  0  0  0  0
 11 16  1  0  0  0  0
 48 50  1  0  0  0  0
 48 51  1  0  0  0  0
 48 52  1  0  0  0  0
 21 30  1  0  0  0  0
 21 31  1  0  0  0  0
 38 43  1  0  0  0  0
  8 13  1  0  0  0  0
 18 29  1  0  0  0  0
 47 49  1  0  0  0  0
  7 12  1  0  0  0  0
 37 42  1  0  0  0  0
 17 28  1  0  0  0  0
M  END
$$$$

  -OEChem-05262214473D

 52 52  0     1  0  0  0  0  0999 V2000
   -1.8248    0.3424    3.9102 C   0  0  0  0  0  0  0  0  0  0  0  0
   -0.8774   -0.2723    3.4345 O   0  0  0  0  0  0  0  0  0  0  0  0
   -2.2566    0.0600    5.3109 C   0  0  0  0  0  0  0  0  0  0  0  0
   -3.0163   -0.7363    5.3643 H   0  0  0  0  0  0  0  0  0  0  0  0
   -1.4254   -0.2876    5.9452 H   0  0  0  0  0  0  0  0  0  0  0  0
   -2.6947    0.9149    5.8505 H   0  0  0  0  0  0  0  0  0  0  0  0
   -2.5745    1.3149    3.2691 N   0  0  0  0  0  0  0  0  0  0  0  0
   -2.3276    1.7409    1.9167 C   0  0  2  0  0  0  0  0  0  0  0  0
   -0.9926    1.1555    1.4755 C   0  0  0  0  0  0  0  0  0  0  0  0
   -0.1206    0.8028    2.2668 O   0  0  0  0  0  0  0  0  0  0  0  0
   -2.3188    3.2577    1.8072 C   0  0  0  0  0  0  0  0  0  0  0  0
   -3.3395    1.7507    3.7809 H   0  0  0  0  0  0  0  0  0  0  0  0
   -3.1317    1.3224    1.3015 H   0  0  0  0  0  0  0  0  0  0  0  0
   -1.5198    3.6949    2.4169 H   0  0  0  0  0  0  0  0  0  0  0  0
   -2.1594    3.5799    0.7729 H   0  0  0  0  0  0  0  0  0  0  0  0
   -3.2690    3.6789    2.1530 H   0  0  0  0  0  0  0  0  0  0  0  0
   -0.8700    1.1124    0.0921 N   0  0  0  0  0  0  0  0  0  0  0  0
    0.3073    0.6116   -0.5716 C   0  0  2  0  0  0  0  0  0  0  0  0
    1.4938    0.8884    0.3449 C   0  0  0  0  0  0  0  0  0  0  0  0
    2.6023    0.3851    0.1749 O   0  0  0  0  0  0  0  0  0  0  0  0
    0.5252    1.2696   -1.9389 C   0  0  0  0  0  0  0  0  0  0  0  0
   -0.5423    0.9019   -2.9404 C   0  0  0  0  0  0  0  0  0  0  0  0
   -0.4718   -0.3135   -3.6213 C   0  0  0  0  0  0  0  0  0  0  0  0
   -1.6000    1.7778   -3.1847 C   0  0  0  0  0  0  0  0  0  0  0  0
   -1.4589   -0.6529   -4.5465 C   0  0  0  0  0  0  0  0  0  0  0  0
   -2.5871    1.4384   -4.1100 C   0  0  0  0  0  0  0  0  0  0  0  0
   -2.5165    0.2230   -4.7908 C   0  0  0  0  0  0  0  0  0  0  0  0
   -1.6531    1.4091   -0.4852 H   0  0  0  0  0  0  0  0  0  0  0  0
    0.1740   -0.4723   -0.6686 H   0  0  0  0  0  0  0  0  0  0  0  0
    1.5133    1.0015   -2.3370 H   0  0  0  0  0  0  0  0  0  0  0  0
    0.5419    2.3631   -1.8401 H   0  0  0  0  0  0  0  0  0  0  0  0
    0.3486   -1.0023   -3.4372 H   0  0  0  0  0  0  0  0  0  0  0  0
   -1.6632    2.7268   -2.6588 H   0  0  0  0  0  0  0  0  0  0  0  0
   -1.4032   -1.5988   -5.0774 H   0  0  0  0  0  0  0  0  0  0  0  0
   -3.4098    2.1211   -4.3007 H   0  0  0  0  0  0  0  0  0  0  0  0
   -3.2843   -0.0408   -5.5123 H   0  0  0  0  0  0  0  0  0  0  0  0
    1.1784    1.8011    1.3419 N   0  0  0  0  0  0  0  0  0  0  0  0
    2.1288    2.2556    2.3312 C   0  0  2  0  0  0  0  0  0  0  0  0
    2.7952    1.0295    2.9414 C   0  0  0  0  0  0  0  0  0  0  0  0
    2.2856   -0.0890    2.9246 O   0  0  0  0  0  0  0  0  0  0  0  0
    1.4527    3.0966    3.4028 C   0  0  0  0  0  0  0  0  0  0  0  0
    0.2319    2.1680    1.3780 H   0  0  0  0  0  0  0  0  0  0  0  0
    2.8779    2.8524    1.7994 H   0  0  0  0  0  0  0  0  0  0  0  0
    0.6988    2.5154    3.9464 H   0  0  0  0  0  0  0  0  0  0  0  0
    2.1786    3.4638    4.1357 H   0  0  0  0  0  0  0  0  0  0  0  0
    0.9487    3.9618    2.9588 H   0  0  0  0  0  0  0  0  0  0  0  0
    4.0060    1.3396    3.5447 N   0  0  0  0  0  0  0  0  0  0  0  0
    4.8240    0.3494    4.2053 C   0  0  0  0  0  0  0  0  0  0  0  0
    4.3607    2.2900    3.4939 H   0  0  0  0  0  0  0  0  0  0  0  0
    4.5705    0.3182    5.2752 H   0  0  0  0  0  0  0  0  0  0  0  0
    4.6395   -0.6375    3.7559 H   0  0  0  0  0  0  0  0  0  0  0  0
    5.8854    0.6131    4.0876 H   0  0  0  0  0  0  0  0  0  0  0  0
 25 27  1  0  0  0  0
 26 27  2  0  0  0  0
 23 25  2  0  0  0  0
 24 26  1  0  0  0  0
 22 23  1  0  0  0  0
 22 24  2  0  0  0  0
 21 22  1  0  0  0  0
  1  3  1  0  0  0  0
  1  7  1  0  0  0  0
  1  2  2  0  0  0  0
 38 39  1  0  0  0  0
 39 47  1  0  0  0  0
 39 40  2  0  0  0  0
  8  9  1  0  0  0  0
  9 17  1  0  0  0  0
  9 10  2  0  0  0  0
 18 19  1  0  0  0  0
 19 37  1  0  0  0  0
 19 20  2  0  0  0  0
 38 41  1  0  0  0  0
  8 11  1  0  0  0  0
 47 48  1  0  0  0  0
 18 21  1  0  0  0  0
 37 38  1  0  0  0  0
  7  8  1  0  0  0  0
 17 18  1  0  0  0  0
 27 36  1  0  0  0  0
 25 34  1  0  0  0  0
 26 35  1  0  0  0  0
 23 32  1  0  0  0  0
 24 33  1  0  0  0  0
  3  4  1  0  0  0  0
  3  5  1  0  0  0  0
  3  6  1  0  0  0  0
 41 44  1  0  0  0  0
 41 45  1  0  0  0  0
 41 46  1  0  0  0  0
 11 14  1  0  0  0  0
 11 15  1  0  0  0  0
 11 16  1  0  0  0  0
 48 50  1  0  0  0  0
 48 51  1  0  0  0  0
 48 52  1  0  0  0  0
 21 30  1  0  0  0  0
 21 31  1  0  0  0  0
 38 43  1  0  0  0  0
  8 13  1  0  0  0  0
 18 29  1  0  0  0  0
 47 49  1  0  0  0  0
  7 12  1  0  0  0  0
 37 42  1  0  0  0  0
 17 28  1  0  0  0  0
M  END
$$$$

  -OEChem-05262214473D

 52 52  0     1  0  0  0  0  0999 V2000
   -1.8248    0.3424    3.9102 C   0  0  0  0  0  0  0  0  0  0  0  0
   -0.8774   -0.2723    3.4345 O   0  0  0  0  0  0  0  0  0  0  0  0
   -2.2566    0.0600    5.3109 C   0  0  0  0  0  0  0  0  0  0  0  0
   -3.0163   -0.7363    5.3643 H   0  0  0  0  0  0  0  0  0  0  0  0
   -1.4254   -0.2876    5.9452 H   0  0  0  0  0  0  0  0  0  0  0  0
   -2.6947    0.9149    5.8505 H   0  0  0  0  0  0  0  0  0  0  0  0
   -2.5745    1.3149    3.2691 N   0  0  0  0  0  0  0  0  0  0  0  0
   -2.3276    1.7409    1.9167 C   0  0  2  0  0  0  0  0  0  0  0  0
   -0.9926    1.1555    1.4755 C   0  0  0  0  0  0  0  0  0  0  0  0
   -0.1206    0.8028    2.2668 O   0  0  0  0  0  0  0  0  0  0  0  0
   -2.3188    3.2577    1.8072 C   0  0  0  0  0  0  0  0  0  0  0  0
   -3.3395    1.7507    3.7809 H   0  0  0  0  0  0  0  0  0  0  0  0
   -3.1317    1.3224    1.3015 H   0  0  0  0  0  0  0  0  0  0  0  0
   -1.5198    3.6949    2.4169 H   0  0  0  0  0  0  0  0  0  0  0  0
   -2.1594    3.5799    0.7729 H   0  0  0  0  0  0  0  0  0  0  0  0
   -3.2690    3.6789    2.1530 H   0  0  0  0  0  0  0  0  0  0  0  0
   -0.8700    1.1124    0.0921 N   0  0  0  0  0  0  0  0  0  0  0  0
    0.3073    0.6116   -0.5716 C   0  0  2  0  0  0  0  0  0  0  0  0
    1.4938    0.8884    0.3449 C   0  0  0  0  0  0  0  0  0  0  0  0
    2.6525    0.6131    0.0409 O   0  0  0  0  0  0  0  0  0  0  0  0
    0.5252    1.2696   -1.9389 C   0  0  0  0  0  0  0  0  0  0  0  0
   -0.5423    0.9019   -2.9404 C   0  0  0  0  0  0  0  0  0  0  0  0
   -0.4718   -0.3135   -3.6213 C   0  0  0  0  0  0  0  0  0  0  0  0
   -1.6000    1.7778   -3.1847 C   0  0  0  0  0  0  0  0  0  0  0  0
   -1.4589   -0.6529   -4.5465 C   0  0  0  0  0  0  0  0  0  0  0  0
   -2.5871    1.4384   -4.1100 C   0  0  0  0  0  0  0  0  0  0  0  0
   -2.5165    0.2230   -4.7908 C   0  0  0  0  0  0  0  0  0  0  0  0
   -1.6531    1.4091   -0.4852 H   0  0  0  0  0  0  0  0  0  0  0  0
    0.1740   -0.4723   -0.6686 H   0  0  0  0  0  0  0  0  0  0  0  0
    1.5133    1.0015   -2.3370 H   0  0  0  0  0  0  0  0  0  0  0  0
    0.5419    2.3631   -1.8401 H   0  0  0  0  0  0  0  0  0  0  0  0
    0.3486   -1.0023   -3.4372 H   0  0  0  0  0  0  0  0  0  0  0  0
   -1.6632    2.7268   -2.6588 H   0  0  0  0  0  0  0  0  0  0  0  0
   -1.4032   -1.5988   -5.0774 H   0  0  0  0  0  0  0  0  0  0  0  0
   -3.4098    2.1211   -4.3007 H   0  0  0  0  0  0  0  0  0  0  0  0
   -3.2843   -0.0408   -5.5123 H   0  0  0  0  0  0  0  0  0  0  0  0
    1.1078    1.5233    1.5172 N   0  0  0  0  0  0  0  0  0  0  0  0
    2.0392    1.9197    2.5488 C   0  0  2  0  0  0  0  0  0  0  0  0
    2.9198    0.7203    2.8734 C   0  0  0  0  0  0  0  0  0  0  0  0
    2.5847   -0.4398    2.6434 O   0  0  0  0  0  0  0  0  0  0  0  0
    1.3127    2.4126    3.7905 C   0  0  0  0  0  0  0  0  0  0  0  0
    0.1210    1.7191    1.6572 H   0  0  0  0  0  0  0  0  0  0  0  0
    2.6547    2.7221    2.1277 H   0  0  0  0  0  0  0  0  0  0  0  0
    0.6908    1.6223    4.2265 H   0  0  0  0  0  0  0  0  0  0  0  0
    2.0197    2.7393    4.5603 H   0  0  0  0  0  0  0  0  0  0  0  0
    0.6572    3.2563    3.5494 H   0  0  0  0  0  0  0  0  0  0  0  0
    4.1056    1.0950    3.4896 N   0  0  0  0  0  0  0  0  0  0  0  0
    5.1035    0.1381    3.9073 C   0  0  0  0  0  0  0  0  0  0  0  0
    4.3091    2.0811    3.6238 H   0  0  0  0  0  0  0  0  0  0  0  0
    4.9255   -0.1443    4.9554 H   0  0  0  0  0  0  0  0  0  0  0  0
    5.0419   -0.7571    3.2710 H   0  0  0  0  0  0  0  0  0  0  0  0
    6.1035    0.5867    3.8133 H   0  0  0  0  0  0  0  0  0  0  0  0
 25 27  1  0  0  0  0
 26 27  2  0  0  0  0
 23 25  2  0  0  0  0
 24 26  1  0  0  0  0
 22 23  1  0  0  0  0
 22 24  2  0  0  0  0
 21 22  1  0  0  0  0
  1  3  1  0  0  0  0
  1  7  1  0  0  0  0
  1  2  2  0  0  0  0
 38 39  1  0  0  0  0
 39 47  1  0  0  0  0
 39 40  2  0  0  0  0
  8  9  1  0  0  0  0
  9 17  1  0  0  0  0
  9 10  2  0  0  0  0
 18 19  1  0  0  0  0
 19 37  1  0  0  0  0
 19 20  2  0  0  0  0
 38 41  1  0  0  0  0
  8 11  1  0  0  0  0
 47 48  1  0  0  0  0
 18 21  1  0  0  0  0
 37 38  1  0  0  0  0
  7  8  1  0  0  0  0
 17 18  1  0  0  0  0
 27 36  1  0  0  0  0
 25 34  1  0  0  0  0
 26 35  1  0  0  0  0
 23 32  1  0  0  0  0
 24 33  1  0  0  0  0
  3  4  1  0  0  0  0
  3  5  1  0  0  0  0
  3  6  1  0  0  0  0
 41 44  1  0  0  0  0
 41 45  1  0  0  0  0
 41 46  1  0  0  0  0
 11 14  1  0  0  0  0
 11 15  1  0  0  0  0
 11 16  1  0  0  0  0
 48 50  1  0  0  0  0
 48 51  1  0  0  0  0
 48 52  1  0  0  0  0
 21 30  1  0  0  0  0
 21 31  1  0  0  0  0
 38 43  1  0  0  0  0
  8 13  1  0  0  0  0
 18 29  1  0  0  0  0
 47 49  1  0  0  0  0
  7 12  1  0  0  0  0
 37 42  1  0  0  0  0
 17 28  1  0  0  0  0
M  END
$$$$

  -OEChem-05262214473D

 52 52  0     1  0  0  0  0  0999 V2000
   -1.8248    0.3424    3.9102 C   0  0  0  0  0  0  0  0  0  0  0  0
   -0.8774   -0.2723    3.4345 O   0  0  0  0  0  0  0  0  0  0  0  0
   -2.2566    0.0600    5.3109 C   0  0  0  0  0  0  0  0  0  0  0  0
   -3.0163   -0.7363    5.3643 H   0  0  0  0  0  0  0  0  0  0  0  0
   -1.4254   -0.2876    5.9452 H   0  0  0  0  0  0  0  0  0  0  0  0
   -2.6947    0.9149    5.8505 H   0  0  0  0  0  0  0  0  0  0  0  0
   -2.5745    1.3149    3.2691 N   0  0  0  0  0  0  0  0  0  0  0  0
   -2.3276    1.7409    1.9167 C   0  0  2  0  0  0  0  0  0  0  0  0
   -0.9926    1.1555    1.4755 C   0  0  0  0  0  0  0  0  0  0  0  0
   -0.1206    0.8028    2.2668 O   0  0  0  0  0  0  0  0  0  0  0  0
   -2.3188    3.2577    1.8072 C   0  0  0  0  0  0  0  0  0  0  0  0
   -3.3395    1.7507    3.7809 H   0  0  0  0  0  0  0  0  0  0  0  0
   -3.1317    1.3224    1.3015 H   0  0  0  0  0  0  0  0  0  0  0  0
   -1.5198    3.6949    2.4169 H   0  0  0  0  0  0  0  0  0  0  0  0
   -2.1594    3.5799    0.7729 H   0  0  0  0  0  0  0  0  0  0  0  0
   -3.2690    3.6789    2.1530 H   0  0  0  0  0  0  0  0  0  0  0  0
   -0.8700    1.1124    0.0921 N   0  0  0  0  0  0  0  0  0  0  0  0
    0.3073    0.6116   -0.5716 C   0  0  2  0  0  0  0  0  0  0  0  0
    1.4938    0.8884    0.3449 C   0  0  0  0  0  0  0  0  0  0  0  0
    2.6594    0.8682   -0.0449 O   0  0  0  0  0  0  0  0  0  0  0  0
    0.5252    1.2696   -1.9389 C   0  0  0  0  0  0  0  0  0  0  0  0
   -0.5423    0.9019   -2.9404 C   0  0  0  0  0  0  0  0  0  0  0  0
   -0.4718   -0.3135   -3.6213 C   0  0  0  0  0  0  0  0  0  0  0  0
   -1.6000    1.7778   -3.1847 C   0  0  0  0  0  0  0  0  0  0  0  0
   -1.4589   -0.6529   -4.5465 C   0  0  0  0  0  0  0  0  0  0  0  0
   -2.5871    1.4384   -4.1100 C   0  0  0  0  0  0  0  0  0  0  0  0
   -2.5165    0.2230   -4.7908 C   0  0  0  0  0  0  0  0  0  0  0  0
   -1.6531    1.4091   -0.4852 H   0  0  0  0  0  0  0  0  0  0  0  0
    0.1740   -0.4723   -0.6686 H   0  0  0  0  0  0  0  0  0  0  0  0
    1.5133    1.0015   -2.3370 H   0  0  0  0  0  0  0  0  0  0  0  0
    0.5419    2.3631   -1.8401 H   0  0  0  0  0  0  0  0  0  0  0  0
    0.3486   -1.0023   -3.4372 H   0  0  0  0  0  0  0  0  0  0  0  0
   -1.6632    2.7268   -2.6588 H   0  0  0  0  0  0  0  0  0  0  0  0
   -1.4032   -1.5988   -5.0774 H   0  0  0  0  0  0  0  0  0  0  0  0
   -3.4098    2.1211   -4.3007 H   0  0  0  0  0  0  0  0  0  0  0  0
   -3.2843   -0.0408   -5.5123 H   0  0  0  0  0  0  0  0  0  0  0  0
    1.0910    1.2086    1.6339 N   0  0  0  0  0  0  0  0  0  0  0  0
    2.0151    1.5375    2.6954 C   0  0  2  0  0  0  0  0  0  0  0  0
    3.0852    0.4547    2.7396 C   0  0  0  0  0  0  0  0  0  0  0  0
    2.9149   -0.6755    2.2870 O   0  0  0  0  0  0  0  0  0  0  0  0
    1.3022    1.6521    4.0338 C   0  0  0  0  0  0  0  0  0  0  0  0
    0.0967    1.2121    1.8417 H   0  0  0  0  0  0  0  0  0  0  0  0
    2.4748    2.4954    2.4291 H   0  0  0  0  0  0  0  0  0  0  0  0
    0.8353    0.7019    4.3175 H   0  0  0  0  0  0  0  0  0  0  0  0
    1.9988    1.9293    4.8320 H   0  0  0  0  0  0  0  0  0  0  0  0
    0.5131    2.4106    3.9914 H   0  0  0  0  0  0  0  0  0  0  0  0
    4.2373    0.8854    3.3825 N   0  0  0  0  0  0  0  0  0  0  0  0
    5.3923    0.0375    3.5638 C   0  0  0  0  0  0  0  0  0  0  0  0
    4.2978    1.8451    3.7098 H   0  0  0  0  0  0  0  0  0  0  0  0
    5.3252   -0.4714    4.5367 H   0  0  0  0  0  0  0  0  0  0  0  0
    5.4265   -0.7122    2.7596 H   0  0  0  0  0  0  0  0  0  0  0  0
    6.3053    0.6503    3.5328 H   0  0  0  0  0  0  0  0  0  0  0  0
 25 27  1  0  0  0  0
 26 27  2  0  0  0  0
 23 25  2  0  0  0  0
 24 26  1  0  0  0  0
 22 23  1  0  0  0  0
 22 24  2  0  0  0  0
 21 22  1  0  0  0  0
  1  3  1  0  0  0  0
  1  7  1  0  0  0  0
  1  2  2  0  0  0  0
 38 39  1  0  0  0  0
 39 47  1  0  0  0  0
 39 40  2  0  0  0  0
  8  9  1  0  0  0  0
  9 17  1  0  0  0  0
  9 10  2  0  0  0  0
 18 19  1  0  0  0  0
 19 37  1  0  0  0  0
 19 20  2  0  0  0  0
 38 41  1  0  0  0  0
  8 11  1  0  0  0  0
 47 48  1  0  0  0  0
 18 21  1  0  0  0  0
 37 38  1  0  0  0  0
  7  8  1  0  0  0  0
 17 18  1  0  0  0  0
 27 36  1  0  0  0  0
 25 34  1  0  0  0  0
 26 35  1  0  0  0  0
 23 32  1  0  0  0  0
 24 33  1  0  0  0  0
  3  4  1  0  0  0  0
  3  5  1  0  0  0  0
  3  6  1  0  0  0  0
 41 44  1  0  0  0  0
 41 45  1  0  0  0  0
 41 46  1  0  0  0  0
 11 14  1  0  0  0  0
 11 15  1  0  0  0  0
 11 16  1  0  0  0  0
 48 50  1  0  0  0  0
 48 51  1  0  0  0  0
 48 52  1  0  0  0  0
 21 30  1  0  0  0  0
 21 31  1  0  0  0  0
 38 43  1  0  0  0  0
  8 13  1  0  0  0  0
 18 29  1  0  0  0  0
 47 49  1  0  0  0  0
  7 12  1  0  0  0  0
 37 42  1  0  0  0  0
 17 28  1  0  0  0  0
M  END
$$$$

  -OEChem-05262214473D

 52 52  0     1  0  0  0  0  0999 V2000
   -1.8248    0.3424    3.9102 C   0  0  0  0  0  0  0  0  0  0  0  0
   -0.8774   -0.2723    3.4345 O   0  0  0  0  0  0  0  0  0  0  0  0
   -2.2566    0.0600    5.3109 C   0  0  0  0  0  0  0  0  0  0  0  0
   -3.0163   -0.7363    5.3643 H   0  0  0  0  0  0  0  0  0  0  0  0
   -1.4254   -0.2876    5.9452 H   0  0  0  0  0  0  0  0  0  0  0  0
   -2.6947    0.9149    5.8505 H   0  0  0  0  0  0  0  0  0  0  0  0
   -2.5745    1.3149    3.2691 N   0  0  0  0  0  0  0  0  0  0  0  0
   -2.3276    1.7409    1.9167 C   0  0  2  0  0  0  0  0  0  0  0  0
   -0.9926    1.1555    1.4755 C   0  0  0  0  0  0  0  0  0  0  0  0
   -0.1206    0.8028    2.2668 O   0  0  0  0  0  0  0  0  0  0  0  0
   -2.3188    3.2577    1.8072 C   0  0  0  0  0  0  0  0  0  0  0  0
   -3.3395    1.7507    3.7809 H   0  0  0  0  0  0  0  0  0  0  0  0
   -3.1317    1.3224    1.3015 H   0  0  0  0  0  0  0  0  0  0  0  0
   -1.5198    3.6949    2.4169 H   0  0  0  0  0  0  0  0  0  0  0  0
   -2.1594    3.5799    0.7729 H   0  0  0  0  0  0  0  0  0  0  0  0
   -3.2690    3.6789    2.1530 H   0  0  0  0  0  0  0  0  0  0  0  0
   -0.8700    1.1124    0.0921 N   0  0  0  0  0  0  0  0  0  0  0  0
    0.3073    0.6116   -0.5716 C   0  0  2  0  0  0  0  0  0  0  0  0
    1.4938    0.8884    0.3449 C   0  0  0  0  0  0  0  0  0  0  0  0
    2.6222    1.1329   -0.0768 O   0  0  0  0  0  0  0  0  0  0  0  0
    0.5252    1.2696   -1.9389 C   0  0  0  0  0  0  0  0  0  0  0  0
   -0.5423    0.9019   -2.9404 C   0  0  0  0  0  0  0  0  0  0  0  0
   -0.4718   -0.3135   -3.6213 C   0  0  0  0  0  0  0  0  0  0  0  0
   -1.6000    1.7778   -3.1847 C   0  0  0  0  0  0  0  0  0  0  0  0
   -1.4589   -0.6529   -4.5465 C   0  0  0  0  0  0  0  0  0  0  0  0
   -2.5871    1.4384   -4.1100 C   0  0  0  0  0  0  0  0  0  0  0  0
   -2.5165    0.2230   -4.7908 C   0  0  0  0  0  0  0  0  0  0  0  0
   -1.6531    1.4091   -0.4852 H   0  0  0  0  0  0  0  0  0  0  0  0
    0.1740   -0.4723   -0.6686 H   0  0  0  0  0  0  0  0  0  0  0  0
    1.5133    1.0015   -2.3370 H   0  0  0  0  0  0  0  0  0  0  0  0
    0.5419    2.3631   -1.8401 H   0  0  0  0  0  0  0  0  0  0  0  0
    0.3486   -1.0023   -3.4372 H   0  0  0  0  0  0  0  0  0  0  0  0
   -1.6632    2.7268   -2.6588 H   0  0  0  0  0  0  0  0  0  0  0  0
   -1.4032   -1.5988   -5.0774 H   0  0  0  0  0  0  0  0  0  0  0  0
   -3.4098    2.1211   -4.3007 H   0  0  0  0  0  0  0  0  0  0  0  0
   -3.2843   -0.0408   -5.5123 H   0  0  0  0  0  0  0  0  0  0  0  0
    1.1293    0.8786    1.6841 N   0  0  0  0  0  0  0  0  0  0  0  0
    2.0581    1.1350    2.7612 C   0  0  2  0  0  0  0  0  0  0  0  0
    3.2799    0.2507    2.5491 C   0  0  0  0  0  0  0  0  0  0  0  0
    3.2539   -0.7800    1.8798 O   0  0  0  0  0  0  0  0  0  0  0  0
    1.4218    0.8669    4.1162 C   0  0  0  0  0  0  0  0  0  0  0  0
    0.1609    0.6814    1.9189 H   0  0  0  0  0  0  0  0  0  0  0  0
    2.3505    2.1878    2.6829 H   0  0  0  0  0  0  0  0  0  0  0  0
    1.1223   -0.1830    4.2132 H   0  0  0  0  0  0  0  0  0  0  0  0
    2.1175    1.0889    4.9322 H   0  0  0  0  0  0  0  0  0  0  0  0
    0.5262    1.4822    4.2547 H   0  0  0  0  0  0  0  0  0  0  0  0
    4.3920    0.7250    3.2306 N   0  0  0  0  0  0  0  0  0  0  0  0
    5.6708    0.0545    3.1981 C   0  0  0  0  0  0  0  0  0  0  0  0
    4.3276    1.5981    3.7457 H   0  0  0  0  0  0  0  0  0  0  0  0
    5.7425   -0.6408    4.0475 H   0  0  0  0  0  0  0  0  0  0  0  0
    5.7669   -0.5061    2.2565 H   0  0  0  0  0  0  0  0  0  0  0  0
    6.4772    0.7996    3.2652 H   0  0  0  0  0  0  0  0  0  0  0  0
 25 27  1  0  0  0  0
 26 27  2  0  0  0  0
 23 25  2  0  0  0  0
 24 26  1  0  0  0  0
 22 23  1  0  0  0  0
 22 24  2  0  0  0  0
 21 22  1  0  0  0  0
  1  3  1  0  0  0  0
  1  7  1  0  0  0  0
  1  2  2  0  0  0  0
 38 39  1  0  0  0  0
 39 47  1  0  0  0  0
 39 40  2  0  0  0  0
  8  9  1  0  0  0  0
  9 17  1  0  0  0  0
  9 10  2  0  0  0  0
 18 19  1  0  0  0  0
 19 37  1  0  0  0  0
 19 20  2  0  0  0  0
 38 41  1  0  0  0  0
  8 11  1  0  0  0  0
 47 48  1  0  0  0  0
 18 21  1  0  0  0  0
 37 38  1  0  0  0  0
  7  8  1  0  0  0  0
 17 18  1  0  0  0  0
 27 36  1  0  0  0  0
 25 34  1  0  0  0  0
 26 35  1  0  0  0  0
 23 32  1  0  0  0  0
 24 33  1  0  0  0  0
  3  4  1  0  0  0  0
  3  5  1  0  0  0  0
  3  6  1  0  0  0  0
 41 44  1  0  0  0  0
 41 45  1  0  0  0  0
 41 46  1  0  0  0  0
 11 14  1  0  0  0  0
 11 15  1  0  0  0  0
 11 16  1  0  0  0  0
 48 50  1  0  0  0  0
 48 51  1  0  0  0  0
 48 52  1  0  0  0  0
 21 30  1  0  0  0  0
 21 31  1  0  0  0  0
 38 43  1  0  0  0  0
  8 13  1  0  0  0  0
 18 29  1  0  0  0  0
 47 49  1  0  0  0  0
  7 12  1  0  0  0  0
 37 42  1  0  0  0  0
 17 28  1  0  0  0  0
M  END
$$$$

  -OEChem-05262214473D

 52 52  0     1  0  0  0  0  0999 V2000
   -1.8248    0.3424    3.9102 C   0  0  0  0  0  0  0  0  0  0  0  0
   -0.8774   -0.2723    3.4345 O   0  0  0  0  0  0  0  0  0  0  0  0
   -2.2566    0.0600    5.3109 C   0  0  0  0  0  0  0  0  0  0  0  0
   -3.0163   -0.7363    5.3643 H   0  0  0  0  0  0  0  0  0  0  0  0
   -1.4254   -0.2876    5.9452 H   0  0  0  0  0  0  0  0  0  0  0  0
   -2.6947    0.9149    5.8505 H   0  0  0  0  0  0  0  0  0  0  0  0
   -2.5745    1.3149    3.2691 N   0  0  0  0  0  0  0  0  0  0  0  0
   -2.3276    1.7409    1.9167 C   0  0  2  0  0  0  0  0  0  0  0  0
   -0.9926    1.1555    1.4755 C   0  0  0  0  0  0  0  0  0  0  0  0
   -0.1206    0.8028    2.2668 O   0  0  0  0  0  0  0  0  0  0  0  0
   -2.3188    3.2577    1.8072 C   0  0  0  0  0  0  0  0  0  0  0  0
   -3.3395    1.7507    3.7809 H   0  0  0  0  0  0  0  0  0  0  0  0
   -3.1317    1.3224    1.3015 H   0  0  0  0  0  0  0  0  0  0  0  0
   -1.5198    3.6949    2.4169 H   0  0  0  0  0  0  0  0  0  0  0  0
   -2.1594    3.5799    0.7729 H   0  0  0  0  0  0  0  0  0  0  0  0
   -3.2690    3.6789    2.1530 H   0  0  0  0  0  0  0  0  0  0  0  0
   -0.8700    1.1124    0.0921 N   0  0  0  0  0  0  0  0  0  0  0  0
    0.3073    0.6116   -0.5716 C   0  0  2  0  0  0  0  0  0  0  0  0
    1.4938    0.8884    0.3449 C   0  0  0  0  0  0  0  0  0  0  0  0
    2.5437    1.3892   -0.0525 O   0  0  0  0  0  0  0  0  0  0  0  0
    0.5252    1.2696   -1.9389 C   0  0  0  0  0  0  0  0  0  0  0  0
   -0.5423    0.9019   -2.9404 C   0  0  0  0  0  0  0  0  0  0  0  0
   -0.4718   -0.3135   -3.6213 C   0  0  0  0  0  0  0  0  0  0  0  0
   -1.6000    1.7778   -3.1847 C   0  0  0  0  0  0  0  0  0  0  0  0
   -1.4589   -0.6529   -4.5465 C   0  0  0  0  0  0  0  0  0  0  0  0
   -2.5871    1.4384   -4.1100 C   0  0  0  0  0  0  0  0  0  0  0  0
   -2.5165    0.2230   -4.7908 C   0  0  0  0  0  0  0  0  0  0  0  0
   -1.6531    1.4091   -0.4852 H   0  0  0  0  0  0  0  0  0  0  0  0
    0.1740   -0.4723   -0.6686 H   0  0  0  0  0  0  0  0  0  0  0  0
    1.5133    1.0015   -2.3370 H   0  0  0  0  0  0  0  0  0  0  0  0
    0.5419    2.3631   -1.8401 H   0  0  0  0  0  0  0  0  0  0  0  0
    0.3486   -1.0023   -3.4372 H   0  0  0  0  0  0  0  0  0  0  0  0
   -1.6632    2.7268   -2.6588 H   0  0  0  0  0  0  0  0  0  0  0  0
   -1.4032   -1.5988   -5.0774 H   0  0  0  0  0  0  0  0  0  0  0  0
   -3.4098    2.1211   -4.3007 H   0  0  0  0  0  0  0  0  0  0  0  0
   -3.2843   -0.0408   -5.5123 H   0  0  0  0  0  0  0  0  0  0  0  0
    1.2199    0.5557    1.6642 N   0  0  0  0  0  0  0  0  0  0  0  0
    2.1655    0.7396    2.7417 C   0  0  2  0  0  0  0  0  0  0  0  0
    3.4907    0.1224    2.3149 C   0  0  0  0  0  0  0  0  0  0  0  0
    3.5784   -0.7462    1.4495 O   0  0  0  0  0  0  0  0  0  0  0  0
    1.6633    0.1104    4.0319 C   0  0  0  0  0  0  0  0  0  0  0  0
    0.3091    0.1632    1.8836 H   0  0  0  0  0  0  0  0  0  0  0  0
    2.2902    1.8201    2.8720 H   0  0  0  0  0  0  0  0  0  0  0  0
    1.5322   -0.9721    3.9208 H   0  0  0  0  0  0  0  0  0  0  0  0
    2.3676    0.2753    4.8541 H   0  0  0  0  0  0  0  0  0  0  0  0
    0.6958    0.5344    4.3215 H   0  0  0  0  0  0  0  0  0  0  0  0
    4.5593    0.6247    3.0443 N   0  0  0  0  0  0  0  0  0  0  0  0
    5.9200    0.1878    2.8352 C   0  0  0  0  0  0  0  0  0  0  0  0
    4.3966    1.3568    3.7293 H   0  0  0  0  0  0  0  0  0  0  0  0
    6.1490   -0.6409    3.5213 H   0  0  0  0  0  0  0  0  0  0  0  0
    6.0401   -0.1527    1.7962 H   0  0  0  0  0  0  0  0  0  0  0  0
    6.6074    1.0245    3.0287 H   0  0  0  0  0  0  0  0  0  0  0  0
 25 27  1  0  0  0  0
 26 27  2  0  0  0  0
 23 25  2  0  0  0  0
 24 26  1  0  0  0  0
 22 23  1  0  0  0  0
 22 24  2  0  0  0  0
 21 22  1  0  0  0  0
  1  3  1  0  0  0  0
  1  7  1  0  0  0  0
  1  2  2  0  0  0  0
 38 39  1  0  0  0  0
 39 47  1  0  0  0  0
 39 40  2  0  0  0  0
  8  9  1  0  0  0  0
  9 17  1  0  0  0  0
  9 10  2  0  0  0  0
 18 19  1  0  0  0  0
 19 37  1  0  0  0  0
 19 20  2  0  0  0  0
 38 41  1  0  0  0  0
  8 11  1  0  0  0  0
 47 48  1  0  0  0  0
 18 21  1  0  0  0  0
 37 38  1  0  0  0  0
  7  8  1  0  0  0  0
 17 18  1  0  0  0  0
 27 36  1  0  0  0  0
 25 34  1  0  0  0  0
 26 35  1  0  0  0  0
 23 32  1  0  0  0  0
 24 33  1  0  0  0  0
  3  4  1  0  0  0  0
  3  5  1  0  0  0  0
  3  6  1  0  0  0  0
 41 44  1  0  0  0  0
 41 45  1  0  0  0  0
 41 46  1  0  0  0  0
 11 14  1  0  0  0  0
 11 15  1  0  0  0  0
 11 16  1  0  0  0  0
 48 50  1  0  0  0  0
 48 51  1  0  0  0  0
 48 52  1  0  0  0  0
 21 30  1  0  0  0  0
 21 31  1  0  0  0  0
 38 43  1  0  0  0  0
  8 13  1  0  0  0  0
 18 29  1  0  0  0  0
 47 49  1  0  0  0  0
  7 12  1  0  0  0  0
 37 42  1  0  0  0  0
 17 28  1  0  0  0  0
M  END
$$$$

  -OEChem-05262214473D

 52 52  0     1  0  0  0  0  0999 V2000
   -1.8248    0.3424    3.9102 C   0  0  0  0  0  0  0  0  0  0  0  0
   -0.8774   -0.2723    3.4345 O   0  0  0  0  0  0  0  0  0  0  0  0
   -2.2566    0.0600    5.3109 C   0  0  0  0  0  0  0  0  0  0  0  0
   -3.0163   -0.7363    5.3643 H   0  0  0  0  0  0  0  0  0  0  0  0
   -1.4254   -0.2876    5.9452 H   0  0  0  0  0  0  0  0  0  0  0  0
   -2.6947    0.9149    5.8505 H   0  0  0  0  0  0  0  0  0  0  0  0
   -2.5745    1.3149    3.2691 N   0  0  0  0  0  0  0  0  0  0  0  0
   -2.3276    1.7409    1.9167 C   0  0  2  0  0  0  0  0  0  0  0  0
   -0.9926    1.1555    1.4755 C   0  0  0  0  0  0  0  0  0  0  0  0
   -0.1206    0.8028    2.2668 O   0  0  0  0  0  0  0  0  0  0  0  0
   -2.3188    3.2577    1.8072 C   0  0  0  0  0  0  0  0  0  0  0  0
   -3.3395    1.7507    3.7809 H   0  0  0  0  0  0  0  0  0  0  0  0
   -3.1317    1.3224    1.3015 H   0  0  0  0  0  0  0  0  0  0  0  0
   -1.5198    3.6949    2.4169 H   0  0  0  0  0  0  0  0  0  0  0  0
   -2.1594    3.5799    0.7729 H   0  0  0  0  0  0  0  0  0  0  0  0
   -3.2690    3.6789    2.1530 H   0  0  0  0  0  0  0  0  0  0  0  0
   -0.8700    1.1124    0.0921 N   0  0  0  0  0  0  0  0  0  0  0  0
    0.3073    0.6116   -0.5716 C   0  0  2  0  0  0  0  0  0  0  0  0
    1.4938    0.8884    0.3449 C   0  0  0  0  0  0  0  0  0  0  0  0
    2.4291    1.6196    0.0263 O   0  0  0  0  0  0  0  0  0  0  0  0
    0.5252    1.2696   -1.9389 C   0  0  0  0  0  0  0  0  0  0  0  0
   -0.5423    0.9019   -2.9404 C   0  0  0  0  0  0  0  0  0  0  0  0
   -0.4718   -0.3135   -3.6213 C   0  0  0  0  0  0  0  0  0  0  0  0
   -1.6000    1.7778   -3.1847 C   0  0  0  0  0  0  0  0  0  0  0  0
   -1.4589   -0.6529   -4.5465 C   0  0  0  0  0  0  0  0  0  0  0  0
   -2.5871    1.4384   -4.1100 C   0  0  0  0  0  0  0  0  0  0  0  0
   -2.5165    0.2230   -4.7908 C   0  0  0  0  0  0  0  0  0  0  0  0
   -1.6531    1.4091   -0.4852 H   0  0  0  0  0  0  0  0  0  0  0  0
    0.1740   -0.4723   -0.6686 H   0  0  0  0  0  0  0  0  0  0  0  0
    1.5133    1.0015   -2.3370 H   0  0  0  0  0  0  0  0  0  0  0  0
    0.5419    2.3631   -1.8401 H   0  0  0  0  0  0  0  0  0  0  0  0
    0.3486   -1.0023   -3.4372 H   0  0  0  0  0  0  0  0  0  0  0  0
   -1.6632    2.7268   -2.6588 H   0  0  0  0  0  0  0  0  0  0  0  0
   -1.4032   -1.5988   -5.0774 H   0  0  0  0  0  0  0  0  0  0  0  0
   -3.4098    2.1211   -4.3007 H   0  0  0  0  0  0  0  0  0  0  0  0
   -3.2843   -0.0408   -5.5123 H   0  0  0  0  0  0  0  0  0  0  0  0
    1.3568    0.2619    1.5758 N   0  0  0  0  0  0  0  0  0  0  0  0
    2.3297    0.3784    2.6382 C   0  0  2  0  0  0  0  0  0  0  0  0
    3.7034    0.0785    2.0529 C   0  0  0  0  0  0  0  0  0  0  0  0
    3.8663   -0.5764    1.0254 O   0  0  0  0  0  0  0  0  0  0  0  0
    2.0104   -0.5657    3.7869 C   0  0  0  0  0  0  0  0  0  0  0  0
    0.5312   -0.3071    1.7381 H   0  0  0  0  0  0  0  0  0  0  0  0
    2.2981    1.4176    2.9834 H   0  0  0  0  0  0  0  0  0  0  0  0
    2.0373   -1.6116    3.4601 H   0  0  0  0  0  0  0  0  0  0  0  0
    2.7320   -0.4558    4.6031 H   0  0  0  0  0  0  0  0  0  0  0  0
    1.0101   -0.3681    4.1871 H   0  0  0  0  0  0  0  0  0  0  0  0
    4.7278    0.5914    2.8363 N   0  0  0  0  0  0  0  0  0  0  0  0
    6.1229    0.4285    2.4999 C   0  0  0  0  0  0  0  0  0  0  0  0
    4.4999    1.1379    3.6616 H   0  0  0  0  0  0  0  0  0  0  0  0
    6.5170   -0.4718    2.9939 H   0  0  0  0  0  0  0  0  0  0  0  0
    6.2273    0.3239    1.4098 H   0  0  0  0  0  0  0  0  0  0  0  0
    6.6871    1.3096    2.8394 H   0  0  0  0  0  0  0  0  0  0  0  0
 25 27  1  0  0  0  0
 26 27  2  0  0  0  0
 23 25  2  0  0  0  0
 24 26  1  0  0  0  0
 22 23  1  0  0  0  0
 22 24  2  0  0  0  0
 21 22  1  0  0  0  0
  1  3  1  0  0  0  0
  1  7  1  0  0  0  0
  1  2  2  0  0  0  0
 38 39  1  0  0  0  0
 39 47  1  0  0  0  0
 39 40  2  0  0  0  0
  8  9  1  0  0  0  0
  9 17  1  0  0  0  0
  9 10  2  0  0  0  0
 18 19  1  0  0  0  0
 19 37  1  0  0  0  0
 19 20  2  0  0  0  0
 38 41  1  0  0  0  0
  8 11  1  0  0  0  0
 47 48  1  0  0  0  0
 18 21  1  0  0  0  0
 37 38  1  0  0  0  0
  7  8  1  0  0  0  0
 17 18  1  0  0  0  0
 27 36  1  0  0  0  0
 25 34  1  0  0  0  0
 26 35  1  0  0  0  0
 23 32  1  0  0  0  0
 24 33  1  0  0  0  0
  3  4  1  0  0  0  0
  3  5  1  0  0  0  0
  3  6  1  0  0  0  0
 41 44  1  0  0  0  0
 41 45  1  0  0  0  0
 41 46  1  0  0  0  0
 11 14  1  0  0  0  0
 11 15  1  0  0  0  0
 11 16  1  0  0  0  0
 48 50  1  0  0  0  0
 48 51  1  0  0  0  0
 48 52  1  0  0  0  0
 21 30  1  0  0  0  0
 21 31  1  0  0  0  0
 38 43  1  0  0  0  0
  8 13  1  0  0  0  0
 18 29  1  0  0  0  0
 47 49  1  0  0  0  0
  7 12  1  0  0  0  0
 37 42  1  0  0  0  0
 17 28  1  0  0  0  0
M  END
$$$$

  -OEChem-05262214473D

 52 52  0     1  0  0  0  0  0999 V2000
   -1.8248    0.3424    3.9102 C   0  0  0  0  0  0  0  0  0  0  0  0
   -0.8774   -0.2723    3.4345 O   0  0  0  0  0  0  0  0  0  0  0  0
   -2.2566    0.0600    5.3109 C   0  0  0  0  0  0  0  0  0  0  0  0
   -3.0163   -0.7363    5.3643 H   0  0  0  0  0  0  0  0  0  0  0  0
   -1.4254   -0.2876    5.9452 H   0  0  0  0  0  0  0  0  0  0  0  0
   -2.6947    0.9149    5.8505 H   0  0  0  0  0  0  0  0  0  0  0  0
   -2.5745    1.3149    3.2691 N   0  0  0  0  0  0  0  0  0  0  0  0
   -2.3276    1.7409    1.9167 C   0  0  2  0  0  0  0  0  0  0  0  0
   -0.9926    1.1555    1.4755 C   0  0  0  0  0  0  0  0  0  0  0  0
   -0.1206    0.8028    2.2668 O   0  0  0  0  0  0  0  0  0  0  0  0
   -2.3188    3.2577    1.8072 C   0  0  0  0  0  0  0  0  0  0  0  0
   -3.3395    1.7507    3.7809 H   0  0  0  0  0  0  0  0  0  0  0  0
   -3.1317    1.3224    1.3015 H   0  0  0  0  0  0  0  0  0  0  0  0
   -1.5198    3.6949    2.4169 H   0  0  0  0  0  0  0  0  0  0  0  0
   -2.1594    3.5799    0.7729 H   0  0  0  0  0  0  0  0  0  0  0  0
   -3.2690    3.6789    2.1530 H   0  0  0  0  0  0  0  0  0  0  0  0
   -0.8700    1.1124    0.0921 N   0  0  0  0  0  0  0  0  0  0  0  0
    0.3073    0.6116   -0.5716 C   0  0  2  0  0  0  0  0  0  0  0  0
    1.4938    0.8884    0.3449 C   0  0  0  0  0  0  0  0  0  0  0  0
    2.2862    1.8085    0.1542 O   0  0  0  0  0  0  0  0  0  0  0  0
    0.5252    1.2696   -1.9389 C   0  0  0  0  0  0  0  0  0  0  0  0
   -0.5423    0.9019   -2.9404 C   0  0  0  0  0  0  0  0  0  0  0  0
   -0.4718   -0.3135   -3.6213 C   0  0  0  0  0  0  0  0  0  0  0  0
   -1.6000    1.7778   -3.1847 C   0  0  0  0  0  0  0  0  0  0  0  0
   -1.4589   -0.6529   -4.5465 C   0  0  0  0  0  0  0  0  0  0  0  0
   -2.5871    1.4384   -4.1100 C   0  0  0  0  0  0  0  0  0  0  0  0
   -2.5165    0.2230   -4.7908 C   0  0  0  0  0  0  0  0  0  0  0  0
   -1.6531    1.4091   -0.4852 H   0  0  0  0  0  0  0  0  0  0  0  0
    0.1740   -0.4723   -0.6686 H   0  0  0  0  0  0  0  0  0  0  0  0
    1.5133    1.0015   -2.3370 H   0  0  0  0  0  0  0  0  0  0  0  0
    0.5419    2.3631   -1.8401 H   0  0  0  0  0  0  0  0  0  0  0  0
    0.3486   -1.0023   -3.4372 H   0  0  0  0  0  0  0  0  0  0  0  0
   -1.6632    2.7268   -2.6588 H   0  0  0  0  0  0  0  0  0  0  0  0
   -1.4032   -1.5988   -5.0774 H   0  0  0  0  0  0  0  0  0  0  0  0
   -3.4098    2.1211   -4.3007 H   0  0  0  0  0  0  0  0  0  0  0  0
   -3.2843   -0.0408   -5.5123 H   0  0  0  0  0  0  0  0  0  0  0  0
    1.5306    0.0172    1.4247 N   0  0  0  0  0  0  0  0  0  0  0  0
    2.5397    0.0759    2.4577 C   0  0  2  0  0  0  0  0  0  0  0  0
    3.9033    0.1219    1.7809 C   0  0  0  0  0  0  0  0  0  0  0  0
    4.0981   -0.2821    0.6364 O   0  0  0  0  0  0  0  0  0  0  0  0
    2.4393   -1.1154    3.3976 C   0  0  0  0  0  0  0  0  0  0  0  0
    0.8121   -0.6976    1.4924 H   0  0  0  0  0  0  0  0  0  0  0  0
    2.3736    1.0075    3.0096 H   0  0  0  0  0  0  0  0  0  0  0  0
    2.6029   -2.0580    2.8625 H   0  0  0  0  0  0  0  0  0  0  0  0
    3.1860   -1.0548    4.1962 H   0  0  0  0  0  0  0  0  0  0  0  0
    1.4479   -1.1640    3.8608 H   0  0  0  0  0  0  0  0  0  0  0  0
    4.8859    0.6274    2.6207 N   0  0  0  0  0  0  0  0  0  0  0  0
    6.2656    0.7601    2.2149 C   0  0  0  0  0  0  0  0  0  0  0  0
    4.6307    0.9561    3.5473 H   0  0  0  0  0  0  0  0  0  0  0  0
    6.8213   -0.1451    2.5012 H   0  0  0  0  0  0  0  0  0  0  0  0
    6.3158    0.8912    1.1239 H   0  0  0  0  0  0  0  0  0  0  0  0
    6.7108    1.6355    2.7103 H   0  0  0  0  0  0  0  0  0  0  0  0
 25 27  1  0  0  0  0
 26 27  2  0  0  0  0
 23 25  2  0  0  0  0
 24 26  1  0  0  0  0
 22 23  1  0  0  0  0
 22 24  2  0  0  0  0
 21 22  1  0  0  0  0
  1  3  1  0  0  0  0
  1  7  1  0  0  0  0
  1  2  2  0  0  0  0
 38 39  1  0  0  0  0
 39 47  1  0  0  0  0
 39 40  2  0  0  0  0
  8  9  1  0  0  0  0
  9 17  1  0  0  0  0
  9 10  2  0  0  0  0
 18 19  1  0  0  0  0
 19 37  1  0  0  0  0
 19 20  2  0  0  0  0
 38 41  1  0  0  0  0
  8 11  1  0  0  0  0
 47 48  1  0  0  0  0
 18 21  1  0  0  0  0
 37 38  1  0  0  0  0
  7  8  1  0  0  0  0
 17 18  1  0  0  0  0
 27 36  1  0  0  0  0
 25 34  1  0  0  0  0
 26 35  1  0  0  0  0
 23 32  1  0  0  0  0
 24 33  1  0  0  0  0
  3  4  1  0  0  0  0
  3  5  1  0  0  0  0
  3  6  1  0  0  0  0
 41 44  1  0  0  0  0
 41 45  1  0  0  0  0
 41 46  1  0  0  0  0
 11 14  1  0  0  0  0
 11 15  1  0  0  0  0
 11 16  1  0  0  0  0
 48 50  1  0  0  0  0
 48 51  1  0  0  0  0
 48 52  1  0  0  0  0
 21 30  1  0  0  0  0
 21 31  1  0  0  0  0
 38 43  1  0  0  0  0
  8 13  1  0  0  0  0
 18 29  1  0  0  0  0
 47 49  1  0  0  0  0
  7 12  1  0  0  0  0
 37 42  1  0  0  0  0
 17 28  1  0  0  0  0
M  END
$$$$

  -OEChem-05262214473D

 52 52  0     1  0  0  0  0  0999 V2000
   -1.8248    0.3424    3.9102 C   0  0  0  0  0  0  0  0  0  0  0  0
   -0.8774   -0.2723    3.4345 O   0  0  0  0  0  0  0  0  0  0  0  0
   -2.2566    0.0600    5.3109 C   0  0  0  0  0  0  0  0  0  0  0  0
   -3.0163   -0.7363    5.3643 H   0  0  0  0  0  0  0  0  0  0  0  0
   -1.4254   -0.2876    5.9452 H   0  0  0  0  0  0  0  0  0  0  0  0
   -2.6947    0.9149    5.8505 H   0  0  0  0  0  0  0  0  0  0  0  0
   -2.5745    1.3149    3.2691 N   0  0  0  0  0  0  0  0  0  0  0  0
   -2.3276    1.7409    1.9167 C   0  0  2  0  0  0  0  0  0  0  0  0
   -0.9926    1.1555    1.4755 C   0  0  0  0  0  0  0  0  0  0  0  0
   -0.1206    0.8028    2.2668 O   0  0  0  0  0  0  0  0  0  0  0  0
   -2.3188    3.2577    1.8072 C   0  0  0  0  0  0  0  0  0  0  0  0
   -3.3395    1.7507    3.7809 H   0  0  0  0  0  0  0  0  0  0  0  0
   -3.1317    1.3224    1.3015 H   0  0  0  0  0  0  0  0  0  0  0  0
   -1.5198    3.6949    2.4169 H   0  0  0  0  0  0  0  0  0  0  0  0
   -2.1594    3.5799    0.7729 H   0  0  0  0  0  0  0  0  0  0  0  0
   -3.2690    3.6789    2.1530 H   0  0  0  0  0  0  0  0  0  0  0  0
   -0.8700    1.1124    0.0921 N   0  0  0  0  0  0  0  0  0  0  0  0
    0.3073    0.6116   -0.5716 C   0  0  2  0  0  0  0  0  0  0  0  0
    1.4938    0.8884    0.3449 C   0  0  0  0  0  0  0  0  0  0  0  0
    2.1248    1.9430    0.3225 O   0  0  0  0  0  0  0  0  0  0  0  0
    0.5252    1.2696   -1.9389 C   0  0  0  0  0  0  0  0  0  0  0  0
   -0.5423    0.9019   -2.9404 C   0  0  0  0  0  0  0  0  0  0  0  0
   -0.4718   -0.3135   -3.6213 C   0  0  0  0  0  0  0  0  0  0  0  0
   -1.6000    1.7778   -3.1847 C   0  0  0  0  0  0  0  0  0  0  0  0
   -1.4589   -0.6529   -4.5465 C   0  0  0  0  0  0  0  0  0  0  0  0
   -2.5871    1.4384   -4.1100 C   0  0  0  0  0  0  0  0  0  0  0  0
   -2.5165    0.2230   -4.7908 C   0  0  0  0  0  0  0  0  0  0  0  0
   -1.6531    1.4091   -0.4852 H   0  0  0  0  0  0  0  0  0  0  0  0
    0.1740   -0.4723   -0.6686 H   0  0  0  0  0  0  0  0  0  0  0  0
    1.5133    1.0015   -2.3370 H   0  0  0  0  0  0  0  0  0  0  0  0
    0.5419    2.3631   -1.8401 H   0  0  0  0  0  0  0  0  0  0  0  0
    0.3486   -1.0023   -3.4372 H   0  0  0  0  0  0  0  0  0  0  0  0
   -1.6632    2.7268   -2.6588 H   0  0  0  0  0  0  0  0  0  0  0  0
   -1.4032   -1.5988   -5.0774 H   0  0  0  0  0  0  0  0  0  0  0  0
   -3.4098    2.1211   -4.3007 H   0  0  0  0  0  0  0  0  0  0  0  0
   -3.2843   -0.0408   -5.5123 H   0  0  0  0  0  0  0  0  0  0  0  0
    1.7294   -0.1617    1.2214 N   0  0  0  0  0  0  0  0  0  0  0  0
    2.7811   -0.1473    2.2125 C   0  0  2  0  0  0  0  0  0  0  0  0
    4.0768    0.2497    1.5176 C   0  0  0  0  0  0  0  0  0  0  0  0
    4.2579    0.1166    0.3091 O   0  0  0  0  0  0  0  0  0  0  0  0
    2.9208   -1.5013    2.8907 C   0  0  0  0  0  0  0  0  0  0  0  0
    1.1326   -0.9816    1.1633 H   0  0  0  0  0  0  0  0  0  0  0  0
    2.5115    0.6178    2.9487 H   0  0  0  0  0  0  0  0  0  0  0  0
    3.1907   -2.2807    2.1689 H   0  0  0  0  0  0  0  0  0  0  0  0
    3.6987   -1.4807    3.6612 H   0  0  0  0  0  0  0  0  0  0  0  0
    1.9792   -1.7988    3.3646 H   0  0  0  0  0  0  0  0  0  0  0  0
    5.0229    0.7301    2.4123 N   0  0  0  0  0  0  0  0  0  0  0  0
    6.3385    1.1600    1.9997 C   0  0  0  0  0  0  0  0  0  0  0  0
    4.7798    0.8239    3.3941 H   0  0  0  0  0  0  0  0  0  0  0  0
    7.0412    0.3172    2.0769 H   0  0  0  0  0  0  0  0  0  0  0  0
    6.2996    1.5105    0.9578 H   0  0  0  0  0  0  0  0  0  0  0  0
    6.6769    1.9801    2.6501 H   0  0  0  0  0  0  0  0  0  0  0  0
 25 27  1  0  0  0  0
 26 27  2  0  0  0  0
 23 25  2  0  0  0  0
 24 26  1  0  0  0  0
 22 23  1  0  0  0  0
 22 24  2  0  0  0  0
 21 22  1  0  0  0  0
  1  3  1  0  0  0  0
  1  7  1  0  0  0  0
  1  2  2  0  0  0  0
 38 39  1  0  0  0  0
 39 47  1  0  0  0  0
 39 40  2  0  0  0  0
  8  9  1  0  0  0  0
  9 17  1  0  0  0  0
  9 10  2  0  0  0  0
 18 19  1  0  0  0  0
 19 37  1  0  0  0  0
 19 20  2  0  0  0  0
 38 41  1  0  0  0  0
  8 11  1  0  0  0  0
 47 48  1  0  0  0  0
 18 21  1  0  0  0  0
 37 38  1  0  0  0  0
  7  8  1  0  0  0  0
 17 18  1  0  0  0  0
 27 36  1  0  0  0  0
 25 34  1  0  0  0  0
 26 35  1  0  0  0  0
 23 32  1  0  0  0  0
 24 33  1  0  0  0  0
  3  4  1  0  0  0  0
  3  5  1  0  0  0  0
  3  6  1  0  0  0  0
 41 44  1  0  0  0  0
 41 45  1  0  0  0  0
 41 46  1  0  0  0  0
 11 14  1  0  0  0  0
 11 15  1  0  0  0  0
 11 16  1  0  0  0  0
 48 50  1  0  0  0  0
 48 51  1  0  0  0  0
 48 52  1  0  0  0  0
 21 30  1  0  0  0  0
 21 31  1  0  0  0  0
 38 43  1  0  0  0  0
  8 13  1  0  0  0  0
 18 29  1  0  0  0  0
 47 49  1  0  0  0  0
  7 12  1  0  0  0  0
 37 42  1  0  0  0  0
 17 28  1  0  0  0  0
M  END
$$$$

  -OEChem-05262214473D

 52 52  0     1  0  0  0  0  0999 V2000
   -1.8248    0.3424    3.9102 C   0  0  0  0  0  0  0  0  0  0  0  0
   -0.8774   -0.2723    3.4345 O   0  0  0  0  0  0  0  0  0  0  0  0
   -2.2566    0.0600    5.3109 C   0  0  0  0  0  0  0  0  0  0  0  0
   -3.0163   -0.7363    5.3643 H   0  0  0  0  0  0  0  0  0  0  0  0
   -1.4254   -0.2876    5.9452 H   0  0  0  0  0  0  0  0  0  0  0  0
   -2.6947    0.9149    5.8505 H   0  0  0  0  0  0  0  0  0  0  0  0
   -2.5745    1.3149    3.2691 N   0  0  0  0  0  0  0  0  0  0  0  0
   -2.3276    1.7409    1.9167 C   0  0  2  0  0  0  0  0  0  0  0  0
   -0.9926    1.1555    1.4755 C   0  0  0  0  0  0  0  0  0  0  0  0
   -0.1206    0.8028    2.2668 O   0  0  0  0  0  0  0  0  0  0  0  0
   -2.3188    3.2577    1.8072 C   0  0  0  0  0  0  0  0  0  0  0  0
   -3.3395    1.7507    3.7809 H   0  0  0  0  0  0  0  0  0  0  0  0
   -3.1317    1.3224    1.3015 H   0  0  0  0  0  0  0  0  0  0  0  0
   -1.5198    3.6949    2.4169 H   0  0  0  0  0  0  0  0  0  0  0  0
   -2.1594    3.5799    0.7729 H   0  0  0  0  0  0  0  0  0  0  0  0
   -3.2690    3.6789    2.1530 H   0  0  0  0  0  0  0  0  0  0  0  0
   -0.8700    1.1124    0.0921 N   0  0  0  0  0  0  0  0  0  0  0  0
    0.3073    0.6116   -0.5716 C   0  0  2  0  0  0  0  0  0  0  0  0
    1.4938    0.8884    0.3449 C   0  0  0  0  0  0  0  0  0  0  0  0
    1.9559    2.0139    0.5197 O   0  0  0  0  0  0  0  0  0  0  0  0
    0.5252    1.2696   -1.9389 C   0  0  0  0  0  0  0  0  0  0  0  0
   -0.5423    0.9019   -2.9404 C   0  0  0  0  0  0  0  0  0  0  0  0
   -0.4718   -0.3135   -3.6213 C   0  0  0  0  0  0  0  0  0  0  0  0
   -1.6000    1.7778   -3.1847 C   0  0  0  0  0  0  0  0  0  0  0  0
   -1.4589   -0.6529   -4.5465 C   0  0  0  0  0  0  0  0  0  0  0  0
   -2.5871    1.4384   -4.1100 C   0  0  0  0  0  0  0  0  0  0  0  0
   -2.5165    0.2230   -4.7908 C   0  0  0  0  0  0  0  0  0  0  0  0
   -1.6531    1.4091   -0.4852 H   0  0  0  0  0  0  0  0  0  0  0  0
    0.1740   -0.4723   -0.6686 H   0  0  0  0  0  0  0  0  0  0  0  0
    1.5133    1.0015   -2.3370 H   0  0  0  0  0  0  0  0  0  0  0  0
    0.5419    2.3631   -1.8401 H   0  0  0  0  0  0  0  0  0  0  0  0
    0.3486   -1.0023   -3.4372 H   0  0  0  0  0  0  0  0  0  0  0  0
   -1.6632    2.7268   -2.6588 H   0  0  0  0  0  0  0  0  0  0  0  0
   -1.4032   -1.5988   -5.0774 H   0  0  0  0  0  0  0  0  0  0  0  0
   -3.4098    2.1211   -4.3007 H   0  0  0  0  0  0  0  0  0  0  0  0
   -3.2843   -0.0408   -5.5123 H   0  0  0  0  0  0  0  0  0  0  0  0
    1.9397   -0.2626    0.9796 N   0  0  0  0  0  0  0  0  0  0  0  0
    3.0375   -0.2760    1.9195 C   0  0  2  0  0  0  0  0  0  0  0  0
    4.2122    0.4532    1.2809 C   0  0  0  0  0  0  0  0  0  0  0  0
    4.3349    0.5924    0.0657 O   0  0  0  0  0  0  0  0  0  0  0  0
    3.4222   -1.6970    2.3008 C   0  0  0  0  0  0  0  0  0  0  0  0
    1.4708   -1.1397    0.7731 H   0  0  0  0  0  0  0  0  0  0  0  0
    2.7025    0.2752    2.8049 H   0  0  0  0  0  0  0  0  0  0  0  0
    3.7605   -2.2648    1.4264 H   0  0  0  0  0  0  0  0  0  0  0  0
    4.2349   -1.7047    3.0345 H   0  0  0  0  0  0  0  0  0  0  0  0
    2.5679   -2.2294    2.7326 H   0  0  0  0  0  0  0  0  0  0  0  0
    5.1294    0.8926    2.2253 N   0  0  0  0  0  0  0  0  0  0  0  0
    6.3366    1.6010    1.8690 C   0  0  0  0  0  0  0  0  0  0  0  0
    4.9373    0.7502    3.2125 H   0  0  0  0  0  0  0  0  0  0  0  0
    7.1618    0.8834    1.7498 H   0  0  0  0  0  0  0  0  0  0  0  0
    6.1798    2.1397    0.9229 H   0  0  0  0  0  0  0  0  0  0  0  0
    6.5878    2.3197    2.6629 H   0  0  0  0  0  0  0  0  0  0  0  0
 25 27  1  0  0  0  0
 26 27  2  0  0  0  0
 23 25  2  0  0  0  0
 24 26  1  0  0  0  0
 22 23  1  0  0  0  0
 22 24  2  0  0  0  0
 21 22  1  0  0  0  0
  1  3  1  0  0  0  0
  1  7  1  0  0  0  0
  1  2  2  0  0  0  0
 38 39  1  0  0  0  0
 39 47  1  0  0  0  0
 39 40  2  0  0  0  0
  8  9  1  0  0  0  0
  9 17  1  0  0  0  0
  9 10  2  0  0  0  0
 18 19  1  0  0  0  0
 19 37  1  0  0  0  0
 19 20  2  0  0  0  0
 38 41  1  0  0  0  0
  8 11  1  0  0  0  0
 47 48  1  0  0  0  0
 18 21  1  0  0  0  0
 37 38  1  0  0  0  0
  7  8  1  0  0  0  0
 17 18  1  0  0  0  0
 27 36  1  0  0  0  0
 25 34  1  0  0  0  0
 26 35  1  0  0  0  0
 23 32  1  0  0  0  0
 24 33  1  0  0  0  0
  3  4  1  0  0  0  0
  3  5  1  0  0  0  0
  3  6  1  0  0  0  0
 41 44  1  0  0  0  0
 41 45  1  0  0  0  0
 41 46  1  0  0  0  0
 11 14  1  0  0  0  0
 11 15  1  0  0  0  0
 11 16  1  0  0  0  0
 48 50  1  0  0  0  0
 48 51  1  0  0  0  0
 48 52  1  0  0  0  0
 21 30  1  0  0  0  0
 21 31  1  0  0  0  0
 38 43  1  0  0  0  0
  8 13  1  0  0  0  0
 18 29  1  0  0  0  0
 47 49  1  0  0  0  0
  7 12  1  0  0  0  0
 37 42  1  0  0  0  0
 17 28  1  0  0  0  0
M  END
$$$$

  -OEChem-05262214473D

 52 52  0     1  0  0  0  0  0999 V2000
   -1.8248    0.3424    3.9102 C   0  0  0  0  0  0  0  0  0  0  0  0
   -0.8774   -0.2723    3.4345 O   0  0  0  0  0  0  0  0  0  0  0  0
   -2.2566    0.0600    5.3109 C   0  0  0  0  0  0  0  0  0  0  0  0
   -3.0163   -0.7363    5.3643 H   0  0  0  0  0  0  0  0  0  0  0  0
   -1.4254   -0.2876    5.9452 H   0  0  0  0  0  0  0  0  0  0  0  0
   -2.6947    0.9149    5.8505 H   0  0  0  0  0  0  0  0  0  0  0  0
   -2.5745    1.3149    3.2691 N   0  0  0  0  0  0  0  0  0  0  0  0
   -2.3276    1.7409    1.9167 C   0  0  2  0  0  0  0  0  0  0  0  0
   -0.9926    1.1555    1.4755 C   0  0  0  0  0  0  0  0  0  0  0  0
   -0.1206    0.8028    2.2668 O   0  0  0  0  0  0  0  0  0  0  0  0
   -2.3188    3.2577    1.8072 C   0  0  0  0  0  0  0  0  0  0  0  0
   -3.3395    1.7507    3.7809 H   0  0  0  0  0  0  0  0  0  0  0  0
   -3.1317    1.3224    1.3015 H   0  0  0  0  0  0  0  0  0  0  0  0
   -1.5198    3.6949    2.4169 H   0  0  0  0  0  0  0  0  0  0  0  0
   -2.1594    3.5799    0.7729 H   0  0  0  0  0  0  0  0  0  0  0  0
   -3.2690    3.6789    2.1530 H   0  0  0  0  0  0  0  0  0  0  0  0
   -0.8700    1.1124    0.0921 N   0  0  0  0  0  0  0  0  0  0  0  0
    0.3073    0.6116   -0.5716 C   0  0  2  0  0  0  0  0  0  0  0  0
    1.4938    0.8884    0.3449 C   0  0  0  0  0  0  0  0  0  0  0  0
    1.7910    2.0164    0.7325 O   0  0  0  0  0  0  0  0  0  0  0  0
    0.5252    1.2696   -1.9389 C   0  0  0  0  0  0  0  0  0  0  0  0
   -0.5423    0.9019   -2.9404 C   0  0  0  0  0  0  0  0  0  0  0  0
   -0.4718   -0.3135   -3.6213 C   0  0  0  0  0  0  0  0  0  0  0  0
   -1.6000    1.7778   -3.1847 C   0  0  0  0  0  0  0  0  0  0  0  0
   -1.4589   -0.6529   -4.5465 C   0  0  0  0  0  0  0  0  0  0  0  0
   -2.5871    1.4384   -4.1100 C   0  0  0  0  0  0  0  0  0  0  0  0
   -2.5165    0.2230   -4.7908 C   0  0  0  0  0  0  0  0  0  0  0  0
   -1.6531    1.4091   -0.4852 H   0  0  0  0  0  0  0  0  0  0  0  0
    0.1740   -0.4723   -0.6686 H   0  0  0  0  0  0  0  0  0  0  0  0
    1.5133    1.0015   -2.3370 H   0  0  0  0  0  0  0  0  0  0  0  0
    0.5419    2.3631   -1.8401 H   0  0  0  0  0  0  0  0  0  0  0  0
    0.3486   -1.0023   -3.4372 H   0  0  0  0  0  0  0  0  0  0  0  0
   -1.6632    2.7268   -2.6588 H   0  0  0  0  0  0  0  0  0  0  0  0
   -1.4032   -1.5988   -5.0774 H   0  0  0  0  0  0  0  0  0  0  0  0
   -3.4098    2.1211   -4.3007 H   0  0  0  0  0  0  0  0  0  0  0  0
   -3.2843   -0.0408   -5.5123 H   0  0  0  0  0  0  0  0  0  0  0  0
    2.1472   -0.2786    0.7158 N   0  0  0  0  0  0  0  0  0  0  0  0
    3.2914   -0.3013    1.5984 C   0  0  2  0  0  0  0  0  0  0  0  0
    4.3002    0.7186    1.0868 C   0  0  0  0  0  0  0  0  0  0  0  0
    4.3238    1.1131   -0.0771 O   0  0  0  0  0  0  0  0  0  0  0  0
    3.9091   -1.6892    1.6680 C   0  0  0  0  0  0  0  0  0  0  0  0
    1.8039   -1.1612    0.3484 H   0  0  0  0  0  0  0  0  0  0  0  0
    2.9335    0.0029    2.5880 H   0  0  0  0  0  0  0  0  0  0  0  0
    4.2735   -2.0111    0.6856 H   0  0  0  0  0  0  0  0  0  0  0  0
    4.7583   -1.7113    2.3589 H   0  0  0  0  0  0  0  0  0  0  0  0
    3.1738   -2.4265    2.0077 H   0  0  0  0  0  0  0  0  0  0  0  0
    5.1983    1.1039    2.0723 N   0  0  0  0  0  0  0  0  0  0  0  0
    6.2601    2.0529    1.8316 C   0  0  0  0  0  0  0  0  0  0  0  0
    5.0923    0.7402    3.0148 H   0  0  0  0  0  0  0  0  0  0  0  0
    7.1748    1.5149    1.5422 H   0  0  0  0  0  0  0  0  0  0  0  0
    5.9646    2.7358    1.0215 H   0  0  0  0  0  0  0  0  0  0  0  0
    6.4494    2.6313    2.7479 H   0  0  0  0  0  0  0  0  0  0  0  0
 25 27  1  0  0  0  0
 26 27  2  0  0  0  0
 23 25  2  0  0  0  0
 24 26  1  0  0  0  0
 22 23  1  0  0  0  0
 22 24  2  0  0  0  0
 21 22  1  0  0  0  0
  1  3  1  0  0  0  0
  1  7  1  0  0  0  0
  1  2  2  0  0  0  0
 38 39  1  0  0  0  0
 39 47  1  0  0  0  0
 39 40  2  0  0  0  0
  8  9  1  0  0  0  0
  9 17  1  0  0  0  0
  9 10  2  0  0  0  0
 18 19  1  0  0  0  0
 19 37  1  0  0  0  0
 19 20  2  0  0  0  0
 38 41  1  0  0  0  0
  8 11  1  0  0  0  0
 47 48  1  0  0  0  0
 18 21  1  0  0  0  0
 37 38  1  0  0  0  0
  7  8  1  0  0  0  0
 17 18  1  0  0  0  0
 27 36  1  0  0  0  0
 25 34  1  0  0  0  0
 26 35  1  0  0  0  0
 23 32  1  0  0  0  0
 24 33  1  0  0  0  0
  3  4  1  0  0  0  0
  3  5  1  0  0  0  0
  3  6  1  0  0  0  0
 41 44  1  0  0  0  0
 41 45  1  0  0  0  0
 41 46  1  0  0  0  0
 11 14  1  0  0  0  0
 11 15  1  0  0  0  0
 11 16  1  0  0  0  0
 48 50  1  0  0  0  0
 48 51  1  0  0  0  0
 48 52  1  0  0  0  0
 21 30  1  0  0  0  0
 21 31  1  0  0  0  0
 38 43  1  0  0  0  0
  8 13  1  0  0  0  0
 18 29  1  0  0  0  0
 47 49  1  0  0  0  0
  7 12  1  0  0  0  0
 37 42  1  0  0  0  0
 17 28  1  0  0  0  0
M  END
$$$$

  -OEChem-05262214473D

 52 52  0     1  0  0  0  0  0999 V2000
   -1.8248    0.3424    3.9102 C   0  0  0  0  0  0  0  0  0  0  0  0
   -0.8774   -0.2723    3.4345 O   0  0  0  0  0  0  0  0  0  0  0  0
   -2.2566    0.0600    5.3109 C   0  0  0  0  0  0  0  0  0  0  0  0
   -3.0163   -0.7363    5.3643 H   0  0  0  0  0  0  0  0  0  0  0  0
   -1.4254   -0.2876    5.9452 H   0  0  0  0  0  0  0  0  0  0  0  0
   -2.6947    0.9149    5.8505 H   0  0  0  0  0  0  0  0  0  0  0  0
   -2.5745    1.3149    3.2691 N   0  0  0  0  0  0  0  0  0  0  0  0
   -2.3276    1.7409    1.9167 C   0  0  2  0  0  0  0  0  0  0  0  0
   -0.9926    1.1555    1.4755 C   0  0  0  0  0  0  0  0  0  0  0  0
   -0.1206    0.8028    2.2668 O   0  0  0  0  0  0  0  0  0  0  0  0
   -2.3188    3.2577    1.8072 C   0  0  0  0  0  0  0  0  0  0  0  0
   -3.3395    1.7507    3.7809 H   0  0  0  0  0  0  0  0  0  0  0  0
   -3.1317    1.3224    1.3015 H   0  0  0  0  0  0  0  0  0  0  0  0
   -1.5198    3.6949    2.4169 H   0  0  0  0  0  0  0  0  0  0  0  0
   -2.1594    3.5799    0.7729 H   0  0  0  0  0  0  0  0  0  0  0  0
   -3.2690    3.6789    2.1530 H   0  0  0  0  0  0  0  0  0  0  0  0
   -0.8700    1.1124    0.0921 N   0  0  0  0  0  0  0  0  0  0  0  0
    0.3073    0.6116   -0.5716 C   0  0  2  0  0  0  0  0  0  0  0  0
    1.4938    0.8884    0.3449 C   0  0  0  0  0  0  0  0  0  0  0  0
    1.6414    1.9503    0.9462 O   0  0  0  0  0  0  0  0  0  0  0  0
    0.5252    1.2696   -1.9389 C   0  0  0  0  0  0  0  0  0  0  0  0
   -0.5423    0.9019   -2.9404 C   0  0  0  0  0  0  0  0  0  0  0  0
   -0.4718   -0.3135   -3.6213 C   0  0  0  0  0  0  0  0  0  0  0  0
   -1.6000    1.7778   -3.1847 C   0  0  0  0  0  0  0  0  0  0  0  0
   -1.4589   -0.6529   -4.5465 C   0  0  0  0  0  0  0  0  0  0  0  0
   -2.5871    1.4384   -4.1100 C   0  0  0  0  0  0  0  0  0  0  0  0
   -2.5165    0.2230   -4.7908 C   0  0  0  0  0  0  0  0  0  0  0  0
   -1.6531    1.4091   -0.4852 H   0  0  0  0  0  0  0  0  0  0  0  0
    0.1740   -0.4723   -0.6686 H   0  0  0  0  0  0  0  0  0  0  0  0
    1.5133    1.0015   -2.3370 H   0  0  0  0  0  0  0  0  0  0  0  0
    0.5419    2.3631   -1.8401 H   0  0  0  0  0  0  0  0  0  0  0  0
    0.3486   -1.0023   -3.4372 H   0  0  0  0  0  0  0  0  0  0  0  0
   -1.6632    2.7268   -2.6588 H   0  0  0  0  0  0  0  0  0  0  0  0
   -1.4032   -1.5988   -5.0774 H   0  0  0  0  0  0  0  0  0  0  0  0
   -3.4098    2.1211   -4.3007 H   0  0  0  0  0  0  0  0  0  0  0  0
   -3.2843   -0.0408   -5.5123 H   0  0  0  0  0  0  0  0  0  0  0  0
    2.3377   -0.2087    0.4480 N   0  0  0  0  0  0  0  0  0  0  0  0
    3.5255   -0.2216    1.2712 C   0  0  2  0  0  0  0  0  0  0  0  0
    4.3348    1.0276    0.9487 C   0  0  0  0  0  0  0  0  0  0  0  0
    4.2253    1.6431   -0.1097 O   0  0  0  0  0  0  0  0  0  0  0  0
    4.3486   -1.4784    1.0354 C   0  0  0  0  0  0  0  0  0  0  0  0
    2.1090   -1.0446   -0.0818 H   0  0  0  0  0  0  0  0  0  0  0  0
    3.1888   -0.1805    2.3129 H   0  0  0  0  0  0  0  0  0  0  0  0
    4.6948   -1.5370   -0.0030 H   0  0  0  0  0  0  0  0  0  0  0  0
    5.2332   -1.5002    1.6804 H   0  0  0  0  0  0  0  0  0  0  0  0
    3.7556   -2.3765    1.2393 H   0  0  0  0  0  0  0  0  0  0  0  0
    5.2247    1.3495    1.9639 N   0  0  0  0  0  0  0  0  0  0  0  0
    6.1140    2.4851    1.8902 C   0  0  0  0  0  0  0  0  0  0  0  0
    5.2344    0.7944    2.8145 H   0  0  0  0  0  0  0  0  0  0  0  0
    7.0794    2.1688    1.4682 H   0  0  0  0  0  0  0  0  0  0  0  0
    5.6686    3.2583    1.2469 H   0  0  0  0  0  0  0  0  0  0  0  0
    6.2713    2.8937    2.8993 H   0  0  0  0  0  0  0  0  0  0  0  0
 25 27  1  0  0  0  0
 26 27  2  0  0  0  0
 23 25  2  0  0  0  0
 24 26  1  0  0  0  0
 22 23  1  0  0  0  0
 22 24  2  0  0  0  0
 21 22  1  0  0  0  0
  1  3  1  0  0  0  0
  1  7  1  0  0  0  0
  1  2  2  0  0  0  0
 38 39  1  0  0  0  0
 39 47  1  0  0  0  0
 39 40  2  0  0  0  0
  8  9  1  0  0  0  0
  9 17  1  0  0  0  0
  9 10  2  0  0  0  0
 18 19  1  0  0  0  0
 19 37  1  0  0  0  0
 19 20  2  0  0  0  0
 38 41  1  0  0  0  0
  8 11  1  0  0  0  0
 47 48  1  0  0  0  0
 18 21  1  0  0  0  0
 37 38  1  0  0  0  0
  7  8  1  0  0  0  0
 17 18  1  0  0  0  0
 27 36  1  0  0  0  0
 25 34  1  0  0  0  0
 26 35  1  0  0  0  0
 23 32  1  0  0  0  0
 24 33  1  0  0  0  0
  3  4  1  0  0  0  0
  3  5  1  0  0  0  0
  3  6  1  0  0  0  0
 41 44  1  0  0  0  0
 41 45  1  0  0  0  0
 41 46  1  0  0  0  0
 11 14  1  0  0  0  0
 11 15  1  0  0  0  0
 11 16  1  0  0  0  0
 48 50  1  0  0  0  0
 48 51  1  0  0  0  0
 48 52  1  0  0  0  0
 21 30  1  0  0  0  0
 21 31  1  0  0  0  0
 38 43  1  0  0  0  0
  8 13  1  0  0  0  0
 18 29  1  0  0  0  0
 47 49  1  0  0  0  0
  7 12  1  0  0  0  0
 37 42  1  0  0  0  0
 17 28  1  0  0  0  0
M  END
$$$$

  -OEChem-05262214473D

 52 52  0     1  0  0  0  0  0999 V2000
   -1.8248    0.3424    3.9102 C   0  0  0  0  0  0  0  0  0  0  0  0
   -0.8774   -0.2723    3.4345 O   0  0  0  0  0  0  0  0  0  0  0  0
   -2.2566    0.0600    5.3109 C   0  0  0  0  0  0  0  0  0  0  0  0
   -3.0163   -0.7363    5.3643 H   0  0  0  0  0  0  0  0  0  0  0  0
   -1.4254   -0.2876    5.9452 H   0  0  0  0  0  0  0  0  0  0  0  0
   -2.6947    0.9149    5.8505 H   0  0  0  0  0  0  0  0  0  0  0  0
   -2.5745    1.3149    3.2691 N   0  0  0  0  0  0  0  0  0  0  0  0
   -2.3276    1.7409    1.9167 C   0  0  2  0  0  0  0  0  0  0  0  0
   -0.9926    1.1555    1.4755 C   0  0  0  0  0  0  0  0  0  0  0  0
   -0.1206    0.8028    2.2668 O   0  0  0  0  0  0  0  0  0  0  0  0
   -2.3188    3.2577    1.8072 C   0  0  0  0  0  0  0  0  0  0  0  0
   -3.3395    1.7507    3.7809 H   0  0  0  0  0  0  0  0  0  0  0  0
   -3.1317    1.3224    1.3015 H   0  0  0  0  0  0  0  0  0  0  0  0
   -1.5198    3.6949    2.4169 H   0  0  0  0  0  0  0  0  0  0  0  0
   -2.1594    3.5799    0.7729 H   0  0  0  0  0  0  0  0  0  0  0  0
   -3.2690    3.6789    2.1530 H   0  0  0  0  0  0  0  0  0  0  0  0
   -0.8700    1.1124    0.0921 N   0  0  0  0  0  0  0  0  0  0  0  0
    0.3073    0.6116   -0.5716 C   0  0  2  0  0  0  0  0  0  0  0  0
    1.4938    0.8884    0.3449 C   0  0  0  0  0  0  0  0  0  0  0  0
    1.5171    1.8201    1.1464 O   0  0  0  0  0  0  0  0  0  0  0  0
    0.5252    1.2696   -1.9389 C   0  0  0  0  0  0  0  0  0  0  0  0
   -0.5423    0.9019   -2.9404 C   0  0  0  0  0  0  0  0  0  0  0  0
   -0.4718   -0.3135   -3.6213 C   0  0  0  0  0  0  0  0  0  0  0  0
   -1.6000    1.7778   -3.1847 C   0  0  0  0  0  0  0  0  0  0  0  0
   -1.4589   -0.6529   -4.5465 C   0  0  0  0  0  0  0  0  0  0  0  0
   -2.5871    1.4384   -4.1100 C   0  0  0  0  0  0  0  0  0  0  0  0
   -2.5165    0.2230   -4.7908 C   0  0  0  0  0  0  0  0  0  0  0  0
   -1.6531    1.4091   -0.4852 H   0  0  0  0  0  0  0  0  0  0  0  0
    0.1740   -0.4723   -0.6686 H   0  0  0  0  0  0  0  0  0  0  0  0
    1.5133    1.0015   -2.3370 H   0  0  0  0  0  0  0  0  0  0  0  0
    0.5419    2.3631   -1.8401 H   0  0  0  0  0  0  0  0  0  0  0  0
    0.3486   -1.0023   -3.4372 H   0  0  0  0  0  0  0  0  0  0  0  0
   -1.6632    2.7268   -2.6588 H   0  0  0  0  0  0  0  0  0  0  0  0
   -1.4032   -1.5988   -5.0774 H   0  0  0  0  0  0  0  0  0  0  0  0
   -3.4098    2.1211   -4.3007 H   0  0  0  0  0  0  0  0  0  0  0  0
   -3.2843   -0.0408   -5.5123 H   0  0  0  0  0  0  0  0  0  0  0  0
    2.4983   -0.0576    0.1945 N   0  0  0  0  0  0  0  0  0  0  0  0
    3.7239   -0.0423    0.9603 C   0  0  2  0  0  0  0  0  0  0  0  0
    4.3137    1.3593    0.8759 C   0  0  0  0  0  0  0  0  0  0  0  0
    4.0462    2.1462   -0.0299 O   0  0  0  0  0  0  0  0  0  0  0  0
    4.7105   -1.0790    0.4462 C   0  0  0  0  0  0  0  0  0  0  0  0
    2.3653   -0.7979   -0.4881 H   0  0  0  0  0  0  0  0  0  0  0  0
    3.4511   -0.2625    1.9981 H   0  0  0  0  0  0  0  0  0  0  0  0
    4.9956   -0.8749   -0.5924 H   0  0  0  0  0  0  0  0  0  0  0  0
    5.6271   -1.0858    1.0452 H   0  0  0  0  0  0  0  0  0  0  0  0
    4.2738   -2.0830    0.4798 H   0  0  0  0  0  0  0  0  0  0  0  0
    5.2070    1.6126    1.9074 N   0  0  0  0  0  0  0  0  0  0  0  0
    5.9084    2.8681    2.0406 C   0  0  0  0  0  0  0  0  0  0  0  0
    5.3537    0.9092    2.6254 H   0  0  0  0  0  0  0  0  0  0  0  0
    6.8820    2.8004    1.5330 H   0  0  0  0  0  0  0  0  0  0  0  0
    5.3119    3.6715    1.5838 H   0  0  0  0  0  0  0  0  0  0  0  0
    6.0655    3.0888    3.1067 H   0  0  0  0  0  0  0  0  0  0  0  0
 25 27  1  0  0  0  0
 26 27  2  0  0  0  0
 23 25  2  0  0  0  0
 24 26  1  0  0  0  0
 22 23  1  0  0  0  0
 22 24  2  0  0  0  0
 21 22  1  0  0  0  0
  1  3  1  0  0  0  0
  1  7  1  0  0  0  0
  1  2  2  0  0  0  0
 38 39  1  0  0  0  0
 39 47  1  0  0  0  0
 39 40  2  0  0  0  0
  8  9  1  0  0  0  0
  9 17  1  0  0  0  0
  9 10  2  0  0  0  0
 18 19  1  0  0  0  0
 19 37  1  0  0  0  0
 19 20  2  0  0  0  0
 38 41  1  0  0  0  0
  8 11  1  0  0  0  0
 47 48  1  0  0  0  0
 18 21  1  0  0  0  0
 37 38  1  0  0  0  0
  7  8  1  0  0  0  0
 17 18  1  0  0  0  0
 27 36  1  0  0  0  0
 25 34  1  0  0  0  0
 26 35  1  0  0  0  0
 23 32  1  0  0  0  0
 24 33  1  0  0  0  0
  3  4  1  0  0  0  0
  3  5  1  0  0  0  0
  3  6  1  0  0  0  0
 41 44  1  0  0  0  0
 41 45  1  0  0  0  0
 41 46  1  0  0  0  0
 11 14  1  0  0  0  0
 11 15  1  0  0  0  0
 11 16  1  0  0  0  0
 48 50  1  0  0  0  0
 48 51  1  0  0  0  0
 48 52  1  0  0  0  0
 21 30  1  0  0  0  0
 21 31  1  0  0  0  0
 38 43  1  0  0  0  0
  8 13  1  0  0  0  0
 18 29  1  0  0  0  0
 47 49  1  0  0  0  0
  7 12  1  0  0  0  0
 37 42  1  0  0  0  0
 17 28  1  0  0  0  0
M  END
$$$$

  -OEChem-05262214473D

 52 52  0     1  0  0  0  0  0999 V2000
   -1.8248    0.3424    3.9102 C   0  0  0  0  0  0  0  0  0  0  0  0
   -0.8774   -0.2723    3.4345 O   0  0  0  0  0  0  0  0  0  0  0  0
   -2.2566    0.0600    5.3109 C   0  0  0  0  0  0  0  0  0  0  0  0
   -3.0163   -0.7363    5.3643 H   0  0  0  0  0  0  0  0  0  0  0  0
   -1.4254   -0.2876    5.9452 H   0  0  0  0  0  0  0  0  0  0  0  0
   -2.6947    0.9149    5.8505 H   0  0  0  0  0  0  0  0  0  0  0  0
   -2.5745    1.3149    3.2691 N   0  0  0  0  0  0  0  0  0  0  0  0
   -2.3276    1.7409    1.9167 C   0  0  2  0  0  0  0  0  0  0  0  0
   -0.9926    1.1555    1.4755 C   0  0  0  0  0  0  0  0  0  0  0  0
   -0.1206    0.8028    2.2668 O   0  0  0  0  0  0  0  0  0  0  0  0
   -2.3188    3.2577    1.8072 C   0  0  0  0  0  0  0  0  0  0  0  0
   -3.3395    1.7507    3.7809 H   0  0  0  0  0  0  0  0  0  0  0  0
   -3.1317    1.3224    1.3015 H   0  0  0  0  0  0  0  0  0  0  0  0
   -1.5198    3.6949    2.4169 H   0  0  0  0  0  0  0  0  0  0  0  0
   -2.1594    3.5799    0.7729 H   0  0  0  0  0  0  0  0  0  0  0  0
   -3.2690    3.6789    2.1530 H   0  0  0  0  0  0  0  0  0  0  0  0
   -0.8700    1.1124    0.0921 N   0  0  0  0  0  0  0  0  0  0  0  0
    0.3073    0.6116   -0.5716 C   0  0  2  0  0  0  0  0  0  0  0  0
    1.4938    0.8884    0.3449 C   0  0  0  0  0  0  0  0  0  0  0  0
    1.4268    1.6346    1.3193 O   0  0  0  0  0  0  0  0  0  0  0  0
    0.5252    1.2696   -1.9389 C   0  0  0  0  0  0  0  0  0  0  0  0
   -0.5423    0.9019   -2.9404 C   0  0  0  0  0  0  0  0  0  0  0  0
   -0.4718   -0.3135   -3.6213 C   0  0  0  0  0  0  0  0  0  0  0  0
   -1.6000    1.7778   -3.1847 C   0  0  0  0  0  0  0  0  0  0  0  0
   -1.4589   -0.6529   -4.5465 C   0  0  0  0  0  0  0  0  0  0  0  0
   -2.5871    1.4384   -4.1100 C   0  0  0  0  0  0  0  0  0  0  0  0
   -2.5165    0.2230   -4.7908 C   0  0  0  0  0  0  0  0  0  0  0  0
   -1.6531    1.4091   -0.4852 H   0  0  0  0  0  0  0  0  0  0  0  0
    0.1740   -0.4723   -0.6686 H   0  0  0  0  0  0  0  0  0  0  0  0
    1.5133    1.0015   -2.3370 H   0  0  0  0  0  0  0  0  0  0  0  0
    0.5419    2.3631   -1.8401 H   0  0  0  0  0  0  0  0  0  0  0  0
    0.3486   -1.0023   -3.4372 H   0  0  0  0  0  0  0  0  0  0  0  0
   -1.6632    2.7268   -2.6588 H   0  0  0  0  0  0  0  0  0  0  0  0
   -1.4032   -1.5988   -5.0774 H   0  0  0  0  0  0  0  0  0  0  0  0
   -3.4098    2.1211   -4.3007 H   0  0  0  0  0  0  0  0  0  0  0  0
   -3.2843   -0.0408   -5.5123 H   0  0  0  0  0  0  0  0  0  0  0  0
    2.6179    0.1644   -0.0275 N   0  0  0  0  0  0  0  0  0  0  0  0
    3.8729    0.2244    0.6867 C   0  0  2  0  0  0  0  0  0  0  0  0
    4.2382    1.6911    0.8734 C   0  0  0  0  0  0  0  0  0  0  0  0
    3.7987    2.5883    0.1571 O   0  0  0  0  0  0  0  0  0  0  0  0
    4.9703   -0.5183   -0.0595 C   0  0  0  0  0  0  0  0  0  0  0  0
    2.5554   -0.4379   -0.8430 H   0  0  0  0  0  0  0  0  0  0  0  0
    3.7023   -0.2375    1.6653 H   0  0  0  0  0  0  0  0  0  0  0  0
    5.1554   -0.0698   -1.0424 H   0  0  0  0  0  0  0  0  0  0  0  0
    5.9133   -0.4962    0.4967 H   0  0  0  0  0  0  0  0  0  0  0  0
    4.6929   -1.5658   -0.2190 H   0  0  0  0  0  0  0  0  0  0  0  0
    5.1462    1.8754    1.9067 N   0  0  0  0  0  0  0  0  0  0  0  0
    5.6574    3.1757    2.2728 C   0  0  0  0  0  0  0  0  0  0  0  0
    5.4422    1.0768    2.4602 H   0  0  0  0  0  0  0  0  0  0  0  0
    6.5961    3.3668    1.7321 H   0  0  0  0  0  0  0  0  0  0  0  0
    4.9190    3.9473    2.0093 H   0  0  0  0  0  0  0  0  0  0  0  0
    5.8461    3.2036    3.3561 H   0  0  0  0  0  0  0  0  0  0  0  0
 25 27  1  0  0  0  0
 26 27  2  0  0  0  0
 23 25  2  0  0  0  0
 24 26  1  0  0  0  0
 22 23  1  0  0  0  0
 22 24  2  0  0  0  0
 21 22  1  0  0  0  0
  1  3  1  0  0  0  0
  1  7  1  0  0  0  0
  1  2  2  0  0  0  0
 38 39  1  0  0  0  0
 39 47  1  0  0  0  0
 39 40  2  0  0  0  0
  8  9  1  0  0  0  0
  9 17  1  0  0  0  0
  9 10  2  0  0  0  0
 18 19  1  0  0  0  0
 19 37  1  0  0  0  0
 19 20  2  0  0  0  0
 38 41  1  0  0  0  0
  8 11  1  0  0  0  0
 47 48  1  0  0  0  0
 18 21  1  0  0  0  0
 37 38  1  0  0  0  0
  7  8  1  0  0  0  0
 17 18  1  0  0  0  0
 27 36  1  0  0  0  0
 25 34  1  0  0  0  0
 26 35  1  0  0  0  0
 23 32  1  0  0  0  0
 24 33  1  0  0  0  0
  3  4  1  0  0  0  0
  3  5  1  0  0  0  0
  3  6  1  0  0  0  0
 41 44  1  0  0  0  0
 41 45  1  0  0  0  0
 41 46  1  0  0  0  0
 11 14  1  0  0  0  0
 11 15  1  0  0  0  0
 11 16  1  0  0  0  0
 48 50  1  0  0  0  0
 48 51  1  0  0  0  0
 48 52  1  0  0  0  0
 21 30  1  0  0  0  0
 21 31  1  0  0  0  0
 38 43  1  0  0  0  0
  8 13  1  0  0  0  0
 18 29  1  0  0  0  0
 47 49  1  0  0  0  0
  7 12  1  0  0  0  0
 37 42  1  0  0  0  0
 17 28  1  0  0  0  0
M  END
$$$$

  -OEChem-05262214473D

 52 52  0     1  0  0  0  0  0999 V2000
   -1.8248    0.3424    3.9102 C   0  0  0  0  0  0  0  0  0  0  0  0
   -0.8774   -0.2723    3.4345 O   0  0  0  0  0  0  0  0  0  0  0  0
   -2.2566    0.0600    5.3109 C   0  0  0  0  0  0  0  0  0  0  0  0
   -3.0163   -0.7363    5.3643 H   0  0  0  0  0  0  0  0  0  0  0  0
   -1.4254   -0.2876    5.9452 H   0  0  0  0  0  0  0  0  0  0  0  0
   -2.6947    0.9149    5.8505 H   0  0  0  0  0  0  0  0  0  0  0  0
   -2.5745    1.3149    3.2691 N   0  0  0  0  0  0  0  0  0  0  0  0
   -2.3276    1.7409    1.9167 C   0  0  2  0  0  0  0  0  0  0  0  0
   -0.9926    1.1555    1.4755 C   0  0  0  0  0  0  0  0  0  0  0  0
   -0.1206    0.8028    2.2668 O   0  0  0  0  0  0  0  0  0  0  0  0
   -2.3188    3.2577    1.8072 C   0  0  0  0  0  0  0  0  0  0  0  0
   -3.3395    1.7507    3.7809 H   0  0  0  0  0  0  0  0  0  0  0  0
   -3.1317    1.3224    1.3015 H   0  0  0  0  0  0  0  0  0  0  0  0
   -1.5198    3.6949    2.4169 H   0  0  0  0  0  0  0  0  0  0  0  0
   -2.1594    3.5799    0.7729 H   0  0  0  0  0  0  0  0  0  0  0  0
   -3.2690    3.6789    2.1530 H   0  0  0  0  0  0  0  0  0  0  0  0
   -0.8700    1.1124    0.0921 N   0  0  0  0  0  0  0  0  0  0  0  0
    0.3073    0.6116   -0.5716 C   0  0  2  0  0  0  0  0  0  0  0  0
    1.4165    0.5385    0.4718 C   0  0  0  0  0  0  0  0  0  0  0  0
    1.2434    0.8280    1.6538 O   0  0  0  0  0  0  0  0  0  0  0  0
    0.7353    1.5035   -1.7427 C   0  0  0  0  0  0  0  0  0  0  0  0
   -0.2575    1.4905   -2.8793 C   0  0  0  0  0  0  0  0  0  0  0  0
   -0.2509    0.4428   -3.8001 C   0  0  0  0  0  0  0  0  0  0  0  0
   -1.1822    2.5268   -3.0087 C   0  0  0  0  0  0  0  0  0  0  0  0
   -1.1689    0.4313   -4.8502 C   0  0  0  0  0  0  0  0  0  0  0  0
   -2.1002    2.5154   -4.0588 C   0  0  0  0  0  0  0  0  0  0  0  0
   -2.0936    1.4675   -4.9796 C   0  0  0  0  0  0  0  0  0  0  0  0
   -1.6531    1.4091   -0.4852 H   0  0  0  0  0  0  0  0  0  0  0  0
    0.0668   -0.4026   -0.9113 H   0  0  0  0  0  0  0  0  0  0  0  0
    1.7237    1.1980   -2.1121 H   0  0  0  0  0  0  0  0  0  0  0  0
    0.8613    2.5417   -1.4081 H   0  0  0  0  0  0  0  0  0  0  0  0
    0.4658   -0.3690   -3.7071 H   0  0  0  0  0  0  0  0  0  0  0  0
   -1.1948    3.3472   -2.2960 H   0  0  0  0  0  0  0  0  0  0  0  0
   -1.1629   -0.3841   -5.5677 H   0  0  0  0  0  0  0  0  0  0  0  0
   -2.8192    3.3229   -4.1599 H   0  0  0  0  0  0  0  0  0  0  0  0
   -2.8074    1.4592   -5.7981 H   0  0  0  0  0  0  0  0  0  0  0  0
    2.6051    0.0645   -0.0658 N   0  0  0  0  0  0  0  0  0  0  0  0
    3.8086   -0.1235    0.7120 C   0  0  2  0  0  0  0  0  0  0  0  0
    4.0670    1.1567    1.4954 C   0  0  0  0  0  0  0  0  0  0  0  0
    3.6146    2.2500    1.1621 O   0  0  0  0  0  0  0  0  0  0  0  0
    4.9942   -0.4655   -0.1769 C   0  0  0  0  0  0  0  0  0  0  0  0
    2.6304   -0.1616   -1.0558 H   0  0  0  0  0  0  0  0  0  0  0  0
    3.6097   -0.9449    1.4089 H   0  0  0  0  0  0  0  0  0  0  0  0
    5.2086    0.3459   -0.8820 H   0  0  0  0  0  0  0  0  0  0  0  0
    5.8988   -0.6356    0.4162 H   0  0  0  0  0  0  0  0  0  0  0  0
    4.7947   -1.3699   -0.7617 H   0  0  0  0  0  0  0  0  0  0  0  0
    4.8978    0.9423    2.5863 N   0  0  0  0  0  0  0  0  0  0  0  0
    5.3015    2.0033    3.4793 C   0  0  0  0  0  0  0  0  0  0  0  0
    5.2107   -0.0004    2.7984 H   0  0  0  0  0  0  0  0  0  0  0  0
    6.2567    2.4279    3.1369 H   0  0  0  0  0  0  0  0  0  0  0  0
    4.5322    2.7895    3.4858 H   0  0  0  0  0  0  0  0  0  0  0  0
    5.4228    1.6006    4.4957 H   0  0  0  0  0  0  0  0  0  0  0  0
 25 27  1  0  0  0  0
 26 27  2  0  0  0  0
 23 25  2  0  0  0  0
 24 26  1  0  0  0  0
 22 23  1  0  0  0  0
 22 24  2  0  0  0  0
 21 22  1  0  0  0  0
  1  3  1  0  0  0  0
  1  7  1  0  0  0  0
  1  2  2  0  0  0  0
 38 39  1  0  0  0  0
 39 47  1  0  0  0  0
 39 40  2  0  0  0  0
  8  9  1  0  0  0  0
  9 17  1  0  0  0  0
  9 10  2  0  0  0  0
 18 19  1  0  0  0  0
 19 37  1  0  0  0  0
 19 20  2  0  0  0  0
 38 41  1  0  0  0  0
  8 11  1  0  0  0  0
 47 48  1  0  0  0  0
 18 21  1  0  0  0  0
 37 38  1  0  0  0  0
  7  8  1  0  0  0  0
 17 18  1  0  0  0  0
 27 36  1  0  0  0  0
 25 34  1  0  0  0  0
 26 35  1  0  0  0  0
 23 32  1  0  0  0  0
 24 33  1  0  0  0  0
  3  4  1  0  0  0  0
  3  5  1  0  0  0  0
  3  6  1  0  0  0  0
 41 44  1  0  0  0  0
 41 45  1  0  0  0  0
 41 46  1  0  0  0  0
 11 14  1  0  0  0  0
 11 15  1  0  0  0  0
 11 16  1  0  0  0  0
 48 50  1  0  0  0  0
 48 51  1  0  0  0  0
 48 52  1  0  0  0  0
 21 30  1  0  0  0  0
 21 31  1  0  0  0  0
 38 43  1  0  0  0  0
  8 13  1  0  0  0  0
 18 29  1  0  0  0  0
 47 49  1  0  0  0  0
  7 12  1  0  0  0  0
 37 42  1  0  0  0  0
 17 28  1  0  0  0  0
M  END
$$$$

  -OEChem-05262214473D

 52 52  0     1  0  0  0  0  0999 V2000
   -1.8248    0.3424    3.9102 C   0  0  0  0  0  0  0  0  0  0  0  0
   -0.8774   -0.2723    3.4345 O   0  0  0  0  0  0  0  0  0  0  0  0
   -2.2566    0.0600    5.3109 C   0  0  0  0  0  0  0  0  0  0  0  0
   -3.0163   -0.7363    5.3643 H   0  0  0  0  0  0  0  0  0  0  0  0
   -1.4254   -0.2876    5.9452 H   0  0  0  0  0  0  0  0  0  0  0  0
   -2.6947    0.9149    5.8505 H   0  0  0  0  0  0  0  0  0  0  0  0
   -2.5745    1.3149    3.2691 N   0  0  0  0  0  0  0  0  0  0  0  0
   -2.3276    1.7409    1.9167 C   0  0  2  0  0  0  0  0  0  0  0  0
   -0.9926    1.1555    1.4755 C   0  0  0  0  0  0  0  0  0  0  0  0
   -0.1206    0.8028    2.2668 O   0  0  0  0  0  0  0  0  0  0  0  0
   -2.3188    3.2577    1.8072 C   0  0  0  0  0  0  0  0  0  0  0  0
   -3.3395    1.7507    3.7809 H   0  0  0  0  0  0  0  0  0  0  0  0
   -3.1317    1.3224    1.3015 H   0  0  0  0  0  0  0  0  0  0  0  0
   -1.5198    3.6949    2.4169 H   0  0  0  0  0  0  0  0  0  0  0  0
   -2.1594    3.5799    0.7729 H   0  0  0  0  0  0  0  0  0  0  0  0
   -3.2690    3.6789    2.1530 H   0  0  0  0  0  0  0  0  0  0  0  0
   -0.8700    1.1124    0.0921 N   0  0  0  0  0  0  0  0  0  0  0  0
    0.3073    0.6116   -0.5716 C   0  0  2  0  0  0  0  0  0  0  0  0
    1.4165    0.5385    0.4718 C   0  0  0  0  0  0  0  0  0  0  0  0
    1.1999    0.5638    1.6815 O   0  0  0  0  0  0  0  0  0  0  0  0
    0.7353    1.5035   -1.7427 C   0  0  0  0  0  0  0  0  0  0  0  0
   -0.2575    1.4905   -2.8793 C   0  0  0  0  0  0  0  0  0  0  0  0
   -0.2509    0.4428   -3.8001 C   0  0  0  0  0  0  0  0  0  0  0  0
   -1.1822    2.5268   -3.0087 C   0  0  0  0  0  0  0  0  0  0  0  0
   -1.1689    0.4313   -4.8502 C   0  0  0  0  0  0  0  0  0  0  0  0
   -2.1002    2.5154   -4.0588 C   0  0  0  0  0  0  0  0  0  0  0  0
   -2.0936    1.4675   -4.9796 C   0  0  0  0  0  0  0  0  0  0  0  0
   -1.6531    1.4091   -0.4852 H   0  0  0  0  0  0  0  0  0  0  0  0
    0.0668   -0.4026   -0.9113 H   0  0  0  0  0  0  0  0  0  0  0  0
    1.7237    1.1980   -2.1121 H   0  0  0  0  0  0  0  0  0  0  0  0
    0.8613    2.5417   -1.4081 H   0  0  0  0  0  0  0  0  0  0  0  0
    0.4658   -0.3690   -3.7071 H   0  0  0  0  0  0  0  0  0  0  0  0
   -1.1948    3.3472   -2.2960 H   0  0  0  0  0  0  0  0  0  0  0  0
   -1.1629   -0.3841   -5.5677 H   0  0  0  0  0  0  0  0  0  0  0  0
   -2.8192    3.3229   -4.1599 H   0  0  0  0  0  0  0  0  0  0  0  0
   -2.8074    1.4592   -5.7981 H   0  0  0  0  0  0  0  0  0  0  0  0
    2.6681    0.3916   -0.1099 N   0  0  0  0  0  0  0  0  0  0  0  0
    3.8894    0.2744    0.6540 C   0  0  2  0  0  0  0  0  0  0  0  0
    3.9189    1.4082    1.6705 C   0  0  0  0  0  0  0  0  0  0  0  0
    3.2773    2.4478    1.5346 O   0  0  0  0  0  0  0  0  0  0  0  0
    5.1129    0.3210   -0.2480 C   0  0  0  0  0  0  0  0  0  0  0  0
    2.7288    0.3651   -1.1235 H   0  0  0  0  0  0  0  0  0  0  0  0
    3.8433   -0.6861    1.1787 H   0  0  0  0  0  0  0  0  0  0  0  0
    5.1760    1.2761   -0.7821 H   0  0  0  0  0  0  0  0  0  0  0  0
    6.0360    0.2035    0.3291 H   0  0  0  0  0  0  0  0  0  0  0  0
    5.0752   -0.4770   -0.9974 H   0  0  0  0  0  0  0  0  0  0  0  0
    4.7796    1.1406    2.7259 N   0  0  0  0  0  0  0  0  0  0  0  0
    4.9916    2.0673    3.8131 C   0  0  0  0  0  0  0  0  0  0  0  0
    5.2566    0.2447    2.7668 H   0  0  0  0  0  0  0  0  0  0  0  0
    5.8542    2.7105    3.5845 H   0  0  0  0  0  0  0  0  0  0  0  0
    4.0945    2.6902    3.9441 H   0  0  0  0  0  0  0  0  0  0  0  0
    5.1874    1.5071    4.7393 H   0  0  0  0  0  0  0  0  0  0  0  0
 25 27  1  0  0  0  0
 26 27  2  0  0  0  0
 23 25  2  0  0  0  0
 24 26  1  0  0  0  0
 22 23  1  0  0  0  0
 22 24  2  0  0  0  0
 21 22  1  0  0  0  0
  1  3  1  0  0  0  0
  1  7  1  0  0  0  0
  1  2  2  0  0  0  0
 38 39  1  0  0  0  0
 39 47  1  0  0  0  0
 39 40  2  0  0  0  0
  8  9  1  0  0  0  0
  9 17  1  0  0  0  0
  9 10  2  0  0  0  0
 18 19  1  0  0  0  0
 19 37  1  0  0  0  0
 19 20  2  0  0  0  0
 38 41  1  0  0  0  0
  8 11  1  0  0  0  0
 47 48  1  0  0  0  0
 18 21  1  0  0  0  0
 37 38  1  0  0  0  0
  7  8  1  0  0  0  0
 17 18  1  0  0  0  0
 27 36  1  0  0  0  0
 25 34  1  0  0  0  0
 26 35  1  0  0  0  0
 23 32  1  0  0  0  0
 24 33  1  0  0  0  0
  3  4  1  0  0  0  0
  3  5  1  0  0  0  0
  3  6  1  0  0  0  0
 41 44  1  0  0  0  0
 41 45  1  0  0  0  0
 41 46  1  0  0  0  0
 11 14  1  0  0  0  0
 11 15  1  0  0  0  0
 11 16  1  0  0  0  0
 48 50  1  0  0  0  0
 48 51  1  0  0  0  0
 48 52  1  0  0  0  0
 21 30  1  0  0  0  0
 21 31  1  0  0  0  0
 38 43  1  0  0  0  0
  8 13  1  0  0  0  0
 18 29  1  0  0  0  0
 47 49  1  0  0  0  0
  7 12  1  0  0  0  0
 37 42  1  0  0  0  0
 17 28  1  0  0  0  0
M  END
$$$$

  -OEChem-05262214473D

 52 52  0     1  0  0  0  0  0999 V2000
   -1.8248    0.3424    3.9102 C   0  0  0  0  0  0  0  0  0  0  0  0
   -0.8774   -0.2723    3.4345 O   0  0  0  0  0  0  0  0  0  0  0  0
   -2.2566    0.0600    5.3109 C   0  0  0  0  0  0  0  0  0  0  0  0
   -3.0163   -0.7363    5.3643 H   0  0  0  0  0  0  0  0  0  0  0  0
   -1.4254   -0.2876    5.9452 H   0  0  0  0  0  0  0  0  0  0  0  0
   -2.6947    0.9149    5.8505 H   0  0  0  0  0  0  0  0  0  0  0  0
   -2.5745    1.3149    3.2691 N   0  0  0  0  0  0  0  0  0  0  0  0
   -2.3276    1.7409    1.9167 C   0  0  2  0  0  0  0  0  0  0  0  0
   -0.9926    1.1555    1.4755 C   0  0  0  0  0  0  0  0  0  0  0  0
   -0.1206    0.8028    2.2668 O   0  0  0  0  0  0  0  0  0  0  0  0
   -2.3188    3.2577    1.8072 C   0  0  0  0  0  0  0  0  0  0  0  0
   -3.3395    1.7507    3.7809 H   0  0  0  0  0  0  0  0  0  0  0  0
   -3.1317    1.3224    1.3015 H   0  0  0  0  0  0  0  0  0  0  0  0
   -1.5198    3.6949    2.4169 H   0  0  0  0  0  0  0  0  0  0  0  0
   -2.1594    3.5799    0.7729 H   0  0  0  0  0  0  0  0  0  0  0  0
   -3.2690    3.6789    2.1530 H   0  0  0  0  0  0  0  0  0  0  0  0
   -0.8700    1.1124    0.0921 N   0  0  0  0  0  0  0  0  0  0  0  0
    0.3073    0.6116   -0.5716 C   0  0  2  0  0  0  0  0  0  0  0  0
    1.4165    0.5385    0.4718 C   0  0  0  0  0  0  0  0  0  0  0  0
    1.2044    0.2957    1.6579 O   0  0  0  0  0  0  0  0  0  0  0  0
    0.7353    1.5035   -1.7427 C   0  0  0  0  0  0  0  0  0  0  0  0
   -0.2575    1.4905   -2.8793 C   0  0  0  0  0  0  0  0  0  0  0  0
   -0.2509    0.4428   -3.8001 C   0  0  0  0  0  0  0  0  0  0  0  0
   -1.1822    2.5268   -3.0087 C   0  0  0  0  0  0  0  0  0  0  0  0
   -1.1689    0.4313   -4.8502 C   0  0  0  0  0  0  0  0  0  0  0  0
   -2.1002    2.5154   -4.0588 C   0  0  0  0  0  0  0  0  0  0  0  0
   -2.0936    1.4675   -4.9796 C   0  0  0  0  0  0  0  0  0  0  0  0
   -1.6531    1.4091   -0.4852 H   0  0  0  0  0  0  0  0  0  0  0  0
    0.0668   -0.4026   -0.9113 H   0  0  0  0  0  0  0  0  0  0  0  0
    1.7237    1.1980   -2.1121 H   0  0  0  0  0  0  0  0  0  0  0  0
    0.8613    2.5417   -1.4081 H   0  0  0  0  0  0  0  0  0  0  0  0
    0.4658   -0.3690   -3.7071 H   0  0  0  0  0  0  0  0  0  0  0  0
   -1.1948    3.3472   -2.2960 H   0  0  0  0  0  0  0  0  0  0  0  0
   -1.1629   -0.3841   -5.5677 H   0  0  0  0  0  0  0  0  0  0  0  0
   -2.8192    3.3229   -4.1599 H   0  0  0  0  0  0  0  0  0  0  0  0
   -2.8074    1.4592   -5.7981 H   0  0  0  0  0  0  0  0  0  0  0  0
    2.6716    0.7270   -0.0901 N   0  0  0  0  0  0  0  0  0  0  0  0
    3.8976    0.6839    0.6740 C   0  0  2  0  0  0  0  0  0  0  0  0
    3.7292    1.5918    1.8851 C   0  0  0  0  0  0  0  0  0  0  0  0
    2.9118    2.5090    1.9274 O   0  0  0  0  0  0  0  0  0  0  0  0
    5.0891    1.1151   -0.1670 C   0  0  0  0  0  0  0  0  0  0  0  0
    2.7314    0.9041   -1.0885 H   0  0  0  0  0  0  0  0  0  0  0  0
    4.0260   -0.3514    1.0080 H   0  0  0  0  0  0  0  0  0  0  0  0
    4.9784    2.1500   -0.5108 H   0  0  0  0  0  0  0  0  0  0  0  0
    6.0210    1.0546    0.4047 H   0  0  0  0  0  0  0  0  0  0  0  0
    5.1909    0.4796   -1.0533 H   0  0  0  0  0  0  0  0  0  0  0  0
    4.6285    1.2848    2.8966 N   0  0  0  0  0  0  0  0  0  0  0  0
    4.6769    2.0115    4.1438 C   0  0  0  0  0  0  0  0  0  0  0  0
    5.2578    0.4956    2.7831 H   0  0  0  0  0  0  0  0  0  0  0  0
    5.4099    2.8278    4.0650 H   0  0  0  0  0  0  0  0  0  0  0  0
    3.6837    2.4305    4.3626 H   0  0  0  0  0  0  0  0  0  0  0  0
    4.9736    1.3293    4.9542 H   0  0  0  0  0  0  0  0  0  0  0  0
 25 27  1  0  0  0  0
 26 27  2  0  0  0  0
 23 25  2  0  0  0  0
 24 26  1  0  0  0  0
 22 23  1  0  0  0  0
 22 24  2  0  0  0  0
 21 22  1  0  0  0  0
  1  3  1  0  0  0  0
  1  7  1  0  0  0  0
  1  2  2  0  0  0  0
 38 39  1  0  0  0  0
 39 47  1  0  0  0  0
 39 40  2  0  0  0  0
  8  9  1  0  0  0  0
  9 17  1  0  0  0  0
  9 10  2  0  0  0  0
 18 19  1  0  0  0  0
 19 37  1  0  0  0  0
 19 20  2  0  0  0  0
 38 41  1  0  0  0  0
  8 11  1  0  0  0  0
 47 48  1  0  0  0  0
 18 21  1  0  0  0  0
 37 38  1  0  0  0  0
  7  8  1  0  0  0  0
 17 18  1  0  0  0  0
 27 36  1  0  0  0  0
 25 34  1  0  0  0  0
 26 35  1  0  0  0  0
 23 32  1  0  0  0  0
 24 33  1  0  0  0  0
  3  4  1  0  0  0  0
  3  5  1  0  0  0  0
  3  6  1  0  0  0  0
 41 44  1  0  0  0  0
 41 45  1  0  0  0  0
 41 46  1  0  0  0  0
 11 14  1  0  0  0  0
 11 15  1  0  0  0  0
 11 16  1  0  0  0  0
 48 50  1  0  0  0  0
 48 51  1  0  0  0  0
 48 52  1  0  0  0  0
 21 30  1  0  0  0  0
 21 31  1  0  0  0  0
 38 43  1  0  0  0  0
  8 13  1  0  0  0  0
 18 29  1  0  0  0  0
 47 49  1  0  0  0  0
  7 12  1  0  0  0  0
 37 42  1  0  0  0  0
 17 28  1  0  0  0  0
M  END
$$$$

  -OEChem-05262214473D

 52 52  0     1  0  0  0  0  0999 V2000
   -1.8248    0.3424    3.9102 C   0  0  0  0  0  0  0  0  0  0  0  0
   -0.8774   -0.2723    3.4345 O   0  0  0  0  0  0  0  0  0  0  0  0
   -2.2566    0.0600    5.3109 C   0  0  0  0  0  0  0  0  0  0  0  0
   -3.0163   -0.7363    5.3643 H   0  0  0  0  0  0  0  0  0  0  0  0
   -1.4254   -0.2876    5.9452 H   0  0  0  0  0  0  0  0  0  0  0  0
   -2.6947    0.9149    5.8505 H   0  0  0  0  0  0  0  0  0  0  0  0
   -2.5745    1.3149    3.2691 N   0  0  0  0  0  0  0  0  0  0  0  0
   -2.3276    1.7409    1.9167 C   0  0  2  0  0  0  0  0  0  0  0  0
   -0.9926    1.1555    1.4755 C   0  0  0  0  0  0  0  0  0  0  0  0
   -0.1206    0.8028    2.2668 O   0  0  0  0  0  0  0  0  0  0  0  0
   -2.3188    3.2577    1.8072 C   0  0  0  0  0  0  0  0  0  0  0  0
   -3.3395    1.7507    3.7809 H   0  0  0  0  0  0  0  0  0  0  0  0
   -3.1317    1.3224    1.3015 H   0  0  0  0  0  0  0  0  0  0  0  0
   -1.5198    3.6949    2.4169 H   0  0  0  0  0  0  0  0  0  0  0  0
   -2.1594    3.5799    0.7729 H   0  0  0  0  0  0  0  0  0  0  0  0
   -3.2690    3.6789    2.1530 H   0  0  0  0  0  0  0  0  0  0  0  0
   -0.8700    1.1124    0.0921 N   0  0  0  0  0  0  0  0  0  0  0  0
    0.3073    0.6116   -0.5716 C   0  0  2  0  0  0  0  0  0  0  0  0
    1.4165    0.5385    0.4718 C   0  0  0  0  0  0  0  0  0  0  0  0
    1.2565    0.0420    1.5848 O   0  0  0  0  0  0  0  0  0  0  0  0
    0.7353    1.5035   -1.7427 C   0  0  0  0  0  0  0  0  0  0  0  0
   -0.2575    1.4905   -2.8793 C   0  0  0  0  0  0  0  0  0  0  0  0
   -0.2509    0.4428   -3.8001 C   0  0  0  0  0  0  0  0  0  0  0  0
   -1.1822    2.5268   -3.0087 C   0  0  0  0  0  0  0  0  0  0  0  0
   -1.1689    0.4313   -4.8502 C   0  0  0  0  0  0  0  0  0  0  0  0
   -2.1002    2.5154   -4.0588 C   0  0  0  0  0  0  0  0  0  0  0  0
   -2.0936    1.4675   -4.9796 C   0  0  0  0  0  0  0  0  0  0  0  0
   -1.6531    1.4091   -0.4852 H   0  0  0  0  0  0  0  0  0  0  0  0
    0.0668   -0.4026   -0.9113 H   0  0  0  0  0  0  0  0  0  0  0  0
    1.7237    1.1980   -2.1121 H   0  0  0  0  0  0  0  0  0  0  0  0
    0.8613    2.5417   -1.4081 H   0  0  0  0  0  0  0  0  0  0  0  0
    0.4658   -0.3690   -3.7071 H   0  0  0  0  0  0  0  0  0  0  0  0
   -1.1948    3.3472   -2.2960 H   0  0  0  0  0  0  0  0  0  0  0  0
   -1.1629   -0.3841   -5.5677 H   0  0  0  0  0  0  0  0  0  0  0  0
   -2.8192    3.3229   -4.1599 H   0  0  0  0  0  0  0  0  0  0  0  0
   -2.8074    1.4592   -5.7981 H   0  0  0  0  0  0  0  0  0  0  0  0
    2.6153    1.0478   -0.0077 N   0  0  0  0  0  0  0  0  0  0  0  0
    3.8328    1.0772    0.7704 C   0  0  2  0  0  0  0  0  0  0  0  0
    3.5107    1.6952    2.1246 C   0  0  0  0  0  0  0  0  0  0  0  0
    2.5431    2.4294    2.3138 O   0  0  0  0  0  0  0  0  0  0  0  0
    4.9245    1.8627    0.0604 C   0  0  0  0  0  0  0  0  0  0  0  0
    2.6380    1.4186   -0.9531 H   0  0  0  0  0  0  0  0  0  0  0  0
    4.1452    0.0364    0.9083 H   0  0  0  0  0  0  0  0  0  0  0  0
    4.6295    2.9080   -0.0867 H   0  0  0  0  0  0  0  0  0  0  0  0
    5.8548    1.8599    0.6379 H   0  0  0  0  0  0  0  0  0  0  0  0
    5.1340    1.4345   -0.9258 H   0  0  0  0  0  0  0  0  0  0  0  0
    4.4549    1.3653    3.0867 N   0  0  0  0  0  0  0  0  0  0  0  0
    4.3786    1.8395    4.4488 C   0  0  0  0  0  0  0  0  0  0  0  0
    5.2144    0.7351    2.8461 H   0  0  0  0  0  0  0  0  0  0  0  0
    4.9540    2.7720    4.5458 H   0  0  0  0  0  0  0  0  0  0  0  0
    3.3276    2.0281    4.7129 H   0  0  0  0  0  0  0  0  0  0  0  0
    4.7960    1.0792    5.1255 H   0  0  0  0  0  0  0  0  0  0  0  0
 25 27  1  0  0  0  0
 26 27  2  0  0  0  0
 23 25  2  0  0  0  0
 24 26  1  0  0  0  0
 22 23  1  0  0  0  0
 22 24  2  0  0  0  0
 21 22  1  0  0  0  0
  1  3  1  0  0  0  0
  1  7  1  0  0  0  0
  1  2  2  0  0  0  0
 38 39  1  0  0  0  0
 39 47  1  0  0  0  0
 39 40  2  0  0  0  0
  8  9  1  0  0  0  0
  9 17  1  0  0  0  0
  9 10  2  0  0  0  0
 18 19  1  0  0  0  0
 19 37  1  0  0  0  0
 19 20  2  0  0  0  0
 38 41  1  0  0  0  0
  8 11  1  0  0  0  0
 47 48  1  0  0  0  0
 18 21  1  0  0  0  0
 37 38  1  0  0  0  0
  7  8  1  0  0  0  0
 17 18  1  0  0  0  0
 27 36  1  0  0  0  0
 25 34  1  0  0  0  0
 26 35  1  0  0  0  0
 23 32  1  0  0  0  0
 24 33  1  0  0  0  0
  3  4  1  0  0  0  0
  3  5  1  0  0  0  0
  3  6  1  0  0  0  0
 41 44  1  0  0  0  0
 41 45  1  0  0  0  0
 41 46  1  0  0  0  0
 11 14  1  0  0  0  0
 11 15  1  0  0  0  0
 11 16  1  0  0  0  0
 48 50  1  0  0  0  0
 48 51  1  0  0  0  0
 48 52  1  0  0  0  0
 21 30  1  0  0  0  0
 21 31  1  0  0  0  0
 38 43  1  0  0  0  0
  8 13  1  0  0  0  0
 18 29  1  0  0  0  0
 47 49  1  0  0  0  0
  7 12  1  0  0  0  0
 37 42  1  0  0  0  0
 17 28  1  0  0  0  0
M  END
$$$$

  -OEChem-05262214473D

 52 52  0     1  0  0  0  0  0999 V2000
   -1.8248    0.3424    3.9102 C   0  0  0  0  0  0  0  0  0  0  0  0
   -0.8774   -0.2723    3.4345 O   0  0  0  0  0  0  0  0  0  0  0  0
   -2.2566    0.0600    5.3109 C   0  0  0  0  0  0  0  0  0  0  0  0
   -3.0163   -0.7363    5.3643 H   0  0  0  0  0  0  0  0  0  0  0  0
   -1.4254   -0.2876    5.9452 H   0  0  0  0  0  0  0  0  0  0  0  0
   -2.6947    0.9149    5.8505 H   0  0  0  0  0  0  0  0  0  0  0  0
   -2.5745    1.3149    3.2691 N   0  0  0  0  0  0  0  0  0  0  0  0
   -2.3276    1.7409    1.9167 C   0  0  2  0  0  0  0  0  0  0  0  0
   -0.9926    1.1555    1.4755 C   0  0  0  0  0  0  0  0  0  0  0  0
   -0.1206    0.8028    2.2668 O   0  0  0  0  0  0  0  0  0  0  0  0
   -2.3188    3.2577    1.8072 C   0  0  0  0  0  0  0  0  0  0  0  0
   -3.3395    1.7507    3.7809 H   0  0  0  0  0  0  0  0  0  0  0  0
   -3.1317    1.3224    1.3015 H   0  0  0  0  0  0  0  0  0  0  0  0
   -1.5198    3.6949    2.4169 H   0  0  0  0  0  0  0  0  0  0  0  0
   -2.1594    3.5799    0.7729 H   0  0  0  0  0  0  0  0  0  0  0  0
   -3.2690    3.6789    2.1530 H   0  0  0  0  0  0  0  0  0  0  0  0
   -0.8700    1.1124    0.0921 N   0  0  0  0  0  0  0  0  0  0  0  0
    0.3073    0.6116   -0.5716 C   0  0  2  0  0  0  0  0  0  0  0  0
    1.4165    0.5385    0.4718 C   0  0  0  0  0  0  0  0  0  0  0  0
    1.3526   -0.1801    1.4670 O   0  0  0  0  0  0  0  0  0  0  0  0
    0.7353    1.5035   -1.7427 C   0  0  0  0  0  0  0  0  0  0  0  0
   -0.2575    1.4905   -2.8793 C   0  0  0  0  0  0  0  0  0  0  0  0
   -0.2509    0.4428   -3.8001 C   0  0  0  0  0  0  0  0  0  0  0  0
   -1.1822    2.5268   -3.0087 C   0  0  0  0  0  0  0  0  0  0  0  0
   -1.1689    0.4313   -4.8502 C   0  0  0  0  0  0  0  0  0  0  0  0
   -2.1002    2.5154   -4.0588 C   0  0  0  0  0  0  0  0  0  0  0  0
   -2.0936    1.4675   -4.9796 C   0  0  0  0  0  0  0  0  0  0  0  0
   -1.6531    1.4091   -0.4852 H   0  0  0  0  0  0  0  0  0  0  0  0
    0.0668   -0.4026   -0.9113 H   0  0  0  0  0  0  0  0  0  0  0  0
    1.7237    1.1980   -2.1121 H   0  0  0  0  0  0  0  0  0  0  0  0
    0.8613    2.5417   -1.4081 H   0  0  0  0  0  0  0  0  0  0  0  0
    0.4658   -0.3690   -3.7071 H   0  0  0  0  0  0  0  0  0  0  0  0
   -1.1948    3.3472   -2.2960 H   0  0  0  0  0  0  0  0  0  0  0  0
   -1.1629   -0.3841   -5.5677 H   0  0  0  0  0  0  0  0  0  0  0  0
   -2.8192    3.3229   -4.1599 H   0  0  0  0  0  0  0  0  0  0  0  0
   -2.8074    1.4592   -5.7981 H   0  0  0  0  0  0  0  0  0  0  0  0
    2.5030    1.3323    0.1315 N   0  0  0  0  0  0  0  0  0  0  0  0
    3.6994    1.4275    0.9368 C   0  0  2  0  0  0  0  0  0  0  0  0
    3.2784    1.7113    2.3727 C   0  0  0  0  0  0  0  0  0  0  0  0
    2.1962    2.2144    2.6675 O   0  0  0  0  0  0  0  0  0  0  0  0
    4.6302    2.5128    0.4188 C   0  0  0  0  0  0  0  0  0  0  0  0
    2.4550    1.8735   -0.7267 H   0  0  0  0  0  0  0  0  0  0  0  0
    4.1930    0.4508    0.8866 H   0  0  0  0  0  0  0  0  0  0  0  0
    4.1529    3.4986    0.4613 H   0  0  0  0  0  0  0  0  0  0  0  0
    5.5487    2.5644    1.0126 H   0  0  0  0  0  0  0  0  0  0  0  0
    4.9082    2.3229   -0.6236 H   0  0  0  0  0  0  0  0  0  0  0  0
    4.2707    1.3764    3.2834 N   0  0  0  0  0  0  0  0  0  0  0  0
    4.1173    1.5631    4.7073 C   0  0  0  0  0  0  0  0  0  0  0  0
    5.1292    0.9469    2.9515 H   0  0  0  0  0  0  0  0  0  0  0  0
    4.5175    2.5467    4.9940 H   0  0  0  0  0  0  0  0  0  0  0  0
    3.0506    1.5103    4.9711 H   0  0  0  0  0  0  0  0  0  0  0  0
    4.6665    0.7739    5.2417 H   0  0  0  0  0  0  0  0  0  0  0  0
 25 27  1  0  0  0  0
 26 27  2  0  0  0  0
 23 25  2  0  0  0  0
 24 26  1  0  0  0  0
 22 23  1  0  0  0  0
 22 24  2  0  0  0  0
 21 22  1  0  0  0  0
  1  3  1  0  0  0  0
  1  7  1  0  0  0  0
  1  2  2  0  0  0  0
 38 39  1  0  0  0  0
 39 47  1  0  0  0  0
 39 40  2  0  0  0  0
  8  9  1  0  0  0  0
  9 17  1  0  0  0  0
  9 10  2  0  0  0  0
 18 19  1  0  0  0  0
 19 37  1  0  0  0  0
 19 20  2  0  0  0  0
 38 41  1  0  0  0  0
  8 11  1  0  0  0  0
 47 48  1  0  0  0  0
 18 21  1  0  0  0  0
 37 38  1  0  0  0  0
  7  8  1  0  0  0  0
 17 18  1  0  0  0  0
 27 36  1  0  0  0  0
 25 34  1  0  0  0  0
 26 35  1  0  0  0  0
 23 32  1  0  0  0  0
 24 33  1  0  0  0  0
  3  4  1  0  0  0  0
  3  5  1  0  0  0  0
  3  6  1  0  0  0  0
 41 44  1  0  0  0  0
 41 45  1  0  0  0  0
 41 46  1  0  0  0  0
 11 14  1  0  0  0  0
 11 15  1  0  0  0  0
 11 16  1  0  0  0  0
 48 50  1  0  0  0  0
 48 51  1  0  0  0  0
 48 52  1  0  0  0  0
 21 30  1  0  0  0  0
 21 31  1  0  0  0  0
 38 43  1  0  0  0  0
  8 13  1  0  0  0  0
 18 29  1  0  0  0  0
 47 49  1  0  0  0  0
  7 12  1  0  0  0  0
 37 42  1  0  0  0  0
 17 28  1  0  0  0  0
M  END
$$$$

  -OEChem-05262214473D

 52 52  0     1  0  0  0  0  0999 V2000
   -1.8248    0.3424    3.9102 C   0  0  0  0  0  0  0  0  0  0  0  0
   -0.8774   -0.2723    3.4345 O   0  0  0  0  0  0  0  0  0  0  0  0
   -2.2566    0.0600    5.3109 C   0  0  0  0  0  0  0  0  0  0  0  0
   -3.0163   -0.7363    5.3643 H   0  0  0  0  0  0  0  0  0  0  0  0
   -1.4254   -0.2876    5.9452 H   0  0  0  0  0  0  0  0  0  0  0  0
   -2.6947    0.9149    5.8505 H   0  0  0  0  0  0  0  0  0  0  0  0
   -2.5745    1.3149    3.2691 N   0  0  0  0  0  0  0  0  0  0  0  0
   -2.3276    1.7409    1.9167 C   0  0  2  0  0  0  0  0  0  0  0  0
   -0.9926    1.1555    1.4755 C   0  0  0  0  0  0  0  0  0  0  0  0
   -0.1206    0.8028    2.2668 O   0  0  0  0  0  0  0  0  0  0  0  0
   -2.3188    3.2577    1.8072 C   0  0  0  0  0  0  0  0  0  0  0  0
   -3.3395    1.7507    3.7809 H   0  0  0  0  0  0  0  0  0  0  0  0
   -3.1317    1.3224    1.3015 H   0  0  0  0  0  0  0  0  0  0  0  0
   -1.5198    3.6949    2.4169 H   0  0  0  0  0  0  0  0  0  0  0  0
   -2.1594    3.5799    0.7729 H   0  0  0  0  0  0  0  0  0  0  0  0
   -3.2690    3.6789    2.1530 H   0  0  0  0  0  0  0  0  0  0  0  0
   -0.8700    1.1124    0.0921 N   0  0  0  0  0  0  0  0  0  0  0  0
    0.3073    0.6116   -0.5716 C   0  0  2  0  0  0  0  0  0  0  0  0
    1.4165    0.5385    0.4718 C   0  0  0  0  0  0  0  0  0  0  0  0
    1.4863   -0.3554    1.3126 O   0  0  0  0  0  0  0  0  0  0  0  0
    0.7353    1.5035   -1.7427 C   0  0  0  0  0  0  0  0  0  0  0  0
   -0.2575    1.4905   -2.8793 C   0  0  0  0  0  0  0  0  0  0  0  0
   -0.2509    0.4428   -3.8001 C   0  0  0  0  0  0  0  0  0  0  0  0
   -1.1822    2.5268   -3.0087 C   0  0  0  0  0  0  0  0  0  0  0  0
   -1.1689    0.4313   -4.8502 C   0  0  0  0  0  0  0  0  0  0  0  0
   -2.1002    2.5154   -4.0588 C   0  0  0  0  0  0  0  0  0  0  0  0
   -2.0936    1.4675   -4.9796 C   0  0  0  0  0  0  0  0  0  0  0  0
   -1.6531    1.4091   -0.4852 H   0  0  0  0  0  0  0  0  0  0  0  0
    0.0668   -0.4026   -0.9113 H   0  0  0  0  0  0  0  0  0  0  0  0
    1.7237    1.1980   -2.1121 H   0  0  0  0  0  0  0  0  0  0  0  0
    0.8613    2.5417   -1.4081 H   0  0  0  0  0  0  0  0  0  0  0  0
    0.4658   -0.3690   -3.7071 H   0  0  0  0  0  0  0  0  0  0  0  0
   -1.1948    3.3472   -2.2960 H   0  0  0  0  0  0  0  0  0  0  0  0
   -1.1629   -0.3841   -5.5677 H   0  0  0  0  0  0  0  0  0  0  0  0
   -2.8192    3.3229   -4.1599 H   0  0  0  0  0  0  0  0  0  0  0  0
   -2.8074    1.4592   -5.7981 H   0  0  0  0  0  0  0  0  0  0  0  0
    2.3425    1.5609    0.3182 N   0  0  0  0  0  0  0  0  0  0  0  0
    3.5063    1.7108    1.1619 C   0  0  2  0  0  0  0  0  0  0  0  0
    3.0480    1.6389    2.6125 C   0  0  0  0  0  0  0  0  0  0  0  0
    1.8948    1.8787    2.9643 O   0  0  0  0  0  0  0  0  0  0  0  0
    4.2264    3.0211    0.8837 C   0  0  0  0  0  0  0  0  0  0  0  0
    2.1948    2.2378   -0.4246 H   0  0  0  0  0  0  0  0  0  0  0  0
    4.1660    0.8638    0.9443 H   0  0  0  0  0  0  0  0  0  0  0  0
    3.5811    3.8814    1.0960 H   0  0  0  0  0  0  0  0  0  0  0  0
    5.1237    3.1201    1.5034 H   0  0  0  0  0  0  0  0  0  0  0  0
    4.5290    3.0840   -0.1671 H   0  0  0  0  0  0  0  0  0  0  0  0
    4.0883    1.3176    3.4732 N   0  0  0  0  0  0  0  0  0  0  0  0
    3.9105    1.2011    4.9017 C   0  0  0  0  0  0  0  0  0  0  0  0
    5.0081    1.1165    3.0921 H   0  0  0  0  0  0  0  0  0  0  0  0
    4.1303    2.1675    5.3791 H   0  0  0  0  0  0  0  0  0  0  0  0
    2.8716    0.9126    5.1195 H   0  0  0  0  0  0  0  0  0  0  0  0
    4.5941    0.4342    5.2949 H   0  0  0  0  0  0  0  0  0  0  0  0
 25 27  1  0  0  0  0
 26 27  2  0  0  0  0
 23 25  2  0  0  0  0
 24 26  1  0  0  0  0
 22 23  1  0  0  0  0
 22 24  2  0  0  0  0
 21 22  1  0  0  0  0
  1  3  1  0  0  0  0
  1  7  1  0  0  0  0
  1  2  2  0  0  0  0
 38 39  1  0  0  0  0
 39 47  1  0  0  0  0
 39 40  2  0  0  0  0
  8  9  1  0  0  0  0
  9 17  1  0  0  0  0
  9 10  2  0  0  0  0
 18 19  1  0  0  0  0
 19 37  1  0  0  0  0
 19 20  2  0  0  0  0
 38 41  1  0  0  0  0
  8 11  1  0  0  0  0
 47 48  1  0  0  0  0
 18 21  1  0  0  0  0
 37 38  1  0  0  0  0
  7  8  1  0  0  0  0
 17 18  1  0  0  0  0
 27 36  1  0  0  0  0
 25 34  1  0  0  0  0
 26 35  1  0  0  0  0
 23 32  1  0  0  0  0
 24 33  1  0  0  0  0
  3  4  1  0  0  0  0
  3  5  1  0  0  0  0
  3  6  1  0  0  0  0
 41 44  1  0  0  0  0
 41 45  1  0  0  0  0
 41 46  1  0  0  0  0
 11 14  1  0  0  0  0
 11 15  1  0  0  0  0
 11 16  1  0  0  0  0
 48 50  1  0  0  0  0
 48 51  1  0  0  0  0
 48 52  1  0  0  0  0
 21 30  1  0  0  0  0
 21 31  1  0  0  0  0
 38 43  1  0  0  0  0
  8 13  1  0  0  0  0
 18 29  1  0  0  0  0
 47 49  1  0  0  0  0
  7 12  1  0  0  0  0
 37 42  1  0  0  0  0
 17 28  1  0  0  0  0
M  END
$$$$

  -OEChem-05262214473D

 52 52  0     1  0  0  0  0  0999 V2000
   -1.8248    0.3424    3.9102 C   0  0  0  0  0  0  0  0  0  0  0  0
   -0.8774   -0.2723    3.4345 O   0  0  0  0  0  0  0  0  0  0  0  0
   -2.2566    0.0600    5.3109 C   0  0  0  0  0  0  0  0  0  0  0  0
   -3.0163   -0.7363    5.3643 H   0  0  0  0  0  0  0  0  0  0  0  0
   -1.4254   -0.2876    5.9452 H   0  0  0  0  0  0  0  0  0  0  0  0
   -2.6947    0.9149    5.8505 H   0  0  0  0  0  0  0  0  0  0  0  0
   -2.5745    1.3149    3.2691 N   0  0  0  0  0  0  0  0  0  0  0  0
   -2.3276    1.7409    1.9167 C   0  0  2  0  0  0  0  0  0  0  0  0
   -0.9926    1.1555    1.4755 C   0  0  0  0  0  0  0  0  0  0  0  0
   -0.1206    0.8028    2.2668 O   0  0  0  0  0  0  0  0  0  0  0  0
   -2.3188    3.2577    1.8072 C   0  0  0  0  0  0  0  0  0  0  0  0
   -3.3395    1.7507    3.7809 H   0  0  0  0  0  0  0  0  0  0  0  0
   -3.1317    1.3224    1.3015 H   0  0  0  0  0  0  0  0  0  0  0  0
   -1.5198    3.6949    2.4169 H   0  0  0  0  0  0  0  0  0  0  0  0
   -2.1594    3.5799    0.7729 H   0  0  0  0  0  0  0  0  0  0  0  0
   -3.2690    3.6789    2.1530 H   0  0  0  0  0  0  0  0  0  0  0  0
   -0.8700    1.1124    0.0921 N   0  0  0  0  0  0  0  0  0  0  0  0
    0.3073    0.6116   -0.5716 C   0  0  2  0  0  0  0  0  0  0  0  0
    1.4165    0.5385    0.4718 C   0  0  0  0  0  0  0  0  0  0  0  0
    1.6484   -0.4720    1.1321 O   0  0  0  0  0  0  0  0  0  0  0  0
    0.7353    1.5035   -1.7427 C   0  0  0  0  0  0  0  0  0  0  0  0
   -0.2575    1.4905   -2.8793 C   0  0  0  0  0  0  0  0  0  0  0  0
   -0.2509    0.4428   -3.8001 C   0  0  0  0  0  0  0  0  0  0  0  0
   -1.1822    2.5268   -3.0087 C   0  0  0  0  0  0  0  0  0  0  0  0
   -1.1689    0.4313   -4.8502 C   0  0  0  0  0  0  0  0  0  0  0  0
   -2.1002    2.5154   -4.0588 C   0  0  0  0  0  0  0  0  0  0  0  0
   -2.0936    1.4675   -4.9796 C   0  0  0  0  0  0  0  0  0  0  0  0
   -1.6531    1.4091   -0.4852 H   0  0  0  0  0  0  0  0  0  0  0  0
    0.0668   -0.4026   -0.9113 H   0  0  0  0  0  0  0  0  0  0  0  0
    1.7237    1.1980   -2.1121 H   0  0  0  0  0  0  0  0  0  0  0  0
    0.8613    2.5417   -1.4081 H   0  0  0  0  0  0  0  0  0  0  0  0
    0.4658   -0.3690   -3.7071 H   0  0  0  0  0  0  0  0  0  0  0  0
   -1.1948    3.3472   -2.2960 H   0  0  0  0  0  0  0  0  0  0  0  0
   -1.1629   -0.3841   -5.5677 H   0  0  0  0  0  0  0  0  0  0  0  0
   -2.8192    3.3229   -4.1599 H   0  0  0  0  0  0  0  0  0  0  0  0
   -2.8074    1.4592   -5.7981 H   0  0  0  0  0  0  0  0  0  0  0  0
    2.1447    1.7182    0.5396 N   0  0  0  0  0  0  0  0  0  0  0  0
    3.2669    1.9079    1.4302 C   0  0  2  0  0  0  0  0  0  0  0  0
    2.8354    1.4830    2.8276 C   0  0  0  0  0  0  0  0  0  0  0  0
    1.6595    1.4451    3.1841 O   0  0  0  0  0  0  0  0  0  0  0  0
    3.7405    3.3531    1.4235 C   0  0  0  0  0  0  0  0  0  0  0  0
    1.8753    2.4868   -0.0674 H   0  0  0  0  0  0  0  0  0  0  0  0
    4.0660    1.2469    1.0774 H   0  0  0  0  0  0  0  0  0  0  0  0
    2.9531    4.0303    1.7740 H   0  0  0  0  0  0  0  0  0  0  0  0
    4.6085    3.4892    2.0769 H   0  0  0  0  0  0  0  0  0  0  0  0
    4.0223    3.6661    0.4124 H   0  0  0  0  0  0  0  0  0  0  0  0
    3.9202    1.1926    3.6431 N   0  0  0  0  0  0  0  0  0  0  0  0
    3.7725    0.7783    5.0188 C   0  0  0  0  0  0  0  0  0  0  0  0
    4.8594    1.2325    3.2583 H   0  0  0  0  0  0  0  0  0  0  0  0
    3.8186    1.6600    5.6749 H   0  0  0  0  0  0  0  0  0  0  0  0
    2.8027    0.2755    5.1481 H   0  0  0  0  0  0  0  0  0  0  0  0
    4.5837    0.0832    5.2813 H   0  0  0  0  0  0  0  0  0  0  0  0
 25 27  1  0  0  0  0
 26 27  2  0  0  0  0
 23 25  2  0  0  0  0
 24 26  1  0  0  0  0
 22 23  1  0  0  0  0
 22 24  2  0  0  0  0
 21 22  1  0  0  0  0
  1  3  1  0  0  0  0
  1  7  1  0  0  0  0
  1  2  2  0  0  0  0
 38 39  1  0  0  0  0
 39 47  1  0  0  0  0
 39 40  2  0  0  0  0
  8  9  1  0  0  0  0
  9 17  1  0  0  0  0
  9 10  2  0  0  0  0
 18 19  1  0  0  0  0
 19 37  1  0  0  0  0
 19 20  2  0  0  0  0
 38 41  1  0  0  0  0
  8 11  1  0  0  0  0
 47 48  1  0  0  0  0
 18 21  1  0  0  0  0
 37 38  1  0  0  0  0
  7  8  1  0  0  0  0
 17 18  1  0  0  0  0
 27 36  1  0  0  0  0
 25 34  1  0  0  0  0
 26 35  1  0  0  0  0
 23 32  1  0  0  0  0
 24 33  1  0  0  0  0
  3  4  1  0  0  0  0
  3  5  1  0  0  0  0
  3  6  1  0  0  0  0
 41 44  1  0  0  0  0
 41 45  1  0  0  0  0
 41 46  1  0  0  0  0
 11 14  1  0  0  0  0
 11 15  1  0  0  0  0
 11 16  1  0  0  0  0
 48 50  1  0  0  0  0
 48 51  1  0  0  0  0
 48 52  1  0  0  0  0
 21 30  1  0  0  0  0
 21 31  1  0  0  0  0
 38 43  1  0  0  0  0
  8 13  1  0  0  0  0
 18 29  1  0  0  0  0
 47 49  1  0  0  0  0
  7 12  1  0  0  0  0
 37 42  1  0  0  0  0
 17 28  1  0  0  0  0
M  END
$$$$

  -OEChem-05262214473D

 52 52  0     1  0  0  0  0  0999 V2000
   -1.8248    0.3424    3.9102 C   0  0  0  0  0  0  0  0  0  0  0  0
   -0.8774   -0.2723    3.4345 O   0  0  0  0  0  0  0  0  0  0  0  0
   -2.2566    0.0600    5.3109 C   0  0  0  0  0  0  0  0  0  0  0  0
   -3.0163   -0.7363    5.3643 H   0  0  0  0  0  0  0  0  0  0  0  0
   -1.4254   -0.2876    5.9452 H   0  0  0  0  0  0  0  0  0  0  0  0
   -2.6947    0.9149    5.8505 H   0  0  0  0  0  0  0  0  0  0  0  0
   -2.5745    1.3149    3.2691 N   0  0  0  0  0  0  0  0  0  0  0  0
   -2.3276    1.7409    1.9167 C   0  0  2  0  0  0  0  0  0  0  0  0
   -0.9926    1.1555    1.4755 C   0  0  0  0  0  0  0  0  0  0  0  0
   -0.1206    0.8028    2.2668 O   0  0  0  0  0  0  0  0  0  0  0  0
   -2.3188    3.2577    1.8072 C   0  0  0  0  0  0  0  0  0  0  0  0
   -3.3395    1.7507    3.7809 H   0  0  0  0  0  0  0  0  0  0  0  0
   -3.1317    1.3224    1.3015 H   0  0  0  0  0  0  0  0  0  0  0  0
   -1.5198    3.6949    2.4169 H   0  0  0  0  0  0  0  0  0  0  0  0
   -2.1594    3.5799    0.7729 H   0  0  0  0  0  0  0  0  0  0  0  0
   -3.2690    3.6789    2.1530 H   0  0  0  0  0  0  0  0  0  0  0  0
   -0.8700    1.1124    0.0921 N   0  0  0  0  0  0  0  0  0  0  0  0
    0.3073    0.6116   -0.5716 C   0  0  2  0  0  0  0  0  0  0  0  0
    1.4165    0.5385    0.4718 C   0  0  0  0  0  0  0  0  0  0  0  0
    1.8279   -0.5219    0.9378 O   0  0  0  0  0  0  0  0  0  0  0  0
    0.7353    1.5035   -1.7427 C   0  0  0  0  0  0  0  0  0  0  0  0
   -0.2575    1.4905   -2.8793 C   0  0  0  0  0  0  0  0  0  0  0  0
   -0.2509    0.4428   -3.8001 C   0  0  0  0  0  0  0  0  0  0  0  0
   -1.1822    2.5268   -3.0087 C   0  0  0  0  0  0  0  0  0  0  0  0
   -1.1689    0.4313   -4.8502 C   0  0  0  0  0  0  0  0  0  0  0  0
   -2.1002    2.5154   -4.0588 C   0  0  0  0  0  0  0  0  0  0  0  0
   -2.0936    1.4675   -4.9796 C   0  0  0  0  0  0  0  0  0  0  0  0
   -1.6531    1.4091   -0.4852 H   0  0  0  0  0  0  0  0  0  0  0  0
    0.0668   -0.4026   -0.9113 H   0  0  0  0  0  0  0  0  0  0  0  0
    1.7237    1.1980   -2.1121 H   0  0  0  0  0  0  0  0  0  0  0  0
    0.8613    2.5417   -1.4081 H   0  0  0  0  0  0  0  0  0  0  0  0
    0.4658   -0.3690   -3.7071 H   0  0  0  0  0  0  0  0  0  0  0  0
   -1.1948    3.3472   -2.2960 H   0  0  0  0  0  0  0  0  0  0  0  0
   -1.1629   -0.3841   -5.5677 H   0  0  0  0  0  0  0  0  0  0  0  0
   -2.8192    3.3229   -4.1599 H   0  0  0  0  0  0  0  0  0  0  0  0
   -2.8074    1.4592   -5.7981 H   0  0  0  0  0  0  0  0  0  0  0  0
    1.9229    1.7933    0.7805 N   0  0  0  0  0  0  0  0  0  0  0  0
    2.9974    2.0054    1.7236 C   0  0  2  0  0  0  0  0  0  0  0  0
    2.6549    1.2543    3.0035 C   0  0  0  0  0  0  0  0  0  0  0  0
    1.5063    0.9433    3.3118 O   0  0  0  0  0  0  0  0  0  0  0  0
    3.2056    3.4860    2.0014 C   0  0  0  0  0  0  0  0  0  0  0  0
    1.5180    2.6034    0.3206 H   0  0  0  0  0  0  0  0  0  0  0  0
    3.9000    1.5743    1.2769 H   0  0  0  0  0  0  0  0  0  0  0  0
    2.3117    3.9353    2.4492 H   0  0  0  0  0  0  0  0  0  0  0  0
    4.0385    3.6465    2.6939 H   0  0  0  0  0  0  0  0  0  0  0  0
    3.4225    4.0295    1.0755 H   0  0  0  0  0  0  0  0  0  0  0  0
    3.7778    1.0102    3.7817 N   0  0  0  0  0  0  0  0  0  0  0  0
    3.7127    0.3233    5.0505 C   0  0  0  0  0  0  0  0  0  0  0  0
    4.6931    1.2868    3.4389 H   0  0  0  0  0  0  0  0  0  0  0  0
    3.6038    1.0589    5.8611 H   0  0  0  0  0  0  0  0  0  0  0  0
    2.8487   -0.3575    5.0549 H   0  0  0  0  0  0  0  0  0  0  0  0
    4.6360   -0.2551    5.2021 H   0  0  0  0  0  0  0  0  0  0  0  0
 25 27  1  0  0  0  0
 26 27  2  0  0  0  0
 23 25  2  0  0  0  0
 24 26  1  0  0  0  0
 22 23  1  0  0  0  0
 22 24  2  0  0  0  0
 21 22  1  0  0  0  0
  1  3  1  0  0  0  0
  1  7  1  0  0  0  0
  1  2  2  0  0  0  0
 38 39  1  0  0  0  0
 39 47  1  0  0  0  0
 39 40  2  0  0  0  0
  8  9  1  0  0  0  0
  9 17  1  0  0  0  0
  9 10  2  0  0  0  0
 18 19  1  0  0  0  0
 19 37  1  0  0  0  0
 19 20  2  0  0  0  0
 38 41  1  0  0  0  0
  8 11  1  0  0  0  0
 47 48  1  0  0  0  0
 18 21  1  0  0  0  0
 37 38  1  0  0  0  0
  7  8  1  0  0  0  0
 17 18  1  0  0  0  0
 27 36  1  0  0  0  0
 25 34  1  0  0  0  0
 26 35  1  0  0  0  0
 23 32  1  0  0  0  0
 24 33  1  0  0  0  0
  3  4  1  0  0  0  0
  3  5  1  0  0  0  0
  3  6  1  0  0  0  0
 41 44  1  0  0  0  0
 41 45  1  0  0  0  0
 41 46  1  0  0  0  0
 11 14  1  0  0  0  0
 11 15  1  0  0  0  0
 11 16  1  0  0  0  0
 48 50  1  0  0  0  0
 48 51  1  0  0  0  0
 48 52  1  0  0  0  0
 21 30  1  0  0  0  0
 21 31  1  0  0  0  0
 38 43  1  0  0  0  0
  8 13  1  0  0  0  0
 18 29  1  0  0  0  0
 47 49  1  0  0  0  0
  7 12  1  0  0  0  0
 37 42  1  0  0  0  0
 17 28  1  0  0  0  0
M  END
$$$$

  -OEChem-05262214473D

 52 52  0     1  0  0  0  0  0999 V2000
   -1.8248    0.3424    3.9102 C   0  0  0  0  0  0  0  0  0  0  0  0
   -0.8774   -0.2723    3.4345 O   0  0  0  0  0  0  0  0  0  0  0  0
   -2.2566    0.0600    5.3109 C   0  0  0  0  0  0  0  0  0  0  0  0
   -3.0163   -0.7363    5.3643 H   0  0  0  0  0  0  0  0  0  0  0  0
   -1.4254   -0.2876    5.9452 H   0  0  0  0  0  0  0  0  0  0  0  0
   -2.6947    0.9149    5.8505 H   0  0  0  0  0  0  0  0  0  0  0  0
   -2.5745    1.3149    3.2691 N   0  0  0  0  0  0  0  0  0  0  0  0
   -2.3276    1.7409    1.9167 C   0  0  2  0  0  0  0  0  0  0  0  0
   -0.9926    1.1555    1.4755 C   0  0  0  0  0  0  0  0  0  0  0  0
   -0.1206    0.8028    2.2668 O   0  0  0  0  0  0  0  0  0  0  0  0
   -2.3188    3.2577    1.8072 C   0  0  0  0  0  0  0  0  0  0  0  0
   -3.3395    1.7507    3.7809 H   0  0  0  0  0  0  0  0  0  0  0  0
   -3.1317    1.3224    1.3015 H   0  0  0  0  0  0  0  0  0  0  0  0
   -1.5198    3.6949    2.4169 H   0  0  0  0  0  0  0  0  0  0  0  0
   -2.1594    3.5799    0.7729 H   0  0  0  0  0  0  0  0  0  0  0  0
   -3.2690    3.6789    2.1530 H   0  0  0  0  0  0  0  0  0  0  0  0
   -0.8700    1.1124    0.0921 N   0  0  0  0  0  0  0  0  0  0  0  0
    0.3073    0.6116   -0.5716 C   0  0  2  0  0  0  0  0  0  0  0  0
    1.4165    0.5385    0.4718 C   0  0  0  0  0  0  0  0  0  0  0  0
    2.0125   -0.5018    0.7429 O   0  0  0  0  0  0  0  0  0  0  0  0
    0.7353    1.5035   -1.7427 C   0  0  0  0  0  0  0  0  0  0  0  0
   -0.2575    1.4905   -2.8793 C   0  0  0  0  0  0  0  0  0  0  0  0
   -0.2509    0.4428   -3.8001 C   0  0  0  0  0  0  0  0  0  0  0  0
   -1.1822    2.5268   -3.0087 C   0  0  0  0  0  0  0  0  0  0  0  0
   -1.1689    0.4313   -4.8502 C   0  0  0  0  0  0  0  0  0  0  0  0
   -2.1002    2.5154   -4.0588 C   0  0  0  0  0  0  0  0  0  0  0  0
   -2.0936    1.4675   -4.9796 C   0  0  0  0  0  0  0  0  0  0  0  0
   -1.6531    1.4091   -0.4852 H   0  0  0  0  0  0  0  0  0  0  0  0
    0.0668   -0.4026   -0.9113 H   0  0  0  0  0  0  0  0  0  0  0  0
    1.7237    1.1980   -2.1121 H   0  0  0  0  0  0  0  0  0  0  0  0
    0.8613    2.5417   -1.4081 H   0  0  0  0  0  0  0  0  0  0  0  0
    0.4658   -0.3690   -3.7071 H   0  0  0  0  0  0  0  0  0  0  0  0
   -1.1948    3.3472   -2.2960 H   0  0  0  0  0  0  0  0  0  0  0  0
   -1.1629   -0.3841   -5.5677 H   0  0  0  0  0  0  0  0  0  0  0  0
   -2.8192    3.3229   -4.1599 H   0  0  0  0  0  0  0  0  0  0  0  0
   -2.8074    1.4592   -5.7981 H   0  0  0  0  0  0  0  0  0  0  0  0
    1.6924    1.7813    1.0247 N   0  0  0  0  0  0  0  0  0  0  0  0
    2.7162    1.9966    2.0219 C   0  0  2  0  0  0  0  0  0  0  0  0
    2.5189    0.9683    3.1280 C   0  0  0  0  0  0  0  0  0  0  0  0
    1.4456    0.4074    3.3387 O   0  0  0  0  0  0  0  0  0  0  0  0
    2.6583    3.4108    2.5780 C   0  0  0  0  0  0  0  0  0  0  0  0
    1.1475    2.5797    0.7128 H   0  0  0  0  0  0  0  0  0  0  0  0
    3.6791    1.8236    1.5291 H   0  0  0  0  0  0  0  0  0  0  0  0
    1.7007    3.6028    3.0755 H   0  0  0  0  0  0  0  0  0  0  0  0
    3.4523    3.5812    3.3125 H   0  0  0  0  0  0  0  0  0  0  0  0
    2.7705    4.1494    1.7769 H   0  0  0  0  0  0  0  0  0  0  0  0
    3.6709    0.7826    3.8794 N   0  0  0  0  0  0  0  0  0  0  0  0
    3.7351   -0.1327    4.9948 C   0  0  0  0  0  0  0  0  0  0  0  0
    4.5206    1.2758    3.6215 H   0  0  0  0  0  0  0  0  0  0  0  0
    3.5004    0.4052    5.9252 H   0  0  0  0  0  0  0  0  0  0  0  0
    3.0063   -0.9432    4.8462 H   0  0  0  0  0  0  0  0  0  0  0  0
    4.7474   -0.5577    5.0624 H   0  0  0  0  0  0  0  0  0  0  0  0
 25 27  1  0  0  0  0
 26 27  2  0  0  0  0
 23 25  2  0  0  0  0
 24 26  1  0  0  0  0
 22 23  1  0  0  0  0
 22 24  2  0  0  0  0
 21 22  1  0  0  0  0
  1  3  1  0  0  0  0
  1  7  1  0  0  0  0
  1  2  2  0  0  0  0
 38 39  1  0  0  0  0
 39 47  1  0  0  0  0
 39 40  2  0  0  0  0
  8  9  1  0  0  0  0
  9 17  1  0  0  0  0
  9 10  2  0  0  0  0
 18 19  1  0  0  0  0
 19 37  1  0  0  0  0
 19 20  2  0  0  0  0
 38 41  1  0  0  0  0
  8 11  1  0  0  0  0
 47 48  1  0  0  0  0
 18 21  1  0  0  0  0
 37 38  1  0  0  0  0
  7  8  1  0  0  0  0
 17 18  1  0  0  0  0
 27 36  1  0  0  0  0
 25 34  1  0  0  0  0
 26 35  1  0  0  0  0
 23 32  1  0  0  0  0
 24 33  1  0  0  0  0
  3  4  1  0  0  0  0
  3  5  1  0  0  0  0
  3  6  1  0  0  0  0
 41 44  1  0  0  0  0
 41 45  1  0  0  0  0
 41 46  1  0  0  0  0
 11 14  1  0  0  0  0
 11 15  1  0  0  0  0
 11 16  1  0  0  0  0
 48 50  1  0  0  0  0
 48 51  1  0  0  0  0
 48 52  1  0  0  0  0
 21 30  1  0  0  0  0
 21 31  1  0  0  0  0
 38 43  1  0  0  0  0
  8 13  1  0  0  0  0
 18 29  1  0  0  0  0
 47 49  1  0  0  0  0
  7 12  1  0  0  0  0
 37 42  1  0  0  0  0
 17 28  1  0  0  0  0
M  END
$$$$

  -OEChem-05262214473D

 52 52  0     1  0  0  0  0  0999 V2000
   -1.8248    0.3424    3.9102 C   0  0  0  0  0  0  0  0  0  0  0  0
   -0.8774   -0.2723    3.4345 O   0  0  0  0  0  0  0  0  0  0  0  0
   -2.2566    0.0600    5.3109 C   0  0  0  0  0  0  0  0  0  0  0  0
   -3.0163   -0.7363    5.3643 H   0  0  0  0  0  0  0  0  0  0  0  0
   -1.4254   -0.2876    5.9452 H   0  0  0  0  0  0  0  0  0  0  0  0
   -2.6947    0.9149    5.8505 H   0  0  0  0  0  0  0  0  0  0  0  0
   -2.5745    1.3149    3.2691 N   0  0  0  0  0  0  0  0  0  0  0  0
   -2.3276    1.7409    1.9167 C   0  0  2  0  0  0  0  0  0  0  0  0
   -0.9926    1.1555    1.4755 C   0  0  0  0  0  0  0  0  0  0  0  0
   -0.1206    0.8028    2.2668 O   0  0  0  0  0  0  0  0  0  0  0  0
   -2.3188    3.2577    1.8072 C   0  0  0  0  0  0  0  0  0  0  0  0
   -3.3395    1.7507    3.7809 H   0  0  0  0  0  0  0  0  0  0  0  0
   -3.1317    1.3224    1.3015 H   0  0  0  0  0  0  0  0  0  0  0  0
   -1.5198    3.6949    2.4169 H   0  0  0  0  0  0  0  0  0  0  0  0
   -2.1594    3.5799    0.7729 H   0  0  0  0  0  0  0  0  0  0  0  0
   -3.2690    3.6789    2.1530 H   0  0  0  0  0  0  0  0  0  0  0  0
   -0.8700    1.1124    0.0921 N   0  0  0  0  0  0  0  0  0  0  0  0
    0.3073    0.6116   -0.5716 C   0  0  2  0  0  0  0  0  0  0  0  0
    1.4165    0.5385    0.4718 C   0  0  0  0  0  0  0  0  0  0  0  0
    2.1897   -0.4129    0.5608 O   0  0  0  0  0  0  0  0  0  0  0  0
    0.7353    1.5035   -1.7427 C   0  0  0  0  0  0  0  0  0  0  0  0
   -0.2575    1.4905   -2.8793 C   0  0  0  0  0  0  0  0  0  0  0  0
   -0.2509    0.4428   -3.8001 C   0  0  0  0  0  0  0  0  0  0  0  0
   -1.1822    2.5268   -3.0087 C   0  0  0  0  0  0  0  0  0  0  0  0
   -1.1689    0.4313   -4.8502 C   0  0  0  0  0  0  0  0  0  0  0  0
   -2.1002    2.5154   -4.0588 C   0  0  0  0  0  0  0  0  0  0  0  0
   -2.0936    1.4675   -4.9796 C   0  0  0  0  0  0  0  0  0  0  0  0
   -1.6531    1.4091   -0.4852 H   0  0  0  0  0  0  0  0  0  0  0  0
    0.0668   -0.4026   -0.9113 H   0  0  0  0  0  0  0  0  0  0  0  0
    1.7237    1.1980   -2.1121 H   0  0  0  0  0  0  0  0  0  0  0  0
    0.8613    2.5417   -1.4081 H   0  0  0  0  0  0  0  0  0  0  0  0
    0.4658   -0.3690   -3.7071 H   0  0  0  0  0  0  0  0  0  0  0  0
   -1.1948    3.3472   -2.2960 H   0  0  0  0  0  0  0  0  0  0  0  0
   -1.1629   -0.3841   -5.5677 H   0  0  0  0  0  0  0  0  0  0  0  0
   -2.8192    3.3229   -4.1599 H   0  0  0  0  0  0  0  0  0  0  0  0
   -2.8074    1.4592   -5.7981 H   0  0  0  0  0  0  0  0  0  0  0  0
    1.4689    1.6829    1.2554 N   0  0  0  0  0  0  0  0  0  0  0  0
    2.4424    1.8820    2.3050 C   0  0  2  0  0  0  0  0  0  0  0  0
    2.4367    0.6445    3.1927 C   0  0  0  0  0  0  0  0  0  0  0  0
    1.4816   -0.1261    3.2631 O   0  0  0  0  0  0  0  0  0  0  0  0
    2.1358    3.1327    3.1140 C   0  0  0  0  0  0  0  0  0  0  0  0
    0.7889    2.4173    1.0826 H   0  0  0  0  0  0  0  0  0  0  0  0
    3.4185    1.9777    1.8170 H   0  0  0  0  0  0  0  0  0  0  0  0
    1.1615    3.0554    3.6103 H   0  0  0  0  0  0  0  0  0  0  0  0
    2.8900    3.2979    3.8904 H   0  0  0  0  0  0  0  0  0  0  0  0
    2.1109    4.0177    2.4690 H   0  0  0  0  0  0  0  0  0  0  0  0
    3.6067    0.5255    3.9296 N   0  0  0  0  0  0  0  0  0  0  0  0
    3.8381   -0.5587    4.8553 C   0  0  0  0  0  0  0  0  0  0  0  0
    4.3537    1.2002    3.7937 H   0  0  0  0  0  0  0  0  0  0  0  0
    3.5156   -0.2566    5.8627 H   0  0  0  0  0  0  0  0  0  0  0  0
    3.2650   -1.4417    4.5364 H   0  0  0  0  0  0  0  0  0  0  0  0
    4.9103   -0.8039    4.8720 H   0  0  0  0  0  0  0  0  0  0  0  0
 25 27  1  0  0  0  0
 26 27  2  0  0  0  0
 23 25  2  0  0  0  0
 24 26  1  0  0  0  0
 22 23  1  0  0  0  0
 22 24  2  0  0  0  0
 21 22  1  0  0  0  0
  1  3  1  0  0  0  0
  1  7  1  0  0  0  0
  1  2  2  0  0  0  0
 38 39  1  0  0  0  0
 39 47  1  0  0  0  0
 39 40  2  0  0  0  0
  8  9  1  0  0  0  0
  9 17  1  0  0  0  0
  9 10  2  0  0  0  0
 18 19  1  0  0  0  0
 19 37  1  0  0  0  0
 19 20  2  0  0  0  0
 38 41  1  0  0  0  0
  8 11  1  0  0  0  0
 47 48  1  0  0  0  0
 18 21  1  0  0  0  0
 37 38  1  0  0  0  0
  7  8  1  0  0  0  0
 17 18  1  0  0  0  0
 27 36  1  0  0  0  0
 25 34  1  0  0  0  0
 26 35  1  0  0  0  0
 23 32  1  0  0  0  0
 24 33  1  0  0  0  0
  3  4  1  0  0  0  0
  3  5  1  0  0  0  0
  3  6  1  0  0  0  0
 41 44  1  0  0  0  0
 41 45  1  0  0  0  0
 41 46  1  0  0  0  0
 11 14  1  0  0  0  0
 11 15  1  0  0  0  0
 11 16  1  0  0  0  0
 48 50  1  0  0  0  0
 48 51  1  0  0  0  0
 48 52  1  0  0  0  0
 21 30  1  0  0  0  0
 21 31  1  0  0  0  0
 38 43  1  0  0  0  0
  8 13  1  0  0  0  0
 18 29  1  0  0  0  0
 47 49  1  0  0  0  0
  7 12  1  0  0  0  0
 37 42  1  0  0  0  0
 17 28  1  0  0  0  0
M  END
$$$$

  -OEChem-05262214473D

 52 52  0     1  0  0  0  0  0999 V2000
   -1.8248    0.3424    3.9102 C   0  0  0  0  0  0  0  0  0  0  0  0
   -0.8774   -0.2723    3.4345 O   0  0  0  0  0  0  0  0  0  0  0  0
   -2.2566    0.0600    5.3109 C   0  0  0  0  0  0  0  0  0  0  0  0
   -3.0163   -0.7363    5.3643 H   0  0  0  0  0  0  0  0  0  0  0  0
   -1.4254   -0.2876    5.9452 H   0  0  0  0  0  0  0  0  0  0  0  0
   -2.6947    0.9149    5.8505 H   0  0  0  0  0  0  0  0  0  0  0  0
   -2.5745    1.3149    3.2691 N   0  0  0  0  0  0  0  0  0  0  0  0
   -2.3276    1.7409    1.9167 C   0  0  2  0  0  0  0  0  0  0  0  0
   -0.9926    1.1555    1.4755 C   0  0  0  0  0  0  0  0  0  0  0  0
   -0.1206    0.8028    2.2668 O   0  0  0  0  0  0  0  0  0  0  0  0
   -2.3188    3.2577    1.8072 C   0  0  0  0  0  0  0  0  0  0  0  0
   -3.3395    1.7507    3.7809 H   0  0  0  0  0  0  0  0  0  0  0  0
   -3.1317    1.3224    1.3015 H   0  0  0  0  0  0  0  0  0  0  0  0
   -1.5198    3.6949    2.4169 H   0  0  0  0  0  0  0  0  0  0  0  0
   -2.1594    3.5799    0.7729 H   0  0  0  0  0  0  0  0  0  0  0  0
   -3.2690    3.6789    2.1530 H   0  0  0  0  0  0  0  0  0  0  0  0
   -0.8700    1.1124    0.0921 N   0  0  0  0  0  0  0  0  0  0  0  0
    0.3073    0.6116   -0.5716 C   0  0  2  0  0  0  0  0  0  0  0  0
    1.4165    0.5385    0.4718 C   0  0  0  0  0  0  0  0  0  0  0  0
    2.3474   -0.2614    0.4038 O   0  0  0  0  0  0  0  0  0  0  0  0
    0.7353    1.5035   -1.7427 C   0  0  0  0  0  0  0  0  0  0  0  0
   -0.2575    1.4905   -2.8793 C   0  0  0  0  0  0  0  0  0  0  0  0
   -0.2509    0.4428   -3.8001 C   0  0  0  0  0  0  0  0  0  0  0  0
   -1.1822    2.5268   -3.0087 C   0  0  0  0  0  0  0  0  0  0  0  0
   -1.1689    0.4313   -4.8502 C   0  0  0  0  0  0  0  0  0  0  0  0
   -2.1002    2.5154   -4.0588 C   0  0  0  0  0  0  0  0  0  0  0  0
   -2.0936    1.4675   -4.9796 C   0  0  0  0  0  0  0  0  0  0  0  0
   -1.6531    1.4091   -0.4852 H   0  0  0  0  0  0  0  0  0  0  0  0
    0.0668   -0.4026   -0.9113 H   0  0  0  0  0  0  0  0  0  0  0  0
    1.7237    1.1980   -2.1121 H   0  0  0  0  0  0  0  0  0  0  0  0
    0.8613    2.5417   -1.4081 H   0  0  0  0  0  0  0  0  0  0  0  0
    0.4658   -0.3690   -3.7071 H   0  0  0  0  0  0  0  0  0  0  0  0
   -1.1948    3.3472   -2.2960 H   0  0  0  0  0  0  0  0  0  0  0  0
   -1.1629   -0.3841   -5.5677 H   0  0  0  0  0  0  0  0  0  0  0  0
   -2.8192    3.3229   -4.1599 H   0  0  0  0  0  0  0  0  0  0  0  0
   -2.8074    1.4592   -5.7981 H   0  0  0  0  0  0  0  0  0  0  0  0
    1.2676    1.5047    1.4570 N   0  0  0  0  0  0  0  0  0  0  0  0
    2.1947    1.6696    2.5534 C   0  0  2  0  0  0  0  0  0  0  0  0
    2.4138    0.3050    3.1932 C   0  0  0  0  0  0  0  0  0  0  0  0
    1.6117   -0.6208    3.0901 O   0  0  0  0  0  0  0  0  0  0  0  0
    1.6737    2.6706    3.5728 C   0  0  0  0  0  0  0  0  0  0  0  0
    0.4667    2.1274    1.4048 H   0  0  0  0  0  0  0  0  0  0  0  0
    3.1358    2.0262    2.1208 H   0  0  0  0  0  0  0  0  0  0  0  0
    0.7311    2.3305    4.0171 H   0  0  0  0  0  0  0  0  0  0  0  0
    2.3899    2.8158    4.3883 H   0  0  0  0  0  0  0  0  0  0  0  0
    1.4884    3.6433    3.1045 H   0  0  0  0  0  0  0  0  0  0  0  0
    3.5896    0.2563    3.9289 N   0  0  0  0  0  0  0  0  0  0  0  0
    4.0149   -0.9257    4.6417 C   0  0  0  0  0  0  0  0  0  0  0  0
    4.2037    1.0653    3.9437 H   0  0  0  0  0  0  0  0  0  0  0  0
    3.6482   -0.8814    5.6779 H   0  0  0  0  0  0  0  0  0  0  0  0
    3.6069   -1.8191    4.1464 H   0  0  0  0  0  0  0  0  0  0  0  0
    5.1137   -0.9770    4.6436 H   0  0  0  0  0  0  0  0  0  0  0  0
 25 27  1  0  0  0  0
 26 27  2  0  0  0  0
 23 25  2  0  0  0  0
 24 26  1  0  0  0  0
 22 23  1  0  0  0  0
 22 24  2  0  0  0  0
 21 22  1  0  0  0  0
  1  3  1  0  0  0  0
  1  7  1  0  0  0  0
  1  2  2  0  0  0  0
 38 39  1  0  0  0  0
 39 47  1  0  0  0  0
 39 40  2  0  0  0  0
  8  9  1  0  0  0  0
  9 17  1  0  0  0  0
  9 10  2  0  0  0  0
 18 19  1  0  0  0  0
 19 37  1  0  0  0  0
 19 20  2  0  0  0  0
 38 41  1  0  0  0  0
  8 11  1  0  0  0  0
 47 48  1  0  0  0  0
 18 21  1  0  0  0  0
 37 38  1  0  0  0  0
  7  8  1  0  0  0  0
 17 18  1  0  0  0  0
 27 36  1  0  0  0  0
 25 34  1  0  0  0  0
 26 35  1  0  0  0  0
 23 32  1  0  0  0  0
 24 33  1  0  0  0  0
  3  4  1  0  0  0  0
  3  5  1  0  0  0  0
  3  6  1  0  0  0  0
 41 44  1  0  0  0  0
 41 45  1  0  0  0  0
 41 46  1  0  0  0  0
 11 14  1  0  0  0  0
 11 15  1  0  0  0  0
 11 16  1  0  0  0  0
 48 50  1  0  0  0  0
 48 51  1  0  0  0  0
 48 52  1  0  0  0  0
 21 30  1  0  0  0  0
 21 31  1  0  0  0  0
 38 43  1  0  0  0  0
  8 13  1  0  0  0  0
 18 29  1  0  0  0  0
 47 49  1  0  0  0  0
  7 12  1  0  0  0  0
 37 42  1  0  0  0  0
 17 28  1  0  0  0  0
M  END
$$$$

  -OEChem-05262214473D

 52 52  0     1  0  0  0  0  0999 V2000
   -1.8248    0.3424    3.9102 C   0  0  0  0  0  0  0  0  0  0  0  0
   -0.8774   -0.2723    3.4345 O   0  0  0  0  0  0  0  0  0  0  0  0
   -2.2566    0.0600    5.3109 C   0  0  0  0  0  0  0  0  0  0  0  0
   -3.0163   -0.7363    5.3643 H   0  0  0  0  0  0  0  0  0  0  0  0
   -1.4254   -0.2876    5.9452 H   0  0  0  0  0  0  0  0  0  0  0  0
   -2.6947    0.9149    5.8505 H   0  0  0  0  0  0  0  0  0  0  0  0
   -2.5745    1.3149    3.2691 N   0  0  0  0  0  0  0  0  0  0  0  0
   -2.3276    1.7409    1.9167 C   0  0  2  0  0  0  0  0  0  0  0  0
   -0.9926    1.1555    1.4755 C   0  0  0  0  0  0  0  0  0  0  0  0
   -0.1206    0.8028    2.2668 O   0  0  0  0  0  0  0  0  0  0  0  0
   -2.3188    3.2577    1.8072 C   0  0  0  0  0  0  0  0  0  0  0  0
   -3.3395    1.7507    3.7809 H   0  0  0  0  0  0  0  0  0  0  0  0
   -3.1317    1.3224    1.3015 H   0  0  0  0  0  0  0  0  0  0  0  0
   -1.5198    3.6949    2.4169 H   0  0  0  0  0  0  0  0  0  0  0  0
   -2.1594    3.5799    0.7729 H   0  0  0  0  0  0  0  0  0  0  0  0
   -3.2690    3.6789    2.1530 H   0  0  0  0  0  0  0  0  0  0  0  0
   -0.8700    1.1124    0.0921 N   0  0  0  0  0  0  0  0  0  0  0  0
    0.3073    0.6116   -0.5716 C   0  0  2  0  0  0  0  0  0  0  0  0
    1.4165    0.5385    0.4718 C   0  0  0  0  0  0  0  0  0  0  0  0
    2.4747   -0.0575    0.2827 O   0  0  0  0  0  0  0  0  0  0  0  0
    0.7353    1.5035   -1.7427 C   0  0  0  0  0  0  0  0  0  0  0  0
   -0.2575    1.4905   -2.8793 C   0  0  0  0  0  0  0  0  0  0  0  0
   -0.2509    0.4428   -3.8001 C   0  0  0  0  0  0  0  0  0  0  0  0
   -1.1822    2.5268   -3.0087 C   0  0  0  0  0  0  0  0  0  0  0  0
   -1.1689    0.4313   -4.8502 C   0  0  0  0  0  0  0  0  0  0  0  0
   -2.1002    2.5154   -4.0588 C   0  0  0  0  0  0  0  0  0  0  0  0
   -2.0936    1.4675   -4.9796 C   0  0  0  0  0  0  0  0  0  0  0  0
   -1.6531    1.4091   -0.4852 H   0  0  0  0  0  0  0  0  0  0  0  0
    0.0668   -0.4026   -0.9113 H   0  0  0  0  0  0  0  0  0  0  0  0
    1.7237    1.1980   -2.1121 H   0  0  0  0  0  0  0  0  0  0  0  0
    0.8613    2.5417   -1.4081 H   0  0  0  0  0  0  0  0  0  0  0  0
    0.4658   -0.3690   -3.7071 H   0  0  0  0  0  0  0  0  0  0  0  0
   -1.1948    3.3472   -2.2960 H   0  0  0  0  0  0  0  0  0  0  0  0
   -1.1629   -0.3841   -5.5677 H   0  0  0  0  0  0  0  0  0  0  0  0
   -2.8192    3.3229   -4.1599 H   0  0  0  0  0  0  0  0  0  0  0  0
   -2.8074    1.4592   -5.7981 H   0  0  0  0  0  0  0  0  0  0  0  0
    1.1022    1.2591    1.6156 N   0  0  0  0  0  0  0  0  0  0  0  0
    1.9900    1.3738    2.7503 C   0  0  2  0  0  0  0  0  0  0  0  0
    2.4518   -0.0271    3.1295 C   0  0  0  0  0  0  0  0  0  0  0  0
    1.8272   -1.0430    2.8314 O   0  0  0  0  0  0  0  0  0  0  0  0
    1.3034    2.0560    3.9233 C   0  0  0  0  0  0  0  0  0  0  0  0
    0.2029    1.7295    1.6574 H   0  0  0  0  0  0  0  0  0  0  0  0
    2.8505    1.9657    2.4200 H   0  0  0  0  0  0  0  0  0  0  0  0
    0.4387    1.4774    4.2681 H   0  0  0  0  0  0  0  0  0  0  0  0
    1.9860    2.1677    4.7722 H   0  0  0  0  0  0  0  0  0  0  0  0
    0.9456    3.0517    3.6400 H   0  0  0  0  0  0  0  0  0  0  0  0
    3.6208   -0.0066    3.8773 N   0  0  0  0  0  0  0  0  0  0  0  0
    4.2533   -1.2086    4.3685 C   0  0  0  0  0  0  0  0  0  0  0  0
    4.0808    0.8801    4.0613 H   0  0  0  0  0  0  0  0  0  0  0  0
    3.8893   -1.4266    5.3833 H   0  0  0  0  0  0  0  0  0  0  0  0
    4.0089   -2.0496    3.7029 H   0  0  0  0  0  0  0  0  0  0  0  0
    5.3436   -1.0653    4.3930 H   0  0  0  0  0  0  0  0  0  0  0  0
 25 27  1  0  0  0  0
 26 27  2  0  0  0  0
 23 25  2  0  0  0  0
 24 26  1  0  0  0  0
 22 23  1  0  0  0  0
 22 24  2  0  0  0  0
 21 22  1  0  0  0  0
  1  3  1  0  0  0  0
  1  7  1  0  0  0  0
  1  2  2  0  0  0  0
 38 39  1  0  0  0  0
 39 47  1  0  0  0  0
 39 40  2  0  0  0  0
  8  9  1  0  0  0  0
  9 17  1  0  0  0  0
  9 10  2  0  0  0  0
 18 19  1  0  0  0  0
 19 37  1  0  0  0  0
 19 20  2  0  0  0  0
 38 41  1  0  0  0  0
  8 11  1  0  0  0  0
 47 48  1  0  0  0  0
 18 21  1  0  0  0  0
 37 38  1  0  0  0  0
  7  8  1  0  0  0  0
 17 18  1  0  0  0  0
 27 36  1  0  0  0  0
 25 34  1  0  0  0  0
 26 35  1  0  0  0  0
 23 32  1  0  0  0  0
 24 33  1  0  0  0  0
  3  4  1  0  0  0  0
  3  5  1  0  0  0  0
  3  6  1  0  0  0  0
 41 44  1  0  0  0  0
 41 45  1  0  0  0  0
 41 46  1  0  0  0  0
 11 14  1  0  0  0  0
 11 15  1  0  0  0  0
 11 16  1  0  0  0  0
 48 50  1  0  0  0  0
 48 51  1  0  0  0  0
 48 52  1  0  0  0  0
 21 30  1  0  0  0  0
 21 31  1  0  0  0  0
 38 43  1  0  0  0  0
  8 13  1  0  0  0  0
 18 29  1  0  0  0  0
 47 49  1  0  0  0  0
  7 12  1  0  0  0  0
 37 42  1  0  0  0  0
 17 28  1  0  0  0  0
M  END
$$$$

  -OEChem-05262214473D

 52 52  0     1  0  0  0  0  0999 V2000
   -1.8248    0.3424    3.9102 C   0  0  0  0  0  0  0  0  0  0  0  0
   -0.8774   -0.2723    3.4345 O   0  0  0  0  0  0  0  0  0  0  0  0
   -2.2566    0.0600    5.3109 C   0  0  0  0  0  0  0  0  0  0  0  0
   -3.0163   -0.7363    5.3643 H   0  0  0  0  0  0  0  0  0  0  0  0
   -1.4254   -0.2876    5.9452 H   0  0  0  0  0  0  0  0  0  0  0  0
   -2.6947    0.9149    5.8505 H   0  0  0  0  0  0  0  0  0  0  0  0
   -2.5745    1.3149    3.2691 N   0  0  0  0  0  0  0  0  0  0  0  0
   -2.3276    1.7409    1.9167 C   0  0  2  0  0  0  0  0  0  0  0  0
   -0.9926    1.1555    1.4755 C   0  0  0  0  0  0  0  0  0  0  0  0
   -0.1206    0.8028    2.2668 O   0  0  0  0  0  0  0  0  0  0  0  0
   -2.3188    3.2577    1.8072 C   0  0  0  0  0  0  0  0  0  0  0  0
   -3.3395    1.7507    3.7809 H   0  0  0  0  0  0  0  0  0  0  0  0
   -3.1317    1.3224    1.3015 H   0  0  0  0  0  0  0  0  0  0  0  0
   -1.5198    3.6949    2.4169 H   0  0  0  0  0  0  0  0  0  0  0  0
   -2.1594    3.5799    0.7729 H   0  0  0  0  0  0  0  0  0  0  0  0
   -3.2690    3.6789    2.1530 H   0  0  0  0  0  0  0  0  0  0  0  0
   -0.8700    1.1124    0.0921 N   0  0  0  0  0  0  0  0  0  0  0  0
    0.3073    0.6116   -0.5716 C   0  0  2  0  0  0  0  0  0  0  0  0
    1.4165    0.5385    0.4718 C   0  0  0  0  0  0  0  0  0  0  0  0
    2.5632    0.1848    0.2057 O   0  0  0  0  0  0  0  0  0  0  0  0
    0.7353    1.5035   -1.7427 C   0  0  0  0  0  0  0  0  0  0  0  0
   -0.2575    1.4905   -2.8793 C   0  0  0  0  0  0  0  0  0  0  0  0
   -0.2509    0.4428   -3.8001 C   0  0  0  0  0  0  0  0  0  0  0  0
   -1.1822    2.5268   -3.0087 C   0  0  0  0  0  0  0  0  0  0  0  0
   -1.1689    0.4313   -4.8502 C   0  0  0  0  0  0  0  0  0  0  0  0
   -2.1002    2.5154   -4.0588 C   0  0  0  0  0  0  0  0  0  0  0  0
   -2.0936    1.4675   -4.9796 C   0  0  0  0  0  0  0  0  0  0  0  0
   -1.6531    1.4091   -0.4852 H   0  0  0  0  0  0  0  0  0  0  0  0
    0.0668   -0.4026   -0.9113 H   0  0  0  0  0  0  0  0  0  0  0  0
    1.7237    1.1980   -2.1121 H   0  0  0  0  0  0  0  0  0  0  0  0
    0.8613    2.5417   -1.4081 H   0  0  0  0  0  0  0  0  0  0  0  0
    0.4658   -0.3690   -3.7071 H   0  0  0  0  0  0  0  0  0  0  0  0
   -1.1948    3.3472   -2.2960 H   0  0  0  0  0  0  0  0  0  0  0  0
   -1.1629   -0.3841   -5.5677 H   0  0  0  0  0  0  0  0  0  0  0  0
   -2.8192    3.3229   -4.1599 H   0  0  0  0  0  0  0  0  0  0  0  0
   -2.8074    1.4592   -5.7981 H   0  0  0  0  0  0  0  0  0  0  0  0
    0.9839    0.9626    1.7206 N   0  0  0  0  0  0  0  0  0  0  0  0
    1.8422    1.0147    2.8822 C   0  0  2  0  0  0  0  0  0  0  0  0
    2.5482   -0.3291    3.0060 C   0  0  0  0  0  0  0  0  0  0  0  0
    2.1134   -1.3639    2.5047 O   0  0  0  0  0  0  0  0  0  0  0  0
    1.0504    1.3307    4.1415 C   0  0  0  0  0  0  0  0  0  0  0  0
    0.0153    1.2509    1.8232 H   0  0  0  0  0  0  0  0  0  0  0  0
    2.5819    1.8005    2.6940 H   0  0  0  0  0  0  0  0  0  0  0  0
    0.3042    0.5543    4.3464 H   0  0  0  0  0  0  0  0  0  0  0  0
    1.7060    1.3980    5.0160 H   0  0  0  0  0  0  0  0  0  0  0  0
    0.5194    2.2833    4.0393 H   0  0  0  0  0  0  0  0  0  0  0  0
    3.6982   -0.2453    3.7783 N   0  0  0  0  0  0  0  0  0  0  0  0
    4.5371   -1.3882    4.0542 C   0  0  0  0  0  0  0  0  0  0  0  0
    3.9935    0.6574    4.1385 H   0  0  0  0  0  0  0  0  0  0  0  0
    4.2224   -1.8551    4.9992 H   0  0  0  0  0  0  0  0  0  0  0  0
    4.4435   -2.1175    3.2361 H   0  0  0  0  0  0  0  0  0  0  0  0
    5.5845   -1.0626    4.1372 H   0  0  0  0  0  0  0  0  0  0  0  0
 25 27  1  0  0  0  0
 26 27  2  0  0  0  0
 23 25  2  0  0  0  0
 24 26  1  0  0  0  0
 22 23  1  0  0  0  0
 22 24  2  0  0  0  0
 21 22  1  0  0  0  0
  1  3  1  0  0  0  0
  1  7  1  0  0  0  0
  1  2  2  0  0  0  0
 38 39  1  0  0  0  0
 39 47  1  0  0  0  0
 39 40  2  0  0  0  0
  8  9  1  0  0  0  0
  9 17  1  0  0  0  0
  9 10  2  0  0  0  0
 18 19  1  0  0  0  0
 19 37  1  0  0  0  0
 19 20  2  0  0  0  0
 38 41  1  0  0  0  0
  8 11  1  0  0  0  0
 47 48  1  0  0  0  0
 18 21  1  0  0  0  0
 37 38  1  0  0  0  0
  7  8  1  0  0  0  0
 17 18  1  0  0  0  0
 27 36  1  0  0  0  0
 25 34  1  0  0  0  0
 26 35  1  0  0  0  0
 23 32  1  0  0  0  0
 24 33  1  0  0  0  0
  3  4  1  0  0  0  0
  3  5  1  0  0  0  0
  3  6  1  0  0  0  0
 41 44  1  0  0  0  0
 41 45  1  0  0  0  0
 41 46  1  0  0  0  0
 11 14  1  0  0  0  0
 11 15  1  0  0  0  0
 11 16  1  0  0  0  0
 48 50  1  0  0  0  0
 48 51  1  0  0  0  0
 48 52  1  0  0  0  0
 21 30  1  0  0  0  0
 21 31  1  0  0  0  0
 38 43  1  0  0  0  0
  8 13  1  0  0  0  0
 18 29  1  0  0  0  0
 47 49  1  0  0  0  0
  7 12  1  0  0  0  0
 37 42  1  0  0  0  0
 17 28  1  0  0  0  0
M  END
$$$$

  -OEChem-05262214473D

 52 52  0     1  0  0  0  0  0999 V2000
   -1.8248    0.3424    3.9102 C   0  0  0  0  0  0  0  0  0  0  0  0
   -0.8774   -0.2723    3.4345 O   0  0  0  0  0  0  0  0  0  0  0  0
   -2.2566    0.0600    5.3109 C   0  0  0  0  0  0  0  0  0  0  0  0
   -3.0163   -0.7363    5.3643 H   0  0  0  0  0  0  0  0  0  0  0  0
   -1.4254   -0.2876    5.9452 H   0  0  0  0  0  0  0  0  0  0  0  0
   -2.6947    0.9149    5.8505 H   0  0  0  0  0  0  0  0  0  0  0  0
   -2.5745    1.3149    3.2691 N   0  0  0  0  0  0  0  0  0  0  0  0
   -2.3276    1.7409    1.9167 C   0  0  2  0  0  0  0  0  0  0  0  0
   -0.9926    1.1555    1.4755 C   0  0  0  0  0  0  0  0  0  0  0  0
   -0.1206    0.8028    2.2668 O   0  0  0  0  0  0  0  0  0  0  0  0
   -2.3188    3.2577    1.8072 C   0  0  0  0  0  0  0  0  0  0  0  0
   -3.3395    1.7507    3.7809 H   0  0  0  0  0  0  0  0  0  0  0  0
   -3.1317    1.3224    1.3015 H   0  0  0  0  0  0  0  0  0  0  0  0
   -1.5198    3.6949    2.4169 H   0  0  0  0  0  0  0  0  0  0  0  0
   -2.1594    3.5799    0.7729 H   0  0  0  0  0  0  0  0  0  0  0  0
   -3.2690    3.6789    2.1530 H   0  0  0  0  0  0  0  0  0  0  0  0
   -0.8700    1.1124    0.0921 N   0  0  0  0  0  0  0  0  0  0  0  0
    0.3073    0.6116   -0.5716 C   0  0  2  0  0  0  0  0  0  0  0  0
    1.4165    0.5385    0.4718 C   0  0  0  0  0  0  0  0  0  0  0  0
    2.6067    0.4489    0.1780 O   0  0  0  0  0  0  0  0  0  0  0  0
    0.7353    1.5035   -1.7427 C   0  0  0  0  0  0  0  0  0  0  0  0
   -0.2575    1.4905   -2.8793 C   0  0  0  0  0  0  0  0  0  0  0  0
   -0.2509    0.4428   -3.8001 C   0  0  0  0  0  0  0  0  0  0  0  0
   -1.1822    2.5268   -3.0087 C   0  0  0  0  0  0  0  0  0  0  0  0
   -1.1689    0.4313   -4.8502 C   0  0  0  0  0  0  0  0  0  0  0  0
   -2.1002    2.5154   -4.0588 C   0  0  0  0  0  0  0  0  0  0  0  0
   -2.0936    1.4675   -4.9796 C   0  0  0  0  0  0  0  0  0  0  0  0
   -1.6531    1.4091   -0.4852 H   0  0  0  0  0  0  0  0  0  0  0  0
    0.0668   -0.4026   -0.9113 H   0  0  0  0  0  0  0  0  0  0  0  0
    1.7237    1.1980   -2.1121 H   0  0  0  0  0  0  0  0  0  0  0  0
    0.8613    2.5417   -1.4081 H   0  0  0  0  0  0  0  0  0  0  0  0
    0.4658   -0.3690   -3.7071 H   0  0  0  0  0  0  0  0  0  0  0  0
   -1.1948    3.3472   -2.2960 H   0  0  0  0  0  0  0  0  0  0  0  0
   -1.1629   -0.3841   -5.5677 H   0  0  0  0  0  0  0  0  0  0  0  0
   -2.8192    3.3229   -4.1599 H   0  0  0  0  0  0  0  0  0  0  0  0
   -2.8074    1.4592   -5.7981 H   0  0  0  0  0  0  0  0  0  0  0  0
    0.9209    0.6355    1.7646 N   0  0  0  0  0  0  0  0  0  0  0  0
    1.7614    0.6168    2.9402 C   0  0  2  0  0  0  0  0  0  0  0  0
    2.6963   -0.5806    2.8309 C   0  0  0  0  0  0  0  0  0  0  0  0
    2.4507   -1.5617    2.1322 O   0  0  0  0  0  0  0  0  0  0  0  0
    0.9317    0.5442    4.2126 C   0  0  0  0  0  0  0  0  0  0  0  0
   -0.0831    0.7242    1.8909 H   0  0  0  0  0  0  0  0  0  0  0  0
    2.3482    1.5417    2.9242 H   0  0  0  0  0  0  0  0  0  0  0  0
    0.3368   -0.3758    4.2465 H   0  0  0  0  0  0  0  0  0  0  0  0
    1.5687    0.5589    5.1031 H   0  0  0  0  0  0  0  0  0  0  0  0
    0.2389    1.3904    4.2749 H   0  0  0  0  0  0  0  0  0  0  0  0
    3.8164   -0.4436    3.6388 N   0  0  0  0  0  0  0  0  0  0  0  0
    4.8469   -1.4522    3.7203 C   0  0  0  0  0  0  0  0  0  0  0  0
    3.9477    0.4122    4.1700 H   0  0  0  0  0  0  0  0  0  0  0  0
    4.6249   -2.1376    4.5516 H   0  0  0  0  0  0  0  0  0  0  0  0
    4.8812   -2.0183    2.7778 H   0  0  0  0  0  0  0  0  0  0  0  0
    5.8198   -0.9691    3.8935 H   0  0  0  0  0  0  0  0  0  0  0  0
 25 27  1  0  0  0  0
 26 27  2  0  0  0  0
 23 25  2  0  0  0  0
 24 26  1  0  0  0  0
 22 23  1  0  0  0  0
 22 24  2  0  0  0  0
 21 22  1  0  0  0  0
  1  3  1  0  0  0  0
  1  7  1  0  0  0  0
  1  2  2  0  0  0  0
 38 39  1  0  0  0  0
 39 47  1  0  0  0  0
 39 40  2  0  0  0  0
  8  9  1  0  0  0  0
  9 17  1  0  0  0  0
  9 10  2  0  0  0  0
 18 19  1  0  0  0  0
 19 37  1  0  0  0  0
 19 20  2  0  0  0  0
 38 41  1  0  0  0  0
  8 11  1  0  0  0  0
 47 48  1  0  0  0  0
 18 21  1  0  0  0  0
 37 38  1  0  0  0  0
  7  8  1  0  0  0  0
 17 18  1  0  0  0  0
 27 36  1  0  0  0  0
 25 34  1  0  0  0  0
 26 35  1  0  0  0  0
 23 32  1  0  0  0  0
 24 33  1  0  0  0  0
  3  4  1  0  0  0  0
  3  5  1  0  0  0  0
  3  6  1  0  0  0  0
 41 44  1  0  0  0  0
 41 45  1  0  0  0  0
 41 46  1  0  0  0  0
 11 14  1  0  0  0  0
 11 15  1  0  0  0  0
 11 16  1  0  0  0  0
 48 50  1  0  0  0  0
 48 51  1  0  0  0  0
 48 52  1  0  0  0  0
 21 30  1  0  0  0  0
 21 31  1  0  0  0  0
 38 43  1  0  0  0  0
  8 13  1  0  0  0  0
 18 29  1  0  0  0  0
 47 49  1  0  0  0  0
  7 12  1  0  0  0  0
 37 42  1  0  0  0  0
 17 28  1  0  0  0  0
M  END
$$$$

  -OEChem-05262214473D

 52 52  0     1  0  0  0  0  0999 V2000
   -1.8248    0.3424    3.9102 C   0  0  0  0  0  0  0  0  0  0  0  0
   -0.8774   -0.2723    3.4345 O   0  0  0  0  0  0  0  0  0  0  0  0
   -2.2566    0.0600    5.3109 C   0  0  0  0  0  0  0  0  0  0  0  0
   -3.0163   -0.7363    5.3643 H   0  0  0  0  0  0  0  0  0  0  0  0
   -1.4254   -0.2876    5.9452 H   0  0  0  0  0  0  0  0  0  0  0  0
   -2.6947    0.9149    5.8505 H   0  0  0  0  0  0  0  0  0  0  0  0
   -2.5745    1.3149    3.2691 N   0  0  0  0  0  0  0  0  0  0  0  0
   -2.3276    1.7409    1.9167 C   0  0  2  0  0  0  0  0  0  0  0  0
   -0.9926    1.1555    1.4755 C   0  0  0  0  0  0  0  0  0  0  0  0
   -0.1206    0.8028    2.2668 O   0  0  0  0  0  0  0  0  0  0  0  0
   -2.3188    3.2577    1.8072 C   0  0  0  0  0  0  0  0  0  0  0  0
   -3.3395    1.7507    3.7809 H   0  0  0  0  0  0  0  0  0  0  0  0
   -3.1317    1.3224    1.3015 H   0  0  0  0  0  0  0  0  0  0  0  0
   -1.5198    3.6949    2.4169 H   0  0  0  0  0  0  0  0  0  0  0  0
   -2.1594    3.5799    0.7729 H   0  0  0  0  0  0  0  0  0  0  0  0
   -3.2690    3.6789    2.1530 H   0  0  0  0  0  0  0  0  0  0  0  0
   -0.8700    1.1124    0.0921 N   0  0  0  0  0  0  0  0  0  0  0  0
    0.3073    0.6116   -0.5716 C   0  0  2  0  0  0  0  0  0  0  0  0
    1.4165    0.5385    0.4718 C   0  0  0  0  0  0  0  0  0  0  0  0
    2.6022    0.7171    0.2015 O   0  0  0  0  0  0  0  0  0  0  0  0
    0.7353    1.5035   -1.7427 C   0  0  0  0  0  0  0  0  0  0  0  0
   -0.2575    1.4905   -2.8793 C   0  0  0  0  0  0  0  0  0  0  0  0
   -0.2509    0.4428   -3.8001 C   0  0  0  0  0  0  0  0  0  0  0  0
   -1.1822    2.5268   -3.0087 C   0  0  0  0  0  0  0  0  0  0  0  0
   -1.1689    0.4313   -4.8502 C   0  0  0  0  0  0  0  0  0  0  0  0
   -2.1002    2.5154   -4.0588 C   0  0  0  0  0  0  0  0  0  0  0  0
   -2.0936    1.4675   -4.9796 C   0  0  0  0  0  0  0  0  0  0  0  0
   -1.6531    1.4091   -0.4852 H   0  0  0  0  0  0  0  0  0  0  0  0
    0.0668   -0.4026   -0.9113 H   0  0  0  0  0  0  0  0  0  0  0  0
    1.7237    1.1980   -2.1121 H   0  0  0  0  0  0  0  0  0  0  0  0
    0.8613    2.5417   -1.4081 H   0  0  0  0  0  0  0  0  0  0  0  0
    0.4658   -0.3690   -3.7071 H   0  0  0  0  0  0  0  0  0  0  0  0
   -1.1948    3.3472   -2.2960 H   0  0  0  0  0  0  0  0  0  0  0  0
   -1.1629   -0.3841   -5.5677 H   0  0  0  0  0  0  0  0  0  0  0  0
   -2.8192    3.3229   -4.1599 H   0  0  0  0  0  0  0  0  0  0  0  0
   -2.8074    1.4592   -5.7981 H   0  0  0  0  0  0  0  0  0  0  0  0
    0.9174    0.3001    1.7448 N   0  0  0  0  0  0  0  0  0  0  0  0
    1.7532    0.2073    2.9203 C   0  0  2  0  0  0  0  0  0  0  0  0
    2.8860   -0.7642    2.6163 C   0  0  0  0  0  0  0  0  0  0  0  0
    2.8162   -1.6229    1.7394 O   0  0  0  0  0  0  0  0  0  0  0  0
    0.9555   -0.2499    4.1316 C   0  0  0  0  0  0  0  0  0  0  0  0
   -0.0857    0.1852    1.8559 H   0  0  0  0  0  0  0  0  0  0  0  0
    2.1656    1.2070    3.0949 H   0  0  0  0  0  0  0  0  0  0  0  0
    0.5344   -1.2497    3.9753 H   0  0  0  0  0  0  0  0  0  0  0  0
    1.5837   -0.2923    5.0275 H   0  0  0  0  0  0  0  0  0  0  0  0
    0.1232    0.4338    4.3308 H   0  0  0  0  0  0  0  0  0  0  0  0
    3.9674   -0.5878    3.4681 N   0  0  0  0  0  0  0  0  0  0  0  0
    5.1616   -1.3964    3.3897 C   0  0  0  0  0  0  0  0  0  0  0  0
    3.9465    0.1613    4.1538 H   0  0  0  0  0  0  0  0  0  0  0  0
    5.0692   -2.2549    4.0710 H   0  0  0  0  0  0  0  0  0  0  0  0
    5.2920   -1.7586    2.3592 H   0  0  0  0  0  0  0  0  0  0  0  0
    6.0336   -0.7913    3.6787 H   0  0  0  0  0  0  0  0  0  0  0  0
 25 27  1  0  0  0  0
 26 27  2  0  0  0  0
 23 25  2  0  0  0  0
 24 26  1  0  0  0  0
 22 23  1  0  0  0  0
 22 24  2  0  0  0  0
 21 22  1  0  0  0  0
  1  3  1  0  0  0  0
  1  7  1  0  0  0  0
  1  2  2  0  0  0  0
 38 39  1  0  0  0  0
 39 47  1  0  0  0  0
 39 40  2  0  0  0  0
  8  9  1  0  0  0  0
  9 17  1  0  0  0  0
  9 10  2  0  0  0  0
 18 19  1  0  0  0  0
 19 37  1  0  0  0  0
 19 20  2  0  0  0  0
 38 41  1  0  0  0  0
  8 11  1  0  0  0  0
 47 48  1  0  0  0  0
 18 21  1  0  0  0  0
 37 38  1  0  0  0  0
  7  8  1  0  0  0  0
 17 18  1  0  0  0  0
 27 36  1  0  0  0  0
 25 34  1  0  0  0  0
 26 35  1  0  0  0  0
 23 32  1  0  0  0  0
 24 33  1  0  0  0  0
  3  4  1  0  0  0  0
  3  5  1  0  0  0  0
  3  6  1  0  0  0  0
 41 44  1  0  0  0  0
 41 45  1  0  0  0  0
 41 46  1  0  0  0  0
 11 14  1  0  0  0  0
 11 15  1  0  0  0  0
 11 16  1  0  0  0  0
 48 50  1  0  0  0  0
 48 51  1  0  0  0  0
 48 52  1  0  0  0  0
 21 30  1  0  0  0  0
 21 31  1  0  0  0  0
 38 43  1  0  0  0  0
  8 13  1  0  0  0  0
 18 29  1  0  0  0  0
 47 49  1  0  0  0  0
  7 12  1  0  0  0  0
 37 42  1  0  0  0  0
 17 28  1  0  0  0  0
M  END
$$$$

  -OEChem-05262214473D

 52 52  0     1  0  0  0  0  0999 V2000
   -1.8248    0.3424    3.9102 C   0  0  0  0  0  0  0  0  0  0  0  0
   -0.8774   -0.2723    3.4345 O   0  0  0  0  0  0  0  0  0  0  0  0
   -2.2566    0.0600    5.3109 C   0  0  0  0  0  0  0  0  0  0  0  0
   -3.0163   -0.7363    5.3643 H   0  0  0  0  0  0  0  0  0  0  0  0
   -1.4254   -0.2876    5.9452 H   0  0  0  0  0  0  0  0  0  0  0  0
   -2.6947    0.9149    5.8505 H   0  0  0  0  0  0  0  0  0  0  0  0
   -2.5745    1.3149    3.2691 N   0  0  0  0  0  0  0  0  0  0  0  0
   -2.3276    1.7409    1.9167 C   0  0  2  0  0  0  0  0  0  0  0  0
   -0.9926    1.1555    1.4755 C   0  0  0  0  0  0  0  0  0  0  0  0
   -0.1206    0.8028    2.2668 O   0  0  0  0  0  0  0  0  0  0  0  0
   -2.3188    3.2577    1.8072 C   0  0  0  0  0  0  0  0  0  0  0  0
   -3.3395    1.7507    3.7809 H   0  0  0  0  0  0  0  0  0  0  0  0
   -3.1317    1.3224    1.3015 H   0  0  0  0  0  0  0  0  0  0  0  0
   -1.5198    3.6949    2.4169 H   0  0  0  0  0  0  0  0  0  0  0  0
   -2.1594    3.5799    0.7729 H   0  0  0  0  0  0  0  0  0  0  0  0
   -3.2690    3.6789    2.1530 H   0  0  0  0  0  0  0  0  0  0  0  0
   -0.8700    1.1124    0.0921 N   0  0  0  0  0  0  0  0  0  0  0  0
    0.3073    0.6116   -0.5716 C   0  0  2  0  0  0  0  0  0  0  0  0
    1.4165    0.5385    0.4718 C   0  0  0  0  0  0  0  0  0  0  0  0
    2.5501    0.9708    0.2746 O   0  0  0  0  0  0  0  0  0  0  0  0
    0.7353    1.5035   -1.7427 C   0  0  0  0  0  0  0  0  0  0  0  0
   -0.2575    1.4905   -2.8793 C   0  0  0  0  0  0  0  0  0  0  0  0
   -0.2509    0.4428   -3.8001 C   0  0  0  0  0  0  0  0  0  0  0  0
   -1.1822    2.5268   -3.0087 C   0  0  0  0  0  0  0  0  0  0  0  0
   -1.1689    0.4313   -4.8502 C   0  0  0  0  0  0  0  0  0  0  0  0
   -2.1002    2.5154   -4.0588 C   0  0  0  0  0  0  0  0  0  0  0  0
   -2.0936    1.4675   -4.9796 C   0  0  0  0  0  0  0  0  0  0  0  0
   -1.6531    1.4091   -0.4852 H   0  0  0  0  0  0  0  0  0  0  0  0
    0.0668   -0.4026   -0.9113 H   0  0  0  0  0  0  0  0  0  0  0  0
    1.7237    1.1980   -2.1121 H   0  0  0  0  0  0  0  0  0  0  0  0
    0.8613    2.5417   -1.4081 H   0  0  0  0  0  0  0  0  0  0  0  0
    0.4658   -0.3690   -3.7071 H   0  0  0  0  0  0  0  0  0  0  0  0
   -1.1948    3.3472   -2.2960 H   0  0  0  0  0  0  0  0  0  0  0  0
   -1.1629   -0.3841   -5.5677 H   0  0  0  0  0  0  0  0  0  0  0  0
   -2.8192    3.3229   -4.1599 H   0  0  0  0  0  0  0  0  0  0  0  0
   -2.8074    1.4592   -5.7981 H   0  0  0  0  0  0  0  0  0  0  0  0
    0.9737   -0.0207    1.6625 N   0  0  0  0  0  0  0  0  0  0  0  0
    1.8180   -0.1860    2.8238 C   0  0  2  0  0  0  0  0  0  0  0  0
    3.1045   -0.8676    2.3768 C   0  0  0  0  0  0  0  0  0  0  0  0
    3.1849   -1.5432    1.3530 O   0  0  0  0  0  0  0  0  0  0  0  0
    1.1201   -0.9974    3.9042 C   0  0  0  0  0  0  0  0  0  0  0  0
    0.0077   -0.3292    1.7206 H   0  0  0  0  0  0  0  0  0  0  0  0
    2.0463    0.8192    3.1945 H   0  0  0  0  0  0  0  0  0  0  0  0
    0.8833   -2.0078    3.5512 H   0  0  0  0  0  0  0  0  0  0  0  0
    1.7499   -1.0975    4.7944 H   0  0  0  0  0  0  0  0  0  0  0  0
    0.1802   -0.5211    4.2033 H   0  0  0  0  0  0  0  0  0  0  0  0
    4.1410   -0.6683    3.2779 N   0  0  0  0  0  0  0  0  0  0  0  0
    5.4599   -1.2244    3.0847 C   0  0  0  0  0  0  0  0  0  0  0  0
    3.9899   -0.0782    4.0908 H   0  0  0  0  0  0  0  0  0  0  0  0
    5.5251   -2.1991    3.5903 H   0  0  0  0  0  0  0  0  0  0  0  0
    5.6481   -1.3561    2.0089 H   0  0  0  0  0  0  0  0  0  0  0  0
    6.2113   -0.5412    3.5074 H   0  0  0  0  0  0  0  0  0  0  0  0
 25 27  1  0  0  0  0
 26 27  2  0  0  0  0
 23 25  2  0  0  0  0
 24 26  1  0  0  0  0
 22 23  1  0  0  0  0
 22 24  2  0  0  0  0
 21 22  1  0  0  0  0
  1  3  1  0  0  0  0
  1  7  1  0  0  0  0
  1  2  2  0  0  0  0
 38 39  1  0  0  0  0
 39 47  1  0  0  0  0
 39 40  2  0  0  0  0
  8  9  1  0  0  0  0
  9 17  1  0  0  0  0
  9 10  2  0  0  0  0
 18 19  1  0  0  0  0
 19 37  1  0  0  0  0
 19 20  2  0  0  0  0
 38 41  1  0  0  0  0
  8 11  1  0  0  0  0
 47 48  1  0  0  0  0
 18 21  1  0  0  0  0
 37 38  1  0  0  0  0
  7  8  1  0  0  0  0
 17 18  1  0  0  0  0
 27 36  1  0  0  0  0
 25 34  1  0  0  0  0
 26 35  1  0  0  0  0
 23 32  1  0  0  0  0
 24 33  1  0  0  0  0
  3  4  1  0  0  0  0
  3  5  1  0  0  0  0
  3  6  1  0  0  0  0
 41 44  1  0  0  0  0
 41 45  1  0  0  0  0
 41 46  1  0  0  0  0
 11 14  1  0  0  0  0
 11 15  1  0  0  0  0
 11 16  1  0  0  0  0
 48 50  1  0  0  0  0
 48 51  1  0  0  0  0
 48 52  1  0  0  0  0
 21 30  1  0  0  0  0
 21 31  1  0  0  0  0
 38 43  1  0  0  0  0
  8 13  1  0  0  0  0
 18 29  1  0  0  0  0
 47 49  1  0  0  0  0
  7 12  1  0  0  0  0
 37 42  1  0  0  0  0
 17 28  1  0  0  0  0
M  END
$$$$

  -OEChem-05262214473D

 52 52  0     1  0  0  0  0  0999 V2000
   -1.8248    0.3424    3.9102 C   0  0  0  0  0  0  0  0  0  0  0  0
   -0.8774   -0.2723    3.4345 O   0  0  0  0  0  0  0  0  0  0  0  0
   -2.2566    0.0600    5.3109 C   0  0  0  0  0  0  0  0  0  0  0  0
   -3.0163   -0.7363    5.3643 H   0  0  0  0  0  0  0  0  0  0  0  0
   -1.4254   -0.2876    5.9452 H   0  0  0  0  0  0  0  0  0  0  0  0
   -2.6947    0.9149    5.8505 H   0  0  0  0  0  0  0  0  0  0  0  0
   -2.5745    1.3149    3.2691 N   0  0  0  0  0  0  0  0  0  0  0  0
   -2.3276    1.7409    1.9167 C   0  0  2  0  0  0  0  0  0  0  0  0
   -0.9926    1.1555    1.4755 C   0  0  0  0  0  0  0  0  0  0  0  0
   -0.1206    0.8028    2.2668 O   0  0  0  0  0  0  0  0  0  0  0  0
   -2.3188    3.2577    1.8072 C   0  0  0  0  0  0  0  0  0  0  0  0
   -3.3395    1.7507    3.7809 H   0  0  0  0  0  0  0  0  0  0  0  0
   -3.1317    1.3224    1.3015 H   0  0  0  0  0  0  0  0  0  0  0  0
   -1.5198    3.6949    2.4169 H   0  0  0  0  0  0  0  0  0  0  0  0
   -2.1594    3.5799    0.7729 H   0  0  0  0  0  0  0  0  0  0  0  0
   -3.2690    3.6789    2.1530 H   0  0  0  0  0  0  0  0  0  0  0  0
   -0.8700    1.1124    0.0921 N   0  0  0  0  0  0  0  0  0  0  0  0
    0.3073    0.6116   -0.5716 C   0  0  2  0  0  0  0  0  0  0  0  0
    1.4165    0.5385    0.4718 C   0  0  0  0  0  0  0  0  0  0  0  0
    2.4540    1.1929    0.3924 O   0  0  0  0  0  0  0  0  0  0  0  0
    0.7353    1.5035   -1.7427 C   0  0  0  0  0  0  0  0  0  0  0  0
   -0.2575    1.4905   -2.8793 C   0  0  0  0  0  0  0  0  0  0  0  0
   -0.2509    0.4428   -3.8001 C   0  0  0  0  0  0  0  0  0  0  0  0
   -1.1822    2.5268   -3.0087 C   0  0  0  0  0  0  0  0  0  0  0  0
   -1.1689    0.4313   -4.8502 C   0  0  0  0  0  0  0  0  0  0  0  0
   -2.1002    2.5154   -4.0588 C   0  0  0  0  0  0  0  0  0  0  0  0
   -2.0936    1.4675   -4.9796 C   0  0  0  0  0  0  0  0  0  0  0  0
   -1.6531    1.4091   -0.4852 H   0  0  0  0  0  0  0  0  0  0  0  0
    0.0668   -0.4026   -0.9113 H   0  0  0  0  0  0  0  0  0  0  0  0
    1.7237    1.1980   -2.1121 H   0  0  0  0  0  0  0  0  0  0  0  0
    0.8613    2.5417   -1.4081 H   0  0  0  0  0  0  0  0  0  0  0  0
    0.4658   -0.3690   -3.7071 H   0  0  0  0  0  0  0  0  0  0  0  0
   -1.1948    3.3472   -2.2960 H   0  0  0  0  0  0  0  0  0  0  0  0
   -1.1629   -0.3841   -5.5677 H   0  0  0  0  0  0  0  0  0  0  0  0
   -2.8192    3.3229   -4.1599 H   0  0  0  0  0  0  0  0  0  0  0  0
   -2.8074    1.4592   -5.7981 H   0  0  0  0  0  0  0  0  0  0  0  0
    1.0860   -0.3051    1.5232 N   0  0  0  0  0  0  0  0  0  0  0  0
    1.9514   -0.5363    2.6574 C   0  0  2  0  0  0  0  0  0  0  0  0
    3.3368   -0.8836    2.1287 C   0  0  0  0  0  0  0  0  0  0  0  0
    3.5318   -1.3283    0.9993 O   0  0  0  0  0  0  0  0  0  0  0  0
    1.4143   -1.6475    3.5458 C   0  0  0  0  0  0  0  0  0  0  0  0
    0.1907   -0.7842    1.4941 H   0  0  0  0  0  0  0  0  0  0  0  0
    1.9985    0.4047    3.2162 H   0  0  0  0  0  0  0  0  0  0  0  0
    1.3599   -2.5983    3.0031 H   0  0  0  0  0  0  0  0  0  0  0  0
    2.0560   -1.8020    4.4196 H   0  0  0  0  0  0  0  0  0  0  0  0
    0.4059   -1.4095    3.9011 H   0  0  0  0  0  0  0  0  0  0  0  0
    4.3253   -0.6794    3.0813 N   0  0  0  0  0  0  0  0  0  0  0  0
    5.7213   -0.9480    2.8262 C   0  0  0  0  0  0  0  0  0  0  0  0
    4.0751   -0.2900    3.9854 H   0  0  0  0  0  0  0  0  0  0  0  0
    5.9616   -1.9739    3.1421 H   0  0  0  0  0  0  0  0  0  0  0  0
    5.9251   -0.8384    1.7508 H   0  0  0  0  0  0  0  0  0  0  0  0
    6.3407   -0.2359    3.3912 H   0  0  0  0  0  0  0  0  0  0  0  0
 25 27  1  0  0  0  0
 26 27  2  0  0  0  0
 23 25  2  0  0  0  0
 24 26  1  0  0  0  0
 22 23  1  0  0  0  0
 22 24  2  0  0  0  0
 21 22  1  0  0  0  0
  1  3  1  0  0  0  0
  1  7  1  0  0  0  0
  1  2  2  0  0  0  0
 38 39  1  0  0  0  0
 39 47  1  0  0  0  0
 39 40  2  0  0  0  0
  8  9  1  0  0  0  0
  9 17  1  0  0  0  0
  9 10  2  0  0  0  0
 18 19  1  0  0  0  0
 19 37  1  0  0  0  0
 19 20  2  0  0  0  0
 38 41  1  0  0  0  0
  8 11  1  0  0  0  0
 47 48  1  0  0  0  0
 18 21  1  0  0  0  0
 37 38  1  0  0  0  0
  7  8  1  0  0  0  0
 17 18  1  0  0  0  0
 27 36  1  0  0  0  0
 25 34  1  0  0  0  0
 26 35  1  0  0  0  0
 23 32  1  0  0  0  0
 24 33  1  0  0  0  0
  3  4  1  0  0  0  0
  3  5  1  0  0  0  0
  3  6  1  0  0  0  0
 41 44  1  0  0  0  0
 41 45  1  0  0  0  0
 41 46  1  0  0  0  0
 11 14  1  0  0  0  0
 11 15  1  0  0  0  0
 11 16  1  0  0  0  0
 48 50  1  0  0  0  0
 48 51  1  0  0  0  0
 48 52  1  0  0  0  0
 21 30  1  0  0  0  0
 21 31  1  0  0  0  0
 38 43  1  0  0  0  0
  8 13  1  0  0  0  0
 18 29  1  0  0  0  0
 47 49  1  0  0  0  0
  7 12  1  0  0  0  0
 37 42  1  0  0  0  0
 17 28  1  0  0  0  0
M  END
$$$$

  -OEChem-05262214473D

 52 52  0     1  0  0  0  0  0999 V2000
   -1.8248    0.3424    3.9102 C   0  0  0  0  0  0  0  0  0  0  0  0
   -0.8774   -0.2723    3.4345 O   0  0  0  0  0  0  0  0  0  0  0  0
   -2.2566    0.0600    5.3109 C   0  0  0  0  0  0  0  0  0  0  0  0
   -3.0163   -0.7363    5.3643 H   0  0  0  0  0  0  0  0  0  0  0  0
   -1.4254   -0.2876    5.9452 H   0  0  0  0  0  0  0  0  0  0  0  0
   -2.6947    0.9149    5.8505 H   0  0  0  0  0  0  0  0  0  0  0  0
   -2.5745    1.3149    3.2691 N   0  0  0  0  0  0  0  0  0  0  0  0
   -2.3276    1.7409    1.9167 C   0  0  2  0  0  0  0  0  0  0  0  0
   -0.9926    1.1555    1.4755 C   0  0  0  0  0  0  0  0  0  0  0  0
   -0.1206    0.8028    2.2668 O   0  0  0  0  0  0  0  0  0  0  0  0
   -2.3188    3.2577    1.8072 C   0  0  0  0  0  0  0  0  0  0  0  0
   -3.3395    1.7507    3.7809 H   0  0  0  0  0  0  0  0  0  0  0  0
   -3.1317    1.3224    1.3015 H   0  0  0  0  0  0  0  0  0  0  0  0
   -1.5198    3.6949    2.4169 H   0  0  0  0  0  0  0  0  0  0  0  0
   -2.1594    3.5799    0.7729 H   0  0  0  0  0  0  0  0  0  0  0  0
   -3.2690    3.6789    2.1530 H   0  0  0  0  0  0  0  0  0  0  0  0
   -0.8700    1.1124    0.0921 N   0  0  0  0  0  0  0  0  0  0  0  0
    0.3073    0.6116   -0.5716 C   0  0  2  0  0  0  0  0  0  0  0  0
    1.4165    0.5385    0.4718 C   0  0  0  0  0  0  0  0  0  0  0  0
    2.3203    1.3682    0.5469 O   0  0  0  0  0  0  0  0  0  0  0  0
    0.7353    1.5035   -1.7427 C   0  0  0  0  0  0  0  0  0  0  0  0
   -0.2575    1.4905   -2.8793 C   0  0  0  0  0  0  0  0  0  0  0  0
   -0.2509    0.4428   -3.8001 C   0  0  0  0  0  0  0  0  0  0  0  0
   -1.1822    2.5268   -3.0087 C   0  0  0  0  0  0  0  0  0  0  0  0
   -1.1689    0.4313   -4.8502 C   0  0  0  0  0  0  0  0  0  0  0  0
   -2.1002    2.5154   -4.0588 C   0  0  0  0  0  0  0  0  0  0  0  0
   -2.0936    1.4675   -4.9796 C   0  0  0  0  0  0  0  0  0  0  0  0
   -1.6531    1.4091   -0.4852 H   0  0  0  0  0  0  0  0  0  0  0  0
    0.0668   -0.4026   -0.9113 H   0  0  0  0  0  0  0  0  0  0  0  0
    1.7237    1.1980   -2.1121 H   0  0  0  0  0  0  0  0  0  0  0  0
    0.8613    2.5417   -1.4081 H   0  0  0  0  0  0  0  0  0  0  0  0
    0.4658   -0.3690   -3.7071 H   0  0  0  0  0  0  0  0  0  0  0  0
   -1.1948    3.3472   -2.2960 H   0  0  0  0  0  0  0  0  0  0  0  0
   -1.1629   -0.3841   -5.5677 H   0  0  0  0  0  0  0  0  0  0  0  0
   -2.8192    3.3229   -4.1599 H   0  0  0  0  0  0  0  0  0  0  0  0
   -2.8074    1.4592   -5.7981 H   0  0  0  0  0  0  0  0  0  0  0  0
    1.2465   -0.5338    1.3366 N   0  0  0  0  0  0  0  0  0  0  0  0
    2.1445   -0.8196    2.4323 C   0  0  2  0  0  0  0  0  0  0  0  0
    3.5672   -0.8113    1.8889 C   0  0  0  0  0  0  0  0  0  0  0  0
    3.8331   -0.9926    0.7025 O   0  0  0  0  0  0  0  0  0  0  0  0
    1.8182   -2.1559    3.0809 C   0  0  0  0  0  0  0  0  0  0  0  0
    0.4509   -1.1485    1.1920 H   0  0  0  0  0  0  0  0  0  0  0  0
    2.0255   -0.0082    3.1586 H   0  0  0  0  0  0  0  0  0  0  0  0
    1.9317   -2.9811    2.3684 H   0  0  0  0  0  0  0  0  0  0  0  0
    2.4810   -2.3578    3.9288 H   0  0  0  0  0  0  0  0  0  0  0  0
    0.7851   -2.1706    3.4446 H   0  0  0  0  0  0  0  0  0  0  0  0
    4.5077   -0.6205    2.8915 N   0  0  0  0  0  0  0  0  0  0  0  0
    5.9280   -0.5860    2.6317 C   0  0  0  0  0  0  0  0  0  0  0  0
    4.1962   -0.4596    3.8448 H   0  0  0  0  0  0  0  0  0  0  0  0
    6.3488   -1.5946    2.7570 H   0  0  0  0  0  0  0  0  0  0  0  0
    6.1041   -0.2406    1.6023 H   0  0  0  0  0  0  0  0  0  0  0  0
    6.4131    0.1038    3.3380 H   0  0  0  0  0  0  0  0  0  0  0  0
 25 27  1  0  0  0  0
 26 27  2  0  0  0  0
 23 25  2  0  0  0  0
 24 26  1  0  0  0  0
 22 23  1  0  0  0  0
 22 24  2  0  0  0  0
 21 22  1  0  0  0  0
  1  3  1  0  0  0  0
  1  7  1  0  0  0  0
  1  2  2  0  0  0  0
 38 39  1  0  0  0  0
 39 47  1  0  0  0  0
 39 40  2  0  0  0  0
  8  9  1  0  0  0  0
  9 17  1  0  0  0  0
  9 10  2  0  0  0  0
 18 19  1  0  0  0  0
 19 37  1  0  0  0  0
 19 20  2  0  0  0  0
 38 41  1  0  0  0  0
  8 11  1  0  0  0  0
 47 48  1  0  0  0  0
 18 21  1  0  0  0  0
 37 38  1  0  0  0  0
  7  8  1  0  0  0  0
 17 18  1  0  0  0  0
 27 36  1  0  0  0  0
 25 34  1  0  0  0  0
 26 35  1  0  0  0  0
 23 32  1  0  0  0  0
 24 33  1  0  0  0  0
  3  4  1  0  0  0  0
  3  5  1  0  0  0  0
  3  6  1  0  0  0  0
 41 44  1  0  0  0  0
 41 45  1  0  0  0  0
 41 46  1  0  0  0  0
 11 14  1  0  0  0  0
 11 15  1  0  0  0  0
 11 16  1  0  0  0  0
 48 50  1  0  0  0  0
 48 51  1  0  0  0  0
 48 52  1  0  0  0  0
 21 30  1  0  0  0  0
 21 31  1  0  0  0  0
 38 43  1  0  0  0  0
  8 13  1  0  0  0  0
 18 29  1  0  0  0  0
 47 49  1  0  0  0  0
  7 12  1  0  0  0  0
 37 42  1  0  0  0  0
 17 28  1  0  0  0  0
M  END
$$$$

  -OEChem-05262214473D

 52 52  0     1  0  0  0  0  0999 V2000
   -1.8248    0.3424    3.9102 C   0  0  0  0  0  0  0  0  0  0  0  0
   -0.8774   -0.2723    3.4345 O   0  0  0  0  0  0  0  0  0  0  0  0
   -2.2566    0.0600    5.3109 C   0  0  0  0  0  0  0  0  0  0  0  0
   -3.0163   -0.7363    5.3643 H   0  0  0  0  0  0  0  0  0  0  0  0
   -1.4254   -0.2876    5.9452 H   0  0  0  0  0  0  0  0  0  0  0  0
   -2.6947    0.9149    5.8505 H   0  0  0  0  0  0  0  0  0  0  0  0
   -2.5745    1.3149    3.2691 N   0  0  0  0  0  0  0  0  0  0  0  0
   -2.3276    1.7409    1.9167 C   0  0  2  0  0  0  0  0  0  0  0  0
   -0.9926    1.1555    1.4755 C   0  0  0  0  0  0  0  0  0  0  0  0
   -0.1206    0.8028    2.2668 O   0  0  0  0  0  0  0  0  0  0  0  0
   -2.3188    3.2577    1.8072 C   0  0  0  0  0  0  0  0  0  0  0  0
   -3.3395    1.7507    3.7809 H   0  0  0  0  0  0  0  0  0  0  0  0
   -3.1317    1.3224    1.3015 H   0  0  0  0  0  0  0  0  0  0  0  0
   -1.5198    3.6949    2.4169 H   0  0  0  0  0  0  0  0  0  0  0  0
   -2.1594    3.5799    0.7729 H   0  0  0  0  0  0  0  0  0  0  0  0
   -3.2690    3.6789    2.1530 H   0  0  0  0  0  0  0  0  0  0  0  0
   -0.8700    1.1124    0.0921 N   0  0  0  0  0  0  0  0  0  0  0  0
    0.3073    0.6116   -0.5716 C   0  0  2  0  0  0  0  0  0  0  0  0
    1.4165    0.5385    0.4718 C   0  0  0  0  0  0  0  0  0  0  0  0
    2.1581    1.4848    0.7274 O   0  0  0  0  0  0  0  0  0  0  0  0
    0.7353    1.5035   -1.7427 C   0  0  0  0  0  0  0  0  0  0  0  0
   -0.2575    1.4905   -2.8793 C   0  0  0  0  0  0  0  0  0  0  0  0
   -0.2509    0.4428   -3.8001 C   0  0  0  0  0  0  0  0  0  0  0  0
   -1.1822    2.5268   -3.0087 C   0  0  0  0  0  0  0  0  0  0  0  0
   -1.1689    0.4313   -4.8502 C   0  0  0  0  0  0  0  0  0  0  0  0
   -2.1002    2.5154   -4.0588 C   0  0  0  0  0  0  0  0  0  0  0  0
   -2.0936    1.4675   -4.9796 C   0  0  0  0  0  0  0  0  0  0  0  0
   -1.6531    1.4091   -0.4852 H   0  0  0  0  0  0  0  0  0  0  0  0
    0.0668   -0.4026   -0.9113 H   0  0  0  0  0  0  0  0  0  0  0  0
    1.7237    1.1980   -2.1121 H   0  0  0  0  0  0  0  0  0  0  0  0
    0.8613    2.5417   -1.4081 H   0  0  0  0  0  0  0  0  0  0  0  0
    0.4658   -0.3690   -3.7071 H   0  0  0  0  0  0  0  0  0  0  0  0
   -1.1948    3.3472   -2.2960 H   0  0  0  0  0  0  0  0  0  0  0  0
   -1.1629   -0.3841   -5.5677 H   0  0  0  0  0  0  0  0  0  0  0  0
   -2.8192    3.3229   -4.1599 H   0  0  0  0  0  0  0  0  0  0  0  0
   -2.8074    1.4592   -5.7981 H   0  0  0  0  0  0  0  0  0  0  0  0
    1.4443   -0.6910    1.1152 N   0  0  0  0  0  0  0  0  0  0  0  0
    2.3839   -1.0167    2.1640 C   0  0  2  0  0  0  0  0  0  0  0  0
    3.7798   -0.6554    1.6737 C   0  0  0  0  0  0  0  0  0  0  0  0
    4.0684   -0.5590    0.4827 O   0  0  0  0  0  0  0  0  0  0  0  0
    2.3041   -2.4878    2.5411 C   0  0  0  0  0  0  0  0  0  0  0  0
    0.7705   -1.3975    0.8348 H   0  0  0  0  0  0  0  0  0  0  0  0
    2.1255   -0.3914    3.0255 H   0  0  0  0  0  0  0  0  0  0  0  0
    2.5597   -3.1300    1.6904 H   0  0  0  0  0  0  0  0  0  0  0  0
    2.9962   -2.7268    3.3553 H   0  0  0  0  0  0  0  0  0  0  0  0
    1.2918   -2.7527    2.8651 H   0  0  0  0  0  0  0  0  0  0  0  0
    4.6758   -0.4956    2.7215 N   0  0  0  0  0  0  0  0  0  0  0  0
    6.0660   -0.1632    2.5147 C   0  0  0  0  0  0  0  0  0  0  0  0
    4.3449   -0.5755    3.6785 H   0  0  0  0  0  0  0  0  0  0  0  0
    6.6605   -1.0871    2.4612 H   0  0  0  0  0  0  0  0  0  0  0  0
    6.1730    0.3965    1.5738 H   0  0  0  0  0  0  0  0  0  0  0  0
    6.4235    0.4548    3.3515 H   0  0  0  0  0  0  0  0  0  0  0  0
 25 27  1  0  0  0  0
 26 27  2  0  0  0  0
 23 25  2  0  0  0  0
 24 26  1  0  0  0  0
 22 23  1  0  0  0  0
 22 24  2  0  0  0  0
 21 22  1  0  0  0  0
  1  3  1  0  0  0  0
  1  7  1  0  0  0  0
  1  2  2  0  0  0  0
 38 39  1  0  0  0  0
 39 47  1  0  0  0  0
 39 40  2  0  0  0  0
  8  9  1  0  0  0  0
  9 17  1  0  0  0  0
  9 10  2  0  0  0  0
 18 19  1  0  0  0  0
 19 37  1  0  0  0  0
 19 20  2  0  0  0  0
 38 41  1  0  0  0  0
  8 11  1  0  0  0  0
 47 48  1  0  0  0  0
 18 21  1  0  0  0  0
 37 38  1  0  0  0  0
  7  8  1  0  0  0  0
 17 18  1  0  0  0  0
 27 36  1  0  0  0  0
 25 34  1  0  0  0  0
 26 35  1  0  0  0  0
 23 32  1  0  0  0  0
 24 33  1  0  0  0  0
  3  4  1  0  0  0  0
  3  5  1  0  0  0  0
  3  6  1  0  0  0  0
 41 44  1  0  0  0  0
 41 45  1  0  0  0  0
 41 46  1  0  0  0  0
 11 14  1  0  0  0  0
 11 15  1  0  0  0  0
 11 16  1  0  0  0  0
 48 50  1  0  0  0  0
 48 51  1  0  0  0  0
 48 52  1  0  0  0  0
 21 30  1  0  0  0  0
 21 31  1  0  0  0  0
 38 43  1  0  0  0  0
  8 13  1  0  0  0  0
 18 29  1  0  0  0  0
 47 49  1  0  0  0  0
  7 12  1  0  0  0  0
 37 42  1  0  0  0  0
 17 28  1  0  0  0  0
M  END
$$$$

  -OEChem-05262214473D

 52 52  0     1  0  0  0  0  0999 V2000
   -1.8248    0.3424    3.9102 C   0  0  0  0  0  0  0  0  0  0  0  0
   -0.8774   -0.2723    3.4345 O   0  0  0  0  0  0  0  0  0  0  0  0
   -2.2566    0.0600    5.3109 C   0  0  0  0  0  0  0  0  0  0  0  0
   -3.0163   -0.7363    5.3643 H   0  0  0  0  0  0  0  0  0  0  0  0
   -1.4254   -0.2876    5.9452 H   0  0  0  0  0  0  0  0  0  0  0  0
   -2.6947    0.9149    5.8505 H   0  0  0  0  0  0  0  0  0  0  0  0
   -2.5745    1.3149    3.2691 N   0  0  0  0  0  0  0  0  0  0  0  0
   -2.3276    1.7409    1.9167 C   0  0  2  0  0  0  0  0  0  0  0  0
   -0.9926    1.1555    1.4755 C   0  0  0  0  0  0  0  0  0  0  0  0
   -0.1206    0.8028    2.2668 O   0  0  0  0  0  0  0  0  0  0  0  0
   -2.3188    3.2577    1.8072 C   0  0  0  0  0  0  0  0  0  0  0  0
   -3.3395    1.7507    3.7809 H   0  0  0  0  0  0  0  0  0  0  0  0
   -3.1317    1.3224    1.3015 H   0  0  0  0  0  0  0  0  0  0  0  0
   -1.5198    3.6949    2.4169 H   0  0  0  0  0  0  0  0  0  0  0  0
   -2.1594    3.5799    0.7729 H   0  0  0  0  0  0  0  0  0  0  0  0
   -3.2690    3.6789    2.1530 H   0  0  0  0  0  0  0  0  0  0  0  0
   -0.8700    1.1124    0.0921 N   0  0  0  0  0  0  0  0  0  0  0  0
    0.3073    0.6116   -0.5716 C   0  0  2  0  0  0  0  0  0  0  0  0
    1.4165    0.5385    0.4718 C   0  0  0  0  0  0  0  0  0  0  0  0
    1.9787    1.5347    0.9217 O   0  0  0  0  0  0  0  0  0  0  0  0
    0.7353    1.5035   -1.7427 C   0  0  0  0  0  0  0  0  0  0  0  0
   -0.2575    1.4905   -2.8793 C   0  0  0  0  0  0  0  0  0  0  0  0
   -0.2509    0.4428   -3.8001 C   0  0  0  0  0  0  0  0  0  0  0  0
   -1.1822    2.5268   -3.0087 C   0  0  0  0  0  0  0  0  0  0  0  0
   -1.1689    0.4313   -4.8502 C   0  0  0  0  0  0  0  0  0  0  0  0
   -2.1002    2.5154   -4.0588 C   0  0  0  0  0  0  0  0  0  0  0  0
   -2.0936    1.4675   -4.9796 C   0  0  0  0  0  0  0  0  0  0  0  0
   -1.6531    1.4091   -0.4852 H   0  0  0  0  0  0  0  0  0  0  0  0
    0.0668   -0.4026   -0.9113 H   0  0  0  0  0  0  0  0  0  0  0  0
    1.7237    1.1980   -2.1121 H   0  0  0  0  0  0  0  0  0  0  0  0
    0.8613    2.5417   -1.4081 H   0  0  0  0  0  0  0  0  0  0  0  0
    0.4658   -0.3690   -3.7071 H   0  0  0  0  0  0  0  0  0  0  0  0
   -1.1948    3.3472   -2.2960 H   0  0  0  0  0  0  0  0  0  0  0  0
   -1.1629   -0.3841   -5.5677 H   0  0  0  0  0  0  0  0  0  0  0  0
   -2.8192    3.3229   -4.1599 H   0  0  0  0  0  0  0  0  0  0  0  0
   -2.8074    1.4592   -5.7981 H   0  0  0  0  0  0  0  0  0  0  0  0
    1.6661   -0.7662    0.8742 N   0  0  0  0  0  0  0  0  0  0  0  0
    2.6534   -1.1142    1.8706 C   0  0  2  0  0  0  0  0  0  0  0  0
    3.9603   -0.4267    1.4979 C   0  0  0  0  0  0  0  0  0  0  0  0
    4.2217   -0.0572    0.3550 O   0  0  0  0  0  0  0  0  0  0  0  0
    2.8389   -2.6208    1.9632 C   0  0  0  0  0  0  0  0  0  0  0  0
    1.1277   -1.5141    0.4469 H   0  0  0  0  0  0  0  0  0  0  0  0
    2.2916   -0.7188    2.8260 H   0  0  0  0  0  0  0  0  0  0  0  0
    3.2011   -3.0350    1.0152 H   0  0  0  0  0  0  0  0  0  0  0  0
    3.5662   -2.8841    2.7383 H   0  0  0  0  0  0  0  0  0  0  0  0
    1.8916   -3.1161    2.2021 H   0  0  0  0  0  0  0  0  0  0  0  0
    4.8182   -0.3131    2.5830 N   0  0  0  0  0  0  0  0  0  0  0  0
    6.1259    0.2918    2.4830 C   0  0  0  0  0  0  0  0  0  0  0  0
    4.5112   -0.6299    3.4980 H   0  0  0  0  0  0  0  0  0  0  0  0
    6.8753   -0.4861    2.2749 H   0  0  0  0  0  0  0  0  0  0  0  0
    6.1270    1.0295    1.6670 H   0  0  0  0  0  0  0  0  0  0  0  0
    6.3713    0.7931    3.4308 H   0  0  0  0  0  0  0  0  0  0  0  0
 25 27  1  0  0  0  0
 26 27  2  0  0  0  0
 23 25  2  0  0  0  0
 24 26  1  0  0  0  0
 22 23  1  0  0  0  0
 22 24  2  0  0  0  0
 21 22  1  0  0  0  0
  1  3  1  0  0  0  0
  1  7  1  0  0  0  0
  1  2  2  0  0  0  0
 38 39  1  0  0  0  0
 39 47  1  0  0  0  0
 39 40  2  0  0  0  0
  8  9  1  0  0  0  0
  9 17  1  0  0  0  0
  9 10  2  0  0  0  0
 18 19  1  0  0  0  0
 19 37  1  0  0  0  0
 19 20  2  0  0  0  0
 38 41  1  0  0  0  0
  8 11  1  0  0  0  0
 47 48  1  0  0  0  0
 18 21  1  0  0  0  0
 37 38  1  0  0  0  0
  7  8  1  0  0  0  0
 17 18  1  0  0  0  0
 27 36  1  0  0  0  0
 25 34  1  0  0  0  0
 26 35  1  0  0  0  0
 23 32  1  0  0  0  0
 24 33  1  0  0  0  0
  3  4  1  0  0  0  0
  3  5  1  0  0  0  0
  3  6  1  0  0  0  0
 41 44  1  0  0  0  0
 41 45  1  0  0  0  0
 41 46  1  0  0  0  0
 11 14  1  0  0  0  0
 11 15  1  0  0  0  0
 11 16  1  0  0  0  0
 48 50  1  0  0  0  0
 48 51  1  0  0  0  0
 48 52  1  0  0  0  0
 21 30  1  0  0  0  0
 21 31  1  0  0  0  0
 38 43  1  0  0  0  0
  8 13  1  0  0  0  0
 18 29  1  0  0  0  0
 47 49  1  0  0  0  0
  7 12  1  0  0  0  0
 37 42  1  0  0  0  0
 17 28  1  0  0  0  0
M  END
$$$$

  -OEChem-05262214473D

 52 52  0     1  0  0  0  0  0999 V2000
   -1.8248    0.3424    3.9102 C   0  0  0  0  0  0  0  0  0  0  0  0
   -0.8774   -0.2723    3.4345 O   0  0  0  0  0  0  0  0  0  0  0  0
   -2.2566    0.0600    5.3109 C   0  0  0  0  0  0  0  0  0  0  0  0
   -3.0163   -0.7363    5.3643 H   0  0  0  0  0  0  0  0  0  0  0  0
   -1.4254   -0.2876    5.9452 H   0  0  0  0  0  0  0  0  0  0  0  0
   -2.6947    0.9149    5.8505 H   0  0  0  0  0  0  0  0  0  0  0  0
   -2.5745    1.3149    3.2691 N   0  0  0  0  0  0  0  0  0  0  0  0
   -2.3276    1.7409    1.9167 C   0  0  2  0  0  0  0  0  0  0  0  0
   -0.9926    1.1555    1.4755 C   0  0  0  0  0  0  0  0  0  0  0  0
   -0.1206    0.8028    2.2668 O   0  0  0  0  0  0  0  0  0  0  0  0
   -2.3188    3.2577    1.8072 C   0  0  0  0  0  0  0  0  0  0  0  0
   -3.3395    1.7507    3.7809 H   0  0  0  0  0  0  0  0  0  0  0  0
   -3.1317    1.3224    1.3015 H   0  0  0  0  0  0  0  0  0  0  0  0
   -1.5198    3.6949    2.4169 H   0  0  0  0  0  0  0  0  0  0  0  0
   -2.1594    3.5799    0.7729 H   0  0  0  0  0  0  0  0  0  0  0  0
   -3.2690    3.6789    2.1530 H   0  0  0  0  0  0  0  0  0  0  0  0
   -0.8700    1.1124    0.0921 N   0  0  0  0  0  0  0  0  0  0  0  0
    0.3073    0.6116   -0.5716 C   0  0  2  0  0  0  0  0  0  0  0  0
    1.4165    0.5385    0.4718 C   0  0  0  0  0  0  0  0  0  0  0  0
    1.7941    1.5145    1.1165 O   0  0  0  0  0  0  0  0  0  0  0  0
    0.7353    1.5035   -1.7427 C   0  0  0  0  0  0  0  0  0  0  0  0
   -0.2575    1.4905   -2.8793 C   0  0  0  0  0  0  0  0  0  0  0  0
   -0.2509    0.4428   -3.8001 C   0  0  0  0  0  0  0  0  0  0  0  0
   -1.1822    2.5268   -3.0087 C   0  0  0  0  0  0  0  0  0  0  0  0
   -1.1689    0.4313   -4.8502 C   0  0  0  0  0  0  0  0  0  0  0  0
   -2.1002    2.5154   -4.0588 C   0  0  0  0  0  0  0  0  0  0  0  0
   -2.0936    1.4675   -4.9796 C   0  0  0  0  0  0  0  0  0  0  0  0
   -1.6531    1.4091   -0.4852 H   0  0  0  0  0  0  0  0  0  0  0  0
    0.0668   -0.4026   -0.9113 H   0  0  0  0  0  0  0  0  0  0  0  0
    1.7237    1.1980   -2.1121 H   0  0  0  0  0  0  0  0  0  0  0  0
    0.8613    2.5417   -1.4081 H   0  0  0  0  0  0  0  0  0  0  0  0
    0.4658   -0.3690   -3.7071 H   0  0  0  0  0  0  0  0  0  0  0  0
   -1.1948    3.3472   -2.2960 H   0  0  0  0  0  0  0  0  0  0  0  0
   -1.1629   -0.3841   -5.5677 H   0  0  0  0  0  0  0  0  0  0  0  0
   -2.8192    3.3229   -4.1599 H   0  0  0  0  0  0  0  0  0  0  0  0
   -2.8074    1.4592   -5.7981 H   0  0  0  0  0  0  0  0  0  0  0  0
    1.8966   -0.7542    0.6300 N   0  0  0  0  0  0  0  0  0  0  0  0
    2.9346   -1.1054    1.5723 C   0  0  2  0  0  0  0  0  0  0  0  0
    4.0963   -0.1407    1.3734 C   0  0  0  0  0  0  0  0  0  0  0  0
    4.2824    0.4787    0.3281 O   0  0  0  0  0  0  0  0  0  0  0  0
    3.3862   -2.5456    1.3866 C   0  0  0  0  0  0  0  0  0  0  0  0
    1.4982   -1.4904    0.0546 H   0  0  0  0  0  0  0  0  0  0  0  0
    2.5124   -0.9680    2.5737 H   0  0  0  0  0  0  0  0  0  0  0  0
    3.8122   -2.7025    0.3889 H   0  0  0  0  0  0  0  0  0  0  0  0
    4.1524   -2.8188    2.1197 H   0  0  0  0  0  0  0  0  0  0  0  0
    2.5436   -3.2360    1.5006 H   0  0  0  0  0  0  0  0  0  0  0  0
    4.9251   -0.0856    2.4852 N   0  0  0  0  0  0  0  0  0  0  0  0
    6.1035    0.7478    2.5387 C   0  0  0  0  0  0  0  0  0  0  0  0
    4.6837   -0.6189    3.3154 H   0  0  0  0  0  0  0  0  0  0  0  0
    6.9787    0.1676    2.2109 H   0  0  0  0  0  0  0  0  0  0  0  0
    5.9694    1.6152    1.8756 H   0  0  0  0  0  0  0  0  0  0  0  0
    6.2599    1.0957    3.5704 H   0  0  0  0  0  0  0  0  0  0  0  0
 25 27  1  0  0  0  0
 26 27  2  0  0  0  0
 23 25  2  0  0  0  0
 24 26  1  0  0  0  0
 22 23  1  0  0  0  0
 22 24  2  0  0  0  0
 21 22  1  0  0  0  0
  1  3  1  0  0  0  0
  1  7  1  0  0  0  0
  1  2  2  0  0  0  0
 38 39  1  0  0  0  0
 39 47  1  0  0  0  0
 39 40  2  0  0  0  0
  8  9  1  0  0  0  0
  9 17  1  0  0  0  0
  9 10  2  0  0  0  0
 18 19  1  0  0  0  0
 19 37  1  0  0  0  0
 19 20  2  0  0  0  0
 38 41  1  0  0  0  0
  8 11  1  0  0  0  0
 47 48  1  0  0  0  0
 18 21  1  0  0  0  0
 37 38  1  0  0  0  0
  7  8  1  0  0  0  0
 17 18  1  0  0  0  0
 27 36  1  0  0  0  0
 25 34  1  0  0  0  0
 26 35  1  0  0  0  0
 23 32  1  0  0  0  0
 24 33  1  0  0  0  0
  3  4  1  0  0  0  0
  3  5  1  0  0  0  0
  3  6  1  0  0  0  0
 41 44  1  0  0  0  0
 41 45  1  0  0  0  0
 41 46  1  0  0  0  0
 11 14  1  0  0  0  0
 11 15  1  0  0  0  0
 11 16  1  0  0  0  0
 48 50  1  0  0  0  0
 48 51  1  0  0  0  0
 48 52  1  0  0  0  0
 21 30  1  0  0  0  0
 21 31  1  0  0  0  0
 38 43  1  0  0  0  0
  8 13  1  0  0  0  0
 18 29  1  0  0  0  0
 47 49  1  0  0  0  0
  7 12  1  0  0  0  0
 37 42  1  0  0  0  0
 17 28  1  0  0  0  0
M  END
$$$$

  -OEChem-05262214473D

 52 52  0     1  0  0  0  0  0999 V2000
   -1.8248    0.3424    3.9102 C   0  0  0  0  0  0  0  0  0  0  0  0
   -0.8774   -0.2723    3.4345 O   0  0  0  0  0  0  0  0  0  0  0  0
   -2.2566    0.0600    5.3109 C   0  0  0  0  0  0  0  0  0  0  0  0
   -3.0163   -0.7363    5.3643 H   0  0  0  0  0  0  0  0  0  0  0  0
   -1.4254   -0.2876    5.9452 H   0  0  0  0  0  0  0  0  0  0  0  0
   -2.6947    0.9149    5.8505 H   0  0  0  0  0  0  0  0  0  0  0  0
   -2.5745    1.3149    3.2691 N   0  0  0  0  0  0  0  0  0  0  0  0
   -2.3276    1.7409    1.9167 C   0  0  2  0  0  0  0  0  0  0  0  0
   -0.9926    1.1555    1.4755 C   0  0  0  0  0  0  0  0  0  0  0  0
   -0.1206    0.8028    2.2668 O   0  0  0  0  0  0  0  0  0  0  0  0
   -2.3188    3.2577    1.8072 C   0  0  0  0  0  0  0  0  0  0  0  0
   -3.3395    1.7507    3.7809 H   0  0  0  0  0  0  0  0  0  0  0  0
   -3.1317    1.3224    1.3015 H   0  0  0  0  0  0  0  0  0  0  0  0
   -1.5198    3.6949    2.4169 H   0  0  0  0  0  0  0  0  0  0  0  0
   -2.1594    3.5799    0.7729 H   0  0  0  0  0  0  0  0  0  0  0  0
   -3.2690    3.6789    2.1530 H   0  0  0  0  0  0  0  0  0  0  0  0
   -0.8700    1.1124    0.0921 N   0  0  0  0  0  0  0  0  0  0  0  0
    0.3073    0.6116   -0.5716 C   0  0  2  0  0  0  0  0  0  0  0  0
    1.4165    0.5385    0.4718 C   0  0  0  0  0  0  0  0  0  0  0  0
    1.6169    1.4257    1.2986 O   0  0  0  0  0  0  0  0  0  0  0  0
    0.7353    1.5035   -1.7427 C   0  0  0  0  0  0  0  0  0  0  0  0
   -0.2575    1.4905   -2.8793 C   0  0  0  0  0  0  0  0  0  0  0  0
   -0.2509    0.4428   -3.8001 C   0  0  0  0  0  0  0  0  0  0  0  0
   -1.1822    2.5268   -3.0087 C   0  0  0  0  0  0  0  0  0  0  0  0
   -1.1689    0.4313   -4.8502 C   0  0  0  0  0  0  0  0  0  0  0  0
   -2.1002    2.5154   -4.0588 C   0  0  0  0  0  0  0  0  0  0  0  0
   -2.0936    1.4675   -4.9796 C   0  0  0  0  0  0  0  0  0  0  0  0
   -1.6531    1.4091   -0.4852 H   0  0  0  0  0  0  0  0  0  0  0  0
    0.0668   -0.4026   -0.9113 H   0  0  0  0  0  0  0  0  0  0  0  0
    1.7237    1.1980   -2.1121 H   0  0  0  0  0  0  0  0  0  0  0  0
    0.8613    2.5417   -1.4081 H   0  0  0  0  0  0  0  0  0  0  0  0
    0.4658   -0.3690   -3.7071 H   0  0  0  0  0  0  0  0  0  0  0  0
   -1.1948    3.3472   -2.2960 H   0  0  0  0  0  0  0  0  0  0  0  0
   -1.1629   -0.3841   -5.5677 H   0  0  0  0  0  0  0  0  0  0  0  0
   -2.8192    3.3229   -4.1599 H   0  0  0  0  0  0  0  0  0  0  0  0
   -2.8074    1.4592   -5.7981 H   0  0  0  0  0  0  0  0  0  0  0  0
    2.1201   -0.6557    0.3993 N   0  0  0  0  0  0  0  0  0  0  0  0
    3.2084   -0.9908    1.2892 C   0  0  2  0  0  0  0  0  0  0  0  0
    4.1785    0.1831    1.3087 C   0  0  0  0  0  0  0  0  0  0  0  0
    4.2464    1.0122    0.4037 O   0  0  0  0  0  0  0  0  0  0  0  0
    3.9088   -2.2675    0.8506 C   0  0  0  0  0  0  0  0  0  0  0  0
    1.8568   -1.3280   -0.3152 H   0  0  0  0  0  0  0  0  0  0  0  0
    2.7731   -1.1221    2.2859 H   0  0  0  0  0  0  0  0  0  0  0  0
    4.3513   -2.1551   -0.1459 H   0  0  0  0  0  0  0  0  0  0  0  0
    4.7147   -2.5355    1.5418 H   0  0  0  0  0  0  0  0  0  0  0  0
    3.2032   -3.1043    0.8085 H   0  0  0  0  0  0  0  0  0  0  0  0
    4.9893    0.1715    2.4350 N   0  0  0  0  0  0  0  0  0  0  0  0
    6.0004    1.1738    2.6781 C   0  0  0  0  0  0  0  0  0  0  0  0
    4.8506   -0.5433    3.1432 H   0  0  0  0  0  0  0  0  0  0  0  0
    6.9635    0.8294    2.2734 H   0  0  0  0  0  0  0  0  0  0  0  0
    5.7108    2.1137    2.1855 H   0  0  0  0  0  0  0  0  0  0  0  0
    6.0969    1.3420    3.7609 H   0  0  0  0  0  0  0  0  0  0  0  0
 25 27  1  0  0  0  0
 26 27  2  0  0  0  0
 23 25  2  0  0  0  0
 24 26  1  0  0  0  0
 22 23  1  0  0  0  0
 22 24  2  0  0  0  0
 21 22  1  0  0  0  0
  1  3  1  0  0  0  0
  1  7  1  0  0  0  0
  1  2  2  0  0  0  0
 38 39  1  0  0  0  0
 39 47  1  0  0  0  0
 39 40  2  0  0  0  0
  8  9  1  0  0  0  0
  9 17  1  0  0  0  0
  9 10  2  0  0  0  0
 18 19  1  0  0  0  0
 19 37  1  0  0  0  0
 19 20  2  0  0  0  0
 38 41  1  0  0  0  0
  8 11  1  0  0  0  0
 47 48  1  0  0  0  0
 18 21  1  0  0  0  0
 37 38  1  0  0  0  0
  7  8  1  0  0  0  0
 17 18  1  0  0  0  0
 27 36  1  0  0  0  0
 25 34  1  0  0  0  0
 26 35  1  0  0  0  0
 23 32  1  0  0  0  0
 24 33  1  0  0  0  0
  3  4  1  0  0  0  0
  3  5  1  0  0  0  0
  3  6  1  0  0  0  0
 41 44  1  0  0  0  0
 41 45  1  0  0  0  0
 41 46  1  0  0  0  0
 11 14  1  0  0  0  0
 11 15  1  0  0  0  0
 11 16  1  0  0  0  0
 48 50  1  0  0  0  0
 48 51  1  0  0  0  0
 48 52  1  0  0  0  0
 21 30  1  0  0  0  0
 21 31  1  0  0  0  0
 38 43  1  0  0  0  0
  8 13  1  0  0  0  0
 18 29  1  0  0  0  0
 47 49  1  0  0  0  0
  7 12  1  0  0  0  0
 37 42  1  0  0  0  0
 17 28  1  0  0  0  0
M  END
$$$$

  -OEChem-05262214473D

 52 52  0     1  0  0  0  0  0999 V2000
   -1.8248    0.3424    3.9102 C   0  0  0  0  0  0  0  0  0  0  0  0
   -0.8774   -0.2723    3.4345 O   0  0  0  0  0  0  0  0  0  0  0  0
   -2.2566    0.0600    5.3109 C   0  0  0  0  0  0  0  0  0  0  0  0
   -3.0163   -0.7363    5.3643 H   0  0  0  0  0  0  0  0  0  0  0  0
   -1.4254   -0.2876    5.9452 H   0  0  0  0  0  0  0  0  0  0  0  0
   -2.6947    0.9149    5.8505 H   0  0  0  0  0  0  0  0  0  0  0  0
   -2.5745    1.3149    3.2691 N   0  0  0  0  0  0  0  0  0  0  0  0
   -2.3276    1.7409    1.9167 C   0  0  2  0  0  0  0  0  0  0  0  0
   -0.9926    1.1555    1.4755 C   0  0  0  0  0  0  0  0  0  0  0  0
   -0.1206    0.8028    2.2668 O   0  0  0  0  0  0  0  0  0  0  0  0
   -2.3188    3.2577    1.8072 C   0  0  0  0  0  0  0  0  0  0  0  0
   -3.3395    1.7507    3.7809 H   0  0  0  0  0  0  0  0  0  0  0  0
   -3.1317    1.3224    1.3015 H   0  0  0  0  0  0  0  0  0  0  0  0
   -1.5198    3.6949    2.4169 H   0  0  0  0  0  0  0  0  0  0  0  0
   -2.1594    3.5799    0.7729 H   0  0  0  0  0  0  0  0  0  0  0  0
   -3.2690    3.6789    2.1530 H   0  0  0  0  0  0  0  0  0  0  0  0
   -0.8700    1.1124    0.0921 N   0  0  0  0  0  0  0  0  0  0  0  0
    0.3073    0.6116   -0.5716 C   0  0  2  0  0  0  0  0  0  0  0  0
    1.4165    0.5385    0.4718 C   0  0  0  0  0  0  0  0  0  0  0  0
    1.4592    1.2741    1.4556 O   0  0  0  0  0  0  0  0  0  0  0  0
    0.7353    1.5035   -1.7427 C   0  0  0  0  0  0  0  0  0  0  0  0
   -0.2575    1.4905   -2.8793 C   0  0  0  0  0  0  0  0  0  0  0  0
   -0.2509    0.4428   -3.8001 C   0  0  0  0  0  0  0  0  0  0  0  0
   -1.1822    2.5268   -3.0087 C   0  0  0  0  0  0  0  0  0  0  0  0
   -1.1689    0.4313   -4.8502 C   0  0  0  0  0  0  0  0  0  0  0  0
   -2.1002    2.5154   -4.0588 C   0  0  0  0  0  0  0  0  0  0  0  0
   -2.0936    1.4675   -4.9796 C   0  0  0  0  0  0  0  0  0  0  0  0
   -1.6531    1.4091   -0.4852 H   0  0  0  0  0  0  0  0  0  0  0  0
    0.0668   -0.4026   -0.9113 H   0  0  0  0  0  0  0  0  0  0  0  0
    1.7237    1.1980   -2.1121 H   0  0  0  0  0  0  0  0  0  0  0  0
    0.8613    2.5417   -1.4081 H   0  0  0  0  0  0  0  0  0  0  0  0
    0.4658   -0.3690   -3.7071 H   0  0  0  0  0  0  0  0  0  0  0  0
   -1.1948    3.3472   -2.2960 H   0  0  0  0  0  0  0  0  0  0  0  0
   -1.1629   -0.3841   -5.5677 H   0  0  0  0  0  0  0  0  0  0  0  0
   -2.8192    3.3229   -4.1599 H   0  0  0  0  0  0  0  0  0  0  0  0
   -2.8074    1.4592   -5.7981 H   0  0  0  0  0  0  0  0  0  0  0  0
    2.3214   -0.4776    0.1978 N   0  0  0  0  0  0  0  0  0  0  0  0
    3.4561   -0.7784    1.0408 C   0  0  2  0  0  0  0  0  0  0  0  0
    4.2014    0.5226    1.3081 C   0  0  0  0  0  0  0  0  0  0  0  0
    4.1162    1.5069    0.5767 O   0  0  0  0  0  0  0  0  0  0  0  0
    4.3709   -1.8054    0.3918 C   0  0  0  0  0  0  0  0  0  0  0  0
    2.1790   -1.0380   -0.6374 H   0  0  0  0  0  0  0  0  0  0  0  0
    3.0557   -1.1706    1.9820 H   0  0  0  0  0  0  0  0  0  0  0  0
    4.7817   -1.4302   -0.5526 H   0  0  0  0  0  0  0  0  0  0  0  0
    5.2148   -2.0534    1.0439 H   0  0  0  0  0  0  0  0  0  0  0  0
    3.8257   -2.7299    0.1731 H   0  0  0  0  0  0  0  0  0  0  0  0
    5.0063    0.4407    2.4358 N   0  0  0  0  0  0  0  0  0  0  0  0
    5.8236    1.5408    2.8918 C   0  0  0  0  0  0  0  0  0  0  0  0
    5.0006   -0.4084    2.9932 H   0  0  0  0  0  0  0  0  0  0  0  0
    6.8309    1.4542    2.4582 H   0  0  0  0  0  0  0  0  0  0  0  0
    5.3688    2.4911    2.5755 H   0  0  0  0  0  0  0  0  0  0  0  0
    5.8936    1.5151    3.9893 H   0  0  0  0  0  0  0  0  0  0  0  0
 25 27  1  0  0  0  0
 26 27  2  0  0  0  0
 23 25  2  0  0  0  0
 24 26  1  0  0  0  0
 22 23  1  0  0  0  0
 22 24  2  0  0  0  0
 21 22  1  0  0  0  0
  1  3  1  0  0  0  0
  1  7  1  0  0  0  0
  1  2  2  0  0  0  0
 38 39  1  0  0  0  0
 39 47  1  0  0  0  0
 39 40  2  0  0  0  0
  8  9  1  0  0  0  0
  9 17  1  0  0  0  0
  9 10  2  0  0  0  0
 18 19  1  0  0  0  0
 19 37  1  0  0  0  0
 19 20  2  0  0  0  0
 38 41  1  0  0  0  0
  8 11  1  0  0  0  0
 47 48  1  0  0  0  0
 18 21  1  0  0  0  0
 37 38  1  0  0  0  0
  7  8  1  0  0  0  0
 17 18  1  0  0  0  0
 27 36  1  0  0  0  0
 25 34  1  0  0  0  0
 26 35  1  0  0  0  0
 23 32  1  0  0  0  0
 24 33  1  0  0  0  0
  3  4  1  0  0  0  0
  3  5  1  0  0  0  0
  3  6  1  0  0  0  0
 41 44  1  0  0  0  0
 41 45  1  0  0  0  0
 41 46  1  0  0  0  0
 11 14  1  0  0  0  0
 11 15  1  0  0  0  0
 11 16  1  0  0  0  0
 48 50  1  0  0  0  0
 48 51  1  0  0  0  0
 48 52  1  0  0  0  0
 21 30  1  0  0  0  0
 21 31  1  0  0  0  0
 38 43  1  0  0  0  0
  8 13  1  0  0  0  0
 18 29  1  0  0  0  0
 47 49  1  0  0  0  0
  7 12  1  0  0  0  0
 37 42  1  0  0  0  0
 17 28  1  0  0  0  0
M  END
$$$$

  -OEChem-05262214473D

 52 52  0     1  0  0  0  0  0999 V2000
   -1.8248    0.3424    3.9102 C   0  0  0  0  0  0  0  0  0  0  0  0
   -0.8774   -0.2723    3.4345 O   0  0  0  0  0  0  0  0  0  0  0  0
   -2.2566    0.0600    5.3109 C   0  0  0  0  0  0  0  0  0  0  0  0
   -3.0163   -0.7363    5.3643 H   0  0  0  0  0  0  0  0  0  0  0  0
   -1.4254   -0.2876    5.9452 H   0  0  0  0  0  0  0  0  0  0  0  0
   -2.6947    0.9149    5.8505 H   0  0  0  0  0  0  0  0  0  0  0  0
   -2.5745    1.3149    3.2691 N   0  0  0  0  0  0  0  0  0  0  0  0
   -2.3276    1.7409    1.9167 C   0  0  2  0  0  0  0  0  0  0  0  0
   -0.9926    1.1555    1.4755 C   0  0  0  0  0  0  0  0  0  0  0  0
   -0.1206    0.8028    2.2668 O   0  0  0  0  0  0  0  0  0  0  0  0
   -2.3188    3.2577    1.8072 C   0  0  0  0  0  0  0  0  0  0  0  0
   -3.3395    1.7507    3.7809 H   0  0  0  0  0  0  0  0  0  0  0  0
   -3.1317    1.3224    1.3015 H   0  0  0  0  0  0  0  0  0  0  0  0
   -1.5198    3.6949    2.4169 H   0  0  0  0  0  0  0  0  0  0  0  0
   -2.1594    3.5799    0.7729 H   0  0  0  0  0  0  0  0  0  0  0  0
   -3.2690    3.6789    2.1530 H   0  0  0  0  0  0  0  0  0  0  0  0
   -0.8700    1.1124    0.0921 N   0  0  0  0  0  0  0  0  0  0  0  0
    0.3073    0.6116   -0.5716 C   0  0  2  0  0  0  0  0  0  0  0  0
    1.4165    0.5385    0.4718 C   0  0  0  0  0  0  0  0  0  0  0  0
    1.3318    1.0703    1.5767 O   0  0  0  0  0  0  0  0  0  0  0  0
    0.7353    1.5035   -1.7427 C   0  0  0  0  0  0  0  0  0  0  0  0
   -0.2575    1.4905   -2.8793 C   0  0  0  0  0  0  0  0  0  0  0  0
   -0.2509    0.4428   -3.8001 C   0  0  0  0  0  0  0  0  0  0  0  0
   -1.1822    2.5268   -3.0087 C   0  0  0  0  0  0  0  0  0  0  0  0
   -1.1689    0.4313   -4.8502 C   0  0  0  0  0  0  0  0  0  0  0  0
   -2.1002    2.5154   -4.0588 C   0  0  0  0  0  0  0  0  0  0  0  0
   -2.0936    1.4675   -4.9796 C   0  0  0  0  0  0  0  0  0  0  0  0
   -1.6531    1.4091   -0.4852 H   0  0  0  0  0  0  0  0  0  0  0  0
    0.0668   -0.4026   -0.9113 H   0  0  0  0  0  0  0  0  0  0  0  0
    1.7237    1.1980   -2.1121 H   0  0  0  0  0  0  0  0  0  0  0  0
    0.8613    2.5417   -1.4081 H   0  0  0  0  0  0  0  0  0  0  0  0
    0.4658   -0.3690   -3.7071 H   0  0  0  0  0  0  0  0  0  0  0  0
   -1.1948    3.3472   -2.2960 H   0  0  0  0  0  0  0  0  0  0  0  0
   -1.1629   -0.3841   -5.5677 H   0  0  0  0  0  0  0  0  0  0  0  0
   -2.8192    3.3229   -4.1599 H   0  0  0  0  0  0  0  0  0  0  0  0
   -2.8074    1.4592   -5.7981 H   0  0  0  0  0  0  0  0  0  0  0  0
    2.4868   -0.2319    0.0391 N   0  0  0  0  0  0  0  0  0  0  0  0
    3.6608   -0.4826    0.8439 C   0  0  2  0  0  0  0  0  0  0  0  0
    4.1634    0.8547    1.3718 C   0  0  0  0  0  0  0  0  0  0  0  0
    3.9007    1.9291    0.8354 O   0  0  0  0  0  0  0  0  0  0  0  0
    4.7411   -1.1907    0.0413 C   0  0  0  0  0  0  0  0  0  0  0  0
    2.4429   -0.6402   -0.8900 H   0  0  0  0  0  0  0  0  0  0  0  0
    3.3410   -1.1102    1.6829 H   0  0  0  0  0  0  0  0  0  0  0  0
    5.0742   -0.5771   -0.8037 H   0  0  0  0  0  0  0  0  0  0  0  0
    5.6187   -1.4054    0.6600 H   0  0  0  0  0  0  0  0  0  0  0  0
    4.3685   -2.1383   -0.3625 H   0  0  0  0  0  0  0  0  0  0  0  0
    4.9751    0.7036    2.4874 N   0  0  0  0  0  0  0  0  0  0  0  0
    5.5852    1.8237    3.1650 C   0  0  0  0  0  0  0  0  0  0  0  0
    5.1234   -0.2232    2.8756 H   0  0  0  0  0  0  0  0  0  0  0  0
    6.5898    1.9995    2.7527 H   0  0  0  0  0  0  0  0  0  0  0  0
    4.9668    2.7216    3.0190 H   0  0  0  0  0  0  0  0  0  0  0  0
    5.6636    1.6033    4.2399 H   0  0  0  0  0  0  0  0  0  0  0  0
 25 27  1  0  0  0  0
 26 27  2  0  0  0  0
 23 25  2  0  0  0  0
 24 26  1  0  0  0  0
 22 23  1  0  0  0  0
 22 24  2  0  0  0  0
 21 22  1  0  0  0  0
  1  3  1  0  0  0  0
  1  7  1  0  0  0  0
  1  2  2  0  0  0  0
 38 39  1  0  0  0  0
 39 47  1  0  0  0  0
 39 40  2  0  0  0  0
  8  9  1  0  0  0  0
  9 17  1  0  0  0  0
  9 10  2  0  0  0  0
 18 19  1  0  0  0  0
 19 37  1  0  0  0  0
 19 20  2  0  0  0  0
 38 41  1  0  0  0  0
  8 11  1  0  0  0  0
 47 48  1  0  0  0  0
 18 21  1  0  0  0  0
 37 38  1  0  0  0  0
  7  8  1  0  0  0  0
 17 18  1  0  0  0  0
 27 36  1  0  0  0  0
 25 34  1  0  0  0  0
 26 35  1  0  0  0  0
 23 32  1  0  0  0  0
 24 33  1  0  0  0  0
  3  4  1  0  0  0  0
  3  5  1  0  0  0  0
  3  6  1  0  0  0  0
 41 44  1  0  0  0  0
 41 45  1  0  0  0  0
 41 46  1  0  0  0  0
 11 14  1  0  0  0  0
 11 15  1  0  0  0  0
 11 16  1  0  0  0  0
 48 50  1  0  0  0  0
 48 51  1  0  0  0  0
 48 52  1  0  0  0  0
 21 30  1  0  0  0  0
 21 31  1  0  0  0  0
 38 43  1  0  0  0  0
  8 13  1  0  0  0  0
 18 29  1  0  0  0  0
 47 49  1  0  0  0  0
  7 12  1  0  0  0  0
 37 42  1  0  0  0  0
 17 28  1  0  0  0  0
M  END
$$$$

  -OEChem-05262214473D

 52 52  0     1  0  0  0  0  0999 V2000
   -1.8248    0.3424    3.9102 C   0  0  0  0  0  0  0  0  0  0  0  0
   -0.8774   -0.2723    3.4345 O   0  0  0  0  0  0  0  0  0  0  0  0
   -2.2566    0.0600    5.3109 C   0  0  0  0  0  0  0  0  0  0  0  0
   -3.0163   -0.7363    5.3643 H   0  0  0  0  0  0  0  0  0  0  0  0
   -1.4254   -0.2876    5.9452 H   0  0  0  0  0  0  0  0  0  0  0  0
   -2.6947    0.9149    5.8505 H   0  0  0  0  0  0  0  0  0  0  0  0
   -2.5745    1.3149    3.2691 N   0  0  0  0  0  0  0  0  0  0  0  0
   -2.3276    1.7409    1.9167 C   0  0  2  0  0  0  0  0  0  0  0  0
   -0.9926    1.1555    1.4755 C   0  0  0  0  0  0  0  0  0  0  0  0
   -0.1206    0.8028    2.2668 O   0  0  0  0  0  0  0  0  0  0  0  0
   -2.3188    3.2577    1.8072 C   0  0  0  0  0  0  0  0  0  0  0  0
   -3.3395    1.7507    3.7809 H   0  0  0  0  0  0  0  0  0  0  0  0
   -3.1317    1.3224    1.3015 H   0  0  0  0  0  0  0  0  0  0  0  0
   -1.5198    3.6949    2.4169 H   0  0  0  0  0  0  0  0  0  0  0  0
   -2.1594    3.5799    0.7729 H   0  0  0  0  0  0  0  0  0  0  0  0
   -3.2690    3.6789    2.1530 H   0  0  0  0  0  0  0  0  0  0  0  0
   -0.8700    1.1124    0.0921 N   0  0  0  0  0  0  0  0  0  0  0  0
    0.3073    0.6116   -0.5716 C   0  0  2  0  0  0  0  0  0  0  0  0
    1.2887    0.1829    0.5134 C   0  0  0  0  0  0  0  0  0  0  0  0
    1.0278    0.2426    1.7131 O   0  0  0  0  0  0  0  0  0  0  0  0
    0.9485    1.6628   -1.4849 C   0  0  0  0  0  0  0  0  0  0  0  0
    0.0823    2.0123   -2.6703 C   0  0  0  0  0  0  0  0  0  0  0  0
    0.0687    1.1847   -3.7931 C   0  0  0  0  0  0  0  0  0  0  0  0
   -0.7051    3.1633   -2.6428 C   0  0  0  0  0  0  0  0  0  0  0  0
   -0.7323    1.5081   -4.8883 C   0  0  0  0  0  0  0  0  0  0  0  0
   -1.5061    3.4868   -3.7380 C   0  0  0  0  0  0  0  0  0  0  0  0
   -1.5197    2.6591   -4.8607 C   0  0  0  0  0  0  0  0  0  0  0  0
   -1.6531    1.4091   -0.4852 H   0  0  0  0  0  0  0  0  0  0  0  0
   -0.0066   -0.2713   -1.1407 H   0  0  0  0  0  0  0  0  0  0  0  0
    1.9301    1.3152   -1.8343 H   0  0  0  0  0  0  0  0  0  0  0  0
    1.1524    2.5848   -0.9244 H   0  0  0  0  0  0  0  0  0  0  0  0
    0.6788    0.2858   -3.8233 H   0  0  0  0  0  0  0  0  0  0  0  0
   -0.7010    3.8140   -1.7723 H   0  0  0  0  0  0  0  0  0  0  0  0
   -0.7419    0.8642   -5.7629 H   0  0  0  0  0  0  0  0  0  0  0  0
   -2.1182    4.3836   -3.7167 H   0  0  0  0  0  0  0  0  0  0  0  0
   -2.1423    2.9116   -5.7142 H   0  0  0  0  0  0  0  0  0  0  0  0
    2.4672   -0.3193   -0.0209 N   0  0  0  0  0  0  0  0  0  0  0  0
    3.5565   -0.8170    0.7881 C   0  0  2  0  0  0  0  0  0  0  0  0
    3.8717    0.2302    1.8481 C   0  0  0  0  0  0  0  0  0  0  0  0
    3.5784    1.4177    1.7259 O   0  0  0  0  0  0  0  0  0  0  0  0
    4.7825   -1.1184   -0.0597 C   0  0  0  0  0  0  0  0  0  0  0  0
    2.5691   -0.3380   -1.0313 H   0  0  0  0  0  0  0  0  0  0  0  0
    3.1983   -1.7317    1.2728 H   0  0  0  0  0  0  0  0  0  0  0  0
    5.1559   -0.2137   -0.5533 H   0  0  0  0  0  0  0  0  0  0  0  0
    5.5973   -1.5221    0.5504 H   0  0  0  0  0  0  0  0  0  0  0  0
    4.5464   -1.8495   -0.8403 H   0  0  0  0  0  0  0  0  0  0  0  0
    4.5575   -0.3095    2.9272 N   0  0  0  0  0  0  0  0  0  0  0  0
    4.9810    0.4838    4.0575 C   0  0  0  0  0  0  0  0  0  0  0  0
    4.7419   -1.3080    2.9533 H   0  0  0  0  0  0  0  0  0  0  0  0
    6.0071    0.8431    3.8900 H   0  0  0  0  0  0  0  0  0  0  0  0
    4.3059    1.3442    4.1750 H   0  0  0  0  0  0  0  0  0  0  0  0
    4.9524   -0.1318    4.9686 H   0  0  0  0  0  0  0  0  0  0  0  0
 25 27  1  0  0  0  0
 26 27  2  0  0  0  0
 23 25  2  0  0  0  0
 24 26  1  0  0  0  0
 22 23  1  0  0  0  0
 22 24  2  0  0  0  0
 21 22  1  0  0  0  0
  1  3  1  0  0  0  0
  1  7  1  0  0  0  0
  1  2  2  0  0  0  0
 38 39  1  0  0  0  0
 39 47  1  0  0  0  0
 39 40  2  0  0  0  0
  8  9  1  0  0  0  0
  9 17  1  0  0  0  0
  9 10  2  0  0  0  0
 18 19  1  0  0  0  0
 19 37  1  0  0  0  0
 19 20  2  0  0  0  0
 38 41  1  0  0  0  0
  8 11  1  0  0  0  0
 47 48  1  0  0  0  0
 18 21  1  0  0  0  0
 37 38  1  0  0  0  0
  7  8  1  0  0  0  0
 17 18  1  0  0  0  0
 27 36  1  0  0  0  0
 25 34  1  0  0  0  0
 26 35  1  0  0  0  0
 23 32  1  0  0  0  0
 24 33  1  0  0  0  0
  3  4  1  0  0  0  0
  3  5  1  0  0  0  0
  3  6  1  0  0  0  0
 41 44  1  0  0  0  0
 41 45  1  0  0  0  0
 41 46  1  0  0  0  0
 11 14  1  0  0  0  0
 11 15  1  0  0  0  0
 11 16  1  0  0  0  0
 48 50  1  0  0  0  0
 48 51  1  0  0  0  0
 48 52  1  0  0  0  0
 21 30  1  0  0  0  0
 21 31  1  0  0  0  0
 38 43  1  0  0  0  0
  8 13  1  0  0  0  0
 18 29  1  0  0  0  0
 47 49  1  0  0  0  0
  7 12  1  0  0  0  0
 37 42  1  0  0  0  0
 17 28  1  0  0  0  0
M  END
$$$$

  -OEChem-05262214473D

 52 52  0     1  0  0  0  0  0999 V2000
   -1.8248    0.3424    3.9102 C   0  0  0  0  0  0  0  0  0  0  0  0
   -0.8774   -0.2723    3.4345 O   0  0  0  0  0  0  0  0  0  0  0  0
   -2.2566    0.0600    5.3109 C   0  0  0  0  0  0  0  0  0  0  0  0
   -3.0163   -0.7363    5.3643 H   0  0  0  0  0  0  0  0  0  0  0  0
   -1.4254   -0.2876    5.9452 H   0  0  0  0  0  0  0  0  0  0  0  0
   -2.6947    0.9149    5.8505 H   0  0  0  0  0  0  0  0  0  0  0  0
   -2.5745    1.3149    3.2691 N   0  0  0  0  0  0  0  0  0  0  0  0
   -2.3276    1.7409    1.9167 C   0  0  2  0  0  0  0  0  0  0  0  0
   -0.9926    1.1555    1.4755 C   0  0  0  0  0  0  0  0  0  0  0  0
   -0.1206    0.8028    2.2668 O   0  0  0  0  0  0  0  0  0  0  0  0
   -2.3188    3.2577    1.8072 C   0  0  0  0  0  0  0  0  0  0  0  0
   -3.3395    1.7507    3.7809 H   0  0  0  0  0  0  0  0  0  0  0  0
   -3.1317    1.3224    1.3015 H   0  0  0  0  0  0  0  0  0  0  0  0
   -1.5198    3.6949    2.4169 H   0  0  0  0  0  0  0  0  0  0  0  0
   -2.1594    3.5799    0.7729 H   0  0  0  0  0  0  0  0  0  0  0  0
   -3.2690    3.6789    2.1530 H   0  0  0  0  0  0  0  0  0  0  0  0
   -0.8700    1.1124    0.0921 N   0  0  0  0  0  0  0  0  0  0  0  0
    0.3073    0.6116   -0.5716 C   0  0  2  0  0  0  0  0  0  0  0  0
    1.2887    0.1829    0.5134 C   0  0  0  0  0  0  0  0  0  0  0  0
    0.9531   -0.0138    1.6795 O   0  0  0  0  0  0  0  0  0  0  0  0
    0.9485    1.6628   -1.4849 C   0  0  0  0  0  0  0  0  0  0  0  0
    0.0823    2.0123   -2.6703 C   0  0  0  0  0  0  0  0  0  0  0  0
    0.0687    1.1847   -3.7931 C   0  0  0  0  0  0  0  0  0  0  0  0
   -0.7051    3.1633   -2.6428 C   0  0  0  0  0  0  0  0  0  0  0  0
   -0.7323    1.5081   -4.8883 C   0  0  0  0  0  0  0  0  0  0  0  0
   -1.5061    3.4868   -3.7380 C   0  0  0  0  0  0  0  0  0  0  0  0
   -1.5197    2.6591   -4.8607 C   0  0  0  0  0  0  0  0  0  0  0  0
   -1.6531    1.4091   -0.4852 H   0  0  0  0  0  0  0  0  0  0  0  0
   -0.0066   -0.2713   -1.1407 H   0  0  0  0  0  0  0  0  0  0  0  0
    1.9301    1.3152   -1.8343 H   0  0  0  0  0  0  0  0  0  0  0  0
    1.1524    2.5848   -0.9244 H   0  0  0  0  0  0  0  0  0  0  0  0
    0.6788    0.2858   -3.8233 H   0  0  0  0  0  0  0  0  0  0  0  0
   -0.7010    3.8140   -1.7723 H   0  0  0  0  0  0  0  0  0  0  0  0
   -0.7419    0.8642   -5.7629 H   0  0  0  0  0  0  0  0  0  0  0  0
   -2.1182    4.3836   -3.7167 H   0  0  0  0  0  0  0  0  0  0  0  0
   -2.1423    2.9116   -5.7142 H   0  0  0  0  0  0  0  0  0  0  0  0
    2.5698   -0.0011    0.0121 N   0  0  0  0  0  0  0  0  0  0  0  0
    3.6859   -0.4295    0.8242 C   0  0  2  0  0  0  0  0  0  0  0  0
    3.7348    0.4572    2.0615 C   0  0  0  0  0  0  0  0  0  0  0  0
    3.2283    1.5763    2.1053 O   0  0  0  0  0  0  0  0  0  0  0  0
    4.9933   -0.3561    0.0509 C   0  0  0  0  0  0  0  0  0  0  0  0
    2.7311    0.1742   -0.9754 H   0  0  0  0  0  0  0  0  0  0  0  0
    3.4812   -1.4634    1.1229 H   0  0  0  0  0  0  0  0  0  0  0  0
    5.2152    0.6722   -0.2569 H   0  0  0  0  0  0  0  0  0  0  0  0
    5.8338   -0.7080    0.6582 H   0  0  0  0  0  0  0  0  0  0  0  0
    4.9457   -0.9710   -0.8543 H   0  0  0  0  0  0  0  0  0  0  0  0
    4.4480   -0.1307    3.0969 N   0  0  0  0  0  0  0  0  0  0  0  0
    4.6474    0.5171    4.3723 C   0  0  0  0  0  0  0  0  0  0  0  0
    4.8173   -1.0696    2.9793 H   0  0  0  0  0  0  0  0  0  0  0  0
    5.5942    1.0769    4.3558 H   0  0  0  0  0  0  0  0  0  0  0  0
    3.8152    1.2099    4.5657 H   0  0  0  0  0  0  0  0  0  0  0  0
    4.6845   -0.2423    5.1673 H   0  0  0  0  0  0  0  0  0  0  0  0
 25 27  1  0  0  0  0
 26 27  2  0  0  0  0
 23 25  2  0  0  0  0
 24 26  1  0  0  0  0
 22 23  1  0  0  0  0
 22 24  2  0  0  0  0
 21 22  1  0  0  0  0
  1  3  1  0  0  0  0
  1  7  1  0  0  0  0
  1  2  2  0  0  0  0
 38 39  1  0  0  0  0
 39 47  1  0  0  0  0
 39 40  2  0  0  0  0
  8  9  1  0  0  0  0
  9 17  1  0  0  0  0
  9 10  2  0  0  0  0
 18 19  1  0  0  0  0
 19 37  1  0  0  0  0
 19 20  2  0  0  0  0
 38 41  1  0  0  0  0
  8 11  1  0  0  0  0
 47 48  1  0  0  0  0
 18 21  1  0  0  0  0
 37 38  1  0  0  0  0
  7  8  1  0  0  0  0
 17 18  1  0  0  0  0
 27 36  1  0  0  0  0
 25 34  1  0  0  0  0
 26 35  1  0  0  0  0
 23 32  1  0  0  0  0
 24 33  1  0  0  0  0
  3  4  1  0  0  0  0
  3  5  1  0  0  0  0
  3  6  1  0  0  0  0
 41 44  1  0  0  0  0
 41 45  1  0  0  0  0
 41 46  1  0  0  0  0
 11 14  1  0  0  0  0
 11 15  1  0  0  0  0
 11 16  1  0  0  0  0
 48 50  1  0  0  0  0
 48 51  1  0  0  0  0
 48 52  1  0  0  0  0
 21 30  1  0  0  0  0
 21 31  1  0  0  0  0
 38 43  1  0  0  0  0
  8 13  1  0  0  0  0
 18 29  1  0  0  0  0
 47 49  1  0  0  0  0
  7 12  1  0  0  0  0
 37 42  1  0  0  0  0
 17 28  1  0  0  0  0
M  END
$$$$

  -OEChem-05262214473D

 52 52  0     1  0  0  0  0  0999 V2000
   -1.8248    0.3424    3.9102 C   0  0  0  0  0  0  0  0  0  0  0  0
   -0.8774   -0.2723    3.4345 O   0  0  0  0  0  0  0  0  0  0  0  0
   -2.2566    0.0600    5.3109 C   0  0  0  0  0  0  0  0  0  0  0  0
   -3.0163   -0.7363    5.3643 H   0  0  0  0  0  0  0  0  0  0  0  0
   -1.4254   -0.2876    5.9452 H   0  0  0  0  0  0  0  0  0  0  0  0
   -2.6947    0.9149    5.8505 H   0  0  0  0  0  0  0  0  0  0  0  0
   -2.5745    1.3149    3.2691 N   0  0  0  0  0  0  0  0  0  0  0  0
   -2.3276    1.7409    1.9167 C   0  0  2  0  0  0  0  0  0  0  0  0
   -0.9926    1.1555    1.4755 C   0  0  0  0  0  0  0  0  0  0  0  0
   -0.1206    0.8028    2.2668 O   0  0  0  0  0  0  0  0  0  0  0  0
   -2.3188    3.2577    1.8072 C   0  0  0  0  0  0  0  0  0  0  0  0
   -3.3395    1.7507    3.7809 H   0  0  0  0  0  0  0  0  0  0  0  0
   -3.1317    1.3224    1.3015 H   0  0  0  0  0  0  0  0  0  0  0  0
   -1.5198    3.6949    2.4169 H   0  0  0  0  0  0  0  0  0  0  0  0
   -2.1594    3.5799    0.7729 H   0  0  0  0  0  0  0  0  0  0  0  0
   -3.2690    3.6789    2.1530 H   0  0  0  0  0  0  0  0  0  0  0  0
   -0.8700    1.1124    0.0921 N   0  0  0  0  0  0  0  0  0  0  0  0
    0.3073    0.6116   -0.5716 C   0  0  2  0  0  0  0  0  0  0  0  0
    1.2887    0.1829    0.5134 C   0  0  0  0  0  0  0  0  0  0  0  0
    0.9305   -0.2696    1.5988 O   0  0  0  0  0  0  0  0  0  0  0  0
    0.9485    1.6628   -1.4849 C   0  0  0  0  0  0  0  0  0  0  0  0
    0.0823    2.0123   -2.6703 C   0  0  0  0  0  0  0  0  0  0  0  0
    0.0687    1.1847   -3.7931 C   0  0  0  0  0  0  0  0  0  0  0  0
   -0.7051    3.1633   -2.6428 C   0  0  0  0  0  0  0  0  0  0  0  0
   -0.7323    1.5081   -4.8883 C   0  0  0  0  0  0  0  0  0  0  0  0
   -1.5061    3.4868   -3.7380 C   0  0  0  0  0  0  0  0  0  0  0  0
   -1.5197    2.6591   -4.8607 C   0  0  0  0  0  0  0  0  0  0  0  0
   -1.6531    1.4091   -0.4852 H   0  0  0  0  0  0  0  0  0  0  0  0
   -0.0066   -0.2713   -1.1407 H   0  0  0  0  0  0  0  0  0  0  0  0
    1.9301    1.3152   -1.8343 H   0  0  0  0  0  0  0  0  0  0  0  0
    1.1524    2.5848   -0.9244 H   0  0  0  0  0  0  0  0  0  0  0  0
    0.6788    0.2858   -3.8233 H   0  0  0  0  0  0  0  0  0  0  0  0
   -0.7010    3.8140   -1.7723 H   0  0  0  0  0  0  0  0  0  0  0  0
   -0.7419    0.8642   -5.7629 H   0  0  0  0  0  0  0  0  0  0  0  0
   -2.1182    4.3836   -3.7167 H   0  0  0  0  0  0  0  0  0  0  0  0
   -2.1423    2.9116   -5.7142 H   0  0  0  0  0  0  0  0  0  0  0  0
    2.6079    0.3197    0.1043 N   0  0  0  0  0  0  0  0  0  0  0  0
    3.7369   -0.0374    0.9331 C   0  0  2  0  0  0  0  0  0  0  0  0
    3.5453    0.6156    2.2956 C   0  0  0  0  0  0  0  0  0  0  0  0
    2.8333    1.6019    2.4726 O   0  0  0  0  0  0  0  0  0  0  0  0
    5.0484    0.4006    0.3000 C   0  0  0  0  0  0  0  0  0  0  0  0
    2.7891    0.6895   -0.8242 H   0  0  0  0  0  0  0  0  0  0  0  0
    3.7160   -1.1271    1.0435 H   0  0  0  0  0  0  0  0  0  0  0  0
    5.0877    1.4895    0.1814 H   0  0  0  0  0  0  0  0  0  0  0  0
    5.9044    0.1041    0.9152 H   0  0  0  0  0  0  0  0  0  0  0  0
    5.1706   -0.0465   -0.6924 H   0  0  0  0  0  0  0  0  0  0  0  0
    4.2969   -0.0064    3.2827 N   0  0  0  0  0  0  0  0  0  0  0  0
    4.2961    0.4353    4.6578 C   0  0  0  0  0  0  0  0  0  0  0  0
    4.8443   -0.8297    3.0496 H   0  0  0  0  0  0  0  0  0  0  0  0
    5.1184    1.1490    4.8146 H   0  0  0  0  0  0  0  0  0  0  0  0
    3.3376    0.9247    4.8850 H   0  0  0  0  0  0  0  0  0  0  0  0
    4.4316   -0.4315    5.3213 H   0  0  0  0  0  0  0  0  0  0  0  0
 25 27  1  0  0  0  0
 26 27  2  0  0  0  0
 23 25  2  0  0  0  0
 24 26  1  0  0  0  0
 22 23  1  0  0  0  0
 22 24  2  0  0  0  0
 21 22  1  0  0  0  0
  1  3  1  0  0  0  0
  1  7  1  0  0  0  0
  1  2  2  0  0  0  0
 38 39  1  0  0  0  0
 39 47  1  0  0  0  0
 39 40  2  0  0  0  0
  8  9  1  0  0  0  0
  9 17  1  0  0  0  0
  9 10  2  0  0  0  0
 18 19  1  0  0  0  0
 19 37  1  0  0  0  0
 19 20  2  0  0  0  0
 38 41  1  0  0  0  0
  8 11  1  0  0  0  0
 47 48  1  0  0  0  0
 18 21  1  0  0  0  0
 37 38  1  0  0  0  0
  7  8  1  0  0  0  0
 17 18  1  0  0  0  0
 27 36  1  0  0  0  0
 25 34  1  0  0  0  0
 26 35  1  0  0  0  0
 23 32  1  0  0  0  0
 24 33  1  0  0  0  0
  3  4  1  0  0  0  0
  3  5  1  0  0  0  0
  3  6  1  0  0  0  0
 41 44  1  0  0  0  0
 41 45  1  0  0  0  0
 41 46  1  0  0  0  0
 11 14  1  0  0  0  0
 11 15  1  0  0  0  0
 11 16  1  0  0  0  0
 48 50  1  0  0  0  0
 48 51  1  0  0  0  0
 48 52  1  0  0  0  0
 21 30  1  0  0  0  0
 21 31  1  0  0  0  0
 38 43  1  0  0  0  0
  8 13  1  0  0  0  0
 18 29  1  0  0  0  0
 47 49  1  0  0  0  0
  7 12  1  0  0  0  0
 37 42  1  0  0  0  0
 17 28  1  0  0  0  0
M  END
$$$$

  -OEChem-05262214473D

 52 52  0     1  0  0  0  0  0999 V2000
   -1.8248    0.3424    3.9102 C   0  0  0  0  0  0  0  0  0  0  0  0
   -0.8774   -0.2723    3.4345 O   0  0  0  0  0  0  0  0  0  0  0  0
   -2.2566    0.0600    5.3109 C   0  0  0  0  0  0  0  0  0  0  0  0
   -3.0163   -0.7363    5.3643 H   0  0  0  0  0  0  0  0  0  0  0  0
   -1.4254   -0.2876    5.9452 H   0  0  0  0  0  0  0  0  0  0  0  0
   -2.6947    0.9149    5.8505 H   0  0  0  0  0  0  0  0  0  0  0  0
   -2.5745    1.3149    3.2691 N   0  0  0  0  0  0  0  0  0  0  0  0
   -2.3276    1.7409    1.9167 C   0  0  2  0  0  0  0  0  0  0  0  0
   -0.9926    1.1555    1.4755 C   0  0  0  0  0  0  0  0  0  0  0  0
   -0.1206    0.8028    2.2668 O   0  0  0  0  0  0  0  0  0  0  0  0
   -2.3188    3.2577    1.8072 C   0  0  0  0  0  0  0  0  0  0  0  0
   -3.3395    1.7507    3.7809 H   0  0  0  0  0  0  0  0  0  0  0  0
   -3.1317    1.3224    1.3015 H   0  0  0  0  0  0  0  0  0  0  0  0
   -1.5198    3.6949    2.4169 H   0  0  0  0  0  0  0  0  0  0  0  0
   -2.1594    3.5799    0.7729 H   0  0  0  0  0  0  0  0  0  0  0  0
   -3.2690    3.6789    2.1530 H   0  0  0  0  0  0  0  0  0  0  0  0
   -0.8700    1.1124    0.0921 N   0  0  0  0  0  0  0  0  0  0  0  0
    0.3073    0.6116   -0.5716 C   0  0  2  0  0  0  0  0  0  0  0  0
    1.2887    0.1829    0.5134 C   0  0  0  0  0  0  0  0  0  0  0  0
    0.9618   -0.5074    1.4765 O   0  0  0  0  0  0  0  0  0  0  0  0
    0.9485    1.6628   -1.4849 C   0  0  0  0  0  0  0  0  0  0  0  0
    0.0823    2.0123   -2.6703 C   0  0  0  0  0  0  0  0  0  0  0  0
    0.0687    1.1847   -3.7931 C   0  0  0  0  0  0  0  0  0  0  0  0
   -0.7051    3.1633   -2.6428 C   0  0  0  0  0  0  0  0  0  0  0  0
   -0.7323    1.5081   -4.8883 C   0  0  0  0  0  0  0  0  0  0  0  0
   -1.5061    3.4868   -3.7380 C   0  0  0  0  0  0  0  0  0  0  0  0
   -1.5197    2.6591   -4.8607 C   0  0  0  0  0  0  0  0  0  0  0  0
   -1.6531    1.4091   -0.4852 H   0  0  0  0  0  0  0  0  0  0  0  0
   -0.0066   -0.2713   -1.1407 H   0  0  0  0  0  0  0  0  0  0  0  0
    1.9301    1.3152   -1.8343 H   0  0  0  0  0  0  0  0  0  0  0  0
    1.1524    2.5848   -0.9244 H   0  0  0  0  0  0  0  0  0  0  0  0
    0.6788    0.2858   -3.8233 H   0  0  0  0  0  0  0  0  0  0  0  0
   -0.7010    3.8140   -1.7723 H   0  0  0  0  0  0  0  0  0  0  0  0
   -0.7419    0.8642   -5.7629 H   0  0  0  0  0  0  0  0  0  0  0  0
   -2.1182    4.3836   -3.7167 H   0  0  0  0  0  0  0  0  0  0  0  0
   -2.1423    2.9116   -5.7142 H   0  0  0  0  0  0  0  0  0  0  0  0
    2.5789    0.6212    0.2497 N   0  0  0  0  0  0  0  0  0  0  0  0
    3.7060    0.3326    1.1072 C   0  0  2  0  0  0  0  0  0  0  0  0
    3.3160    0.6947    2.5342 C   0  0  0  0  0  0  0  0  0  0  0  0
    2.4203    1.4925    2.8029 O   0  0  0  0  0  0  0  0  0  0  0  0
    4.9442    1.1001    0.6708 C   0  0  0  0  0  0  0  0  0  0  0  0
    2.7392    1.1727   -0.5882 H   0  0  0  0  0  0  0  0  0  0  0  0
    3.8867   -0.7457    1.0398 H   0  0  0  0  0  0  0  0  0  0  0  0
    4.7821    2.1825    0.7316 H   0  0  0  0  0  0  0  0  0  0  0  0
    5.8043    0.8586    1.3039 H   0  0  0  0  0  0  0  0  0  0  0  0
    5.2057    0.8609   -0.3657 H   0  0  0  0  0  0  0  0  0  0  0  0
    4.1146    0.0548    3.4718 N   0  0  0  0  0  0  0  0  0  0  0  0
    3.9511    0.2441    4.8943 C   0  0  0  0  0  0  0  0  0  0  0  0
    4.8211   -0.6048    3.1595 H   0  0  0  0  0  0  0  0  0  0  0  0
    4.6121    1.0545    5.2352 H   0  0  0  0  0  0  0  0  0  0  0  0
    2.9055    0.5081    5.1112 H   0  0  0  0  0  0  0  0  0  0  0  0
    4.2109   -0.6865    5.4201 H   0  0  0  0  0  0  0  0  0  0  0  0
 25 27  1  0  0  0  0
 26 27  2  0  0  0  0
 23 25  2  0  0  0  0
 24 26  1  0  0  0  0
 22 23  1  0  0  0  0
 22 24  2  0  0  0  0
 21 22  1  0  0  0  0
  1  3  1  0  0  0  0
  1  7  1  0  0  0  0
  1  2  2  0  0  0  0
 38 39  1  0  0  0  0
 39 47  1  0  0  0  0
 39 40  2  0  0  0  0
  8  9  1  0  0  0  0
  9 17  1  0  0  0  0
  9 10  2  0  0  0  0
 18 19  1  0  0  0  0
 19 37  1  0  0  0  0
 19 20  2  0  0  0  0
 38 41  1  0  0  0  0
  8 11  1  0  0  0  0
 47 48  1  0  0  0  0
 18 21  1  0  0  0  0
 37 38  1  0  0  0  0
  7  8  1  0  0  0  0
 17 18  1  0  0  0  0
 27 36  1  0  0  0  0
 25 34  1  0  0  0  0
 26 35  1  0  0  0  0
 23 32  1  0  0  0  0
 24 33  1  0  0  0  0
  3  4  1  0  0  0  0
  3  5  1  0  0  0  0
  3  6  1  0  0  0  0
 41 44  1  0  0  0  0
 41 45  1  0  0  0  0
 41 46  1  0  0  0  0
 11 14  1  0  0  0  0
 11 15  1  0  0  0  0
 11 16  1  0  0  0  0
 48 50  1  0  0  0  0
 48 51  1  0  0  0  0
 48 52  1  0  0  0  0
 21 30  1  0  0  0  0
 21 31  1  0  0  0  0
 38 43  1  0  0  0  0
  8 13  1  0  0  0  0
 18 29  1  0  0  0  0
 47 49  1  0  0  0  0
  7 12  1  0  0  0  0
 37 42  1  0  0  0  0
 17 28  1  0  0  0  0
M  END
$$$$

  -OEChem-05262214473D

 52 52  0     1  0  0  0  0  0999 V2000
   -1.8248    0.3424    3.9102 C   0  0  0  0  0  0  0  0  0  0  0  0
   -0.8774   -0.2723    3.4345 O   0  0  0  0  0  0  0  0  0  0  0  0
   -2.2566    0.0600    5.3109 C   0  0  0  0  0  0  0  0  0  0  0  0
   -3.0163   -0.7363    5.3643 H   0  0  0  0  0  0  0  0  0  0  0  0
   -1.4254   -0.2876    5.9452 H   0  0  0  0  0  0  0  0  0  0  0  0
   -2.6947    0.9149    5.8505 H   0  0  0  0  0  0  0  0  0  0  0  0
   -2.5745    1.3149    3.2691 N   0  0  0  0  0  0  0  0  0  0  0  0
   -2.3276    1.7409    1.9167 C   0  0  2  0  0  0  0  0  0  0  0  0
   -0.9926    1.1555    1.4755 C   0  0  0  0  0  0  0  0  0  0  0  0
   -0.1206    0.8028    2.2668 O   0  0  0  0  0  0  0  0  0  0  0  0
   -2.3188    3.2577    1.8072 C   0  0  0  0  0  0  0  0  0  0  0  0
   -3.3395    1.7507    3.7809 H   0  0  0  0  0  0  0  0  0  0  0  0
   -3.1317    1.3224    1.3015 H   0  0  0  0  0  0  0  0  0  0  0  0
   -1.5198    3.6949    2.4169 H   0  0  0  0  0  0  0  0  0  0  0  0
   -2.1594    3.5799    0.7729 H   0  0  0  0  0  0  0  0  0  0  0  0
   -3.2690    3.6789    2.1530 H   0  0  0  0  0  0  0  0  0  0  0  0
   -0.8700    1.1124    0.0921 N   0  0  0  0  0  0  0  0  0  0  0  0
    0.3073    0.6116   -0.5716 C   0  0  2  0  0  0  0  0  0  0  0  0
    1.2887    0.1829    0.5134 C   0  0  0  0  0  0  0  0  0  0  0  0
    1.0446   -0.7110    1.3212 O   0  0  0  0  0  0  0  0  0  0  0  0
    0.9485    1.6628   -1.4849 C   0  0  0  0  0  0  0  0  0  0  0  0
    0.0823    2.0123   -2.6703 C   0  0  0  0  0  0  0  0  0  0  0  0
    0.0687    1.1847   -3.7931 C   0  0  0  0  0  0  0  0  0  0  0  0
   -0.7051    3.1633   -2.6428 C   0  0  0  0  0  0  0  0  0  0  0  0
   -0.7323    1.5081   -4.8883 C   0  0  0  0  0  0  0  0  0  0  0  0
   -1.5061    3.4868   -3.7380 C   0  0  0  0  0  0  0  0  0  0  0  0
   -1.5197    2.6591   -4.8607 C   0  0  0  0  0  0  0  0  0  0  0  0
   -1.6531    1.4091   -0.4852 H   0  0  0  0  0  0  0  0  0  0  0  0
   -0.0066   -0.2713   -1.1407 H   0  0  0  0  0  0  0  0  0  0  0  0
    1.9301    1.3152   -1.8343 H   0  0  0  0  0  0  0  0  0  0  0  0
    1.1524    2.5848   -0.9244 H   0  0  0  0  0  0  0  0  0  0  0  0
    0.6788    0.2858   -3.8233 H   0  0  0  0  0  0  0  0  0  0  0  0
   -0.7010    3.8140   -1.7723 H   0  0  0  0  0  0  0  0  0  0  0  0
   -0.7419    0.8642   -5.7629 H   0  0  0  0  0  0  0  0  0  0  0  0
   -2.1182    4.3836   -3.7167 H   0  0  0  0  0  0  0  0  0  0  0  0
   -2.1423    2.9116   -5.7142 H   0  0  0  0  0  0  0  0  0  0  0  0
    2.4848    0.8829    0.4382 N   0  0  0  0  0  0  0  0  0  0  0  0
    3.5953    0.6553    1.3349 C   0  0  2  0  0  0  0  0  0  0  0  0
    3.0626    0.6891    2.7612 C   0  0  0  0  0  0  0  0  0  0  0  0
    2.0175    1.2558    3.0737 O   0  0  0  0  0  0  0  0  0  0  0  0
    4.6876    1.6948    1.1378 C   0  0  0  0  0  0  0  0  0  0  0  0
    2.5848    1.5909   -0.2833 H   0  0  0  0  0  0  0  0  0  0  0  0
    3.9815   -0.3453    1.1122 H   0  0  0  0  0  0  0  0  0  0  0  0
    4.3193    2.7038    1.3562 H   0  0  0  0  0  0  0  0  0  0  0  0
    5.5404    1.5043    1.7977 H   0  0  0  0  0  0  0  0  0  0  0  0
    5.0488    1.6895    0.1037 H   0  0  0  0  0  0  0  0  0  0  0  0
    3.9134    0.0489    3.6514 N   0  0  0  0  0  0  0  0  0  0  0  0
    3.6359   -0.0436    5.0657 C   0  0  0  0  0  0  0  0  0  0  0  0
    4.7493   -0.4101    3.3014 H   0  0  0  0  0  0  0  0  0  0  0  0
    4.1099    0.8000    5.5889 H   0  0  0  0  0  0  0  0  0  0  0  0
    2.5485   -0.0116    5.2287 H   0  0  0  0  0  0  0  0  0  0  0  0
    4.0376   -0.9899    5.4570 H   0  0  0  0  0  0  0  0  0  0  0  0
 25 27  1  0  0  0  0
 26 27  2  0  0  0  0
 23 25  2  0  0  0  0
 24 26  1  0  0  0  0
 22 23  1  0  0  0  0
 22 24  2  0  0  0  0
 21 22  1  0  0  0  0
  1  3  1  0  0  0  0
  1  7  1  0  0  0  0
  1  2  2  0  0  0  0
 38 39  1  0  0  0  0
 39 47  1  0  0  0  0
 39 40  2  0  0  0  0
  8  9  1  0  0  0  0
  9 17  1  0  0  0  0
  9 10  2  0  0  0  0
 18 19  1  0  0  0  0
 19 37  1  0  0  0  0
 19 20  2  0  0  0  0
 38 41  1  0  0  0  0
  8 11  1  0  0  0  0
 47 48  1  0  0  0  0
 18 21  1  0  0  0  0
 37 38  1  0  0  0  0
  7  8  1  0  0  0  0
 17 18  1  0  0  0  0
 27 36  1  0  0  0  0
 25 34  1  0  0  0  0
 26 35  1  0  0  0  0
 23 32  1  0  0  0  0
 24 33  1  0  0  0  0
  3  4  1  0  0  0  0
  3  5  1  0  0  0  0
  3  6  1  0  0  0  0
 41 44  1  0  0  0  0
 41 45  1  0  0  0  0
 41 46  1  0  0  0  0
 11 14  1  0  0  0  0
 11 15  1  0  0  0  0
 11 16  1  0  0  0  0
 48 50  1  0  0  0  0
 48 51  1  0  0  0  0
 48 52  1  0  0  0  0
 21 30  1  0  0  0  0
 21 31  1  0  0  0  0
 38 43  1  0  0  0  0
  8 13  1  0  0  0  0
 18 29  1  0  0  0  0
 47 49  1  0  0  0  0
  7 12  1  0  0  0  0
 37 42  1  0  0  0  0
 17 28  1  0  0  0  0
M  END
$$$$

  -OEChem-05262214473D

 52 52  0     1  0  0  0  0  0999 V2000
   -1.8248    0.3424    3.9102 C   0  0  0  0  0  0  0  0  0  0  0  0
   -0.8774   -0.2723    3.4345 O   0  0  0  0  0  0  0  0  0  0  0  0
   -2.2566    0.0600    5.3109 C   0  0  0  0  0  0  0  0  0  0  0  0
   -3.0163   -0.7363    5.3643 H   0  0  0  0  0  0  0  0  0  0  0  0
   -1.4254   -0.2876    5.9452 H   0  0  0  0  0  0  0  0  0  0  0  0
   -2.6947    0.9149    5.8505 H   0  0  0  0  0  0  0  0  0  0  0  0
   -2.5745    1.3149    3.2691 N   0  0  0  0  0  0  0  0  0  0  0  0
   -2.3276    1.7409    1.9167 C   0  0  2  0  0  0  0  0  0  0  0  0
   -0.9926    1.1555    1.4755 C   0  0  0  0  0  0  0  0  0  0  0  0
   -0.1206    0.8028    2.2668 O   0  0  0  0  0  0  0  0  0  0  0  0
   -2.3188    3.2577    1.8072 C   0  0  0  0  0  0  0  0  0  0  0  0
   -3.3395    1.7507    3.7809 H   0  0  0  0  0  0  0  0  0  0  0  0
   -3.1317    1.3224    1.3015 H   0  0  0  0  0  0  0  0  0  0  0  0
   -1.5198    3.6949    2.4169 H   0  0  0  0  0  0  0  0  0  0  0  0
   -2.1594    3.5799    0.7729 H   0  0  0  0  0  0  0  0  0  0  0  0
   -3.2690    3.6789    2.1530 H   0  0  0  0  0  0  0  0  0  0  0  0
   -0.8700    1.1124    0.0921 N   0  0  0  0  0  0  0  0  0  0  0  0
    0.3073    0.6116   -0.5716 C   0  0  2  0  0  0  0  0  0  0  0  0
    1.2887    0.1829    0.5134 C   0  0  0  0  0  0  0  0  0  0  0  0
    1.1735   -0.8664    1.1432 O   0  0  0  0  0  0  0  0  0  0  0  0
    0.9485    1.6628   -1.4849 C   0  0  0  0  0  0  0  0  0  0  0  0
    0.0823    2.0123   -2.6703 C   0  0  0  0  0  0  0  0  0  0  0  0
    0.0687    1.1847   -3.7931 C   0  0  0  0  0  0  0  0  0  0  0  0
   -0.7051    3.1633   -2.6428 C   0  0  0  0  0  0  0  0  0  0  0  0
   -0.7323    1.5081   -4.8883 C   0  0  0  0  0  0  0  0  0  0  0  0
   -1.5061    3.4868   -3.7380 C   0  0  0  0  0  0  0  0  0  0  0  0
   -1.5197    2.6591   -4.8607 C   0  0  0  0  0  0  0  0  0  0  0  0
   -1.6531    1.4091   -0.4852 H   0  0  0  0  0  0  0  0  0  0  0  0
   -0.0066   -0.2713   -1.1407 H   0  0  0  0  0  0  0  0  0  0  0  0
    1.9301    1.3152   -1.8343 H   0  0  0  0  0  0  0  0  0  0  0  0
    1.1524    2.5848   -0.9244 H   0  0  0  0  0  0  0  0  0  0  0  0
    0.6788    0.2858   -3.8233 H   0  0  0  0  0  0  0  0  0  0  0  0
   -0.7010    3.8140   -1.7723 H   0  0  0  0  0  0  0  0  0  0  0  0
   -0.7419    0.8642   -5.7629 H   0  0  0  0  0  0  0  0  0  0  0  0
   -2.1182    4.3836   -3.7167 H   0  0  0  0  0  0  0  0  0  0  0  0
   -2.1423    2.9116   -5.7142 H   0  0  0  0  0  0  0  0  0  0  0  0
    2.3320    1.0870    0.6571 N   0  0  0  0  0  0  0  0  0  0  0  0
    3.4123    0.9087    1.6004 C   0  0  2  0  0  0  0  0  0  0  0  0
    2.8023    0.5992    2.9611 C   0  0  0  0  0  0  0  0  0  0  0  0
    1.6523    0.9079    3.2666 O   0  0  0  0  0  0  0  0  0  0  0  0
    4.2963    2.1442    1.6694 C   0  0  0  0  0  0  0  0  0  0  0  0
    2.3364    1.9156    0.0697 H   0  0  0  0  0  0  0  0  0  0  0  0
    3.9941    0.0468    1.2558 H   0  0  0  0  0  0  0  0  0  0  0  0
    3.7307    3.0181    2.0128 H   0  0  0  0  0  0  0  0  0  0  0  0
    5.1306    1.9970    2.3631 H   0  0  0  0  0  0  0  0  0  0  0  0
    4.7103    2.3827    0.6837 H   0  0  0  0  0  0  0  0  0  0  0  0
    3.7071   -0.0238    3.8092 N   0  0  0  0  0  0  0  0  0  0  0  0
    3.3718   -0.4081    5.1605 C   0  0  0  0  0  0  0  0  0  0  0  0
    4.6337   -0.2589    3.4657 H   0  0  0  0  0  0  0  0  0  0  0  0
    3.6459    0.4026    5.8515 H   0  0  0  0  0  0  0  0  0  0  0  0
    2.2908   -0.5990    5.2297 H   0  0  0  0  0  0  0  0  0  0  0  0
    3.9233   -1.3211    5.4295 H   0  0  0  0  0  0  0  0  0  0  0  0
 25 27  1  0  0  0  0
 26 27  2  0  0  0  0
 23 25  2  0  0  0  0
 24 26  1  0  0  0  0
 22 23  1  0  0  0  0
 22 24  2  0  0  0  0
 21 22  1  0  0  0  0
  1  3  1  0  0  0  0
  1  7  1  0  0  0  0
  1  2  2  0  0  0  0
 38 39  1  0  0  0  0
 39 47  1  0  0  0  0
 39 40  2  0  0  0  0
  8  9  1  0  0  0  0
  9 17  1  0  0  0  0
  9 10  2  0  0  0  0
 18 19  1  0  0  0  0
 19 37  1  0  0  0  0
 19 20  2  0  0  0  0
 38 41  1  0  0  0  0
  8 11  1  0  0  0  0
 47 48  1  0  0  0  0
 18 21  1  0  0  0  0
 37 38  1  0  0  0  0
  7  8  1  0  0  0  0
 17 18  1  0  0  0  0
 27 36  1  0  0  0  0
 25 34  1  0  0  0  0
 26 35  1  0  0  0  0
 23 32  1  0  0  0  0
 24 33  1  0  0  0  0
  3  4  1  0  0  0  0
  3  5  1  0  0  0  0
  3  6  1  0  0  0  0
 41 44  1  0  0  0  0
 41 45  1  0  0  0  0
 41 46  1  0  0  0  0
 11 14  1  0  0  0  0
 11 15  1  0  0  0  0
 11 16  1  0  0  0  0
 48 50  1  0  0  0  0
 48 51  1  0  0  0  0
 48 52  1  0  0  0  0
 21 30  1  0  0  0  0
 21 31  1  0  0  0  0
 38 43  1  0  0  0  0
  8 13  1  0  0  0  0
 18 29  1  0  0  0  0
 47 49  1  0  0  0  0
  7 12  1  0  0  0  0
 37 42  1  0  0  0  0
 17 28  1  0  0  0  0
M  END
$$$$

  -OEChem-05262214473D

 52 52  0     1  0  0  0  0  0999 V2000
   -1.8248    0.3424    3.9102 C   0  0  0  0  0  0  0  0  0  0  0  0
   -0.8774   -0.2723    3.4345 O   0  0  0  0  0  0  0  0  0  0  0  0
   -2.2566    0.0600    5.3109 C   0  0  0  0  0  0  0  0  0  0  0  0
   -3.0163   -0.7363    5.3643 H   0  0  0  0  0  0  0  0  0  0  0  0
   -1.4254   -0.2876    5.9452 H   0  0  0  0  0  0  0  0  0  0  0  0
   -2.6947    0.9149    5.8505 H   0  0  0  0  0  0  0  0  0  0  0  0
   -2.5745    1.3149    3.2691 N   0  0  0  0  0  0  0  0  0  0  0  0
   -2.3276    1.7409    1.9167 C   0  0  2  0  0  0  0  0  0  0  0  0
   -0.9926    1.1555    1.4755 C   0  0  0  0  0  0  0  0  0  0  0  0
   -0.1206    0.8028    2.2668 O   0  0  0  0  0  0  0  0  0  0  0  0
   -2.3188    3.2577    1.8072 C   0  0  0  0  0  0  0  0  0  0  0  0
   -3.3395    1.7507    3.7809 H   0  0  0  0  0  0  0  0  0  0  0  0
   -3.1317    1.3224    1.3015 H   0  0  0  0  0  0  0  0  0  0  0  0
   -1.5198    3.6949    2.4169 H   0  0  0  0  0  0  0  0  0  0  0  0
   -2.1594    3.5799    0.7729 H   0  0  0  0  0  0  0  0  0  0  0  0
   -3.2690    3.6789    2.1530 H   0  0  0  0  0  0  0  0  0  0  0  0
   -0.8700    1.1124    0.0921 N   0  0  0  0  0  0  0  0  0  0  0  0
    0.3073    0.6116   -0.5716 C   0  0  2  0  0  0  0  0  0  0  0  0
    1.2887    0.1829    0.5134 C   0  0  0  0  0  0  0  0  0  0  0  0
    1.3395   -0.9632    0.9547 O   0  0  0  0  0  0  0  0  0  0  0  0
    0.9485    1.6628   -1.4849 C   0  0  0  0  0  0  0  0  0  0  0  0
    0.0823    2.0123   -2.6703 C   0  0  0  0  0  0  0  0  0  0  0  0
    0.0687    1.1847   -3.7931 C   0  0  0  0  0  0  0  0  0  0  0  0
   -0.7051    3.1633   -2.6428 C   0  0  0  0  0  0  0  0  0  0  0  0
   -0.7323    1.5081   -4.8883 C   0  0  0  0  0  0  0  0  0  0  0  0
   -1.5061    3.4868   -3.7380 C   0  0  0  0  0  0  0  0  0  0  0  0
   -1.5197    2.6591   -4.8607 C   0  0  0  0  0  0  0  0  0  0  0  0
   -1.6531    1.4091   -0.4852 H   0  0  0  0  0  0  0  0  0  0  0  0
   -0.0066   -0.2713   -1.1407 H   0  0  0  0  0  0  0  0  0  0  0  0
    1.9301    1.3152   -1.8343 H   0  0  0  0  0  0  0  0  0  0  0  0
    1.1524    2.5848   -0.9244 H   0  0  0  0  0  0  0  0  0  0  0  0
    0.6788    0.2858   -3.8233 H   0  0  0  0  0  0  0  0  0  0  0  0
   -0.7010    3.8140   -1.7723 H   0  0  0  0  0  0  0  0  0  0  0  0
   -0.7419    0.8642   -5.7629 H   0  0  0  0  0  0  0  0  0  0  0  0
   -2.1182    4.3836   -3.7167 H   0  0  0  0  0  0  0  0  0  0  0  0
   -2.1423    2.9116   -5.7142 H   0  0  0  0  0  0  0  0  0  0  0  0
    2.1308    1.2194    0.8914 N   0  0  0  0  0  0  0  0  0  0  0  0
    3.1696    1.0755    1.8858 C   0  0  2  0  0  0  0  0  0  0  0  0
    2.5529    0.4311    3.1203 C   0  0  0  0  0  0  0  0  0  0  0  0
    1.3496    0.4724    3.3683 O   0  0  0  0  0  0  0  0  0  0  0  0
    3.7968    2.4177    2.2292 C   0  0  0  0  0  0  0  0  0  0  0  0
    2.0110    2.1247    0.4467 H   0  0  0  0  0  0  0  0  0  0  0  0
    3.9236    0.4040    1.4607 H   0  0  0  0  0  0  0  0  0  0  0  0
    3.0565    3.1039    2.6565 H   0  0  0  0  0  0  0  0  0  0  0  0
    4.6028    2.3033    2.9615 H   0  0  0  0  0  0  0  0  0  0  0  0
    4.2135    2.8933    1.3349 H   0  0  0  0  0  0  0  0  0  0  0  0
    3.5098   -0.1584    3.9346 N   0  0  0  0  0  0  0  0  0  0  0  0
    3.1771   -0.8246    5.1721 C   0  0  0  0  0  0  0  0  0  0  0  0
    4.4822   -0.1615    3.6412 H   0  0  0  0  0  0  0  0  0  0  0  0
    3.2518   -0.1104    6.0053 H   0  0  0  0  0  0  0  0  0  0  0  0
    2.1499   -1.2140    5.1141 H   0  0  0  0  0  0  0  0  0  0  0  0
    3.8760   -1.6574    5.3394 H   0  0  0  0  0  0  0  0  0  0  0  0
 25 27  1  0  0  0  0
 26 27  2  0  0  0  0
 23 25  2  0  0  0  0
 24 26  1  0  0  0  0
 22 23  1  0  0  0  0
 22 24  2  0  0  0  0
 21 22  1  0  0  0  0
  1  3  1  0  0  0  0
  1  7  1  0  0  0  0
  1  2  2  0  0  0  0
 38 39  1  0  0  0  0
 39 47  1  0  0  0  0
 39 40  2  0  0  0  0
  8  9  1  0  0  0  0
  9 17  1  0  0  0  0
  9 10  2  0  0  0  0
 18 19  1  0  0  0  0
 19 37  1  0  0  0  0
 19 20  2  0  0  0  0
 38 41  1  0  0  0  0
  8 11  1  0  0  0  0
 47 48  1  0  0  0  0
 18 21  1  0  0  0  0
 37 38  1  0  0  0  0
  7  8  1  0  0  0  0
 17 18  1  0  0  0  0
 27 36  1  0  0  0  0
 25 34  1  0  0  0  0
 26 35  1  0  0  0  0
 23 32  1  0  0  0  0
 24 33  1  0  0  0  0
  3  4  1  0  0  0  0
  3  5  1  0  0  0  0
  3  6  1  0  0  0  0
 41 44  1  0  0  0  0
 41 45  1  0  0  0  0
 41 46  1  0  0  0  0
 11 14  1  0  0  0  0
 11 15  1  0  0  0  0
 11 16  1  0  0  0  0
 48 50  1  0  0  0  0
 48 51  1  0  0  0  0
 48 52  1  0  0  0  0
 21 30  1  0  0  0  0
 21 31  1  0  0  0  0
 38 43  1  0  0  0  0
  8 13  1  0  0  0  0
 18 29  1  0  0  0  0
 47 49  1  0  0  0  0
  7 12  1  0  0  0  0
 37 42  1  0  0  0  0
 17 28  1  0  0  0  0
M  END
$$$$

  -OEChem-05262214473D

 52 52  0     1  0  0  0  0  0999 V2000
   -1.8248    0.3424    3.9102 C   0  0  0  0  0  0  0  0  0  0  0  0
   -0.8774   -0.2723    3.4345 O   0  0  0  0  0  0  0  0  0  0  0  0
   -2.2566    0.0600    5.3109 C   0  0  0  0  0  0  0  0  0  0  0  0
   -3.0163   -0.7363    5.3643 H   0  0  0  0  0  0  0  0  0  0  0  0
   -1.4254   -0.2876    5.9452 H   0  0  0  0  0  0  0  0  0  0  0  0
   -2.6947    0.9149    5.8505 H   0  0  0  0  0  0  0  0  0  0  0  0
   -2.5745    1.3149    3.2691 N   0  0  0  0  0  0  0  0  0  0  0  0
   -2.3276    1.7409    1.9167 C   0  0  2  0  0  0  0  0  0  0  0  0
   -0.9926    1.1555    1.4755 C   0  0  0  0  0  0  0  0  0  0  0  0
   -0.1206    0.8028    2.2668 O   0  0  0  0  0  0  0  0  0  0  0  0
   -2.3188    3.2577    1.8072 C   0  0  0  0  0  0  0  0  0  0  0  0
   -3.3395    1.7507    3.7809 H   0  0  0  0  0  0  0  0  0  0  0  0
   -3.1317    1.3224    1.3015 H   0  0  0  0  0  0  0  0  0  0  0  0
   -1.5198    3.6949    2.4169 H   0  0  0  0  0  0  0  0  0  0  0  0
   -2.1594    3.5799    0.7729 H   0  0  0  0  0  0  0  0  0  0  0  0
   -3.2690    3.6789    2.1530 H   0  0  0  0  0  0  0  0  0  0  0  0
   -0.8700    1.1124    0.0921 N   0  0  0  0  0  0  0  0  0  0  0  0
    0.3073    0.6116   -0.5716 C   0  0  2  0  0  0  0  0  0  0  0  0
    1.2887    0.1829    0.5134 C   0  0  0  0  0  0  0  0  0  0  0  0
    1.5315   -0.9948    0.7687 O   0  0  0  0  0  0  0  0  0  0  0  0
    0.9485    1.6628   -1.4849 C   0  0  0  0  0  0  0  0  0  0  0  0
    0.0823    2.0123   -2.6703 C   0  0  0  0  0  0  0  0  0  0  0  0
    0.0687    1.1847   -3.7931 C   0  0  0  0  0  0  0  0  0  0  0  0
   -0.7051    3.1633   -2.6428 C   0  0  0  0  0  0  0  0  0  0  0  0
   -0.7323    1.5081   -4.8883 C   0  0  0  0  0  0  0  0  0  0  0  0
   -1.5061    3.4868   -3.7380 C   0  0  0  0  0  0  0  0  0  0  0  0
   -1.5197    2.6591   -4.8607 C   0  0  0  0  0  0  0  0  0  0  0  0
   -1.6531    1.4091   -0.4852 H   0  0  0  0  0  0  0  0  0  0  0  0
   -0.0066   -0.2713   -1.1407 H   0  0  0  0  0  0  0  0  0  0  0  0
    1.9301    1.3152   -1.8343 H   0  0  0  0  0  0  0  0  0  0  0  0
    1.1524    2.5848   -0.9244 H   0  0  0  0  0  0  0  0  0  0  0  0
    0.6788    0.2858   -3.8233 H   0  0  0  0  0  0  0  0  0  0  0  0
   -0.7010    3.8140   -1.7723 H   0  0  0  0  0  0  0  0  0  0  0  0
   -0.7419    0.8642   -5.7629 H   0  0  0  0  0  0  0  0  0  0  0  0
   -2.1182    4.3836   -3.7167 H   0  0  0  0  0  0  0  0  0  0  0  0
   -2.1423    2.9116   -5.7142 H   0  0  0  0  0  0  0  0  0  0  0  0
    1.8951    1.2713    1.1251 N   0  0  0  0  0  0  0  0  0  0  0  0
    2.8837    1.1443    2.1717 C   0  0  2  0  0  0  0  0  0  0  0  0
    2.3313    0.1963    3.2279 C   0  0  0  0  0  0  0  0  0  0  0  0
    1.1300   -0.0209    3.3719 O   0  0  0  0  0  0  0  0  0  0  0  0
    3.2232    2.4965    2.7792 C   0  0  0  0  0  0  0  0  0  0  0  0
    1.6307    2.2040    0.8219 H   0  0  0  0  0  0  0  0  0  0  0  0
    3.7747    0.7019    1.7131 H   0  0  0  0  0  0  0  0  0  0  0  0
    2.3426    2.9553    3.2435 H   0  0  0  0  0  0  0  0  0  0  0  0
    3.9930    2.4022    3.5521 H   0  0  0  0  0  0  0  0  0  0  0  0
    3.5922    3.1865    2.0127 H   0  0  0  0  0  0  0  0  0  0  0  0
    3.3348   -0.3456    4.0189 N   0  0  0  0  0  0  0  0  0  0  0  0
    3.0648   -1.2648    5.0997 C   0  0  0  0  0  0  0  0  0  0  0  0
    4.3052   -0.1246    3.8159 H   0  0  0  0  0  0  0  0  0  0  0  0
    2.9544   -0.7041    6.0396 H   0  0  0  0  0  0  0  0  0  0  0  0
    2.1356   -1.8147    4.8896 H   0  0  0  0  0  0  0  0  0  0  0  0
    3.8988   -1.9760    5.1929 H   0  0  0  0  0  0  0  0  0  0  0  0
 25 27  1  0  0  0  0
 26 27  2  0  0  0  0
 23 25  2  0  0  0  0
 24 26  1  0  0  0  0
 22 23  1  0  0  0  0
 22 24  2  0  0  0  0
 21 22  1  0  0  0  0
  1  3  1  0  0  0  0
  1  7  1  0  0  0  0
  1  2  2  0  0  0  0
 38 39  1  0  0  0  0
 39 47  1  0  0  0  0
 39 40  2  0  0  0  0
  8  9  1  0  0  0  0
  9 17  1  0  0  0  0
  9 10  2  0  0  0  0
 18 19  1  0  0  0  0
 19 37  1  0  0  0  0
 19 20  2  0  0  0  0
 38 41  1  0  0  0  0
  8 11  1  0  0  0  0
 47 48  1  0  0  0  0
 18 21  1  0  0  0  0
 37 38  1  0  0  0  0
  7  8  1  0  0  0  0
 17 18  1  0  0  0  0
 27 36  1  0  0  0  0
 25 34  1  0  0  0  0
 26 35  1  0  0  0  0
 23 32  1  0  0  0  0
 24 33  1  0  0  0  0
  3  4  1  0  0  0  0
  3  5  1  0  0  0  0
  3  6  1  0  0  0  0
 41 44  1  0  0  0  0
 41 45  1  0  0  0  0
 41 46  1  0  0  0  0
 11 14  1  0  0  0  0
 11 15  1  0  0  0  0
 11 16  1  0  0  0  0
 48 50  1  0  0  0  0
 48 51  1  0  0  0  0
 48 52  1  0  0  0  0
 21 30  1  0  0  0  0
 21 31  1  0  0  0  0
 38 43  1  0  0  0  0
  8 13  1  0  0  0  0
 18 29  1  0  0  0  0
 47 49  1  0  0  0  0
  7 12  1  0  0  0  0
 37 42  1  0  0  0  0
 17 28  1  0  0  0  0
M  END
$$$$

  -OEChem-05262214473D

 52 52  0     1  0  0  0  0  0999 V2000
   -1.8248    0.3424    3.9102 C   0  0  0  0  0  0  0  0  0  0  0  0
   -0.8774   -0.2723    3.4345 O   0  0  0  0  0  0  0  0  0  0  0  0
   -2.2566    0.0600    5.3109 C   0  0  0  0  0  0  0  0  0  0  0  0
   -3.0163   -0.7363    5.3643 H   0  0  0  0  0  0  0  0  0  0  0  0
   -1.4254   -0.2876    5.9452 H   0  0  0  0  0  0  0  0  0  0  0  0
   -2.6947    0.9149    5.8505 H   0  0  0  0  0  0  0  0  0  0  0  0
   -2.5745    1.3149    3.2691 N   0  0  0  0  0  0  0  0  0  0  0  0
   -2.3276    1.7409    1.9167 C   0  0  2  0  0  0  0  0  0  0  0  0
   -0.9926    1.1555    1.4755 C   0  0  0  0  0  0  0  0  0  0  0  0
   -0.1206    0.8028    2.2668 O   0  0  0  0  0  0  0  0  0  0  0  0
   -2.3188    3.2577    1.8072 C   0  0  0  0  0  0  0  0  0  0  0  0
   -3.3395    1.7507    3.7809 H   0  0  0  0  0  0  0  0  0  0  0  0
   -3.1317    1.3224    1.3015 H   0  0  0  0  0  0  0  0  0  0  0  0
   -1.5198    3.6949    2.4169 H   0  0  0  0  0  0  0  0  0  0  0  0
   -2.1594    3.5799    0.7729 H   0  0  0  0  0  0  0  0  0  0  0  0
   -3.2690    3.6789    2.1530 H   0  0  0  0  0  0  0  0  0  0  0  0
   -0.8700    1.1124    0.0921 N   0  0  0  0  0  0  0  0  0  0  0  0
    0.3073    0.6116   -0.5716 C   0  0  2  0  0  0  0  0  0  0  0  0
    1.2887    0.1829    0.5134 C   0  0  0  0  0  0  0  0  0  0  0  0
    1.7362   -0.9588    0.5977 O   0  0  0  0  0  0  0  0  0  0  0  0
    0.9485    1.6628   -1.4849 C   0  0  0  0  0  0  0  0  0  0  0  0
    0.0823    2.0123   -2.6703 C   0  0  0  0  0  0  0  0  0  0  0  0
    0.0687    1.1847   -3.7931 C   0  0  0  0  0  0  0  0  0  0  0  0
   -0.7051    3.1633   -2.6428 C   0  0  0  0  0  0  0  0  0  0  0  0
   -0.7323    1.5081   -4.8883 C   0  0  0  0  0  0  0  0  0  0  0  0
   -1.5061    3.4868   -3.7380 C   0  0  0  0  0  0  0  0  0  0  0  0
   -1.5197    2.6591   -4.8607 C   0  0  0  0  0  0  0  0  0  0  0  0
   -1.6531    1.4091   -0.4852 H   0  0  0  0  0  0  0  0  0  0  0  0
   -0.0066   -0.2713   -1.1407 H   0  0  0  0  0  0  0  0  0  0  0  0
    1.9301    1.3152   -1.8343 H   0  0  0  0  0  0  0  0  0  0  0  0
    1.1524    2.5848   -0.9244 H   0  0  0  0  0  0  0  0  0  0  0  0
    0.6788    0.2858   -3.8233 H   0  0  0  0  0  0  0  0  0  0  0  0
   -0.7010    3.8140   -1.7723 H   0  0  0  0  0  0  0  0  0  0  0  0
   -0.7419    0.8642   -5.7629 H   0  0  0  0  0  0  0  0  0  0  0  0
   -2.1182    4.3836   -3.7167 H   0  0  0  0  0  0  0  0  0  0  0  0
   -2.1423    2.9116   -5.7142 H   0  0  0  0  0  0  0  0  0  0  0  0
    1.6408    1.2390    1.3423 N   0  0  0  0  0  0  0  0  0  0  0  0
    2.5740    1.1105    2.4384 C   0  0  2  0  0  0  0  0  0  0  0  0
    2.1528   -0.0893    3.2766 C   0  0  0  0  0  0  0  0  0  0  0  0
    1.0086   -0.5385    3.2772 O   0  0  0  0  0  0  0  0  0  0  0  0
    2.6146    2.3754    3.2818 C   0  0  0  0  0  0  0  0  0  0  0  0
    1.2215    2.1480    1.1699 H   0  0  0  0  0  0  0  0  0  0  0  0
    3.5577    0.9201    1.9956 H   0  0  0  0  0  0  0  0  0  0  0  0
    1.6377    2.5825    3.7337 H   0  0  0  0  0  0  0  0  0  0  0  0
    3.3428    2.2870    4.0947 H   0  0  0  0  0  0  0  0  0  0  0  0
    2.8887    3.2424    2.6711 H   0  0  0  0  0  0  0  0  0  0  0  0
    3.1942   -0.5726    4.0564 N   0  0  0  0  0  0  0  0  0  0  0  0
    3.0428   -1.6985    4.9482 C   0  0  0  0  0  0  0  0  0  0  0  0
    4.1147   -0.1506    3.9779 H   0  0  0  0  0  0  0  0  0  0  0  0
    2.7741   -1.3381    5.9522 H   0  0  0  0  0  0  0  0  0  0  0  0
    2.2488   -2.3602    4.5717 H   0  0  0  0  0  0  0  0  0  0  0  0
    3.9901   -2.2551    5.0000 H   0  0  0  0  0  0  0  0  0  0  0  0
 25 27  1  0  0  0  0
 26 27  2  0  0  0  0
 23 25  2  0  0  0  0
 24 26  1  0  0  0  0
 22 23  1  0  0  0  0
 22 24  2  0  0  0  0
 21 22  1  0  0  0  0
  1  3  1  0  0  0  0
  1  7  1  0  0  0  0
  1  2  2  0  0  0  0
 38 39  1  0  0  0  0
 39 47  1  0  0  0  0
 39 40  2  0  0  0  0
  8  9  1  0  0  0  0
  9 17  1  0  0  0  0
  9 10  2  0  0  0  0
 18 19  1  0  0  0  0
 19 37  1  0  0  0  0
 19 20  2  0  0  0  0
 38 41  1  0  0  0  0
  8 11  1  0  0  0  0
 47 48  1  0  0  0  0
 18 21  1  0  0  0  0
 37 38  1  0  0  0  0
  7  8  1  0  0  0  0
 17 18  1  0  0  0  0
 27 36  1  0  0  0  0
 25 34  1  0  0  0  0
 26 35  1  0  0  0  0
 23 32  1  0  0  0  0
 24 33  1  0  0  0  0
  3  4  1  0  0  0  0
  3  5  1  0  0  0  0
  3  6  1  0  0  0  0
 41 44  1  0  0  0  0
 41 45  1  0  0  0  0
 41 46  1  0  0  0  0
 11 14  1  0  0  0  0
 11 15  1  0  0  0  0
 11 16  1  0  0  0  0
 48 50  1  0  0  0  0
 48 51  1  0  0  0  0
 48 52  1  0  0  0  0
 21 30  1  0  0  0  0
 21 31  1  0  0  0  0
 38 43  1  0  0  0  0
  8 13  1  0  0  0  0
 18 29  1  0  0  0  0
 47 49  1  0  0  0  0
  7 12  1  0  0  0  0
 37 42  1  0  0  0  0
 17 28  1  0  0  0  0
M  END
$$$$

  -OEChem-05262214473D

 52 52  0     1  0  0  0  0  0999 V2000
   -1.8248    0.3424    3.9102 C   0  0  0  0  0  0  0  0  0  0  0  0
   -0.8774   -0.2723    3.4345 O   0  0  0  0  0  0  0  0  0  0  0  0
   -2.2566    0.0600    5.3109 C   0  0  0  0  0  0  0  0  0  0  0  0
   -3.0163   -0.7363    5.3643 H   0  0  0  0  0  0  0  0  0  0  0  0
   -1.4254   -0.2876    5.9452 H   0  0  0  0  0  0  0  0  0  0  0  0
   -2.6947    0.9149    5.8505 H   0  0  0  0  0  0  0  0  0  0  0  0
   -2.5745    1.3149    3.2691 N   0  0  0  0  0  0  0  0  0  0  0  0
   -2.3276    1.7409    1.9167 C   0  0  2  0  0  0  0  0  0  0  0  0
   -0.9926    1.1555    1.4755 C   0  0  0  0  0  0  0  0  0  0  0  0
   -0.1206    0.8028    2.2668 O   0  0  0  0  0  0  0  0  0  0  0  0
   -2.3188    3.2577    1.8072 C   0  0  0  0  0  0  0  0  0  0  0  0
   -3.3395    1.7507    3.7809 H   0  0  0  0  0  0  0  0  0  0  0  0
   -3.1317    1.3224    1.3015 H   0  0  0  0  0  0  0  0  0  0  0  0
   -1.5198    3.6949    2.4169 H   0  0  0  0  0  0  0  0  0  0  0  0
   -2.1594    3.5799    0.7729 H   0  0  0  0  0  0  0  0  0  0  0  0
   -3.2690    3.6789    2.1530 H   0  0  0  0  0  0  0  0  0  0  0  0
   -0.8700    1.1124    0.0921 N   0  0  0  0  0  0  0  0  0  0  0  0
    0.3073    0.6116   -0.5716 C   0  0  2  0  0  0  0  0  0  0  0  0
    1.2887    0.1829    0.5134 C   0  0  0  0  0  0  0  0  0  0  0  0
    1.9398   -0.8580    0.4534 O   0  0  0  0  0  0  0  0  0  0  0  0
    0.9485    1.6628   -1.4849 C   0  0  0  0  0  0  0  0  0  0  0  0
    0.0823    2.0123   -2.6703 C   0  0  0  0  0  0  0  0  0  0  0  0
    0.0687    1.1847   -3.7931 C   0  0  0  0  0  0  0  0  0  0  0  0
   -0.7051    3.1633   -2.6428 C   0  0  0  0  0  0  0  0  0  0  0  0
   -0.7323    1.5081   -4.8883 C   0  0  0  0  0  0  0  0  0  0  0  0
   -1.5061    3.4868   -3.7380 C   0  0  0  0  0  0  0  0  0  0  0  0
   -1.5197    2.6591   -4.8607 C   0  0  0  0  0  0  0  0  0  0  0  0
   -1.6531    1.4091   -0.4852 H   0  0  0  0  0  0  0  0  0  0  0  0
   -0.0066   -0.2713   -1.1407 H   0  0  0  0  0  0  0  0  0  0  0  0
    1.9301    1.3152   -1.8343 H   0  0  0  0  0  0  0  0  0  0  0  0
    1.1524    2.5848   -0.9244 H   0  0  0  0  0  0  0  0  0  0  0  0
    0.6788    0.2858   -3.8233 H   0  0  0  0  0  0  0  0  0  0  0  0
   -0.7010    3.8140   -1.7723 H   0  0  0  0  0  0  0  0  0  0  0  0
   -0.7419    0.8642   -5.7629 H   0  0  0  0  0  0  0  0  0  0  0  0
   -2.1182    4.3836   -3.7167 H   0  0  0  0  0  0  0  0  0  0  0  0
   -2.1423    2.9116   -5.7142 H   0  0  0  0  0  0  0  0  0  0  0  0
    1.3853    1.1248    1.5283 N   0  0  0  0  0  0  0  0  0  0  0  0
    2.2617    0.9764    2.6679 C   0  0  2  0  0  0  0  0  0  0  0  0
    2.0294   -0.4061    3.2630 C   0  0  0  0  0  0  0  0  0  0  0  0
    0.9935   -1.0451    3.0907 O   0  0  0  0  0  0  0  0  0  0  0  0
    2.0124    2.0625    3.7028 C   0  0  0  0  0  0  0  0  0  0  0  0
    0.8112    1.9605    1.4669 H   0  0  0  0  0  0  0  0  0  0  0  0
    3.2874    1.0439    2.2890 H   0  0  0  0  0  0  0  0  0  0  0  0
    0.9898    2.0108    4.0939 H   0  0  0  0  0  0  0  0  0  0  0  0
    2.6965    1.9656    4.5523 H   0  0  0  0  0  0  0  0  0  0  0  0
    2.1510    3.0570    3.2651 H   0  0  0  0  0  0  0  0  0  0  0  0
    3.0974   -0.8241    4.0445 N   0  0  0  0  0  0  0  0  0  0  0  0
    3.1124   -2.0963    4.7281 C   0  0  0  0  0  0  0  0  0  0  0  0
    3.9237   -0.2378    4.1161 H   0  0  0  0  0  0  0  0  0  0  0  0
    2.7230   -1.9692    5.7490 H   0  0  0  0  0  0  0  0  0  0  0  0
    2.4817   -2.8133    4.1820 H   0  0  0  0  0  0  0  0  0  0  0  0
    4.1438   -2.4758    4.7738 H   0  0  0  0  0  0  0  0  0  0  0  0
 25 27  1  0  0  0  0
 26 27  2  0  0  0  0
 23 25  2  0  0  0  0
 24 26  1  0  0  0  0
 22 23  1  0  0  0  0
 22 24  2  0  0  0  0
 21 22  1  0  0  0  0
  1  3  1  0  0  0  0
  1  7  1  0  0  0  0
  1  2  2  0  0  0  0
 38 39  1  0  0  0  0
 39 47  1  0  0  0  0
 39 40  2  0  0  0  0
  8  9  1  0  0  0  0
  9 17  1  0  0  0  0
  9 10  2  0  0  0  0
 18 19  1  0  0  0  0
 19 37  1  0  0  0  0
 19 20  2  0  0  0  0
 38 41  1  0  0  0  0
  8 11  1  0  0  0  0
 47 48  1  0  0  0  0
 18 21  1  0  0  0  0
 37 38  1  0  0  0  0
  7  8  1  0  0  0  0
 17 18  1  0  0  0  0
 27 36  1  0  0  0  0
 25 34  1  0  0  0  0
 26 35  1  0  0  0  0
 23 32  1  0  0  0  0
 24 33  1  0  0  0  0
  3  4  1  0  0  0  0
  3  5  1  0  0  0  0
  3  6  1  0  0  0  0
 41 44  1  0  0  0  0
 41 45  1  0  0  0  0
 41 46  1  0  0  0  0
 11 14  1  0  0  0  0
 11 15  1  0  0  0  0
 11 16  1  0  0  0  0
 48 50  1  0  0  0  0
 48 51  1  0  0  0  0
 48 52  1  0  0  0  0
 21 30  1  0  0  0  0
 21 31  1  0  0  0  0
 38 43  1  0  0  0  0
  8 13  1  0  0  0  0
 18 29  1  0  0  0  0
 47 49  1  0  0  0  0
  7 12  1  0  0  0  0
 37 42  1  0  0  0  0
 17 28  1  0  0  0  0
M  END
$$$$

  -OEChem-05262214473D

 52 52  0     1  0  0  0  0  0999 V2000
   -1.8248    0.3424    3.9102 C   0  0  0  0  0  0  0  0  0  0  0  0
   -0.8774   -0.2723    3.4345 O   0  0  0  0  0  0  0  0  0  0  0  0
   -2.2566    0.0600    5.3109 C   0  0  0  0  0  0  0  0  0  0  0  0
   -3.0163   -0.7363    5.3643 H   0  0  0  0  0  0  0  0  0  0  0  0
   -1.4254   -0.2876    5.9452 H   0  0  0  0  0  0  0  0  0  0  0  0
   -2.6947    0.9149    5.8505 H   0  0  0  0  0  0  0  0  0  0  0  0
   -2.5745    1.3149    3.2691 N   0  0  0  0  0  0  0  0  0  0  0  0
   -2.3276    1.7409    1.9167 C   0  0  2  0  0  0  0  0  0  0  0  0
   -0.9926    1.1555    1.4755 C   0  0  0  0  0  0  0  0  0  0  0  0
   -0.1206    0.8028    2.2668 O   0  0  0  0  0  0  0  0  0  0  0  0
   -2.3188    3.2577    1.8072 C   0  0  0  0  0  0  0  0  0  0  0  0
   -3.3395    1.7507    3.7809 H   0  0  0  0  0  0  0  0  0  0  0  0
   -3.1317    1.3224    1.3015 H   0  0  0  0  0  0  0  0  0  0  0  0
   -1.5198    3.6949    2.4169 H   0  0  0  0  0  0  0  0  0  0  0  0
   -2.1594    3.5799    0.7729 H   0  0  0  0  0  0  0  0  0  0  0  0
   -3.2690    3.6789    2.1530 H   0  0  0  0  0  0  0  0  0  0  0  0
   -0.8700    1.1124    0.0921 N   0  0  0  0  0  0  0  0  0  0  0  0
    0.3073    0.6116   -0.5716 C   0  0  2  0  0  0  0  0  0  0  0  0
    1.2887    0.1829    0.5134 C   0  0  0  0  0  0  0  0  0  0  0  0
    2.1284   -0.6990    0.3456 O   0  0  0  0  0  0  0  0  0  0  0  0
    0.9485    1.6628   -1.4849 C   0  0  0  0  0  0  0  0  0  0  0  0
    0.0823    2.0123   -2.6703 C   0  0  0  0  0  0  0  0  0  0  0  0
    0.0687    1.1847   -3.7931 C   0  0  0  0  0  0  0  0  0  0  0  0
   -0.7051    3.1633   -2.6428 C   0  0  0  0  0  0  0  0  0  0  0  0
   -0.7323    1.5081   -4.8883 C   0  0  0  0  0  0  0  0  0  0  0  0
   -1.5061    3.4868   -3.7380 C   0  0  0  0  0  0  0  0  0  0  0  0
   -1.5197    2.6591   -4.8607 C   0  0  0  0  0  0  0  0  0  0  0  0
   -1.6531    1.4091   -0.4852 H   0  0  0  0  0  0  0  0  0  0  0  0
   -0.0066   -0.2713   -1.1407 H   0  0  0  0  0  0  0  0  0  0  0  0
    1.9301    1.3152   -1.8343 H   0  0  0  0  0  0  0  0  0  0  0  0
    1.1524    2.5848   -0.9244 H   0  0  0  0  0  0  0  0  0  0  0  0
    0.6788    0.2858   -3.8233 H   0  0  0  0  0  0  0  0  0  0  0  0
   -0.7010    3.8140   -1.7723 H   0  0  0  0  0  0  0  0  0  0  0  0
   -0.7419    0.8642   -5.7629 H   0  0  0  0  0  0  0  0  0  0  0  0
   -2.1182    4.3836   -3.7167 H   0  0  0  0  0  0  0  0  0  0  0  0
   -2.1423    2.9116   -5.7142 H   0  0  0  0  0  0  0  0  0  0  0  0
    1.1461    0.9364    1.6703 N   0  0  0  0  0  0  0  0  0  0  0  0
    1.9681    0.7511    2.8445 C   0  0  2  0  0  0  0  0  0  0  0  0
    1.9695   -0.7326    3.1881 C   0  0  0  0  0  0  0  0  0  0  0  0
    1.0858   -1.5061    2.8251 O   0  0  0  0  0  0  0  0  0  0  0  0
    1.4578    1.5793    4.0134 C   0  0  0  0  0  0  0  0  0  0  0  0
    0.4278    1.6543    1.6927 H   0  0  0  0  0  0  0  0  0  0  0  0
    2.9820    1.0648    2.5734 H   0  0  0  0  0  0  0  0  0  0  0  0
    0.4430    1.2793    4.2993 H   0  0  0  0  0  0  0  0  0  0  0  0
    2.0981    1.4598    4.8937 H   0  0  0  0  0  0  0  0  0  0  0  0
    1.4293    2.6431    3.7543 H   0  0  0  0  0  0  0  0  0  0  0  0
    3.0511   -1.0829    3.9841 N   0  0  0  0  0  0  0  0  0  0  0  0
    3.2689   -2.4311    4.4543 C   0  0  0  0  0  0  0  0  0  0  0  0
    3.7453   -0.3803    4.2213 H   0  0  0  0  0  0  0  0  0  0  0  0
    2.8047   -2.5543    5.4439 H   0  0  0  0  0  0  0  0  0  0  0  0
    2.8186   -3.1431    3.7470 H   0  0  0  0  0  0  0  0  0  0  0  0
    4.3494   -2.6229    4.5297 H   0  0  0  0  0  0  0  0  0  0  0  0
 25 27  1  0  0  0  0
 26 27  2  0  0  0  0
 23 25  2  0  0  0  0
 24 26  1  0  0  0  0
 22 23  1  0  0  0  0
 22 24  2  0  0  0  0
 21 22  1  0  0  0  0
  1  3  1  0  0  0  0
  1  7  1  0  0  0  0
  1  2  2  0  0  0  0
 38 39  1  0  0  0  0
 39 47  1  0  0  0  0
 39 40  2  0  0  0  0
  8  9  1  0  0  0  0
  9 17  1  0  0  0  0
  9 10  2  0  0  0  0
 18 19  1  0  0  0  0
 19 37  1  0  0  0  0
 19 20  2  0  0  0  0
 38 41  1  0  0  0  0
  8 11  1  0  0  0  0
 47 48  1  0  0  0  0
 18 21  1  0  0  0  0
 37 38  1  0  0  0  0
  7  8  1  0  0  0  0
 17 18  1  0  0  0  0
 27 36  1  0  0  0  0
 25 34  1  0  0  0  0
 26 35  1  0  0  0  0
 23 32  1  0  0  0  0
 24 33  1  0  0  0  0
  3  4  1  0  0  0  0
  3  5  1  0  0  0  0
  3  6  1  0  0  0  0
 41 44  1  0  0  0  0
 41 45  1  0  0  0  0
 41 46  1  0  0  0  0
 11 14  1  0  0  0  0
 11 15  1  0  0  0  0
 11 16  1  0  0  0  0
 48 50  1  0  0  0  0
 48 51  1  0  0  0  0
 48 52  1  0  0  0  0
 21 30  1  0  0  0  0
 21 31  1  0  0  0  0
 38 43  1  0  0  0  0
  8 13  1  0  0  0  0
 18 29  1  0  0  0  0
 47 49  1  0  0  0  0
  7 12  1  0  0  0  0
 37 42  1  0  0  0  0
 17 28  1  0  0  0  0
M  END
$$$$

  -OEChem-05262214473D

 52 52  0     1  0  0  0  0  0999 V2000
   -1.8248    0.3424    3.9102 C   0  0  0  0  0  0  0  0  0  0  0  0
   -0.8774   -0.2723    3.4345 O   0  0  0  0  0  0  0  0  0  0  0  0
   -2.2566    0.0600    5.3109 C   0  0  0  0  0  0  0  0  0  0  0  0
   -3.0163   -0.7363    5.3643 H   0  0  0  0  0  0  0  0  0  0  0  0
   -1.4254   -0.2876    5.9452 H   0  0  0  0  0  0  0  0  0  0  0  0
   -2.6947    0.9149    5.8505 H   0  0  0  0  0  0  0  0  0  0  0  0
   -2.5745    1.3149    3.2691 N   0  0  0  0  0  0  0  0  0  0  0  0
   -2.3276    1.7409    1.9167 C   0  0  2  0  0  0  0  0  0  0  0  0
   -0.9926    1.1555    1.4755 C   0  0  0  0  0  0  0  0  0  0  0  0
   -0.1206    0.8028    2.2668 O   0  0  0  0  0  0  0  0  0  0  0  0
   -2.3188    3.2577    1.8072 C   0  0  0  0  0  0  0  0  0  0  0  0
   -3.3395    1.7507    3.7809 H   0  0  0  0  0  0  0  0  0  0  0  0
   -3.1317    1.3224    1.3015 H   0  0  0  0  0  0  0  0  0  0  0  0
   -1.5198    3.6949    2.4169 H   0  0  0  0  0  0  0  0  0  0  0  0
   -2.1594    3.5799    0.7729 H   0  0  0  0  0  0  0  0  0  0  0  0
   -3.2690    3.6789    2.1530 H   0  0  0  0  0  0  0  0  0  0  0  0
   -0.8700    1.1124    0.0921 N   0  0  0  0  0  0  0  0  0  0  0  0
    0.3073    0.6116   -0.5716 C   0  0  2  0  0  0  0  0  0  0  0  0
    1.2887    0.1829    0.5134 C   0  0  0  0  0  0  0  0  0  0  0  0
    2.2891   -0.4927    0.2818 O   0  0  0  0  0  0  0  0  0  0  0  0
    0.9485    1.6628   -1.4849 C   0  0  0  0  0  0  0  0  0  0  0  0
    0.0823    2.0123   -2.6703 C   0  0  0  0  0  0  0  0  0  0  0  0
    0.0687    1.1847   -3.7931 C   0  0  0  0  0  0  0  0  0  0  0  0
   -0.7051    3.1633   -2.6428 C   0  0  0  0  0  0  0  0  0  0  0  0
   -0.7323    1.5081   -4.8883 C   0  0  0  0  0  0  0  0  0  0  0  0
   -1.5061    3.4868   -3.7380 C   0  0  0  0  0  0  0  0  0  0  0  0
   -1.5197    2.6591   -4.8607 C   0  0  0  0  0  0  0  0  0  0  0  0
   -1.6531    1.4091   -0.4852 H   0  0  0  0  0  0  0  0  0  0  0  0
   -0.0066   -0.2713   -1.1407 H   0  0  0  0  0  0  0  0  0  0  0  0
    1.9301    1.3152   -1.8343 H   0  0  0  0  0  0  0  0  0  0  0  0
    1.1524    2.5848   -0.9244 H   0  0  0  0  0  0  0  0  0  0  0  0
    0.6788    0.2858   -3.8233 H   0  0  0  0  0  0  0  0  0  0  0  0
   -0.7010    3.8140   -1.7723 H   0  0  0  0  0  0  0  0  0  0  0  0
   -0.7419    0.8642   -5.7629 H   0  0  0  0  0  0  0  0  0  0  0  0
   -2.1182    4.3836   -3.7167 H   0  0  0  0  0  0  0  0  0  0  0  0
   -2.1423    2.9116   -5.7142 H   0  0  0  0  0  0  0  0  0  0  0  0
    0.9393    0.6868    1.7586 N   0  0  0  0  0  0  0  0  0  0  0  0
    1.7130    0.4499    2.9561 C   0  0  2  0  0  0  0  0  0  0  0  0
    1.9773   -1.0466    3.0570 C   0  0  0  0  0  0  0  0  0  0  0  0
    1.2792   -1.8901    2.4984 O   0  0  0  0  0  0  0  0  0  0  0  0
    0.9885    0.9586    4.1927 C   0  0  0  0  0  0  0  0  0  0  0  0
    0.0974    1.2504    1.8319 H   0  0  0  0  0  0  0  0  0  0  0  0
    2.6626    0.9813    2.8294 H   0  0  0  0  0  0  0  0  0  0  0  0
    0.0347    0.4377    4.3361 H   0  0  0  0  0  0  0  0  0  0  0  0
    1.5884    0.8042    5.0956 H   0  0  0  0  0  0  0  0  0  0  0  0
    0.7728    2.0289    4.1054 H   0  0  0  0  0  0  0  0  0  0  0  0
    3.0585   -1.3313    3.8793 N   0  0  0  0  0  0  0  0  0  0  0  0
    3.5017   -2.6800    4.1454 C   0  0  0  0  0  0  0  0  0  0  0  0
    3.5915   -0.5683    4.2861 H   0  0  0  0  0  0  0  0  0  0  0  0
    3.0137   -3.0536    5.0577 H   0  0  0  0  0  0  0  0  0  0  0  0
    3.2363   -3.3272    3.2964 H   0  0  0  0  0  0  0  0  0  0  0  0
    4.5928   -2.6865    4.2844 H   0  0  0  0  0  0  0  0  0  0  0  0
 25 27  1  0  0  0  0
 26 27  2  0  0  0  0
 23 25  2  0  0  0  0
 24 26  1  0  0  0  0
 22 23  1  0  0  0  0
 22 24  2  0  0  0  0
 21 22  1  0  0  0  0
  1  3  1  0  0  0  0
  1  7  1  0  0  0  0
  1  2  2  0  0  0  0
 38 39  1  0  0  0  0
 39 47  1  0  0  0  0
 39 40  2  0  0  0  0
  8  9  1  0  0  0  0
  9 17  1  0  0  0  0
  9 10  2  0  0  0  0
 18 19  1  0  0  0  0
 19 37  1  0  0  0  0
 19 20  2  0  0  0  0
 38 41  1  0  0  0  0
  8 11  1  0  0  0  0
 47 48  1  0  0  0  0
 18 21  1  0  0  0  0
 37 38  1  0  0  0  0
  7  8  1  0  0  0  0
 17 18  1  0  0  0  0
 27 36  1  0  0  0  0
 25 34  1  0  0  0  0
 26 35  1  0  0  0  0
 23 32  1  0  0  0  0
 24 33  1  0  0  0  0
  3  4  1  0  0  0  0
  3  5  1  0  0  0  0
  3  6  1  0  0  0  0
 41 44  1  0  0  0  0
 41 45  1  0  0  0  0
 41 46  1  0  0  0  0
 11 14  1  0  0  0  0
 11 15  1  0  0  0  0
 11 16  1  0  0  0  0
 48 50  1  0  0  0  0
 48 51  1  0  0  0  0
 48 52  1  0  0  0  0
 21 30  1  0  0  0  0
 21 31  1  0  0  0  0
 38 43  1  0  0  0  0
  8 13  1  0  0  0  0
 18 29  1  0  0  0  0
 47 49  1  0  0  0  0
  7 12  1  0  0  0  0
 37 42  1  0  0  0  0
 17 28  1  0  0  0  0
M  END
$$$$

  -OEChem-05262214473D

 52 52  0     1  0  0  0  0  0999 V2000
   -1.8248    0.3424    3.9102 C   0  0  0  0  0  0  0  0  0  0  0  0
   -0.8774   -0.2723    3.4345 O   0  0  0  0  0  0  0  0  0  0  0  0
   -2.2566    0.0600    5.3109 C   0  0  0  0  0  0  0  0  0  0  0  0
   -3.0163   -0.7363    5.3643 H   0  0  0  0  0  0  0  0  0  0  0  0
   -1.4254   -0.2876    5.9452 H   0  0  0  0  0  0  0  0  0  0  0  0
   -2.6947    0.9149    5.8505 H   0  0  0  0  0  0  0  0  0  0  0  0
   -2.5745    1.3149    3.2691 N   0  0  0  0  0  0  0  0  0  0  0  0
   -2.3276    1.7409    1.9167 C   0  0  2  0  0  0  0  0  0  0  0  0
   -0.9926    1.1555    1.4755 C   0  0  0  0  0  0  0  0  0  0  0  0
   -0.1206    0.8028    2.2668 O   0  0  0  0  0  0  0  0  0  0  0  0
   -2.3188    3.2577    1.8072 C   0  0  0  0  0  0  0  0  0  0  0  0
   -3.3395    1.7507    3.7809 H   0  0  0  0  0  0  0  0  0  0  0  0
   -3.1317    1.3224    1.3015 H   0  0  0  0  0  0  0  0  0  0  0  0
   -1.5198    3.6949    2.4169 H   0  0  0  0  0  0  0  0  0  0  0  0
   -2.1594    3.5799    0.7729 H   0  0  0  0  0  0  0  0  0  0  0  0
   -3.2690    3.6789    2.1530 H   0  0  0  0  0  0  0  0  0  0  0  0
   -0.8700    1.1124    0.0921 N   0  0  0  0  0  0  0  0  0  0  0  0
    0.3073    0.6116   -0.5716 C   0  0  2  0  0  0  0  0  0  0  0  0
    1.2887    0.1829    0.5134 C   0  0  0  0  0  0  0  0  0  0  0  0
    2.4110   -0.2532    0.2662 O   0  0  0  0  0  0  0  0  0  0  0  0
    0.9485    1.6628   -1.4849 C   0  0  0  0  0  0  0  0  0  0  0  0
    0.0823    2.0123   -2.6703 C   0  0  0  0  0  0  0  0  0  0  0  0
    0.0687    1.1847   -3.7931 C   0  0  0  0  0  0  0  0  0  0  0  0
   -0.7051    3.1633   -2.6428 C   0  0  0  0  0  0  0  0  0  0  0  0
   -0.7323    1.5081   -4.8883 C   0  0  0  0  0  0  0  0  0  0  0  0
   -1.5061    3.4868   -3.7380 C   0  0  0  0  0  0  0  0  0  0  0  0
   -1.5197    2.6591   -4.8607 C   0  0  0  0  0  0  0  0  0  0  0  0
   -1.6531    1.4091   -0.4852 H   0  0  0  0  0  0  0  0  0  0  0  0
   -0.0066   -0.2713   -1.1407 H   0  0  0  0  0  0  0  0  0  0  0  0
    1.9301    1.3152   -1.8343 H   0  0  0  0  0  0  0  0  0  0  0  0
    1.1524    2.5848   -0.9244 H   0  0  0  0  0  0  0  0  0  0  0  0
    0.6788    0.2858   -3.8233 H   0  0  0  0  0  0  0  0  0  0  0  0
   -0.7010    3.8140   -1.7723 H   0  0  0  0  0  0  0  0  0  0  0  0
   -0.7419    0.8642   -5.7629 H   0  0  0  0  0  0  0  0  0  0  0  0
   -2.1182    4.3836   -3.7167 H   0  0  0  0  0  0  0  0  0  0  0  0
   -2.1423    2.9116   -5.7142 H   0  0  0  0  0  0  0  0  0  0  0  0
    0.7792    0.3928    1.7873 N   0  0  0  0  0  0  0  0  0  0  0  0
    1.5141    0.0935    2.9952 C   0  0  2  0  0  0  0  0  0  0  0  0
    2.0521   -1.3265    2.8787 C   0  0  0  0  0  0  0  0  0  0  0  0
    1.5605   -2.1710    2.1329 O   0  0  0  0  0  0  0  0  0  0  0  0
    0.6364    0.2427    4.2282 C   0  0  0  0  0  0  0  0  0  0  0  0
   -0.1574    0.7761    1.8750 H   0  0  0  0  0  0  0  0  0  0  0  0
    2.3507    0.7992    3.0395 H   0  0  0  0  0  0  0  0  0  0  0  0
   -0.2074   -0.4565    4.2017 H   0  0  0  0  0  0  0  0  0  0  0  0
    1.2021    0.0434    5.1444 H   0  0  0  0  0  0  0  0  0  0  0  0
    0.2263    1.2562    4.2943 H   0  0  0  0  0  0  0  0  0  0  0  0
    3.1190   -1.5525    3.7372 N   0  0  0  0  0  0  0  0  0  0  0  0
    3.7948   -2.8260    3.8225 C   0  0  0  0  0  0  0  0  0  0  0  0
    3.4728   -0.7891    4.3062 H   0  0  0  0  0  0  0  0  0  0  0  0
    3.3355   -3.4330    4.6166 H   0  0  0  0  0  0  0  0  0  0  0  0
    3.7066   -3.3529    2.8609 H   0  0  0  0  0  0  0  0  0  0  0  0
    4.8575   -2.6622    4.0546 H   0  0  0  0  0  0  0  0  0  0  0  0
 25 27  1  0  0  0  0
 26 27  2  0  0  0  0
 23 25  2  0  0  0  0
 24 26  1  0  0  0  0
 22 23  1  0  0  0  0
 22 24  2  0  0  0  0
 21 22  1  0  0  0  0
  1  3  1  0  0  0  0
  1  7  1  0  0  0  0
  1  2  2  0  0  0  0
 38 39  1  0  0  0  0
 39 47  1  0  0  0  0
 39 40  2  0  0  0  0
  8  9  1  0  0  0  0
  9 17  1  0  0  0  0
  9 10  2  0  0  0  0
 18 19  1  0  0  0  0
 19 37  1  0  0  0  0
 19 20  2  0  0  0  0
 38 41  1  0  0  0  0
  8 11  1  0  0  0  0
 47 48  1  0  0  0  0
 18 21  1  0  0  0  0
 37 38  1  0  0  0  0
  7  8  1  0  0  0  0
 17 18  1  0  0  0  0
 27 36  1  0  0  0  0
 25 34  1  0  0  0  0
 26 35  1  0  0  0  0
 23 32  1  0  0  0  0
 24 33  1  0  0  0  0
  3  4  1  0  0  0  0
  3  5  1  0  0  0  0
  3  6  1  0  0  0  0
 41 44  1  0  0  0  0
 41 45  1  0  0  0  0
 41 46  1  0  0  0  0
 11 14  1  0  0  0  0
 11 15  1  0  0  0  0
 11 16  1  0  0  0  0
 48 50  1  0  0  0  0
 48 51  1  0  0  0  0
 48 52  1  0  0  0  0
 21 30  1  0  0  0  0
 21 31  1  0  0  0  0
 38 43  1  0  0  0  0
  8 13  1  0  0  0  0
 18 29  1  0  0  0  0
 47 49  1  0  0  0  0
  7 12  1  0  0  0  0
 37 42  1  0  0  0  0
 17 28  1  0  0  0  0
M  END
$$$$

  -OEChem-05262214473D

 52 52  0     1  0  0  0  0  0999 V2000
   -1.8248    0.3424    3.9102 C   0  0  0  0  0  0  0  0  0  0  0  0
   -0.8774   -0.2723    3.4345 O   0  0  0  0  0  0  0  0  0  0  0  0
   -2.2566    0.0600    5.3109 C   0  0  0  0  0  0  0  0  0  0  0  0
   -3.0163   -0.7363    5.3643 H   0  0  0  0  0  0  0  0  0  0  0  0
   -1.4254   -0.2876    5.9452 H   0  0  0  0  0  0  0  0  0  0  0  0
   -2.6947    0.9149    5.8505 H   0  0  0  0  0  0  0  0  0  0  0  0
   -2.5745    1.3149    3.2691 N   0  0  0  0  0  0  0  0  0  0  0  0
   -2.3276    1.7409    1.9167 C   0  0  2  0  0  0  0  0  0  0  0  0
   -0.9926    1.1555    1.4755 C   0  0  0  0  0  0  0  0  0  0  0  0
   -0.1206    0.8028    2.2668 O   0  0  0  0  0  0  0  0  0  0  0  0
   -2.3188    3.2577    1.8072 C   0  0  0  0  0  0  0  0  0  0  0  0
   -3.3395    1.7507    3.7809 H   0  0  0  0  0  0  0  0  0  0  0  0
   -3.1317    1.3224    1.3015 H   0  0  0  0  0  0  0  0  0  0  0  0
   -1.5198    3.6949    2.4169 H   0  0  0  0  0  0  0  0  0  0  0  0
   -2.1594    3.5799    0.7729 H   0  0  0  0  0  0  0  0  0  0  0  0
   -3.2690    3.6789    2.1530 H   0  0  0  0  0  0  0  0  0  0  0  0
   -0.8700    1.1124    0.0921 N   0  0  0  0  0  0  0  0  0  0  0  0
    0.3073    0.6116   -0.5716 C   0  0  2  0  0  0  0  0  0  0  0  0
    1.2887    0.1829    0.5134 C   0  0  0  0  0  0  0  0  0  0  0  0
    2.4858    0.0032    0.2999 O   0  0  0  0  0  0  0  0  0  0  0  0
    0.9485    1.6628   -1.4849 C   0  0  0  0  0  0  0  0  0  0  0  0
    0.0823    2.0123   -2.6703 C   0  0  0  0  0  0  0  0  0  0  0  0
    0.0687    1.1847   -3.7931 C   0  0  0  0  0  0  0  0  0  0  0  0
   -0.7051    3.1633   -2.6428 C   0  0  0  0  0  0  0  0  0  0  0  0
   -0.7323    1.5081   -4.8883 C   0  0  0  0  0  0  0  0  0  0  0  0
   -1.5061    3.4868   -3.7380 C   0  0  0  0  0  0  0  0  0  0  0  0
   -1.5197    2.6591   -4.8607 C   0  0  0  0  0  0  0  0  0  0  0  0
   -1.6531    1.4091   -0.4852 H   0  0  0  0  0  0  0  0  0  0  0  0
   -0.0066   -0.2713   -1.1407 H   0  0  0  0  0  0  0  0  0  0  0  0
    1.9301    1.3152   -1.8343 H   0  0  0  0  0  0  0  0  0  0  0  0
    1.1524    2.5848   -0.9244 H   0  0  0  0  0  0  0  0  0  0  0  0
    0.6788    0.2858   -3.8233 H   0  0  0  0  0  0  0  0  0  0  0  0
   -0.7010    3.8140   -1.7723 H   0  0  0  0  0  0  0  0  0  0  0  0
   -0.7419    0.8642   -5.7629 H   0  0  0  0  0  0  0  0  0  0  0  0
   -2.1182    4.3836   -3.7167 H   0  0  0  0  0  0  0  0  0  0  0  0
   -2.1423    2.9116   -5.7142 H   0  0  0  0  0  0  0  0  0  0  0  0
    0.6765    0.0746    1.7544 N   0  0  0  0  0  0  0  0  0  0  0  0
    1.3847   -0.2940    2.9592 C   0  0  2  0  0  0  0  0  0  0  0  0
    2.1890   -1.5534    2.6652 C   0  0  0  0  0  0  0  0  0  0  0  0
    1.9106   -2.3296    1.7536 O   0  0  0  0  0  0  0  0  0  0  0  0
    0.4257   -0.5196    4.1177 C   0  0  0  0  0  0  0  0  0  0  0  0
   -0.3193    0.2639    1.8191 H   0  0  0  0  0  0  0  0  0  0  0  0
    2.0678    0.5309    3.1894 H   0  0  0  0  0  0  0  0  0  0  0  0
   -0.2667   -1.3424    3.9053 H   0  0  0  0  0  0  0  0  0  0  0  0
    0.9656   -0.7708    5.0365 H   0  0  0  0  0  0  0  0  0  0  0  0
   -0.1730    0.3777    4.3084 H   0  0  0  0  0  0  0  0  0  0  0  0
    3.2285   -1.7313    3.5675 N   0  0  0  0  0  0  0  0  0  0  0  0
    4.1284   -2.8593    3.5076 C   0  0  0  0  0  0  0  0  0  0  0  0
    3.3974   -1.0275    4.2802 H   0  0  0  0  0  0  0  0  0  0  0  0
    3.7484   -3.6667    4.1508 H   0  0  0  0  0  0  0  0  0  0  0  0
    4.1972   -3.2187    2.4702 H   0  0  0  0  0  0  0  0  0  0  0  0
    5.1254   -2.5517    3.8559 H   0  0  0  0  0  0  0  0  0  0  0  0
 25 27  1  0  0  0  0
 26 27  2  0  0  0  0
 23 25  2  0  0  0  0
 24 26  1  0  0  0  0
 22 23  1  0  0  0  0
 22 24  2  0  0  0  0
 21 22  1  0  0  0  0
  1  3  1  0  0  0  0
  1  7  1  0  0  0  0
  1  2  2  0  0  0  0
 38 39  1  0  0  0  0
 39 47  1  0  0  0  0
 39 40  2  0  0  0  0
  8  9  1  0  0  0  0
  9 17  1  0  0  0  0
  9 10  2  0  0  0  0
 18 19  1  0  0  0  0
 19 37  1  0  0  0  0
 19 20  2  0  0  0  0
 38 41  1  0  0  0  0
  8 11  1  0  0  0  0
 47 48  1  0  0  0  0
 18 21  1  0  0  0  0
 37 38  1  0  0  0  0
  7  8  1  0  0  0  0
 17 18  1  0  0  0  0
 27 36  1  0  0  0  0
 25 34  1  0  0  0  0
 26 35  1  0  0  0  0
 23 32  1  0  0  0  0
 24 33  1  0  0  0  0
  3  4  1  0  0  0  0
  3  5  1  0  0  0  0
  3  6  1  0  0  0  0
 41 44  1  0  0  0  0
 41 45  1  0  0  0  0
 41 46  1  0  0  0  0
 11 14  1  0  0  0  0
 11 15  1  0  0  0  0
 11 16  1  0  0  0  0
 48 50  1  0  0  0  0
 48 51  1  0  0  0  0
 48 52  1  0  0  0  0
 21 30  1  0  0  0  0
 21 31  1  0  0  0  0
 38 43  1  0  0  0  0
  8 13  1  0  0  0  0
 18 29  1  0  0  0  0
 47 49  1  0  0  0  0
  7 12  1  0  0  0  0
 37 42  1  0  0  0  0
 17 28  1  0  0  0  0
M  END
$$$$

  -OEChem-05262214473D

 52 52  0     1  0  0  0  0  0999 V2000
   -1.8248    0.3424    3.9102 C   0  0  0  0  0  0  0  0  0  0  0  0
   -0.8774   -0.2723    3.4345 O   0  0  0  0  0  0  0  0  0  0  0  0
   -2.2566    0.0600    5.3109 C   0  0  0  0  0  0  0  0  0  0  0  0
   -3.0163   -0.7363    5.3643 H   0  0  0  0  0  0  0  0  0  0  0  0
   -1.4254   -0.2876    5.9452 H   0  0  0  0  0  0  0  0  0  0  0  0
   -2.6947    0.9149    5.8505 H   0  0  0  0  0  0  0  0  0  0  0  0
   -2.5745    1.3149    3.2691 N   0  0  0  0  0  0  0  0  0  0  0  0
   -2.3276    1.7409    1.9167 C   0  0  2  0  0  0  0  0  0  0  0  0
   -0.9926    1.1555    1.4755 C   0  0  0  0  0  0  0  0  0  0  0  0
   -0.1206    0.8028    2.2668 O   0  0  0  0  0  0  0  0  0  0  0  0
   -2.3188    3.2577    1.8072 C   0  0  0  0  0  0  0  0  0  0  0  0
   -3.3395    1.7507    3.7809 H   0  0  0  0  0  0  0  0  0  0  0  0
   -3.1317    1.3224    1.3015 H   0  0  0  0  0  0  0  0  0  0  0  0
   -1.5198    3.6949    2.4169 H   0  0  0  0  0  0  0  0  0  0  0  0
   -2.1594    3.5799    0.7729 H   0  0  0  0  0  0  0  0  0  0  0  0
   -3.2690    3.6789    2.1530 H   0  0  0  0  0  0  0  0  0  0  0  0
   -0.8700    1.1124    0.0921 N   0  0  0  0  0  0  0  0  0  0  0  0
    0.3073    0.6116   -0.5716 C   0  0  2  0  0  0  0  0  0  0  0  0
    1.2887    0.1829    0.5134 C   0  0  0  0  0  0  0  0  0  0  0  0
    2.5083    0.2590    0.3806 O   0  0  0  0  0  0  0  0  0  0  0  0
    0.9485    1.6628   -1.4849 C   0  0  0  0  0  0  0  0  0  0  0  0
    0.0823    2.0123   -2.6703 C   0  0  0  0  0  0  0  0  0  0  0  0
    0.0687    1.1847   -3.7931 C   0  0  0  0  0  0  0  0  0  0  0  0
   -0.7051    3.1633   -2.6428 C   0  0  0  0  0  0  0  0  0  0  0  0
   -0.7323    1.5081   -4.8883 C   0  0  0  0  0  0  0  0  0  0  0  0
   -1.5061    3.4868   -3.7380 C   0  0  0  0  0  0  0  0  0  0  0  0
   -1.5197    2.6591   -4.8607 C   0  0  0  0  0  0  0  0  0  0  0  0
   -1.6531    1.4091   -0.4852 H   0  0  0  0  0  0  0  0  0  0  0  0
   -0.0066   -0.2713   -1.1407 H   0  0  0  0  0  0  0  0  0  0  0  0
    1.9301    1.3152   -1.8343 H   0  0  0  0  0  0  0  0  0  0  0  0
    1.1524    2.5848   -0.9244 H   0  0  0  0  0  0  0  0  0  0  0  0
    0.6788    0.2858   -3.8233 H   0  0  0  0  0  0  0  0  0  0  0  0
   -0.7010    3.8140   -1.7723 H   0  0  0  0  0  0  0  0  0  0  0  0
   -0.7419    0.8642   -5.7629 H   0  0  0  0  0  0  0  0  0  0  0  0
   -2.1182    4.3836   -3.7167 H   0  0  0  0  0  0  0  0  0  0  0  0
   -2.1423    2.9116   -5.7142 H   0  0  0  0  0  0  0  0  0  0  0  0
    0.6384   -0.2462    1.6621 N   0  0  0  0  0  0  0  0  0  0  0  0
    1.3337   -0.6861    2.8503 C   0  0  2  0  0  0  0  0  0  0  0  0
    2.3786   -1.7118    2.4312 C   0  0  0  0  0  0  0  0  0  0  0  0
    2.3056   -2.3552    1.3863 O   0  0  0  0  0  0  0  0  0  0  0  0
    0.3705   -1.2762    3.8685 C   0  0  0  0  0  0  0  0  0  0  0  0
   -0.3773   -0.2513    1.6680 H   0  0  0  0  0  0  0  0  0  0  0  0
    1.8330    0.1946    3.2689 H   0  0  0  0  0  0  0  0  0  0  0  0
   -0.1392   -2.1597    3.4670 H   0  0  0  0  0  0  0  0  0  0  0  0
    0.8950   -1.5828    4.7795 H   0  0  0  0  0  0  0  0  0  0  0  0
   -0.3979   -0.5468    4.1465 H   0  0  0  0  0  0  0  0  0  0  0  0
    3.3795   -1.8555    3.3817 N   0  0  0  0  0  0  0  0  0  0  0  0
    4.4797   -2.7775    3.2222 C   0  0  0  0  0  0  0  0  0  0  0  0
    3.3704   -1.2674    4.2098 H   0  0  0  0  0  0  0  0  0  0  0  0
    4.2243   -3.7388    3.6919 H   0  0  0  0  0  0  0  0  0  0  0  0
    4.6748   -2.9335    2.1509 H   0  0  0  0  0  0  0  0  0  0  0  0
    5.3783   -2.3625    3.7019 H   0  0  0  0  0  0  0  0  0  0  0  0
 25 27  1  0  0  0  0
 26 27  2  0  0  0  0
 23 25  2  0  0  0  0
 24 26  1  0  0  0  0
 22 23  1  0  0  0  0
 22 24  2  0  0  0  0
 21 22  1  0  0  0  0
  1  3  1  0  0  0  0
  1  7  1  0  0  0  0
  1  2  2  0  0  0  0
 38 39  1  0  0  0  0
 39 47  1  0  0  0  0
 39 40  2  0  0  0  0
  8  9  1  0  0  0  0
  9 17  1  0  0  0  0
  9 10  2  0  0  0  0
 18 19  1  0  0  0  0
 19 37  1  0  0  0  0
 19 20  2  0  0  0  0
 38 41  1  0  0  0  0
  8 11  1  0  0  0  0
 47 48  1  0  0  0  0
 18 21  1  0  0  0  0
 37 38  1  0  0  0  0
  7  8  1  0  0  0  0
 17 18  1  0  0  0  0
 27 36  1  0  0  0  0
 25 34  1  0  0  0  0
 26 35  1  0  0  0  0
 23 32  1  0  0  0  0
 24 33  1  0  0  0  0
  3  4  1  0  0  0  0
  3  5  1  0  0  0  0
  3  6  1  0  0  0  0
 41 44  1  0  0  0  0
 41 45  1  0  0  0  0
 41 46  1  0  0  0  0
 11 14  1  0  0  0  0
 11 15  1  0  0  0  0
 11 16  1  0  0  0  0
 48 50  1  0  0  0  0
 48 51  1  0  0  0  0
 48 52  1  0  0  0  0
 21 30  1  0  0  0  0
 21 31  1  0  0  0  0
 38 43  1  0  0  0  0
  8 13  1  0  0  0  0
 18 29  1  0  0  0  0
 47 49  1  0  0  0  0
  7 12  1  0  0  0  0
 37 42  1  0  0  0  0
 17 28  1  0  0  0  0
M  END
$$$$

  -OEChem-05262214473D

 52 52  0     1  0  0  0  0  0999 V2000
   -1.8248    0.3424    3.9102 C   0  0  0  0  0  0  0  0  0  0  0  0
   -0.8774   -0.2723    3.4345 O   0  0  0  0  0  0  0  0  0  0  0  0
   -2.2566    0.0600    5.3109 C   0  0  0  0  0  0  0  0  0  0  0  0
   -3.0163   -0.7363    5.3643 H   0  0  0  0  0  0  0  0  0  0  0  0
   -1.4254   -0.2876    5.9452 H   0  0  0  0  0  0  0  0  0  0  0  0
   -2.6947    0.9149    5.8505 H   0  0  0  0  0  0  0  0  0  0  0  0
   -2.5745    1.3149    3.2691 N   0  0  0  0  0  0  0  0  0  0  0  0
   -2.3276    1.7409    1.9167 C   0  0  2  0  0  0  0  0  0  0  0  0
   -0.9926    1.1555    1.4755 C   0  0  0  0  0  0  0  0  0  0  0  0
   -0.1206    0.8028    2.2668 O   0  0  0  0  0  0  0  0  0  0  0  0
   -2.3188    3.2577    1.8072 C   0  0  0  0  0  0  0  0  0  0  0  0
   -3.3395    1.7507    3.7809 H   0  0  0  0  0  0  0  0  0  0  0  0
   -3.1317    1.3224    1.3015 H   0  0  0  0  0  0  0  0  0  0  0  0
   -1.5198    3.6949    2.4169 H   0  0  0  0  0  0  0  0  0  0  0  0
   -2.1594    3.5799    0.7729 H   0  0  0  0  0  0  0  0  0  0  0  0
   -3.2690    3.6789    2.1530 H   0  0  0  0  0  0  0  0  0  0  0  0
   -0.8700    1.1124    0.0921 N   0  0  0  0  0  0  0  0  0  0  0  0
    0.3073    0.6116   -0.5716 C   0  0  2  0  0  0  0  0  0  0  0  0
    1.2887    0.1829    0.5134 C   0  0  0  0  0  0  0  0  0  0  0  0
    2.4771    0.4968    0.5028 O   0  0  0  0  0  0  0  0  0  0  0  0
    0.9485    1.6628   -1.4849 C   0  0  0  0  0  0  0  0  0  0  0  0
    0.0823    2.0123   -2.6703 C   0  0  0  0  0  0  0  0  0  0  0  0
    0.0687    1.1847   -3.7931 C   0  0  0  0  0  0  0  0  0  0  0  0
   -0.7051    3.1633   -2.6428 C   0  0  0  0  0  0  0  0  0  0  0  0
   -0.7323    1.5081   -4.8883 C   0  0  0  0  0  0  0  0  0  0  0  0
   -1.5061    3.4868   -3.7380 C   0  0  0  0  0  0  0  0  0  0  0  0
   -1.5197    2.6591   -4.8607 C   0  0  0  0  0  0  0  0  0  0  0  0
   -1.6531    1.4091   -0.4852 H   0  0  0  0  0  0  0  0  0  0  0  0
   -0.0066   -0.2713   -1.1407 H   0  0  0  0  0  0  0  0  0  0  0  0
    1.9301    1.3152   -1.8343 H   0  0  0  0  0  0  0  0  0  0  0  0
    1.1524    2.5848   -0.9244 H   0  0  0  0  0  0  0  0  0  0  0  0
    0.6788    0.2858   -3.8233 H   0  0  0  0  0  0  0  0  0  0  0  0
   -0.7010    3.8140   -1.7723 H   0  0  0  0  0  0  0  0  0  0  0  0
   -0.7419    0.8642   -5.7629 H   0  0  0  0  0  0  0  0  0  0  0  0
   -2.1182    4.3836   -3.7167 H   0  0  0  0  0  0  0  0  0  0  0  0
   -2.1423    2.9116   -5.7142 H   0  0  0  0  0  0  0  0  0  0  0  0
    0.6674   -0.5477    1.5168 N   0  0  0  0  0  0  0  0  0  0  0  0
    1.3646   -1.0561    2.6761 C   0  0  2  0  0  0  0  0  0  0  0  0
    2.6079   -1.7909    2.1925 C   0  0  0  0  0  0  0  0  0  0  0  0
    2.7186   -2.2459    1.0559 O   0  0  0  0  0  0  0  0  0  0  0  0
    0.4748   -1.9758    3.4978 C   0  0  0  0  0  0  0  0  0  0  0  0
   -0.3274   -0.7346    1.4319 H   0  0  0  0  0  0  0  0  0  0  0  0
    1.6623   -0.1868    3.2725 H   0  0  0  0  0  0  0  0  0  0  0  0
    0.1664   -2.8526    2.9168 H   0  0  0  0  0  0  0  0  0  0  0  0
    0.9951   -2.3374    4.3909 H   0  0  0  0  0  0  0  0  0  0  0  0
   -0.4331   -1.4543    3.8197 H   0  0  0  0  0  0  0  0  0  0  0  0
    3.5619   -1.9167    3.1926 N   0  0  0  0  0  0  0  0  0  0  0  0
    4.8247   -2.5863    2.9857 C   0  0  0  0  0  0  0  0  0  0  0  0
    3.3936   -1.4923    4.1000 H   0  0  0  0  0  0  0  0  0  0  0  0
    4.7305   -3.6444    3.2713 H   0  0  0  0  0  0  0  0  0  0  0  0
    5.1069   -2.5168    1.9247 H   0  0  0  0  0  0  0  0  0  0  0  0
    5.5990   -2.1075    3.6031 H   0  0  0  0  0  0  0  0  0  0  0  0
 25 27  1  0  0  0  0
 26 27  2  0  0  0  0
 23 25  2  0  0  0  0
 24 26  1  0  0  0  0
 22 23  1  0  0  0  0
 22 24  2  0  0  0  0
 21 22  1  0  0  0  0
  1  3  1  0  0  0  0
  1  7  1  0  0  0  0
  1  2  2  0  0  0  0
 38 39  1  0  0  0  0
 39 47  1  0  0  0  0
 39 40  2  0  0  0  0
  8  9  1  0  0  0  0
  9 17  1  0  0  0  0
  9 10  2  0  0  0  0
 18 19  1  0  0  0  0
 19 37  1  0  0  0  0
 19 20  2  0  0  0  0
 38 41  1  0  0  0  0
  8 11  1  0  0  0  0
 47 48  1  0  0  0  0
 18 21  1  0  0  0  0
 37 38  1  0  0  0  0
  7  8  1  0  0  0  0
 17 18  1  0  0  0  0
 27 36  1  0  0  0  0
 25 34  1  0  0  0  0
 26 35  1  0  0  0  0
 23 32  1  0  0  0  0
 24 33  1  0  0  0  0
  3  4  1  0  0  0  0
  3  5  1  0  0  0  0
  3  6  1  0  0  0  0
 41 44  1  0  0  0  0
 41 45  1  0  0  0  0
 41 46  1  0  0  0  0
 11 14  1  0  0  0  0
 11 15  1  0  0  0  0
 11 16  1  0  0  0  0
 48 50  1  0  0  0  0
 48 51  1  0  0  0  0
 48 52  1  0  0  0  0
 21 30  1  0  0  0  0
 21 31  1  0  0  0  0
 38 43  1  0  0  0  0
  8 13  1  0  0  0  0
 18 29  1  0  0  0  0
 47 49  1  0  0  0  0
  7 12  1  0  0  0  0
 37 42  1  0  0  0  0
 17 28  1  0  0  0  0
M  END
$$$$

  -OEChem-05262214473D

 52 52  0     1  0  0  0  0  0999 V2000
   -1.8248    0.3424    3.9102 C   0  0  0  0  0  0  0  0  0  0  0  0
   -0.8774   -0.2723    3.4345 O   0  0  0  0  0  0  0  0  0  0  0  0
   -2.2566    0.0600    5.3109 C   0  0  0  0  0  0  0  0  0  0  0  0
   -3.0163   -0.7363    5.3643 H   0  0  0  0  0  0  0  0  0  0  0  0
   -1.4254   -0.2876    5.9452 H   0  0  0  0  0  0  0  0  0  0  0  0
   -2.6947    0.9149    5.8505 H   0  0  0  0  0  0  0  0  0  0  0  0
   -2.5745    1.3149    3.2691 N   0  0  0  0  0  0  0  0  0  0  0  0
   -2.3276    1.7409    1.9167 C   0  0  2  0  0  0  0  0  0  0  0  0
   -0.9926    1.1555    1.4755 C   0  0  0  0  0  0  0  0  0  0  0  0
   -0.1206    0.8028    2.2668 O   0  0  0  0  0  0  0  0  0  0  0  0
   -2.3188    3.2577    1.8072 C   0  0  0  0  0  0  0  0  0  0  0  0
   -3.3395    1.7507    3.7809 H   0  0  0  0  0  0  0  0  0  0  0  0
   -3.1317    1.3224    1.3015 H   0  0  0  0  0  0  0  0  0  0  0  0
   -1.5198    3.6949    2.4169 H   0  0  0  0  0  0  0  0  0  0  0  0
   -2.1594    3.5799    0.7729 H   0  0  0  0  0  0  0  0  0  0  0  0
   -3.2690    3.6789    2.1530 H   0  0  0  0  0  0  0  0  0  0  0  0
   -0.8700    1.1124    0.0921 N   0  0  0  0  0  0  0  0  0  0  0  0
    0.3073    0.6116   -0.5716 C   0  0  2  0  0  0  0  0  0  0  0  0
    1.2887    0.1829    0.5134 C   0  0  0  0  0  0  0  0  0  0  0  0
    2.3942    0.7003    0.6582 O   0  0  0  0  0  0  0  0  0  0  0  0
    0.9485    1.6628   -1.4849 C   0  0  0  0  0  0  0  0  0  0  0  0
    0.0823    2.0123   -2.6703 C   0  0  0  0  0  0  0  0  0  0  0  0
    0.0687    1.1847   -3.7931 C   0  0  0  0  0  0  0  0  0  0  0  0
   -0.7051    3.1633   -2.6428 C   0  0  0  0  0  0  0  0  0  0  0  0
   -0.7323    1.5081   -4.8883 C   0  0  0  0  0  0  0  0  0  0  0  0
   -1.5061    3.4868   -3.7380 C   0  0  0  0  0  0  0  0  0  0  0  0
   -1.5197    2.6591   -4.8607 C   0  0  0  0  0  0  0  0  0  0  0  0
   -1.6531    1.4091   -0.4852 H   0  0  0  0  0  0  0  0  0  0  0  0
   -0.0066   -0.2713   -1.1407 H   0  0  0  0  0  0  0  0  0  0  0  0
    1.9301    1.3152   -1.8343 H   0  0  0  0  0  0  0  0  0  0  0  0
    1.1524    2.5848   -0.9244 H   0  0  0  0  0  0  0  0  0  0  0  0
    0.6788    0.2858   -3.8233 H   0  0  0  0  0  0  0  0  0  0  0  0
   -0.7010    3.8140   -1.7723 H   0  0  0  0  0  0  0  0  0  0  0  0
   -0.7419    0.8642   -5.7629 H   0  0  0  0  0  0  0  0  0  0  0  0
   -2.1182    4.3836   -3.7167 H   0  0  0  0  0  0  0  0  0  0  0  0
   -2.1423    2.9116   -5.7142 H   0  0  0  0  0  0  0  0  0  0  0  0
    0.7615   -0.8094    1.3282 N   0  0  0  0  0  0  0  0  0  0  0  0
    1.4753   -1.3788    2.4485 C   0  0  2  0  0  0  0  0  0  0  0  0
    2.8613   -1.7854    1.9655 C   0  0  0  0  0  0  0  0  0  0  0  0
    3.1214   -2.0092    0.7851 O   0  0  0  0  0  0  0  0  0  0  0  0
    0.7313   -2.5705    3.0307 C   0  0  0  0  0  0  0  0  0  0  0  0
   -0.1730   -1.1528    1.1270 H   0  0  0  0  0  0  0  0  0  0  0  0
    1.5675   -0.5872    3.2001 H   0  0  0  0  0  0  0  0  0  0  0  0
    0.6292   -3.3740    2.2922 H   0  0  0  0  0  0  0  0  0  0  0  0
    1.2590   -2.9830    3.8970 H   0  0  0  0  0  0  0  0  0  0  0  0
   -0.2761   -2.2828    3.3503 H   0  0  0  0  0  0  0  0  0  0  0  0
    3.7630   -1.9108    3.0130 N   0  0  0  0  0  0  0  0  0  0  0  0
    5.1400   -2.2986    2.8142 C   0  0  0  0  0  0  0  0  0  0  0  0
    3.4654   -1.6870    3.9581 H   0  0  0  0  0  0  0  0  0  0  0  0
    5.2327   -3.3898    2.9177 H   0  0  0  0  0  0  0  0  0  0  0  0
    5.4640   -1.9971    1.8072 H   0  0  0  0  0  0  0  0  0  0  0  0
    5.7723   -1.8041    3.5662 H   0  0  0  0  0  0  0  0  0  0  0  0
 25 27  1  0  0  0  0
 26 27  2  0  0  0  0
 23 25  2  0  0  0  0
 24 26  1  0  0  0  0
 22 23  1  0  0  0  0
 22 24  2  0  0  0  0
 21 22  1  0  0  0  0
  1  3  1  0  0  0  0
  1  7  1  0  0  0  0
  1  2  2  0  0  0  0
 38 39  1  0  0  0  0
 39 47  1  0  0  0  0
 39 40  2  0  0  0  0
  8  9  1  0  0  0  0
  9 17  1  0  0  0  0
  9 10  2  0  0  0  0
 18 19  1  0  0  0  0
 19 37  1  0  0  0  0
 19 20  2  0  0  0  0
 38 41  1  0  0  0  0
  8 11  1  0  0  0  0
 47 48  1  0  0  0  0
 18 21  1  0  0  0  0
 37 38  1  0  0  0  0
  7  8  1  0  0  0  0
 17 18  1  0  0  0  0
 27 36  1  0  0  0  0
 25 34  1  0  0  0  0
 26 35  1  0  0  0  0
 23 32  1  0  0  0  0
 24 33  1  0  0  0  0
  3  4  1  0  0  0  0
  3  5  1  0  0  0  0
  3  6  1  0  0  0  0
 41 44  1  0  0  0  0
 41 45  1  0  0  0  0
 41 46  1  0  0  0  0
 11 14  1  0  0  0  0
 11 15  1  0  0  0  0
 11 16  1  0  0  0  0
 48 50  1  0  0  0  0
 48 51  1  0  0  0  0
 48 52  1  0  0  0  0
 21 30  1  0  0  0  0
 21 31  1  0  0  0  0
 38 43  1  0  0  0  0
  8 13  1  0  0  0  0
 18 29  1  0  0  0  0
 47 49  1  0  0  0  0
  7 12  1  0  0  0  0
 37 42  1  0  0  0  0
 17 28  1  0  0  0  0
M  END
$$$$

  -OEChem-05262214473D

 52 52  0     1  0  0  0  0  0999 V2000
   -1.8248    0.3424    3.9102 C   0  0  0  0  0  0  0  0  0  0  0  0
   -0.8774   -0.2723    3.4345 O   0  0  0  0  0  0  0  0  0  0  0  0
   -2.2566    0.0600    5.3109 C   0  0  0  0  0  0  0  0  0  0  0  0
   -3.0163   -0.7363    5.3643 H   0  0  0  0  0  0  0  0  0  0  0  0
   -1.4254   -0.2876    5.9452 H   0  0  0  0  0  0  0  0  0  0  0  0
   -2.6947    0.9149    5.8505 H   0  0  0  0  0  0  0  0  0  0  0  0
   -2.5745    1.3149    3.2691 N   0  0  0  0  0  0  0  0  0  0  0  0
   -2.3276    1.7409    1.9167 C   0  0  2  0  0  0  0  0  0  0  0  0
   -0.9926    1.1555    1.4755 C   0  0  0  0  0  0  0  0  0  0  0  0
   -0.1206    0.8028    2.2668 O   0  0  0  0  0  0  0  0  0  0  0  0
   -2.3188    3.2577    1.8072 C   0  0  0  0  0  0  0  0  0  0  0  0
   -3.3395    1.7507    3.7809 H   0  0  0  0  0  0  0  0  0  0  0  0
   -3.1317    1.3224    1.3015 H   0  0  0  0  0  0  0  0  0  0  0  0
   -1.5198    3.6949    2.4169 H   0  0  0  0  0  0  0  0  0  0  0  0
   -2.1594    3.5799    0.7729 H   0  0  0  0  0  0  0  0  0  0  0  0
   -3.2690    3.6789    2.1530 H   0  0  0  0  0  0  0  0  0  0  0  0
   -0.8700    1.1124    0.0921 N   0  0  0  0  0  0  0  0  0  0  0  0
    0.3073    0.6116   -0.5716 C   0  0  2  0  0  0  0  0  0  0  0  0
    1.2887    0.1829    0.5134 C   0  0  0  0  0  0  0  0  0  0  0  0
    2.2654    0.8558    0.8361 O   0  0  0  0  0  0  0  0  0  0  0  0
    0.9485    1.6628   -1.4849 C   0  0  0  0  0  0  0  0  0  0  0  0
    0.0823    2.0123   -2.6703 C   0  0  0  0  0  0  0  0  0  0  0  0
    0.0687    1.1847   -3.7931 C   0  0  0  0  0  0  0  0  0  0  0  0
   -0.7051    3.1633   -2.6428 C   0  0  0  0  0  0  0  0  0  0  0  0
   -0.7323    1.5081   -4.8883 C   0  0  0  0  0  0  0  0  0  0  0  0
   -1.5061    3.4868   -3.7380 C   0  0  0  0  0  0  0  0  0  0  0  0
   -1.5197    2.6591   -4.8607 C   0  0  0  0  0  0  0  0  0  0  0  0
   -1.6531    1.4091   -0.4852 H   0  0  0  0  0  0  0  0  0  0  0  0
   -0.0066   -0.2713   -1.1407 H   0  0  0  0  0  0  0  0  0  0  0  0
    1.9301    1.3152   -1.8343 H   0  0  0  0  0  0  0  0  0  0  0  0
    1.1524    2.5848   -0.9244 H   0  0  0  0  0  0  0  0  0  0  0  0
    0.6788    0.2858   -3.8233 H   0  0  0  0  0  0  0  0  0  0  0  0
   -0.7010    3.8140   -1.7723 H   0  0  0  0  0  0  0  0  0  0  0  0
   -0.7419    0.8642   -5.7629 H   0  0  0  0  0  0  0  0  0  0  0  0
   -2.1182    4.3836   -3.7167 H   0  0  0  0  0  0  0  0  0  0  0  0
   -2.1423    2.9116   -5.7142 H   0  0  0  0  0  0  0  0  0  0  0  0
    0.9143   -1.0135    1.1093 N   0  0  0  0  0  0  0  0  0  0  0  0
    1.6583   -1.6322    2.1829 C   0  0  2  0  0  0  0  0  0  0  0  0
    3.1216   -1.6954    1.7656 C   0  0  0  0  0  0  0  0  0  0  0  0
    3.4866   -1.6612    0.5923 O   0  0  0  0  0  0  0  0  0  0  0  0
    1.1227   -3.0199    2.4992 C   0  0  0  0  0  0  0  0  0  0  0  0
    0.0753   -1.4775    0.7740 H   0  0  0  0  0  0  0  0  0  0  0  0
    1.5549   -0.9793    3.0565 H   0  0  0  0  0  0  0  0  0  0  0  0
    1.2178   -3.6883    1.6356 H   0  0  0  0  0  0  0  0  0  0  0  0
    1.6688   -3.4758    3.3316 H   0  0  0  0  0  0  0  0  0  0  0  0
    0.0623   -2.9760    2.7703 H   0  0  0  0  0  0  0  0  0  0  0  0
    3.9693   -1.8381    2.8552 N   0  0  0  0  0  0  0  0  0  0  0  0
    5.4040   -1.9341    2.7194 C   0  0  0  0  0  0  0  0  0  0  0  0
    3.5810   -1.8382    3.7938 H   0  0  0  0  0  0  0  0  0  0  0  0
    5.6967   -2.9925    2.6550 H   0  0  0  0  0  0  0  0  0  0  0  0
    5.7217   -1.4097    1.8062 H   0  0  0  0  0  0  0  0  0  0  0  0
    5.8866   -1.4729    3.5938 H   0  0  0  0  0  0  0  0  0  0  0  0
 25 27  1  0  0  0  0
 26 27  2  0  0  0  0
 23 25  2  0  0  0  0
 24 26  1  0  0  0  0
 22 23  1  0  0  0  0
 22 24  2  0  0  0  0
 21 22  1  0  0  0  0
  1  3  1  0  0  0  0
  1  7  1  0  0  0  0
  1  2  2  0  0  0  0
 38 39  1  0  0  0  0
 39 47  1  0  0  0  0
 39 40  2  0  0  0  0
  8  9  1  0  0  0  0
  9 17  1  0  0  0  0
  9 10  2  0  0  0  0
 18 19  1  0  0  0  0
 19 37  1  0  0  0  0
 19 20  2  0  0  0  0
 38 41  1  0  0  0  0
  8 11  1  0  0  0  0
 47 48  1  0  0  0  0
 18 21  1  0  0  0  0
 37 38  1  0  0  0  0
  7  8  1  0  0  0  0
 17 18  1  0  0  0  0
 27 36  1  0  0  0  0
 25 34  1  0  0  0  0
 26 35  1  0  0  0  0
 23 32  1  0  0  0  0
 24 33  1  0  0  0  0
  3  4  1  0  0  0  0
  3  5  1  0  0  0  0
  3  6  1  0  0  0  0
 41 44  1  0  0  0  0
 41 45  1  0  0  0  0
 41 46  1  0  0  0  0
 11 14  1  0  0  0  0
 11 15  1  0  0  0  0
 11 16  1  0  0  0  0
 48 50  1  0  0  0  0
 48 51  1  0  0  0  0
 48 52  1  0  0  0  0
 21 30  1  0  0  0  0
 21 31  1  0  0  0  0
 38 43  1  0  0  0  0
  8 13  1  0  0  0  0
 18 29  1  0  0  0  0
 47 49  1  0  0  0  0
  7 12  1  0  0  0  0
 37 42  1  0  0  0  0
 17 28  1  0  0  0  0
M  END
$$$$

  -OEChem-05262214473D

 52 52  0     1  0  0  0  0  0999 V2000
   -1.8248    0.3424    3.9102 C   0  0  0  0  0  0  0  0  0  0  0  0
   -0.8774   -0.2723    3.4345 O   0  0  0  0  0  0  0  0  0  0  0  0
   -2.2566    0.0600    5.3109 C   0  0  0  0  0  0  0  0  0  0  0  0
   -3.0163   -0.7363    5.3643 H   0  0  0  0  0  0  0  0  0  0  0  0
   -1.4254   -0.2876    5.9452 H   0  0  0  0  0  0  0  0  0  0  0  0
   -2.6947    0.9149    5.8505 H   0  0  0  0  0  0  0  0  0  0  0  0
   -2.5745    1.3149    3.2691 N   0  0  0  0  0  0  0  0  0  0  0  0
   -2.3276    1.7409    1.9167 C   0  0  2  0  0  0  0  0  0  0  0  0
   -0.9926    1.1555    1.4755 C   0  0  0  0  0  0  0  0  0  0  0  0
   -0.1206    0.8028    2.2668 O   0  0  0  0  0  0  0  0  0  0  0  0
   -2.3188    3.2577    1.8072 C   0  0  0  0  0  0  0  0  0  0  0  0
   -3.3395    1.7507    3.7809 H   0  0  0  0  0  0  0  0  0  0  0  0
   -3.1317    1.3224    1.3015 H   0  0  0  0  0  0  0  0  0  0  0  0
   -1.5198    3.6949    2.4169 H   0  0  0  0  0  0  0  0  0  0  0  0
   -2.1594    3.5799    0.7729 H   0  0  0  0  0  0  0  0  0  0  0  0
   -3.2690    3.6789    2.1530 H   0  0  0  0  0  0  0  0  0  0  0  0
   -0.8700    1.1124    0.0921 N   0  0  0  0  0  0  0  0  0  0  0  0
    0.3073    0.6116   -0.5716 C   0  0  2  0  0  0  0  0  0  0  0  0
    1.2887    0.1829    0.5134 C   0  0  0  0  0  0  0  0  0  0  0  0
    2.0993    0.9526    1.0246 O   0  0  0  0  0  0  0  0  0  0  0  0
    0.9485    1.6628   -1.4849 C   0  0  0  0  0  0  0  0  0  0  0  0
    0.0823    2.0123   -2.6703 C   0  0  0  0  0  0  0  0  0  0  0  0
    0.0687    1.1847   -3.7931 C   0  0  0  0  0  0  0  0  0  0  0  0
   -0.7051    3.1633   -2.6428 C   0  0  0  0  0  0  0  0  0  0  0  0
   -0.7323    1.5081   -4.8883 C   0  0  0  0  0  0  0  0  0  0  0  0
   -1.5061    3.4868   -3.7380 C   0  0  0  0  0  0  0  0  0  0  0  0
   -1.5197    2.6591   -4.8607 C   0  0  0  0  0  0  0  0  0  0  0  0
   -1.6531    1.4091   -0.4852 H   0  0  0  0  0  0  0  0  0  0  0  0
   -0.0066   -0.2713   -1.1407 H   0  0  0  0  0  0  0  0  0  0  0  0
    1.9301    1.3152   -1.8343 H   0  0  0  0  0  0  0  0  0  0  0  0
    1.1524    2.5848   -0.9244 H   0  0  0  0  0  0  0  0  0  0  0  0
    0.6788    0.2858   -3.8233 H   0  0  0  0  0  0  0  0  0  0  0  0
   -0.7010    3.8140   -1.7723 H   0  0  0  0  0  0  0  0  0  0  0  0
   -0.7419    0.8642   -5.7629 H   0  0  0  0  0  0  0  0  0  0  0  0
   -2.1182    4.3836   -3.7167 H   0  0  0  0  0  0  0  0  0  0  0  0
   -2.1423    2.9116   -5.7142 H   0  0  0  0  0  0  0  0  0  0  0  0
    1.1155   -1.1459    0.8751 N   0  0  0  0  0  0  0  0  0  0  0  0
    1.9010   -1.7989    1.8975 C   0  0  2  0  0  0  0  0  0  0  0  0
    3.3710   -1.5273    1.6065 C   0  0  0  0  0  0  0  0  0  0  0  0
    3.7893   -1.2257    0.4906 O   0  0  0  0  0  0  0  0  0  0  0  0
    1.6222   -3.2934    1.9393 C   0  0  0  0  0  0  0  0  0  0  0  0
    0.4007   -1.6866    0.3971 H   0  0  0  0  0  0  0  0  0  0  0  0
    1.6255   -1.3365    2.8516 H   0  0  0  0  0  0  0  0  0  0  0  0
    1.8920   -3.7740    0.9919 H   0  0  0  0  0  0  0  0  0  0  0  0
    2.1966   -3.7821    2.7332 H   0  0  0  0  0  0  0  0  0  0  0  0
    0.5591   -3.4866    2.1192 H   0  0  0  0  0  0  0  0  0  0  0  0
    4.1667   -1.7036    2.7299 N   0  0  0  0  0  0  0  0  0  0  0  0
    5.5988   -1.5176    2.7079 C   0  0  0  0  0  0  0  0  0  0  0  0
    3.7324   -1.9356    3.6183 H   0  0  0  0  0  0  0  0  0  0  0  0
    6.0908   -2.4795    2.5013 H   0  0  0  0  0  0  0  0  0  0  0  0
    5.8625   -0.7947    1.9218 H   0  0  0  0  0  0  0  0  0  0  0  0
    5.9339   -1.1366    3.6838 H   0  0  0  0  0  0  0  0  0  0  0  0
 25 27  1  0  0  0  0
 26 27  2  0  0  0  0
 23 25  2  0  0  0  0
 24 26  1  0  0  0  0
 22 23  1  0  0  0  0
 22 24  2  0  0  0  0
 21 22  1  0  0  0  0
  1  3  1  0  0  0  0
  1  7  1  0  0  0  0
  1  2  2  0  0  0  0
 38 39  1  0  0  0  0
 39 47  1  0  0  0  0
 39 40  2  0  0  0  0
  8  9  1  0  0  0  0
  9 17  1  0  0  0  0
  9 10  2  0  0  0  0
 18 19  1  0  0  0  0
 19 37  1  0  0  0  0
 19 20  2  0  0  0  0
 38 41  1  0  0  0  0
  8 11  1  0  0  0  0
 47 48  1  0  0  0  0
 18 21  1  0  0  0  0
 37 38  1  0  0  0  0
  7  8  1  0  0  0  0
 17 18  1  0  0  0  0
 27 36  1  0  0  0  0
 25 34  1  0  0  0  0
 26 35  1  0  0  0  0
 23 32  1  0  0  0  0
 24 33  1  0  0  0  0
  3  4  1  0  0  0  0
  3  5  1  0  0  0  0
  3  6  1  0  0  0  0
 41 44  1  0  0  0  0
 41 45  1  0  0  0  0
 41 46  1  0  0  0  0
 11 14  1  0  0  0  0
 11 15  1  0  0  0  0
 11 16  1  0  0  0  0
 48 50  1  0  0  0  0
 48 51  1  0  0  0  0
 48 52  1  0  0  0  0
 21 30  1  0  0  0  0
 21 31  1  0  0  0  0
 38 43  1  0  0  0  0
  8 13  1  0  0  0  0
 18 29  1  0  0  0  0
 47 49  1  0  0  0  0
  7 12  1  0  0  0  0
 37 42  1  0  0  0  0
 17 28  1  0  0  0  0
M  END
$$$$

  -OEChem-05262214473D

 52 52  0     1  0  0  0  0  0999 V2000
   -1.8248    0.3424    3.9102 C   0  0  0  0  0  0  0  0  0  0  0  0
   -0.8774   -0.2723    3.4345 O   0  0  0  0  0  0  0  0  0  0  0  0
   -2.2566    0.0600    5.3109 C   0  0  0  0  0  0  0  0  0  0  0  0
   -3.0163   -0.7363    5.3643 H   0  0  0  0  0  0  0  0  0  0  0  0
   -1.4254   -0.2876    5.9452 H   0  0  0  0  0  0  0  0  0  0  0  0
   -2.6947    0.9149    5.8505 H   0  0  0  0  0  0  0  0  0  0  0  0
   -2.5745    1.3149    3.2691 N   0  0  0  0  0  0  0  0  0  0  0  0
   -2.3276    1.7409    1.9167 C   0  0  2  0  0  0  0  0  0  0  0  0
   -0.9926    1.1555    1.4755 C   0  0  0  0  0  0  0  0  0  0  0  0
   -0.1206    0.8028    2.2668 O   0  0  0  0  0  0  0  0  0  0  0  0
   -2.3188    3.2577    1.8072 C   0  0  0  0  0  0  0  0  0  0  0  0
   -3.3395    1.7507    3.7809 H   0  0  0  0  0  0  0  0  0  0  0  0
   -3.1317    1.3224    1.3015 H   0  0  0  0  0  0  0  0  0  0  0  0
   -1.5198    3.6949    2.4169 H   0  0  0  0  0  0  0  0  0  0  0  0
   -2.1594    3.5799    0.7729 H   0  0  0  0  0  0  0  0  0  0  0  0
   -3.2690    3.6789    2.1530 H   0  0  0  0  0  0  0  0  0  0  0  0
   -0.8700    1.1124    0.0921 N   0  0  0  0  0  0  0  0  0  0  0  0
    0.3073    0.6116   -0.5716 C   0  0  2  0  0  0  0  0  0  0  0  0
    1.2887    0.1829    0.5134 C   0  0  0  0  0  0  0  0  0  0  0  0
    1.9074    0.9841    1.2106 O   0  0  0  0  0  0  0  0  0  0  0  0
    0.9485    1.6628   -1.4849 C   0  0  0  0  0  0  0  0  0  0  0  0
    0.0823    2.0123   -2.6703 C   0  0  0  0  0  0  0  0  0  0  0  0
    0.0687    1.1847   -3.7931 C   0  0  0  0  0  0  0  0  0  0  0  0
   -0.7051    3.1633   -2.6428 C   0  0  0  0  0  0  0  0  0  0  0  0
   -0.7323    1.5081   -4.8883 C   0  0  0  0  0  0  0  0  0  0  0  0
   -1.5061    3.4868   -3.7380 C   0  0  0  0  0  0  0  0  0  0  0  0
   -1.5197    2.6591   -4.8607 C   0  0  0  0  0  0  0  0  0  0  0  0
   -1.6531    1.4091   -0.4852 H   0  0  0  0  0  0  0  0  0  0  0  0
   -0.0066   -0.2713   -1.1407 H   0  0  0  0  0  0  0  0  0  0  0  0
    1.9301    1.3152   -1.8343 H   0  0  0  0  0  0  0  0  0  0  0  0
    1.1524    2.5848   -0.9244 H   0  0  0  0  0  0  0  0  0  0  0  0
    0.6788    0.2858   -3.8233 H   0  0  0  0  0  0  0  0  0  0  0  0
   -0.7010    3.8140   -1.7723 H   0  0  0  0  0  0  0  0  0  0  0  0
   -0.7419    0.8642   -5.7629 H   0  0  0  0  0  0  0  0  0  0  0  0
   -2.1182    4.3836   -3.7167 H   0  0  0  0  0  0  0  0  0  0  0  0
   -2.1423    2.9116   -5.7142 H   0  0  0  0  0  0  0  0  0  0  0  0
    1.3512   -1.1978    0.6414 N   0  0  0  0  0  0  0  0  0  0  0  0
    2.1869   -1.8678    1.6117 C   0  0  2  0  0  0  0  0  0  0  0  0
    3.5925   -1.2925    1.4989 C   0  0  0  0  0  0  0  0  0  0  0  0
    4.0088   -0.7324    0.4870 O   0  0  0  0  0  0  0  0  0  0  0  0
    2.1958   -3.3722    1.3894 C   0  0  0  0  0  0  0  0  0  0  0  0
    0.7810   -1.7659    0.0218 H   0  0  0  0  0  0  0  0  0  0  0  0
    1.7743   -1.6344    2.5993 H   0  0  0  0  0  0  0  0  0  0  0  0
    2.6059   -3.6254    0.4049 H   0  0  0  0  0  0  0  0  0  0  0  0
    2.8064   -3.8810    2.1426 H   0  0  0  0  0  0  0  0  0  0  0  0
    1.1805   -3.7799    1.4413 H   0  0  0  0  0  0  0  0  0  0  0  0
    4.3416   -1.5164    2.6456 N   0  0  0  0  0  0  0  0  0  0  0  0
    5.7110   -1.0775    2.7803 C   0  0  0  0  0  0  0  0  0  0  0  0
    3.9094   -1.9725    3.4436 H   0  0  0  0  0  0  0  0  0  0  0  0
    6.3882   -1.8857    2.4669 H   0  0  0  0  0  0  0  0  0  0  0  0
    5.8768   -0.1940    2.1463 H   0  0  0  0  0  0  0  0  0  0  0  0
    5.9111   -0.8180    3.8303 H   0  0  0  0  0  0  0  0  0  0  0  0
 25 27  1  0  0  0  0
 26 27  2  0  0  0  0
 23 25  2  0  0  0  0
 24 26  1  0  0  0  0
 22 23  1  0  0  0  0
 22 24  2  0  0  0  0
 21 22  1  0  0  0  0
  1  3  1  0  0  0  0
  1  7  1  0  0  0  0
  1  2  2  0  0  0  0
 38 39  1  0  0  0  0
 39 47  1  0  0  0  0
 39 40  2  0  0  0  0
  8  9  1  0  0  0  0
  9 17  1  0  0  0  0
  9 10  2  0  0  0  0
 18 19  1  0  0  0  0
 19 37  1  0  0  0  0
 19 20  2  0  0  0  0
 38 41  1  0  0  0  0
  8 11  1  0  0  0  0
 47 48  1  0  0  0  0
 18 21  1  0  0  0  0
 37 38  1  0  0  0  0
  7  8  1  0  0  0  0
 17 18  1  0  0  0  0
 27 36  1  0  0  0  0
 25 34  1  0  0  0  0
 26 35  1  0  0  0  0
 23 32  1  0  0  0  0
 24 33  1  0  0  0  0
  3  4  1  0  0  0  0
  3  5  1  0  0  0  0
  3  6  1  0  0  0  0
 41 44  1  0  0  0  0
 41 45  1  0  0  0  0
 41 46  1  0  0  0  0
 11 14  1  0  0  0  0
 11 15  1  0  0  0  0
 11 16  1  0  0  0  0
 48 50  1  0  0  0  0
 48 51  1  0  0  0  0
 48 52  1  0  0  0  0
 21 30  1  0  0  0  0
 21 31  1  0  0  0  0
 38 43  1  0  0  0  0
  8 13  1  0  0  0  0
 18 29  1  0  0  0  0
 47 49  1  0  0  0  0
  7 12  1  0  0  0  0
 37 42  1  0  0  0  0
 17 28  1  0  0  0  0
M  END
$$$$

  -OEChem-05262214473D

 52 52  0     1  0  0  0  0  0999 V2000
   -1.8248    0.3424    3.9102 C   0  0  0  0  0  0  0  0  0  0  0  0
   -0.8774   -0.2723    3.4345 O   0  0  0  0  0  0  0  0  0  0  0  0
   -2.2566    0.0600    5.3109 C   0  0  0  0  0  0  0  0  0  0  0  0
   -3.0163   -0.7363    5.3643 H   0  0  0  0  0  0  0  0  0  0  0  0
   -1.4254   -0.2876    5.9452 H   0  0  0  0  0  0  0  0  0  0  0  0
   -2.6947    0.9149    5.8505 H   0  0  0  0  0  0  0  0  0  0  0  0
   -2.5745    1.3149    3.2691 N   0  0  0  0  0  0  0  0  0  0  0  0
   -2.3276    1.7409    1.9167 C   0  0  2  0  0  0  0  0  0  0  0  0
   -0.9926    1.1555    1.4755 C   0  0  0  0  0  0  0  0  0  0  0  0
   -0.1206    0.8028    2.2668 O   0  0  0  0  0  0  0  0  0  0  0  0
   -2.3188    3.2577    1.8072 C   0  0  0  0  0  0  0  0  0  0  0  0
   -3.3395    1.7507    3.7809 H   0  0  0  0  0  0  0  0  0  0  0  0
   -3.1317    1.3224    1.3015 H   0  0  0  0  0  0  0  0  0  0  0  0
   -1.5198    3.6949    2.4169 H   0  0  0  0  0  0  0  0  0  0  0  0
   -2.1594    3.5799    0.7729 H   0  0  0  0  0  0  0  0  0  0  0  0
   -3.2690    3.6789    2.1530 H   0  0  0  0  0  0  0  0  0  0  0  0
   -0.8700    1.1124    0.0921 N   0  0  0  0  0  0  0  0  0  0  0  0
    0.3073    0.6116   -0.5716 C   0  0  2  0  0  0  0  0  0  0  0  0
    1.2887    0.1829    0.5134 C   0  0  0  0  0  0  0  0  0  0  0  0
    1.7026    0.9482    1.3816 O   0  0  0  0  0  0  0  0  0  0  0  0
    0.9485    1.6628   -1.4849 C   0  0  0  0  0  0  0  0  0  0  0  0
    0.0823    2.0123   -2.6703 C   0  0  0  0  0  0  0  0  0  0  0  0
    0.0687    1.1847   -3.7931 C   0  0  0  0  0  0  0  0  0  0  0  0
   -0.7051    3.1633   -2.6428 C   0  0  0  0  0  0  0  0  0  0  0  0
   -0.7323    1.5081   -4.8883 C   0  0  0  0  0  0  0  0  0  0  0  0
   -1.5061    3.4868   -3.7380 C   0  0  0  0  0  0  0  0  0  0  0  0
   -1.5197    2.6591   -4.8607 C   0  0  0  0  0  0  0  0  0  0  0  0
   -1.6531    1.4091   -0.4852 H   0  0  0  0  0  0  0  0  0  0  0  0
   -0.0066   -0.2713   -1.1407 H   0  0  0  0  0  0  0  0  0  0  0  0
    1.9301    1.3152   -1.8343 H   0  0  0  0  0  0  0  0  0  0  0  0
    1.1524    2.5848   -0.9244 H   0  0  0  0  0  0  0  0  0  0  0  0
    0.6788    0.2858   -3.8233 H   0  0  0  0  0  0  0  0  0  0  0  0
   -0.7010    3.8140   -1.7723 H   0  0  0  0  0  0  0  0  0  0  0  0
   -0.7419    0.8642   -5.7629 H   0  0  0  0  0  0  0  0  0  0  0  0
   -2.1182    4.3836   -3.7167 H   0  0  0  0  0  0  0  0  0  0  0  0
   -2.1423    2.9116   -5.7142 H   0  0  0  0  0  0  0  0  0  0  0  0
    1.6055   -1.1655    0.4241 N   0  0  0  0  0  0  0  0  0  0  0  0
    2.4966   -1.8340    1.3450 C   0  0  2  0  0  0  0  0  0  0  0  0
    3.7711   -1.0070    1.4502 C   0  0  0  0  0  0  0  0  0  0  0  0
    4.1303   -0.2148    0.5816 O   0  0  0  0  0  0  0  0  0  0  0  0
    2.8044   -3.2511    0.8868 C   0  0  0  0  0  0  0  0  0  0  0  0
    1.1902   -1.7098   -0.3262 H   0  0  0  0  0  0  0  0  0  0  0  0
    1.9913   -1.8526    2.3168 H   0  0  0  0  0  0  0  0  0  0  0  0
    3.3108   -3.2526   -0.0853 H   0  0  0  0  0  0  0  0  0  0  0  0
    3.4566   -3.7658    1.6000 H   0  0  0  0  0  0  0  0  0  0  0  0
    1.8840   -3.8357    0.7830 H   0  0  0  0  0  0  0  0  0  0  0  0
    4.4823   -1.2893    2.6081 N   0  0  0  0  0  0  0  0  0  0  0  0
    5.7331   -0.6437    2.9317 C   0  0  0  0  0  0  0  0  0  0  0  0
    4.0999   -1.9465    3.2816 H   0  0  0  0  0  0  0  0  0  0  0  0
    6.5685   -1.2517    2.5543 H   0  0  0  0  0  0  0  0  0  0  0  0
    5.7636    0.3515    2.4642 H   0  0  0  0  0  0  0  0  0  0  0  0
    5.8198   -0.5389    4.0232 H   0  0  0  0  0  0  0  0  0  0  0  0
 25 27  1  0  0  0  0
 26 27  2  0  0  0  0
 23 25  2  0  0  0  0
 24 26  1  0  0  0  0
 22 23  1  0  0  0  0
 22 24  2  0  0  0  0
 21 22  1  0  0  0  0
  1  3  1  0  0  0  0
  1  7  1  0  0  0  0
  1  2  2  0  0  0  0
 38 39  1  0  0  0  0
 39 47  1  0  0  0  0
 39 40  2  0  0  0  0
  8  9  1  0  0  0  0
  9 17  1  0  0  0  0
  9 10  2  0  0  0  0
 18 19  1  0  0  0  0
 19 37  1  0  0  0  0
 19 20  2  0  0  0  0
 38 41  1  0  0  0  0
  8 11  1  0  0  0  0
 47 48  1  0  0  0  0
 18 21  1  0  0  0  0
 37 38  1  0  0  0  0
  7  8  1  0  0  0  0
 17 18  1  0  0  0  0
 27 36  1  0  0  0  0
 25 34  1  0  0  0  0
 26 35  1  0  0  0  0
 23 32  1  0  0  0  0
 24 33  1  0  0  0  0
  3  4  1  0  0  0  0
  3  5  1  0  0  0  0
  3  6  1  0  0  0  0
 41 44  1  0  0  0  0
 41 45  1  0  0  0  0
 41 46  1  0  0  0  0
 11 14  1  0  0  0  0
 11 15  1  0  0  0  0
 11 16  1  0  0  0  0
 48 50  1  0  0  0  0
 48 51  1  0  0  0  0
 48 52  1  0  0  0  0
 21 30  1  0  0  0  0
 21 31  1  0  0  0  0
 38 43  1  0  0  0  0
  8 13  1  0  0  0  0
 18 29  1  0  0  0  0
 47 49  1  0  0  0  0
  7 12  1  0  0  0  0
 37 42  1  0  0  0  0
 17 28  1  0  0  0  0
M  END
$$$$

  -OEChem-05262214473D

 52 52  0     1  0  0  0  0  0999 V2000
   -1.8248    0.3424    3.9102 C   0  0  0  0  0  0  0  0  0  0  0  0
   -0.8774   -0.2723    3.4345 O   0  0  0  0  0  0  0  0  0  0  0  0
   -2.2566    0.0600    5.3109 C   0  0  0  0  0  0  0  0  0  0  0  0
   -3.0163   -0.7363    5.3643 H   0  0  0  0  0  0  0  0  0  0  0  0
   -1.4254   -0.2876    5.9452 H   0  0  0  0  0  0  0  0  0  0  0  0
   -2.6947    0.9149    5.8505 H   0  0  0  0  0  0  0  0  0  0  0  0
   -2.5745    1.3149    3.2691 N   0  0  0  0  0  0  0  0  0  0  0  0
   -2.3276    1.7409    1.9167 C   0  0  2  0  0  0  0  0  0  0  0  0
   -0.9926    1.1555    1.4755 C   0  0  0  0  0  0  0  0  0  0  0  0
   -0.1206    0.8028    2.2668 O   0  0  0  0  0  0  0  0  0  0  0  0
   -2.3188    3.2577    1.8072 C   0  0  0  0  0  0  0  0  0  0  0  0
   -3.3395    1.7507    3.7809 H   0  0  0  0  0  0  0  0  0  0  0  0
   -3.1317    1.3224    1.3015 H   0  0  0  0  0  0  0  0  0  0  0  0
   -1.5198    3.6949    2.4169 H   0  0  0  0  0  0  0  0  0  0  0  0
   -2.1594    3.5799    0.7729 H   0  0  0  0  0  0  0  0  0  0  0  0
   -3.2690    3.6789    2.1530 H   0  0  0  0  0  0  0  0  0  0  0  0
   -0.8700    1.1124    0.0921 N   0  0  0  0  0  0  0  0  0  0  0  0
    0.3073    0.6116   -0.5716 C   0  0  2  0  0  0  0  0  0  0  0  0
    1.2887    0.1829    0.5134 C   0  0  0  0  0  0  0  0  0  0  0  0
    1.4990    0.8473    1.5259 O   0  0  0  0  0  0  0  0  0  0  0  0
    0.9485    1.6628   -1.4849 C   0  0  0  0  0  0  0  0  0  0  0  0
    0.0823    2.0123   -2.6703 C   0  0  0  0  0  0  0  0  0  0  0  0
    0.0687    1.1847   -3.7931 C   0  0  0  0  0  0  0  0  0  0  0  0
   -0.7051    3.1633   -2.6428 C   0  0  0  0  0  0  0  0  0  0  0  0
   -0.7323    1.5081   -4.8883 C   0  0  0  0  0  0  0  0  0  0  0  0
   -1.5061    3.4868   -3.7380 C   0  0  0  0  0  0  0  0  0  0  0  0
   -1.5197    2.6591   -4.8607 C   0  0  0  0  0  0  0  0  0  0  0  0
   -1.6531    1.4091   -0.4852 H   0  0  0  0  0  0  0  0  0  0  0  0
   -0.0066   -0.2713   -1.1407 H   0  0  0  0  0  0  0  0  0  0  0  0
    1.9301    1.3152   -1.8343 H   0  0  0  0  0  0  0  0  0  0  0  0
    1.1524    2.5848   -0.9244 H   0  0  0  0  0  0  0  0  0  0  0  0
    0.6788    0.2858   -3.8233 H   0  0  0  0  0  0  0  0  0  0  0  0
   -0.7010    3.8140   -1.7723 H   0  0  0  0  0  0  0  0  0  0  0  0
   -0.7419    0.8642   -5.7629 H   0  0  0  0  0  0  0  0  0  0  0  0
   -2.1182    4.3836   -3.7167 H   0  0  0  0  0  0  0  0  0  0  0  0
   -2.1423    2.9116   -5.7142 H   0  0  0  0  0  0  0  0  0  0  0  0
    1.8610   -1.0513    0.2382 N   0  0  0  0  0  0  0  0  0  0  0  0
    2.8089   -1.6999    1.1155 C   0  0  2  0  0  0  0  0  0  0  0  0
    3.8945   -0.6901    1.4638 C   0  0  0  0  0  0  0  0  0  0  0  0
    4.1454    0.2918    0.7681 O   0  0  0  0  0  0  0  0  0  0  0  0
    3.4065   -2.9382    0.4658 C   0  0  0  0  0  0  0  0  0  0  0  0
    1.6005   -1.5224   -0.6232 H   0  0  0  0  0  0  0  0  0  0  0  0
    2.2617   -1.9764    2.0233 H   0  0  0  0  0  0  0  0  0  0  0  0
    3.9587   -2.6810   -0.4455 H   0  0  0  0  0  0  0  0  0  0  0  0
    4.1029   -3.4444    1.1424 H   0  0  0  0  0  0  0  0  0  0  0  0
    2.6217   -3.6504    0.1889 H   0  0  0  0  0  0  0  0  0  0  0  0
    4.5791   -1.0378    2.6199 N   0  0  0  0  0  0  0  0  0  0  0  0
    5.6635   -0.2459    3.1518 C   0  0  0  0  0  0  0  0  0  0  0  0
    4.2909   -1.8592    3.1433 H   0  0  0  0  0  0  0  0  0  0  0  0
    6.6196   -0.6207    2.7575 H   0  0  0  0  0  0  0  0  0  0  0  0
    5.5307    0.8046    2.8539 H   0  0  0  0  0  0  0  0  0  0  0  0
    5.6661   -0.3183    4.2494 H   0  0  0  0  0  0  0  0  0  0  0  0
 25 27  1  0  0  0  0
 26 27  2  0  0  0  0
 23 25  2  0  0  0  0
 24 26  1  0  0  0  0
 22 23  1  0  0  0  0
 22 24  2  0  0  0  0
 21 22  1  0  0  0  0
  1  3  1  0  0  0  0
  1  7  1  0  0  0  0
  1  2  2  0  0  0  0
 38 39  1  0  0  0  0
 39 47  1  0  0  0  0
 39 40  2  0  0  0  0
  8  9  1  0  0  0  0
  9 17  1  0  0  0  0
  9 10  2  0  0  0  0
 18 19  1  0  0  0  0
 19 37  1  0  0  0  0
 19 20  2  0  0  0  0
 38 41  1  0  0  0  0
  8 11  1  0  0  0  0
 47 48  1  0  0  0  0
 18 21  1  0  0  0  0
 37 38  1  0  0  0  0
  7  8  1  0  0  0  0
 17 18  1  0  0  0  0
 27 36  1  0  0  0  0
 25 34  1  0  0  0  0
 26 35  1  0  0  0  0
 23 32  1  0  0  0  0
 24 33  1  0  0  0  0
  3  4  1  0  0  0  0
  3  5  1  0  0  0  0
  3  6  1  0  0  0  0
 41 44  1  0  0  0  0
 41 45  1  0  0  0  0
 41 46  1  0  0  0  0
 11 14  1  0  0  0  0
 11 15  1  0  0  0  0
 11 16  1  0  0  0  0
 48 50  1  0  0  0  0
 48 51  1  0  0  0  0
 48 52  1  0  0  0  0
 21 30  1  0  0  0  0
 21 31  1  0  0  0  0
 38 43  1  0  0  0  0
  8 13  1  0  0  0  0
 18 29  1  0  0  0  0
 47 49  1  0  0  0  0
  7 12  1  0  0  0  0
 37 42  1  0  0  0  0
 17 28  1  0  0  0  0
M  END
$$$$

  -OEChem-05262214473D

 52 52  0     1  0  0  0  0  0999 V2000
   -1.8248    0.3424    3.9102 C   0  0  0  0  0  0  0  0  0  0  0  0
   -0.8774   -0.2723    3.4345 O   0  0  0  0  0  0  0  0  0  0  0  0
   -2.2566    0.0600    5.3109 C   0  0  0  0  0  0  0  0  0  0  0  0
   -3.0163   -0.7363    5.3643 H   0  0  0  0  0  0  0  0  0  0  0  0
   -1.4254   -0.2876    5.9452 H   0  0  0  0  0  0  0  0  0  0  0  0
   -2.6947    0.9149    5.8505 H   0  0  0  0  0  0  0  0  0  0  0  0
   -2.5745    1.3149    3.2691 N   0  0  0  0  0  0  0  0  0  0  0  0
   -2.3276    1.7409    1.9167 C   0  0  2  0  0  0  0  0  0  0  0  0
   -0.9926    1.1555    1.4755 C   0  0  0  0  0  0  0  0  0  0  0  0
   -0.1206    0.8028    2.2668 O   0  0  0  0  0  0  0  0  0  0  0  0
   -2.3188    3.2577    1.8072 C   0  0  0  0  0  0  0  0  0  0  0  0
   -3.3395    1.7507    3.7809 H   0  0  0  0  0  0  0  0  0  0  0  0
   -3.1317    1.3224    1.3015 H   0  0  0  0  0  0  0  0  0  0  0  0
   -1.5198    3.6949    2.4169 H   0  0  0  0  0  0  0  0  0  0  0  0
   -2.1594    3.5799    0.7729 H   0  0  0  0  0  0  0  0  0  0  0  0
   -3.2690    3.6789    2.1530 H   0  0  0  0  0  0  0  0  0  0  0  0
   -0.8700    1.1124    0.0921 N   0  0  0  0  0  0  0  0  0  0  0  0
    0.3073    0.6116   -0.5716 C   0  0  2  0  0  0  0  0  0  0  0  0
    1.2887    0.1829    0.5134 C   0  0  0  0  0  0  0  0  0  0  0  0
    1.3104    0.6883    1.6337 O   0  0  0  0  0  0  0  0  0  0  0  0
    0.9485    1.6628   -1.4849 C   0  0  0  0  0  0  0  0  0  0  0  0
    0.0823    2.0123   -2.6703 C   0  0  0  0  0  0  0  0  0  0  0  0
    0.0687    1.1847   -3.7931 C   0  0  0  0  0  0  0  0  0  0  0  0
   -0.7051    3.1633   -2.6428 C   0  0  0  0  0  0  0  0  0  0  0  0
   -0.7323    1.5081   -4.8883 C   0  0  0  0  0  0  0  0  0  0  0  0
   -1.5061    3.4868   -3.7380 C   0  0  0  0  0  0  0  0  0  0  0  0
   -1.5197    2.6591   -4.8607 C   0  0  0  0  0  0  0  0  0  0  0  0
   -1.6531    1.4091   -0.4852 H   0  0  0  0  0  0  0  0  0  0  0  0
   -0.0066   -0.2713   -1.1407 H   0  0  0  0  0  0  0  0  0  0  0  0
    1.9301    1.3152   -1.8343 H   0  0  0  0  0  0  0  0  0  0  0  0
    1.1524    2.5848   -0.9244 H   0  0  0  0  0  0  0  0  0  0  0  0
    0.6788    0.2858   -3.8233 H   0  0  0  0  0  0  0  0  0  0  0  0
   -0.7010    3.8140   -1.7723 H   0  0  0  0  0  0  0  0  0  0  0  0
   -0.7419    0.8642   -5.7629 H   0  0  0  0  0  0  0  0  0  0  0  0
   -2.1182    4.3836   -3.7167 H   0  0  0  0  0  0  0  0  0  0  0  0
   -2.1423    2.9116   -5.7142 H   0  0  0  0  0  0  0  0  0  0  0  0
    2.1003   -0.8629    0.0962 N   0  0  0  0  0  0  0  0  0  0  0  0
    3.1025   -1.4746    0.9389 C   0  0  2  0  0  0  0  0  0  0  0  0
    3.9544   -0.3636    1.5387 C   0  0  0  0  0  0  0  0  0  0  0  0
    4.0531    0.7528    1.0338 O   0  0  0  0  0  0  0  0  0  0  0  0
    3.9612   -2.4550    0.1551 C   0  0  0  0  0  0  0  0  0  0  0  0
    1.9839   -1.2162   -0.8490 H   0  0  0  0  0  0  0  0  0  0  0  0
    2.5670   -1.9973    1.7389 H   0  0  0  0  0  0  0  0  0  0  0  0
    4.5055   -1.9494   -0.6509 H   0  0  0  0  0  0  0  0  0  0  0  0
    4.7013   -2.9386    0.8011 H   0  0  0  0  0  0  0  0  0  0  0  0
    3.3434   -3.2365   -0.3003 H   0  0  0  0  0  0  0  0  0  0  0  0
    4.6253   -0.7790    2.6803 N   0  0  0  0  0  0  0  0  0  0  0  0
    5.5070    0.0888    3.4257 C   0  0  0  0  0  0  0  0  0  0  0  0
    4.4694   -1.7168    3.0382 H   0  0  0  0  0  0  0  0  0  0  0  0
    6.5379   -0.0356    3.0626 H   0  0  0  0  0  0  0  0  0  0  0  0
    5.1939    1.1344    3.2889 H   0  0  0  0  0  0  0  0  0  0  0  0
    5.4605   -0.1711    4.4935 H   0  0  0  0  0  0  0  0  0  0  0  0
 25 27  1  0  0  0  0
 26 27  2  0  0  0  0
 23 25  2  0  0  0  0
 24 26  1  0  0  0  0
 22 23  1  0  0  0  0
 22 24  2  0  0  0  0
 21 22  1  0  0  0  0
  1  3  1  0  0  0  0
  1  7  1  0  0  0  0
  1  2  2  0  0  0  0
 38 39  1  0  0  0  0
 39 47  1  0  0  0  0
 39 40  2  0  0  0  0
  8  9  1  0  0  0  0
  9 17  1  0  0  0  0
  9 10  2  0  0  0  0
 18 19  1  0  0  0  0
 19 37  1  0  0  0  0
 19 20  2  0  0  0  0
 38 41  1  0  0  0  0
  8 11  1  0  0  0  0
 47 48  1  0  0  0  0
 18 21  1  0  0  0  0
 37 38  1  0  0  0  0
  7  8  1  0  0  0  0
 17 18  1  0  0  0  0
 27 36  1  0  0  0  0
 25 34  1  0  0  0  0
 26 35  1  0  0  0  0
 23 32  1  0  0  0  0
 24 33  1  0  0  0  0
  3  4  1  0  0  0  0
  3  5  1  0  0  0  0
  3  6  1  0  0  0  0
 41 44  1  0  0  0  0
 41 45  1  0  0  0  0
 41 46  1  0  0  0  0
 11 14  1  0  0  0  0
 11 15  1  0  0  0  0
 11 16  1  0  0  0  0
 48 50  1  0  0  0  0
 48 51  1  0  0  0  0
 48 52  1  0  0  0  0
 21 30  1  0  0  0  0
 21 31  1  0  0  0  0
 38 43  1  0  0  0  0
  8 13  1  0  0  0  0
 18 29  1  0  0  0  0
 47 49  1  0  0  0  0
  7 12  1  0  0  0  0
 37 42  1  0  0  0  0
 17 28  1  0  0  0  0
M  END
$$$$

  -OEChem-05262214473D

 52 52  0     1  0  0  0  0  0999 V2000
   -1.8248    0.3424    3.9102 C   0  0  0  0  0  0  0  0  0  0  0  0
   -0.8774   -0.2723    3.4345 O   0  0  0  0  0  0  0  0  0  0  0  0
   -2.2566    0.0600    5.3109 C   0  0  0  0  0  0  0  0  0  0  0  0
   -3.0163   -0.7363    5.3643 H   0  0  0  0  0  0  0  0  0  0  0  0
   -1.4254   -0.2876    5.9452 H   0  0  0  0  0  0  0  0  0  0  0  0
   -2.6947    0.9149    5.8505 H   0  0  0  0  0  0  0  0  0  0  0  0
   -2.5745    1.3149    3.2691 N   0  0  0  0  0  0  0  0  0  0  0  0
   -2.3276    1.7409    1.9167 C   0  0  2  0  0  0  0  0  0  0  0  0
   -0.9926    1.1555    1.4755 C   0  0  0  0  0  0  0  0  0  0  0  0
   -0.1206    0.8028    2.2668 O   0  0  0  0  0  0  0  0  0  0  0  0
   -2.3188    3.2577    1.8072 C   0  0  0  0  0  0  0  0  0  0  0  0
   -3.3395    1.7507    3.7809 H   0  0  0  0  0  0  0  0  0  0  0  0
   -3.1317    1.3224    1.3015 H   0  0  0  0  0  0  0  0  0  0  0  0
   -1.5198    3.6949    2.4169 H   0  0  0  0  0  0  0  0  0  0  0  0
   -2.1594    3.5799    0.7729 H   0  0  0  0  0  0  0  0  0  0  0  0
   -3.2690    3.6789    2.1530 H   0  0  0  0  0  0  0  0  0  0  0  0
   -0.8700    1.1124    0.0921 N   0  0  0  0  0  0  0  0  0  0  0  0
    0.3073    0.6116   -0.5716 C   0  0  2  0  0  0  0  0  0  0  0  0
    1.2887    0.1829    0.5134 C   0  0  0  0  0  0  0  0  0  0  0  0
    1.1497    0.4821    1.6975 O   0  0  0  0  0  0  0  0  0  0  0  0
    0.9485    1.6628   -1.4849 C   0  0  0  0  0  0  0  0  0  0  0  0
    0.0823    2.0123   -2.6703 C   0  0  0  0  0  0  0  0  0  0  0  0
    0.0687    1.1847   -3.7931 C   0  0  0  0  0  0  0  0  0  0  0  0
   -0.7051    3.1633   -2.6428 C   0  0  0  0  0  0  0  0  0  0  0  0
   -0.7323    1.5081   -4.8883 C   0  0  0  0  0  0  0  0  0  0  0  0
   -1.5061    3.4868   -3.7380 C   0  0  0  0  0  0  0  0  0  0  0  0
   -1.5197    2.6591   -4.8607 C   0  0  0  0  0  0  0  0  0  0  0  0
   -1.6531    1.4091   -0.4852 H   0  0  0  0  0  0  0  0  0  0  0  0
   -0.0066   -0.2713   -1.1407 H   0  0  0  0  0  0  0  0  0  0  0  0
    1.9301    1.3152   -1.8343 H   0  0  0  0  0  0  0  0  0  0  0  0
    1.1524    2.5848   -0.9244 H   0  0  0  0  0  0  0  0  0  0  0  0
    0.6788    0.2858   -3.8233 H   0  0  0  0  0  0  0  0  0  0  0  0
   -0.7010    3.8140   -1.7723 H   0  0  0  0  0  0  0  0  0  0  0  0
   -0.7419    0.8642   -5.7629 H   0  0  0  0  0  0  0  0  0  0  0  0
   -2.1182    4.3836   -3.7167 H   0  0  0  0  0  0  0  0  0  0  0  0
   -2.1423    2.9116   -5.7142 H   0  0  0  0  0  0  0  0  0  0  0  0
    2.3070   -0.6133    0.0078 N   0  0  0  0  0  0  0  0  0  0  0  0
    3.3575   -1.1734    0.8272 C   0  0  2  0  0  0  0  0  0  0  0  0
    3.9466   -0.0497    1.6697 C   0  0  0  0  0  0  0  0  0  0  0  0
    3.8597    1.1368    1.3605 O   0  0  0  0  0  0  0  0  0  0  0  0
    4.4305   -1.8342   -0.0241 C   0  0  0  0  0  0  0  0  0  0  0  0
    2.3143   -0.8123   -0.9882 H   0  0  0  0  0  0  0  0  0  0  0  0
    2.8864   -1.9138    1.4829 H   0  0  0  0  0  0  0  0  0  0  0  0
    4.9138   -1.1079   -0.6877 H   0  0  0  0  0  0  0  0  0  0  0  0
    5.2110   -2.2830    0.5991 H   0  0  0  0  0  0  0  0  0  0  0  0
    3.9999   -2.6223   -0.6513 H   0  0  0  0  0  0  0  0  0  0  0  0
    4.6180   -0.5306    2.7851 N   0  0  0  0  0  0  0  0  0  0  0  0
    5.2742    0.3377    3.7346 C   0  0  0  0  0  0  0  0  0  0  0  0
    4.6232   -1.5287    2.9734 H   0  0  0  0  0  0  0  0  0  0  0  0
    6.3290    0.4637    3.4489 H   0  0  0  0  0  0  0  0  0  0  0  0
    4.7761    1.3185    3.7395 H   0  0  0  0  0  0  0  0  0  0  0  0
    5.2171   -0.1075    4.7388 H   0  0  0  0  0  0  0  0  0  0  0  0
 25 27  1  0  0  0  0
 26 27  2  0  0  0  0
 23 25  2  0  0  0  0
 24 26  1  0  0  0  0
 22 23  1  0  0  0  0
 22 24  2  0  0  0  0
 21 22  1  0  0  0  0
  1  3  1  0  0  0  0
  1  7  1  0  0  0  0
  1  2  2  0  0  0  0
 38 39  1  0  0  0  0
 39 47  1  0  0  0  0
 39 40  2  0  0  0  0
  8  9  1  0  0  0  0
  9 17  1  0  0  0  0
  9 10  2  0  0  0  0
 18 19  1  0  0  0  0
 19 37  1  0  0  0  0
 19 20  2  0  0  0  0
 38 41  1  0  0  0  0
  8 11  1  0  0  0  0
 47 48  1  0  0  0  0
 18 21  1  0  0  0  0
 37 38  1  0  0  0  0
  7  8  1  0  0  0  0
 17 18  1  0  0  0  0
 27 36  1  0  0  0  0
 25 34  1  0  0  0  0
 26 35  1  0  0  0  0
 23 32  1  0  0  0  0
 24 33  1  0  0  0  0
  3  4  1  0  0  0  0
  3  5  1  0  0  0  0
  3  6  1  0  0  0  0
 41 44  1  0  0  0  0
 41 45  1  0  0  0  0
 41 46  1  0  0  0  0
 11 14  1  0  0  0  0
 11 15  1  0  0  0  0
 11 16  1  0  0  0  0
 48 50  1  0  0  0  0
 48 51  1  0  0  0  0
 48 52  1  0  0  0  0
 21 30  1  0  0  0  0
 21 31  1  0  0  0  0
 38 43  1  0  0  0  0
  8 13  1  0  0  0  0
 18 29  1  0  0  0  0
 47 49  1  0  0  0  0
  7 12  1  0  0  0  0
 37 42  1  0  0  0  0
 17 28  1  0  0  0  0
M  END
$$$$

  -OEChem-05262214473D

 52 52  0     1  0  0  0  0  0999 V2000
   -1.8248    0.3424    3.9102 C   0  0  0  0  0  0  0  0  0  0  0  0
   -0.8774   -0.2723    3.4345 O   0  0  0  0  0  0  0  0  0  0  0  0
   -2.2566    0.0600    5.3109 C   0  0  0  0  0  0  0  0  0  0  0  0
   -3.0163   -0.7363    5.3643 H   0  0  0  0  0  0  0  0  0  0  0  0
   -1.4254   -0.2876    5.9452 H   0  0  0  0  0  0  0  0  0  0  0  0
   -2.6947    0.9149    5.8505 H   0  0  0  0  0  0  0  0  0  0  0  0
   -2.5745    1.3149    3.2691 N   0  0  0  0  0  0  0  0  0  0  0  0
   -2.3276    1.7409    1.9167 C   0  0  2  0  0  0  0  0  0  0  0  0
   -0.9926    1.1555    1.4755 C   0  0  0  0  0  0  0  0  0  0  0  0
   -0.1206    0.8028    2.2668 O   0  0  0  0  0  0  0  0  0  0  0  0
   -2.3188    3.2577    1.8072 C   0  0  0  0  0  0  0  0  0  0  0  0
   -3.3395    1.7507    3.7809 H   0  0  0  0  0  0  0  0  0  0  0  0
   -3.1317    1.3224    1.3015 H   0  0  0  0  0  0  0  0  0  0  0  0
   -1.5198    3.6949    2.4169 H   0  0  0  0  0  0  0  0  0  0  0  0
   -2.1594    3.5799    0.7729 H   0  0  0  0  0  0  0  0  0  0  0  0
   -3.2690    3.6789    2.1530 H   0  0  0  0  0  0  0  0  0  0  0  0
   -0.8700    1.1124    0.0921 N   0  0  0  0  0  0  0  0  0  0  0  0
    0.3073    0.6116   -0.5716 C   0  0  2  0  0  0  0  0  0  0  0  0
    1.1191   -0.1542    0.4670 C   0  0  0  0  0  0  0  0  0  0  0  0
    0.7445   -0.3098    1.6273 O   0  0  0  0  0  0  0  0  0  0  0  0
    1.1501    1.7368   -1.1829 C   0  0  0  0  0  0  0  0  0  0  0  0
    0.4538    2.4316   -2.3275 C   0  0  0  0  0  0  0  0  0  0  0  0
    0.4651    1.8618   -3.6007 C   0  0  0  0  0  0  0  0  0  0  0  0
   -0.2014    3.6439   -2.1119 C   0  0  0  0  0  0  0  0  0  0  0  0
   -0.1788    2.5043   -4.6581 C   0  0  0  0  0  0  0  0  0  0  0  0
   -0.8453    4.2865   -3.1693 C   0  0  0  0  0  0  0  0  0  0  0  0
   -0.8341    3.7166   -4.4424 C   0  0  0  0  0  0  0  0  0  0  0  0
   -1.6531    1.4091   -0.4852 H   0  0  0  0  0  0  0  0  0  0  0  0
   -0.0413   -0.0872   -1.3411 H   0  0  0  0  0  0  0  0  0  0  0  0
    2.1185    1.3451   -1.5227 H   0  0  0  0  0  0  0  0  0  0  0  0
    1.3951    2.4894   -0.4218 H   0  0  0  0  0  0  0  0  0  0  0  0
    0.9730    0.9174   -3.7780 H   0  0  0  0  0  0  0  0  0  0  0  0
   -0.2155    4.0953   -1.1233 H   0  0  0  0  0  0  0  0  0  0  0  0
   -0.1690    2.0610   -5.6496 H   0  0  0  0  0  0  0  0  0  0  0  0
   -1.3545    5.2309   -3.0012 H   0  0  0  0  0  0  0  0  0  0  0  0
   -1.3343    4.2175   -5.2662 H   0  0  0  0  0  0  0  0  0  0  0  0
    2.2841   -0.6831   -0.0710 N   0  0  0  0  0  0  0  0  0  0  0  0
    3.2235   -1.4729    0.6924 C   0  0  2  0  0  0  0  0  0  0  0  0
    3.5409   -0.7160    1.9753 C   0  0  0  0  0  0  0  0  0  0  0  0
    3.3935    0.4989    2.0913 O   0  0  0  0  0  0  0  0  0  0  0  0
    4.4897   -1.7486   -0.1035 C   0  0  0  0  0  0  0  0  0  0  0  0
    2.4867   -0.5063   -1.0505 H   0  0  0  0  0  0  0  0  0  0  0  0
    2.7194   -2.4139    0.9380 H   0  0  0  0  0  0  0  0  0  0  0  0
    5.0086   -0.8175   -0.3589 H   0  0  0  0  0  0  0  0  0  0  0  0
    5.1884   -2.3709    0.4655 H   0  0  0  0  0  0  0  0  0  0  0  0
    4.2564   -2.2667   -1.0400 H   0  0  0  0  0  0  0  0  0  0  0  0
    4.0489   -1.5501    2.9613 N   0  0  0  0  0  0  0  0  0  0  0  0
    4.4384   -1.0680    4.2659 C   0  0  0  0  0  0  0  0  0  0  0  0
    4.1192   -2.5479    2.7843 H   0  0  0  0  0  0  0  0  0  0  0  0
    5.5094   -0.8171    4.2599 H   0  0  0  0  0  0  0  0  0  0  0  0
    3.8531   -0.1706    4.5147 H   0  0  0  0  0  0  0  0  0  0  0  0
    4.2491   -1.8492    5.0168 H   0  0  0  0  0  0  0  0  0  0  0  0
 25 27  1  0  0  0  0
 26 27  2  0  0  0  0
 23 25  2  0  0  0  0
 24 26  1  0  0  0  0
 22 23  1  0  0  0  0
 22 24  2  0  0  0  0
 21 22  1  0  0  0  0
  1  3  1  0  0  0  0
  1  7  1  0  0  0  0
  1  2  2  0  0  0  0
 38 39  1  0  0  0  0
 39 47  1  0  0  0  0
 39 40  2  0  0  0  0
  8  9  1  0  0  0  0
  9 17  1  0  0  0  0
  9 10  2  0  0  0  0
 18 19  1  0  0  0  0
 19 37  1  0  0  0  0
 19 20  2  0  0  0  0
 38 41  1  0  0  0  0
  8 11  1  0  0  0  0
 47 48  1  0  0  0  0
 18 21  1  0  0  0  0
 37 38  1  0  0  0  0
  7  8  1  0  0  0  0
 17 18  1  0  0  0  0
 27 36  1  0  0  0  0
 25 34  1  0  0  0  0
 26 35  1  0  0  0  0
 23 32  1  0  0  0  0
 24 33  1  0  0  0  0
  3  4  1  0  0  0  0
  3  5  1  0  0  0  0
  3  6  1  0  0  0  0
 41 44  1  0  0  0  0
 41 45  1  0  0  0  0
 41 46  1  0  0  0  0
 11 14  1  0  0  0  0
 11 15  1  0  0  0  0
 11 16  1  0  0  0  0
 48 50  1  0  0  0  0
 48 51  1  0  0  0  0
 48 52  1  0  0  0  0
 21 30  1  0  0  0  0
 21 31  1  0  0  0  0
 38 43  1  0  0  0  0
  8 13  1  0  0  0  0
 18 29  1  0  0  0  0
 47 49  1  0  0  0  0
  7 12  1  0  0  0  0
 37 42  1  0  0  0  0
 17 28  1  0  0  0  0
M  END
$$$$

  -OEChem-05262214473D

 52 52  0     1  0  0  0  0  0999 V2000
   -1.8248    0.3424    3.9102 C   0  0  0  0  0  0  0  0  0  0  0  0
   -0.8774   -0.2723    3.4345 O   0  0  0  0  0  0  0  0  0  0  0  0
   -2.2566    0.0600    5.3109 C   0  0  0  0  0  0  0  0  0  0  0  0
   -3.0163   -0.7363    5.3643 H   0  0  0  0  0  0  0  0  0  0  0  0
   -1.4254   -0.2876    5.9452 H   0  0  0  0  0  0  0  0  0  0  0  0
   -2.6947    0.9149    5.8505 H   0  0  0  0  0  0  0  0  0  0  0  0
   -2.5745    1.3149    3.2691 N   0  0  0  0  0  0  0  0  0  0  0  0
   -2.3276    1.7409    1.9167 C   0  0  2  0  0  0  0  0  0  0  0  0
   -0.9926    1.1555    1.4755 C   0  0  0  0  0  0  0  0  0  0  0  0
   -0.1206    0.8028    2.2668 O   0  0  0  0  0  0  0  0  0  0  0  0
   -2.3188    3.2577    1.8072 C   0  0  0  0  0  0  0  0  0  0  0  0
   -3.3395    1.7507    3.7809 H   0  0  0  0  0  0  0  0  0  0  0  0
   -3.1317    1.3224    1.3015 H   0  0  0  0  0  0  0  0  0  0  0  0
   -1.5198    3.6949    2.4169 H   0  0  0  0  0  0  0  0  0  0  0  0
   -2.1594    3.5799    0.7729 H   0  0  0  0  0  0  0  0  0  0  0  0
   -3.2690    3.6789    2.1530 H   0  0  0  0  0  0  0  0  0  0  0  0
   -0.8700    1.1124    0.0921 N   0  0  0  0  0  0  0  0  0  0  0  0
    0.3073    0.6116   -0.5716 C   0  0  2  0  0  0  0  0  0  0  0  0
    1.1191   -0.1542    0.4670 C   0  0  0  0  0  0  0  0  0  0  0  0
    0.6460   -0.5419    1.5332 O   0  0  0  0  0  0  0  0  0  0  0  0
    1.1501    1.7368   -1.1829 C   0  0  0  0  0  0  0  0  0  0  0  0
    0.4538    2.4316   -2.3275 C   0  0  0  0  0  0  0  0  0  0  0  0
    0.4651    1.8618   -3.6007 C   0  0  0  0  0  0  0  0  0  0  0  0
   -0.2014    3.6439   -2.1119 C   0  0  0  0  0  0  0  0  0  0  0  0
   -0.1788    2.5043   -4.6581 C   0  0  0  0  0  0  0  0  0  0  0  0
   -0.8453    4.2865   -3.1693 C   0  0  0  0  0  0  0  0  0  0  0  0
   -0.8341    3.7166   -4.4424 C   0  0  0  0  0  0  0  0  0  0  0  0
   -1.6531    1.4091   -0.4852 H   0  0  0  0  0  0  0  0  0  0  0  0
   -0.0413   -0.0872   -1.3411 H   0  0  0  0  0  0  0  0  0  0  0  0
    2.1185    1.3451   -1.5227 H   0  0  0  0  0  0  0  0  0  0  0  0
    1.3951    2.4894   -0.4218 H   0  0  0  0  0  0  0  0  0  0  0  0
    0.9730    0.9174   -3.7780 H   0  0  0  0  0  0  0  0  0  0  0  0
   -0.2155    4.0953   -1.1233 H   0  0  0  0  0  0  0  0  0  0  0  0
   -0.1690    2.0610   -5.6496 H   0  0  0  0  0  0  0  0  0  0  0  0
   -1.3545    5.2309   -3.0012 H   0  0  0  0  0  0  0  0  0  0  0  0
   -1.3343    4.2175   -5.2662 H   0  0  0  0  0  0  0  0  0  0  0  0
    2.4171   -0.3945    0.0380 N   0  0  0  0  0  0  0  0  0  0  0  0
    3.3902   -1.1211    0.8215 C   0  0  2  0  0  0  0  0  0  0  0  0
    3.4085   -0.5222    2.2217 C   0  0  0  0  0  0  0  0  0  0  0  0
    3.0258    0.6197    2.4678 O   0  0  0  0  0  0  0  0  0  0  0  0
    4.7702   -1.0591    0.1857 C   0  0  0  0  0  0  0  0  0  0  0  0
    2.6972   -0.0418   -0.8725 H   0  0  0  0  0  0  0  0  0  0  0  0
    3.0439   -2.1592    0.8722 H   0  0  0  0  0  0  0  0  0  0  0  0
    5.1338   -0.0268    0.1263 H   0  0  0  0  0  0  0  0  0  0  0  0
    5.5003   -1.6338    0.7652 H   0  0  0  0  0  0  0  0  0  0  0  0
    4.7488   -1.4630   -0.8323 H   0  0  0  0  0  0  0  0  0  0  0  0
    3.9428   -1.3975    3.1568 N   0  0  0  0  0  0  0  0  0  0  0  0
    4.0799   -1.0576    4.5538 C   0  0  0  0  0  0  0  0  0  0  0  0
    4.2172   -2.3317    2.8672 H   0  0  0  0  0  0  0  0  0  0  0  0
    5.0789   -0.6331    4.7321 H   0  0  0  0  0  0  0  0  0  0  0  0
    3.3131   -0.3181    4.8280 H   0  0  0  0  0  0  0  0  0  0  0  0
    3.9517   -1.9628    5.1656 H   0  0  0  0  0  0  0  0  0  0  0  0
 25 27  1  0  0  0  0
 26 27  2  0  0  0  0
 23 25  2  0  0  0  0
 24 26  1  0  0  0  0
 22 23  1  0  0  0  0
 22 24  2  0  0  0  0
 21 22  1  0  0  0  0
  1  3  1  0  0  0  0
  1  7  1  0  0  0  0
  1  2  2  0  0  0  0
 38 39  1  0  0  0  0
 39 47  1  0  0  0  0
 39 40  2  0  0  0  0
  8  9  1  0  0  0  0
  9 17  1  0  0  0  0
  9 10  2  0  0  0  0
 18 19  1  0  0  0  0
 19 37  1  0  0  0  0
 19 20  2  0  0  0  0
 38 41  1  0  0  0  0
  8 11  1  0  0  0  0
 47 48  1  0  0  0  0
 18 21  1  0  0  0  0
 37 38  1  0  0  0  0
  7  8  1  0  0  0  0
 17 18  1  0  0  0  0
 27 36  1  0  0  0  0
 25 34  1  0  0  0  0
 26 35  1  0  0  0  0
 23 32  1  0  0  0  0
 24 33  1  0  0  0  0
  3  4  1  0  0  0  0
  3  5  1  0  0  0  0
  3  6  1  0  0  0  0
 41 44  1  0  0  0  0
 41 45  1  0  0  0  0
 41 46  1  0  0  0  0
 11 14  1  0  0  0  0
 11 15  1  0  0  0  0
 11 16  1  0  0  0  0
 48 50  1  0  0  0  0
 48 51  1  0  0  0  0
 48 52  1  0  0  0  0
 21 30  1  0  0  0  0
 21 31  1  0  0  0  0
 38 43  1  0  0  0  0
  8 13  1  0  0  0  0
 18 29  1  0  0  0  0
 47 49  1  0  0  0  0
  7 12  1  0  0  0  0
 37 42  1  0  0  0  0
 17 28  1  0  0  0  0
M  END
$$$$

  -OEChem-05262214473D

 52 52  0     1  0  0  0  0  0999 V2000
   -1.8248    0.3424    3.9102 C   0  0  0  0  0  0  0  0  0  0  0  0
   -0.8774   -0.2723    3.4345 O   0  0  0  0  0  0  0  0  0  0  0  0
   -2.2566    0.0600    5.3109 C   0  0  0  0  0  0  0  0  0  0  0  0
   -3.0163   -0.7363    5.3643 H   0  0  0  0  0  0  0  0  0  0  0  0
   -1.4254   -0.2876    5.9452 H   0  0  0  0  0  0  0  0  0  0  0  0
   -2.6947    0.9149    5.8505 H   0  0  0  0  0  0  0  0  0  0  0  0
   -2.5745    1.3149    3.2691 N   0  0  0  0  0  0  0  0  0  0  0  0
   -2.3276    1.7409    1.9167 C   0  0  2  0  0  0  0  0  0  0  0  0
   -0.9926    1.1555    1.4755 C   0  0  0  0  0  0  0  0  0  0  0  0
   -0.1206    0.8028    2.2668 O   0  0  0  0  0  0  0  0  0  0  0  0
   -2.3188    3.2577    1.8072 C   0  0  0  0  0  0  0  0  0  0  0  0
   -3.3395    1.7507    3.7809 H   0  0  0  0  0  0  0  0  0  0  0  0
   -3.1317    1.3224    1.3015 H   0  0  0  0  0  0  0  0  0  0  0  0
   -1.5198    3.6949    2.4169 H   0  0  0  0  0  0  0  0  0  0  0  0
   -2.1594    3.5799    0.7729 H   0  0  0  0  0  0  0  0  0  0  0  0
   -3.2690    3.6789    2.1530 H   0  0  0  0  0  0  0  0  0  0  0  0
   -0.8700    1.1124    0.0921 N   0  0  0  0  0  0  0  0  0  0  0  0
    0.3073    0.6116   -0.5716 C   0  0  2  0  0  0  0  0  0  0  0  0
    1.1191   -0.1542    0.4670 C   0  0  0  0  0  0  0  0  0  0  0  0
    0.6040   -0.7705    1.3974 O   0  0  0  0  0  0  0  0  0  0  0  0
    1.1501    1.7368   -1.1829 C   0  0  0  0  0  0  0  0  0  0  0  0
    0.4538    2.4316   -2.3275 C   0  0  0  0  0  0  0  0  0  0  0  0
    0.4651    1.8618   -3.6007 C   0  0  0  0  0  0  0  0  0  0  0  0
   -0.2014    3.6439   -2.1119 C   0  0  0  0  0  0  0  0  0  0  0  0
   -0.1788    2.5043   -4.6581 C   0  0  0  0  0  0  0  0  0  0  0  0
   -0.8453    4.2865   -3.1693 C   0  0  0  0  0  0  0  0  0  0  0  0
   -0.8341    3.7166   -4.4424 C   0  0  0  0  0  0  0  0  0  0  0  0
   -1.6531    1.4091   -0.4852 H   0  0  0  0  0  0  0  0  0  0  0  0
   -0.0413   -0.0872   -1.3411 H   0  0  0  0  0  0  0  0  0  0  0  0
    2.1185    1.3451   -1.5227 H   0  0  0  0  0  0  0  0  0  0  0  0
    1.3951    2.4894   -0.4218 H   0  0  0  0  0  0  0  0  0  0  0  0
    0.9730    0.9174   -3.7780 H   0  0  0  0  0  0  0  0  0  0  0  0
   -0.2155    4.0953   -1.1233 H   0  0  0  0  0  0  0  0  0  0  0  0
   -0.1690    2.0610   -5.6496 H   0  0  0  0  0  0  0  0  0  0  0  0
   -1.3545    5.2309   -3.0012 H   0  0  0  0  0  0  0  0  0  0  0  0
   -1.3343    4.2175   -5.2662 H   0  0  0  0  0  0  0  0  0  0  0  0
    2.4804   -0.1072    0.2003 N   0  0  0  0  0  0  0  0  0  0  0  0
    3.4723   -0.7697    1.0164 C   0  0  2  0  0  0  0  0  0  0  0  0
    3.2144   -0.3923    2.4691 C   0  0  0  0  0  0  0  0  0  0  0  0
    2.6003    0.6197    2.8004 O   0  0  0  0  0  0  0  0  0  0  0  0
    4.8820   -0.3835    0.5965 C   0  0  0  0  0  0  0  0  0  0  0  0
    2.7954    0.4194   -0.6092 H   0  0  0  0  0  0  0  0  0  0  0  0
    3.3210   -1.8468    0.8859 H   0  0  0  0  0  0  0  0  0  0  0  0
    5.0523    0.6922    0.7202 H   0  0  0  0  0  0  0  0  0  0  0  0
    5.6326   -0.9081    1.1968 H   0  0  0  0  0  0  0  0  0  0  0  0
    5.0558   -0.6285   -0.4569 H   0  0  0  0  0  0  0  0  0  0  0  0
    3.7880   -1.2958    3.3528 N   0  0  0  0  0  0  0  0  0  0  0  0
    3.6943   -1.1504    4.7867 C   0  0  0  0  0  0  0  0  0  0  0  0
    4.2630   -2.1170    2.9897 H   0  0  0  0  0  0  0  0  0  0  0  0
    4.5692   -0.5964    5.1575 H   0  0  0  0  0  0  0  0  0  0  0  0
    2.7769   -0.5989    5.0401 H   0  0  0  0  0  0  0  0  0  0  0  0
    3.6651   -2.1454    5.2549 H   0  0  0  0  0  0  0  0  0  0  0  0
 25 27  1  0  0  0  0
 26 27  2  0  0  0  0
 23 25  2  0  0  0  0
 24 26  1  0  0  0  0
 22 23  1  0  0  0  0
 22 24  2  0  0  0  0
 21 22  1  0  0  0  0
  1  3  1  0  0  0  0
  1  7  1  0  0  0  0
  1  2  2  0  0  0  0
 38 39  1  0  0  0  0
 39 47  1  0  0  0  0
 39 40  2  0  0  0  0
  8  9  1  0  0  0  0
  9 17  1  0  0  0  0
  9 10  2  0  0  0  0
 18 19  1  0  0  0  0
 19 37  1  0  0  0  0
 19 20  2  0  0  0  0
 38 41  1  0  0  0  0
  8 11  1  0  0  0  0
 47 48  1  0  0  0  0
 18 21  1  0  0  0  0
 37 38  1  0  0  0  0
  7  8  1  0  0  0  0
 17 18  1  0  0  0  0
 27 36  1  0  0  0  0
 25 34  1  0  0  0  0
 26 35  1  0  0  0  0
 23 32  1  0  0  0  0
 24 33  1  0  0  0  0
  3  4  1  0  0  0  0
  3  5  1  0  0  0  0
  3  6  1  0  0  0  0
 41 44  1  0  0  0  0
 41 45  1  0  0  0  0
 41 46  1  0  0  0  0
 11 14  1  0  0  0  0
 11 15  1  0  0  0  0
 11 16  1  0  0  0  0
 48 50  1  0  0  0  0
 48 51  1  0  0  0  0
 48 52  1  0  0  0  0
 21 30  1  0  0  0  0
 21 31  1  0  0  0  0
 38 43  1  0  0  0  0
  8 13  1  0  0  0  0
 18 29  1  0  0  0  0
 47 49  1  0  0  0  0
  7 12  1  0  0  0  0
 37 42  1  0  0  0  0
 17 28  1  0  0  0  0
M  END
$$$$

  -OEChem-05262214473D

 52 52  0     1  0  0  0  0  0999 V2000
   -1.8248    0.3424    3.9102 C   0  0  0  0  0  0  0  0  0  0  0  0
   -0.8774   -0.2723    3.4345 O   0  0  0  0  0  0  0  0  0  0  0  0
   -2.2566    0.0600    5.3109 C   0  0  0  0  0  0  0  0  0  0  0  0
   -3.0163   -0.7363    5.3643 H   0  0  0  0  0  0  0  0  0  0  0  0
   -1.4254   -0.2876    5.9452 H   0  0  0  0  0  0  0  0  0  0  0  0
   -2.6947    0.9149    5.8505 H   0  0  0  0  0  0  0  0  0  0  0  0
   -2.5745    1.3149    3.2691 N   0  0  0  0  0  0  0  0  0  0  0  0
   -2.3276    1.7409    1.9167 C   0  0  2  0  0  0  0  0  0  0  0  0
   -0.9926    1.1555    1.4755 C   0  0  0  0  0  0  0  0  0  0  0  0
   -0.1206    0.8028    2.2668 O   0  0  0  0  0  0  0  0  0  0  0  0
   -2.3188    3.2577    1.8072 C   0  0  0  0  0  0  0  0  0  0  0  0
   -3.3395    1.7507    3.7809 H   0  0  0  0  0  0  0  0  0  0  0  0
   -3.1317    1.3224    1.3015 H   0  0  0  0  0  0  0  0  0  0  0  0
   -1.5198    3.6949    2.4169 H   0  0  0  0  0  0  0  0  0  0  0  0
   -2.1594    3.5799    0.7729 H   0  0  0  0  0  0  0  0  0  0  0  0
   -3.2690    3.6789    2.1530 H   0  0  0  0  0  0  0  0  0  0  0  0
   -0.8700    1.1124    0.0921 N   0  0  0  0  0  0  0  0  0  0  0  0
    0.3073    0.6116   -0.5716 C   0  0  2  0  0  0  0  0  0  0  0  0
    1.1191   -0.1542    0.4670 C   0  0  0  0  0  0  0  0  0  0  0  0
    0.6214   -0.9800    1.2294 O   0  0  0  0  0  0  0  0  0  0  0  0
    1.1501    1.7368   -1.1829 C   0  0  0  0  0  0  0  0  0  0  0  0
    0.4538    2.4316   -2.3275 C   0  0  0  0  0  0  0  0  0  0  0  0
    0.4651    1.8618   -3.6007 C   0  0  0  0  0  0  0  0  0  0  0  0
   -0.2014    3.6439   -2.1119 C   0  0  0  0  0  0  0  0  0  0  0  0
   -0.1788    2.5043   -4.6581 C   0  0  0  0  0  0  0  0  0  0  0  0
   -0.8453    4.2865   -3.1693 C   0  0  0  0  0  0  0  0  0  0  0  0
   -0.8341    3.7166   -4.4424 C   0  0  0  0  0  0  0  0  0  0  0  0
   -1.6531    1.4091   -0.4852 H   0  0  0  0  0  0  0  0  0  0  0  0
   -0.0413   -0.0872   -1.3411 H   0  0  0  0  0  0  0  0  0  0  0  0
    2.1185    1.3451   -1.5227 H   0  0  0  0  0  0  0  0  0  0  0  0
    1.3951    2.4894   -0.4218 H   0  0  0  0  0  0  0  0  0  0  0  0
    0.9730    0.9174   -3.7780 H   0  0  0  0  0  0  0  0  0  0  0  0
   -0.2155    4.0953   -1.1233 H   0  0  0  0  0  0  0  0  0  0  0  0
   -0.1690    2.0610   -5.6496 H   0  0  0  0  0  0  0  0  0  0  0  0
   -1.3545    5.2309   -3.0012 H   0  0  0  0  0  0  0  0  0  0  0  0
   -1.3343    4.2175   -5.2662 H   0  0  0  0  0  0  0  0  0  0  0  0
    2.4699    0.1591    0.4049 N   0  0  0  0  0  0  0  0  0  0  0  0
    3.4644   -0.4427    1.2637 C   0  0  2  0  0  0  0  0  0  0  0  0
    2.9719   -0.3352    2.7009 C   0  0  0  0  0  0  0  0  0  0  0  0
    2.1461    0.4989    3.0663 O   0  0  0  0  0  0  0  0  0  0  0  0
    4.8174    0.2321    1.1009 C   0  0  0  0  0  0  0  0  0  0  0  0
    2.7747    0.8459   -0.2785 H   0  0  0  0  0  0  0  0  0  0  0  0
    3.5319   -1.4981    0.9782 H   0  0  0  0  0  0  0  0  0  0  0  0
    4.7695    1.2904    1.3823 H   0  0  0  0  0  0  0  0  0  0  0  0
    5.5764   -0.2433    1.7310 H   0  0  0  0  0  0  0  0  0  0  0  0
    5.1563    0.1799    0.0606 H   0  0  0  0  0  0  0  0  0  0  0  0
    3.5950   -1.2519    3.5361 N   0  0  0  0  0  0  0  0  0  0  0  0
    3.3079   -1.3402    4.9488 C   0  0  0  0  0  0  0  0  0  0  0  0
    4.2534   -1.9184    3.1436 H   0  0  0  0  0  0  0  0  0  0  0  0
    4.0152   -0.7094    5.5073 H   0  0  0  0  0  0  0  0  0  0  0  0
    2.2808   -0.9940    5.1365 H   0  0  0  0  0  0  0  0  0  0  0  0
    3.4089   -2.3847    5.2787 H   0  0  0  0  0  0  0  0  0  0  0  0
 25 27  1  0  0  0  0
 26 27  2  0  0  0  0
 23 25  2  0  0  0  0
 24 26  1  0  0  0  0
 22 23  1  0  0  0  0
 22 24  2  0  0  0  0
 21 22  1  0  0  0  0
  1  3  1  0  0  0  0
  1  7  1  0  0  0  0
  1  2  2  0  0  0  0
 38 39  1  0  0  0  0
 39 47  1  0  0  0  0
 39 40  2  0  0  0  0
  8  9  1  0  0  0  0
  9 17  1  0  0  0  0
  9 10  2  0  0  0  0
 18 19  1  0  0  0  0
 19 37  1  0  0  0  0
 19 20  2  0  0  0  0
 38 41  1  0  0  0  0
  8 11  1  0  0  0  0
 47 48  1  0  0  0  0
 18 21  1  0  0  0  0
 37 38  1  0  0  0  0
  7  8  1  0  0  0  0
 17 18  1  0  0  0  0
 27 36  1  0  0  0  0
 25 34  1  0  0  0  0
 26 35  1  0  0  0  0
 23 32  1  0  0  0  0
 24 33  1  0  0  0  0
  3  4  1  0  0  0  0
  3  5  1  0  0  0  0
  3  6  1  0  0  0  0
 41 44  1  0  0  0  0
 41 45  1  0  0  0  0
 41 46  1  0  0  0  0
 11 14  1  0  0  0  0
 11 15  1  0  0  0  0
 11 16  1  0  0  0  0
 48 50  1  0  0  0  0
 48 51  1  0  0  0  0
 48 52  1  0  0  0  0
 21 30  1  0  0  0  0
 21 31  1  0  0  0  0
 38 43  1  0  0  0  0
  8 13  1  0  0  0  0
 18 29  1  0  0  0  0
 47 49  1  0  0  0  0
  7 12  1  0  0  0  0
 37 42  1  0  0  0  0
 17 28  1  0  0  0  0
M  END
$$$$

  -OEChem-05262214473D

 52 52  0     1  0  0  0  0  0999 V2000
   -1.8248    0.3424    3.9102 C   0  0  0  0  0  0  0  0  0  0  0  0
   -0.8774   -0.2723    3.4345 O   0  0  0  0  0  0  0  0  0  0  0  0
   -2.2566    0.0600    5.3109 C   0  0  0  0  0  0  0  0  0  0  0  0
   -3.0163   -0.7363    5.3643 H   0  0  0  0  0  0  0  0  0  0  0  0
   -1.4254   -0.2876    5.9452 H   0  0  0  0  0  0  0  0  0  0  0  0
   -2.6947    0.9149    5.8505 H   0  0  0  0  0  0  0  0  0  0  0  0
   -2.5745    1.3149    3.2691 N   0  0  0  0  0  0  0  0  0  0  0  0
   -2.3276    1.7409    1.9167 C   0  0  2  0  0  0  0  0  0  0  0  0
   -0.9926    1.1555    1.4755 C   0  0  0  0  0  0  0  0  0  0  0  0
   -0.1206    0.8028    2.2668 O   0  0  0  0  0  0  0  0  0  0  0  0
   -2.3188    3.2577    1.8072 C   0  0  0  0  0  0  0  0  0  0  0  0
   -3.3395    1.7507    3.7809 H   0  0  0  0  0  0  0  0  0  0  0  0
   -3.1317    1.3224    1.3015 H   0  0  0  0  0  0  0  0  0  0  0  0
   -1.5198    3.6949    2.4169 H   0  0  0  0  0  0  0  0  0  0  0  0
   -2.1594    3.5799    0.7729 H   0  0  0  0  0  0  0  0  0  0  0  0
   -3.2690    3.6789    2.1530 H   0  0  0  0  0  0  0  0  0  0  0  0
   -0.8700    1.1124    0.0921 N   0  0  0  0  0  0  0  0  0  0  0  0
    0.3073    0.6116   -0.5716 C   0  0  2  0  0  0  0  0  0  0  0  0
    1.1191   -0.1542    0.4670 C   0  0  0  0  0  0  0  0  0  0  0  0
    0.6970   -1.1562    1.0404 O   0  0  0  0  0  0  0  0  0  0  0  0
    1.1501    1.7368   -1.1829 C   0  0  0  0  0  0  0  0  0  0  0  0
    0.4538    2.4316   -2.3275 C   0  0  0  0  0  0  0  0  0  0  0  0
    0.4651    1.8618   -3.6007 C   0  0  0  0  0  0  0  0  0  0  0  0
   -0.2014    3.6439   -2.1119 C   0  0  0  0  0  0  0  0  0  0  0  0
   -0.1788    2.5043   -4.6581 C   0  0  0  0  0  0  0  0  0  0  0  0
   -0.8453    4.2865   -3.1693 C   0  0  0  0  0  0  0  0  0  0  0  0
   -0.8341    3.7166   -4.4424 C   0  0  0  0  0  0  0  0  0  0  0  0
   -1.6531    1.4091   -0.4852 H   0  0  0  0  0  0  0  0  0  0  0  0
   -0.0413   -0.0872   -1.3411 H   0  0  0  0  0  0  0  0  0  0  0  0
    2.1185    1.3451   -1.5227 H   0  0  0  0  0  0  0  0  0  0  0  0
    1.3951    2.4894   -0.4218 H   0  0  0  0  0  0  0  0  0  0  0  0
    0.9730    0.9174   -3.7780 H   0  0  0  0  0  0  0  0  0  0  0  0
   -0.2155    4.0953   -1.1233 H   0  0  0  0  0  0  0  0  0  0  0  0
   -0.1690    2.0610   -5.6496 H   0  0  0  0  0  0  0  0  0  0  0  0
   -1.3545    5.2309   -3.0012 H   0  0  0  0  0  0  0  0  0  0  0  0
   -1.3343    4.2175   -5.2662 H   0  0  0  0  0  0  0  0  0  0  0  0
    2.3861    0.3862    0.6379 N   0  0  0  0  0  0  0  0  0  0  0  0
    3.3669   -0.1623    1.5467 C   0  0  2  0  0  0  0  0  0  0  0  0
    2.6974   -0.3547    2.9010 C   0  0  0  0  0  0  0  0  0  0  0  0
    1.6941    0.2654    3.2475 O   0  0  0  0  0  0  0  0  0  0  0  0
    4.5809    0.7459    1.6646 C   0  0  0  0  0  0  0  0  0  0  0  0
    2.6366    1.2087    0.0970 H   0  0  0  0  0  0  0  0  0  0  0  0
    3.6620   -1.1369    1.1428 H   0  0  0  0  0  0  0  0  0  0  0  0
    4.3048    1.7272    2.0676 H   0  0  0  0  0  0  0  0  0  0  0  0
    5.3354    0.3152    2.3313 H   0  0  0  0  0  0  0  0  0  0  0  0
    5.0437    0.9072    0.6850 H   0  0  0  0  0  0  0  0  0  0  0  0
    3.3770   -1.2687    3.6940 N   0  0  0  0  0  0  0  0  0  0  0  0
    2.9471   -1.6139    5.0290 C   0  0  0  0  0  0  0  0  0  0  0  0
    4.1891   -1.7495    3.3184 H   0  0  0  0  0  0  0  0  0  0  0  0
    3.4544   -0.9645    5.7576 H   0  0  0  0  0  0  0  0  0  0  0  0
    1.8588   -1.4764    5.1107 H   0  0  0  0  0  0  0  0  0  0  0  0
    3.2005   -2.6643    5.2355 H   0  0  0  0  0  0  0  0  0  0  0  0
 25 27  1  0  0  0  0
 26 27  2  0  0  0  0
 23 25  2  0  0  0  0
 24 26  1  0  0  0  0
 22 23  1  0  0  0  0
 22 24  2  0  0  0  0
 21 22  1  0  0  0  0
  1  3  1  0  0  0  0
  1  7  1  0  0  0  0
  1  2  2  0  0  0  0
 38 39  1  0  0  0  0
 39 47  1  0  0  0  0
 39 40  2  0  0  0  0
  8  9  1  0  0  0  0
  9 17  1  0  0  0  0
  9 10  2  0  0  0  0
 18 19  1  0  0  0  0
 19 37  1  0  0  0  0
 19 20  2  0  0  0  0
 38 41  1  0  0  0  0
  8 11  1  0  0  0  0
 47 48  1  0  0  0  0
 18 21  1  0  0  0  0
 37 38  1  0  0  0  0
  7  8  1  0  0  0  0
 17 18  1  0  0  0  0
 27 36  1  0  0  0  0
 25 34  1  0  0  0  0
 26 35  1  0  0  0  0
 23 32  1  0  0  0  0
 24 33  1  0  0  0  0
  3  4  1  0  0  0  0
  3  5  1  0  0  0  0
  3  6  1  0  0  0  0
 41 44  1  0  0  0  0
 41 45  1  0  0  0  0
 41 46  1  0  0  0  0
 11 14  1  0  0  0  0
 11 15  1  0  0  0  0
 11 16  1  0  0  0  0
 48 50  1  0  0  0  0
 48 51  1  0  0  0  0
 48 52  1  0  0  0  0
 21 30  1  0  0  0  0
 21 31  1  0  0  0  0
 38 43  1  0  0  0  0
  8 13  1  0  0  0  0
 18 29  1  0  0  0  0
 47 49  1  0  0  0  0
  7 12  1  0  0  0  0
 37 42  1  0  0  0  0
 17 28  1  0  0  0  0
M  END
$$$$

  -OEChem-05262214473D

 52 52  0     1  0  0  0  0  0999 V2000
   -1.8248    0.3424    3.9102 C   0  0  0  0  0  0  0  0  0  0  0  0
   -0.8774   -0.2723    3.4345 O   0  0  0  0  0  0  0  0  0  0  0  0
   -2.2566    0.0600    5.3109 C   0  0  0  0  0  0  0  0  0  0  0  0
   -3.0163   -0.7363    5.3643 H   0  0  0  0  0  0  0  0  0  0  0  0
   -1.4254   -0.2876    5.9452 H   0  0  0  0  0  0  0  0  0  0  0  0
   -2.6947    0.9149    5.8505 H   0  0  0  0  0  0  0  0  0  0  0  0
   -2.5745    1.3149    3.2691 N   0  0  0  0  0  0  0  0  0  0  0  0
   -2.3276    1.7409    1.9167 C   0  0  2  0  0  0  0  0  0  0  0  0
   -0.9926    1.1555    1.4755 C   0  0  0  0  0  0  0  0  0  0  0  0
   -0.1206    0.8028    2.2668 O   0  0  0  0  0  0  0  0  0  0  0  0
   -2.3188    3.2577    1.8072 C   0  0  0  0  0  0  0  0  0  0  0  0
   -3.3395    1.7507    3.7809 H   0  0  0  0  0  0  0  0  0  0  0  0
   -3.1317    1.3224    1.3015 H   0  0  0  0  0  0  0  0  0  0  0  0
   -1.5198    3.6949    2.4169 H   0  0  0  0  0  0  0  0  0  0  0  0
   -2.1594    3.5799    0.7729 H   0  0  0  0  0  0  0  0  0  0  0  0
   -3.2690    3.6789    2.1530 H   0  0  0  0  0  0  0  0  0  0  0  0
   -0.8700    1.1124    0.0921 N   0  0  0  0  0  0  0  0  0  0  0  0
    0.3073    0.6116   -0.5716 C   0  0  2  0  0  0  0  0  0  0  0  0
    1.1191   -0.1542    0.4670 C   0  0  0  0  0  0  0  0  0  0  0  0
    0.8256   -1.2869    0.8434 O   0  0  0  0  0  0  0  0  0  0  0  0
    1.1501    1.7368   -1.1829 C   0  0  0  0  0  0  0  0  0  0  0  0
    0.4538    2.4316   -2.3275 C   0  0  0  0  0  0  0  0  0  0  0  0
    0.4651    1.8618   -3.6007 C   0  0  0  0  0  0  0  0  0  0  0  0
   -0.2014    3.6439   -2.1119 C   0  0  0  0  0  0  0  0  0  0  0  0
   -0.1788    2.5043   -4.6581 C   0  0  0  0  0  0  0  0  0  0  0  0
   -0.8453    4.2865   -3.1693 C   0  0  0  0  0  0  0  0  0  0  0  0
   -0.8341    3.7166   -4.4424 C   0  0  0  0  0  0  0  0  0  0  0  0
   -1.6531    1.4091   -0.4852 H   0  0  0  0  0  0  0  0  0  0  0  0
   -0.0413   -0.0872   -1.3411 H   0  0  0  0  0  0  0  0  0  0  0  0
    2.1185    1.3451   -1.5227 H   0  0  0  0  0  0  0  0  0  0  0  0
    1.3951    2.4894   -0.4218 H   0  0  0  0  0  0  0  0  0  0  0  0
    0.9730    0.9174   -3.7780 H   0  0  0  0  0  0  0  0  0  0  0  0
   -0.2155    4.0953   -1.1233 H   0  0  0  0  0  0  0  0  0  0  0  0
   -0.1690    2.0610   -5.6496 H   0  0  0  0  0  0  0  0  0  0  0  0
   -1.3545    5.2309   -3.0012 H   0  0  0  0  0  0  0  0  0  0  0  0
   -1.3343    4.2175   -5.2662 H   0  0  0  0  0  0  0  0  0  0  0  0
    2.2348    0.5588    0.8833 N   0  0  0  0  0  0  0  0  0  0  0  0
    3.1865    0.0523    1.8460 C   0  0  2  0  0  0  0  0  0  0  0  0
    2.4097   -0.4495    3.0560 C   0  0  0  0  0  0  0  0  0  0  0  0
    1.2751   -0.0648    3.3315 O   0  0  0  0  0  0  0  0  0  0  0  0
    4.1886    1.1228    2.2492 C   0  0  0  0  0  0  0  0  0  0  0  0
    2.3903    1.4830    0.4917 H   0  0  0  0  0  0  0  0  0  0  0  0
    3.7027   -0.7877    1.3686 H   0  0  0  0  0  0  0  0  0  0  0  0
    3.6899    1.9726    2.7293 H   0  0  0  0  0  0  0  0  0  0  0  0
    4.9260    0.7296    2.9567 H   0  0  0  0  0  0  0  0  0  0  0  0
    4.7254    1.5037    1.3737 H   0  0  0  0  0  0  0  0  0  0  0  0
    3.1489   -1.3452    3.8160 N   0  0  0  0  0  0  0  0  0  0  0  0
    2.6365   -1.9530    5.0218 C   0  0  0  0  0  0  0  0  0  0  0  0
    4.0745   -1.6218    3.5022 H   0  0  0  0  0  0  0  0  0  0  0  0
    2.9252   -1.3442    5.8912 H   0  0  0  0  0  0  0  0  0  0  0  0
    1.5396   -2.0132    4.9644 H   0  0  0  0  0  0  0  0  0  0  0  0
    3.0541   -2.9651    5.1280 H   0  0  0  0  0  0  0  0  0  0  0  0
 25 27  1  0  0  0  0
 26 27  2  0  0  0  0
 23 25  2  0  0  0  0
 24 26  1  0  0  0  0
 22 23  1  0  0  0  0
 22 24  2  0  0  0  0
 21 22  1  0  0  0  0
  1  3  1  0  0  0  0
  1  7  1  0  0  0  0
  1  2  2  0  0  0  0
 38 39  1  0  0  0  0
 39 47  1  0  0  0  0
 39 40  2  0  0  0  0
  8  9  1  0  0  0  0
  9 17  1  0  0  0  0
  9 10  2  0  0  0  0
 18 19  1  0  0  0  0
 19 37  1  0  0  0  0
 19 20  2  0  0  0  0
 38 41  1  0  0  0  0
  8 11  1  0  0  0  0
 47 48  1  0  0  0  0
 18 21  1  0  0  0  0
 37 38  1  0  0  0  0
  7  8  1  0  0  0  0
 17 18  1  0  0  0  0
 27 36  1  0  0  0  0
 25 34  1  0  0  0  0
 26 35  1  0  0  0  0
 23 32  1  0  0  0  0
 24 33  1  0  0  0  0
  3  4  1  0  0  0  0
  3  5  1  0  0  0  0
  3  6  1  0  0  0  0
 41 44  1  0  0  0  0
 41 45  1  0  0  0  0
 41 46  1  0  0  0  0
 11 14  1  0  0  0  0
 11 15  1  0  0  0  0
 11 16  1  0  0  0  0
 48 50  1  0  0  0  0
 48 51  1  0  0  0  0
 48 52  1  0  0  0  0
 21 30  1  0  0  0  0
 21 31  1  0  0  0  0
 38 43  1  0  0  0  0
  8 13  1  0  0  0  0
 18 29  1  0  0  0  0
 47 49  1  0  0  0  0
  7 12  1  0  0  0  0
 37 42  1  0  0  0  0
 17 28  1  0  0  0  0
M  END
$$$$

  -OEChem-05262214473D

 52 52  0     1  0  0  0  0  0999 V2000
   -1.8248    0.3424    3.9102 C   0  0  0  0  0  0  0  0  0  0  0  0
   -0.8774   -0.2723    3.4345 O   0  0  0  0  0  0  0  0  0  0  0  0
   -2.2566    0.0600    5.3109 C   0  0  0  0  0  0  0  0  0  0  0  0
   -3.0163   -0.7363    5.3643 H   0  0  0  0  0  0  0  0  0  0  0  0
   -1.4254   -0.2876    5.9452 H   0  0  0  0  0  0  0  0  0  0  0  0
   -2.6947    0.9149    5.8505 H   0  0  0  0  0  0  0  0  0  0  0  0
   -2.5745    1.3149    3.2691 N   0  0  0  0  0  0  0  0  0  0  0  0
   -2.3276    1.7409    1.9167 C   0  0  2  0  0  0  0  0  0  0  0  0
   -0.9926    1.1555    1.4755 C   0  0  0  0  0  0  0  0  0  0  0  0
   -0.1206    0.8028    2.2668 O   0  0  0  0  0  0  0  0  0  0  0  0
   -2.3188    3.2577    1.8072 C   0  0  0  0  0  0  0  0  0  0  0  0
   -3.3395    1.7507    3.7809 H   0  0  0  0  0  0  0  0  0  0  0  0
   -3.1317    1.3224    1.3015 H   0  0  0  0  0  0  0  0  0  0  0  0
   -1.5198    3.6949    2.4169 H   0  0  0  0  0  0  0  0  0  0  0  0
   -2.1594    3.5799    0.7729 H   0  0  0  0  0  0  0  0  0  0  0  0
   -3.2690    3.6789    2.1530 H   0  0  0  0  0  0  0  0  0  0  0  0
   -0.8700    1.1124    0.0921 N   0  0  0  0  0  0  0  0  0  0  0  0
    0.3073    0.6116   -0.5716 C   0  0  2  0  0  0  0  0  0  0  0  0
    1.1191   -0.1542    0.4670 C   0  0  0  0  0  0  0  0  0  0  0  0
    0.9985   -1.3634    0.6518 O   0  0  0  0  0  0  0  0  0  0  0  0
    1.1501    1.7368   -1.1829 C   0  0  0  0  0  0  0  0  0  0  0  0
    0.4538    2.4316   -2.3275 C   0  0  0  0  0  0  0  0  0  0  0  0
    0.4651    1.8618   -3.6007 C   0  0  0  0  0  0  0  0  0  0  0  0
   -0.2014    3.6439   -2.1119 C   0  0  0  0  0  0  0  0  0  0  0  0
   -0.1788    2.5043   -4.6581 C   0  0  0  0  0  0  0  0  0  0  0  0
   -0.8453    4.2865   -3.1693 C   0  0  0  0  0  0  0  0  0  0  0  0
   -0.8341    3.7166   -4.4424 C   0  0  0  0  0  0  0  0  0  0  0  0
   -1.6531    1.4091   -0.4852 H   0  0  0  0  0  0  0  0  0  0  0  0
   -0.0413   -0.0872   -1.3411 H   0  0  0  0  0  0  0  0  0  0  0  0
    2.1185    1.3451   -1.5227 H   0  0  0  0  0  0  0  0  0  0  0  0
    1.3951    2.4894   -0.4218 H   0  0  0  0  0  0  0  0  0  0  0  0
    0.9730    0.9174   -3.7780 H   0  0  0  0  0  0  0  0  0  0  0  0
   -0.2155    4.0953   -1.1233 H   0  0  0  0  0  0  0  0  0  0  0  0
   -0.1690    2.0610   -5.6496 H   0  0  0  0  0  0  0  0  0  0  0  0
   -1.3545    5.2309   -3.0012 H   0  0  0  0  0  0  0  0  0  0  0  0
   -1.3343    4.2175   -5.2662 H   0  0  0  0  0  0  0  0  0  0  0  0
    2.0264    0.6649    1.1245 N   0  0  0  0  0  0  0  0  0  0  0  0
    2.9355    0.1866    2.1412 C   0  0  2  0  0  0  0  0  0  0  0  0
    2.1283   -0.6132    3.1552 C   0  0  0  0  0  0  0  0  0  0  0  0
    0.9177   -0.4692    3.3127 O   0  0  0  0  0  0  0  0  0  0  0  0
    3.6672    1.3371    2.8148 C   0  0  0  0  0  0  0  0  0  0  0  0
    2.0528    1.6502    0.8788 H   0  0  0  0  0  0  0  0  0  0  0  0
    3.6510   -0.4743    1.6400 H   0  0  0  0  0  0  0  0  0  0  0  0
    2.9666    2.0101    3.3223 H   0  0  0  0  0  0  0  0  0  0  0  0
    4.3763    0.9714    3.5648 H   0  0  0  0  0  0  0  0  0  0  0  0
    4.2232    1.9290    2.0797 H   0  0  0  0  0  0  0  0  0  0  0  0
    2.9262   -1.4760    3.8936 N   0  0  0  0  0  0  0  0  0  0  0  0
    2.3971   -2.3344    4.9277 C   0  0  0  0  0  0  0  0  0  0  0  0
    3.9174   -1.5439    3.6823 H   0  0  0  0  0  0  0  0  0  0  0  0
    2.4636   -1.8227    5.8992 H   0  0  0  0  0  0  0  0  0  0  0  0
    1.3449   -2.5678    4.7076 H   0  0  0  0  0  0  0  0  0  0  0  0
    2.9797   -3.2667    4.9638 H   0  0  0  0  0  0  0  0  0  0  0  0
 25 27  1  0  0  0  0
 26 27  2  0  0  0  0
 23 25  2  0  0  0  0
 24 26  1  0  0  0  0
 22 23  1  0  0  0  0
 22 24  2  0  0  0  0
 21 22  1  0  0  0  0
  1  3  1  0  0  0  0
  1  7  1  0  0  0  0
  1  2  2  0  0  0  0
 38 39  1  0  0  0  0
 39 47  1  0  0  0  0
 39 40  2  0  0  0  0
  8  9  1  0  0  0  0
  9 17  1  0  0  0  0
  9 10  2  0  0  0  0
 18 19  1  0  0  0  0
 19 37  1  0  0  0  0
 19 20  2  0  0  0  0
 38 41  1  0  0  0  0
  8 11  1  0  0  0  0
 47 48  1  0  0  0  0
 18 21  1  0  0  0  0
 37 38  1  0  0  0  0
  7  8  1  0  0  0  0
 17 18  1  0  0  0  0
 27 36  1  0  0  0  0
 25 34  1  0  0  0  0
 26 35  1  0  0  0  0
 23 32  1  0  0  0  0
 24 33  1  0  0  0  0
  3  4  1  0  0  0  0
  3  5  1  0  0  0  0
  3  6  1  0  0  0  0
 41 44  1  0  0  0  0
 41 45  1  0  0  0  0
 41 46  1  0  0  0  0
 11 14  1  0  0  0  0
 11 15  1  0  0  0  0
 11 16  1  0  0  0  0
 48 50  1  0  0  0  0
 48 51  1  0  0  0  0
 48 52  1  0  0  0  0
 21 30  1  0  0  0  0
 21 31  1  0  0  0  0
 38 43  1  0  0  0  0
  8 13  1  0  0  0  0
 18 29  1  0  0  0  0
 47 49  1  0  0  0  0
  7 12  1  0  0  0  0
 37 42  1  0  0  0  0
 17 28  1  0  0  0  0
M  END
$$$$

  -OEChem-05262214473D

 52 52  0     1  0  0  0  0  0999 V2000
   -1.8248    0.3424    3.9102 C   0  0  0  0  0  0  0  0  0  0  0  0
   -0.8774   -0.2723    3.4345 O   0  0  0  0  0  0  0  0  0  0  0  0
   -2.2566    0.0600    5.3109 C   0  0  0  0  0  0  0  0  0  0  0  0
   -3.0163   -0.7363    5.3643 H   0  0  0  0  0  0  0  0  0  0  0  0
   -1.4254   -0.2876    5.9452 H   0  0  0  0  0  0  0  0  0  0  0  0
   -2.6947    0.9149    5.8505 H   0  0  0  0  0  0  0  0  0  0  0  0
   -2.5745    1.3149    3.2691 N   0  0  0  0  0  0  0  0  0  0  0  0
   -2.3276    1.7409    1.9167 C   0  0  2  0  0  0  0  0  0  0  0  0
   -0.9926    1.1555    1.4755 C   0  0  0  0  0  0  0  0  0  0  0  0
   -0.1206    0.8028    2.2668 O   0  0  0  0  0  0  0  0  0  0  0  0
   -2.3188    3.2577    1.8072 C   0  0  0  0  0  0  0  0  0  0  0  0
   -3.3395    1.7507    3.7809 H   0  0  0  0  0  0  0  0  0  0  0  0
   -3.1317    1.3224    1.3015 H   0  0  0  0  0  0  0  0  0  0  0  0
   -1.5198    3.6949    2.4169 H   0  0  0  0  0  0  0  0  0  0  0  0
   -2.1594    3.5799    0.7729 H   0  0  0  0  0  0  0  0  0  0  0  0
   -3.2690    3.6789    2.1530 H   0  0  0  0  0  0  0  0  0  0  0  0
   -0.8700    1.1124    0.0921 N   0  0  0  0  0  0  0  0  0  0  0  0
    0.3073    0.6116   -0.5716 C   0  0  2  0  0  0  0  0  0  0  0  0
    1.1191   -0.1542    0.4670 C   0  0  0  0  0  0  0  0  0  0  0  0
    1.2040   -1.3804    0.4787 O   0  0  0  0  0  0  0  0  0  0  0  0
    1.1501    1.7368   -1.1829 C   0  0  0  0  0  0  0  0  0  0  0  0
    0.4538    2.4316   -2.3275 C   0  0  0  0  0  0  0  0  0  0  0  0
    0.4651    1.8618   -3.6007 C   0  0  0  0  0  0  0  0  0  0  0  0
   -0.2014    3.6439   -2.1119 C   0  0  0  0  0  0  0  0  0  0  0  0
   -0.1788    2.5043   -4.6581 C   0  0  0  0  0  0  0  0  0  0  0  0
   -0.8453    4.2865   -3.1693 C   0  0  0  0  0  0  0  0  0  0  0  0
   -0.8341    3.7166   -4.4424 C   0  0  0  0  0  0  0  0  0  0  0  0
   -1.6531    1.4091   -0.4852 H   0  0  0  0  0  0  0  0  0  0  0  0
   -0.0413   -0.0872   -1.3411 H   0  0  0  0  0  0  0  0  0  0  0  0
    2.1185    1.3451   -1.5227 H   0  0  0  0  0  0  0  0  0  0  0  0
    1.3951    2.4894   -0.4218 H   0  0  0  0  0  0  0  0  0  0  0  0
    0.9730    0.9174   -3.7780 H   0  0  0  0  0  0  0  0  0  0  0  0
   -0.2155    4.0953   -1.1233 H   0  0  0  0  0  0  0  0  0  0  0  0
   -0.1690    2.0610   -5.6496 H   0  0  0  0  0  0  0  0  0  0  0  0
   -1.3545    5.2309   -3.0012 H   0  0  0  0  0  0  0  0  0  0  0  0
   -1.3343    4.2175   -5.2662 H   0  0  0  0  0  0  0  0  0  0  0  0
    1.7750    0.6975    1.3450 N   0  0  0  0  0  0  0  0  0  0  0  0
    2.6310    0.2314    2.4122 C   0  0  2  0  0  0  0  0  0  0  0  0
    1.8725   -0.8346    3.1919 C   0  0  0  0  0  0  0  0  0  0  0  0
    0.6462   -0.9202    3.1923 O   0  0  0  0  0  0  0  0  0  0  0  0
    3.0522    1.3742    3.3228 C   0  0  0  0  0  0  0  0  0  0  0  0
    1.6469    1.6987    1.2319 H   0  0  0  0  0  0  0  0  0  0  0  0
    3.5106   -0.2182    1.9387 H   0  0  0  0  0  0  0  0  0  0  0  0
    2.1842    1.8371    3.8063 H   0  0  0  0  0  0  0  0  0  0  0  0
    3.7236    1.0243    4.1140 H   0  0  0  0  0  0  0  0  0  0  0  0
    3.5714    2.1538    2.7550 H   0  0  0  0  0  0  0  0  0  0  0  0
    2.7240   -1.6524    3.9215 N   0  0  0  0  0  0  0  0  0  0  0  0
    2.2454   -2.7319    4.7531 C   0  0  0  0  0  0  0  0  0  0  0  0
    3.7285   -1.5213    3.8467 H   0  0  0  0  0  0  0  0  0  0  0  0
    2.1011   -2.3674    5.7809 H   0  0  0  0  0  0  0  0  0  0  0  0
    1.2881   -3.1024    4.3578 H   0  0  0  0  0  0  0  0  0  0  0  0
    2.9824   -3.5485    4.7539 H   0  0  0  0  0  0  0  0  0  0  0  0
 25 27  1  0  0  0  0
 26 27  2  0  0  0  0
 23 25  2  0  0  0  0
 24 26  1  0  0  0  0
 22 23  1  0  0  0  0
 22 24  2  0  0  0  0
 21 22  1  0  0  0  0
  1  3  1  0  0  0  0
  1  7  1  0  0  0  0
  1  2  2  0  0  0  0
 38 39  1  0  0  0  0
 39 47  1  0  0  0  0
 39 40  2  0  0  0  0
  8  9  1  0  0  0  0
  9 17  1  0  0  0  0
  9 10  2  0  0  0  0
 18 19  1  0  0  0  0
 19 37  1  0  0  0  0
 19 20  2  0  0  0  0
 38 41  1  0  0  0  0
  8 11  1  0  0  0  0
 47 48  1  0  0  0  0
 18 21  1  0  0  0  0
 37 38  1  0  0  0  0
  7  8  1  0  0  0  0
 17 18  1  0  0  0  0
 27 36  1  0  0  0  0
 25 34  1  0  0  0  0
 26 35  1  0  0  0  0
 23 32  1  0  0  0  0
 24 33  1  0  0  0  0
  3  4  1  0  0  0  0
  3  5  1  0  0  0  0
  3  6  1  0  0  0  0
 41 44  1  0  0  0  0
 41 45  1  0  0  0  0
 41 46  1  0  0  0  0
 11 14  1  0  0  0  0
 11 15  1  0  0  0  0
 11 16  1  0  0  0  0
 48 50  1  0  0  0  0
 48 51  1  0  0  0  0
 48 52  1  0  0  0  0
 21 30  1  0  0  0  0
 21 31  1  0  0  0  0
 38 43  1  0  0  0  0
  8 13  1  0  0  0  0
 18 29  1  0  0  0  0
 47 49  1  0  0  0  0
  7 12  1  0  0  0  0
 37 42  1  0  0  0  0
 17 28  1  0  0  0  0
M  END
$$$$

  -OEChem-05262214473D

 52 52  0     1  0  0  0  0  0999 V2000
   -1.8248    0.3424    3.9102 C   0  0  0  0  0  0  0  0  0  0  0  0
   -0.8774   -0.2723    3.4345 O   0  0  0  0  0  0  0  0  0  0  0  0
   -2.2566    0.0600    5.3109 C   0  0  0  0  0  0  0  0  0  0  0  0
   -3.0163   -0.7363    5.3643 H   0  0  0  0  0  0  0  0  0  0  0  0
   -1.4254   -0.2876    5.9452 H   0  0  0  0  0  0  0  0  0  0  0  0
   -2.6947    0.9149    5.8505 H   0  0  0  0  0  0  0  0  0  0  0  0
   -2.5745    1.3149    3.2691 N   0  0  0  0  0  0  0  0  0  0  0  0
   -2.3276    1.7409    1.9167 C   0  0  2  0  0  0  0  0  0  0  0  0
   -0.9926    1.1555    1.4755 C   0  0  0  0  0  0  0  0  0  0  0  0
   -0.1206    0.8028    2.2668 O   0  0  0  0  0  0  0  0  0  0  0  0
   -2.3188    3.2577    1.8072 C   0  0  0  0  0  0  0  0  0  0  0  0
   -3.3395    1.7507    3.7809 H   0  0  0  0  0  0  0  0  0  0  0  0
   -3.1317    1.3224    1.3015 H   0  0  0  0  0  0  0  0  0  0  0  0
   -1.5198    3.6949    2.4169 H   0  0  0  0  0  0  0  0  0  0  0  0
   -2.1594    3.5799    0.7729 H   0  0  0  0  0  0  0  0  0  0  0  0
   -3.2690    3.6789    2.1530 H   0  0  0  0  0  0  0  0  0  0  0  0
   -0.8700    1.1124    0.0921 N   0  0  0  0  0  0  0  0  0  0  0  0
    0.3073    0.6116   -0.5716 C   0  0  2  0  0  0  0  0  0  0  0  0
    1.1191   -0.1542    0.4670 C   0  0  0  0  0  0  0  0  0  0  0  0
    1.4279   -1.3367    0.3359 O   0  0  0  0  0  0  0  0  0  0  0  0
    1.1501    1.7368   -1.1829 C   0  0  0  0  0  0  0  0  0  0  0  0
    0.4538    2.4316   -2.3275 C   0  0  0  0  0  0  0  0  0  0  0  0
    0.4651    1.8618   -3.6007 C   0  0  0  0  0  0  0  0  0  0  0  0
   -0.2014    3.6439   -2.1119 C   0  0  0  0  0  0  0  0  0  0  0  0
   -0.1788    2.5043   -4.6581 C   0  0  0  0  0  0  0  0  0  0  0  0
   -0.8453    4.2865   -3.1693 C   0  0  0  0  0  0  0  0  0  0  0  0
   -0.8341    3.7166   -4.4424 C   0  0  0  0  0  0  0  0  0  0  0  0
   -1.6531    1.4091   -0.4852 H   0  0  0  0  0  0  0  0  0  0  0  0
   -0.0413   -0.0872   -1.3411 H   0  0  0  0  0  0  0  0  0  0  0  0
    2.1185    1.3451   -1.5227 H   0  0  0  0  0  0  0  0  0  0  0  0
    1.3951    2.4894   -0.4218 H   0  0  0  0  0  0  0  0  0  0  0  0
    0.9730    0.9174   -3.7780 H   0  0  0  0  0  0  0  0  0  0  0  0
   -0.2155    4.0953   -1.1233 H   0  0  0  0  0  0  0  0  0  0  0  0
   -0.1690    2.0610   -5.6496 H   0  0  0  0  0  0  0  0  0  0  0  0
   -1.3545    5.2309   -3.0012 H   0  0  0  0  0  0  0  0  0  0  0  0
   -1.3343    4.2175   -5.2662 H   0  0  0  0  0  0  0  0  0  0  0  0
    1.4978    0.6542    1.5298 N   0  0  0  0  0  0  0  0  0  0  0  0
    2.2937    0.1836    2.6406 C   0  0  2  0  0  0  0  0  0  0  0  0
    1.6597   -1.0987    3.1635 C   0  0  0  0  0  0  0  0  0  0  0  0
    0.4792   -1.3871    2.9786 O   0  0  0  0  0  0  0  0  0  0  0  0
    2.3856    1.2316    3.7387 C   0  0  0  0  0  0  0  0  0  0  0  0
    1.2005    1.6255    1.5268 H   0  0  0  0  0  0  0  0  0  0  0  0
    3.2909   -0.0367    2.2442 H   0  0  0  0  0  0  0  0  0  0  0  0
    1.3961    1.4653    4.1481 H   0  0  0  0  0  0  0  0  0  0  0  0
    3.0124    0.8846    4.5669 H   0  0  0  0  0  0  0  0  0  0  0  0
    2.8144    2.1631    3.3536 H   0  0  0  0  0  0  0  0  0  0  0  0
    2.5562   -1.8623    3.8979 N   0  0  0  0  0  0  0  0  0  0  0  0
    2.1916   -3.1186    4.5100 C   0  0  0  0  0  0  0  0  0  0  0  0
    3.5207   -1.5554    3.9840 H   0  0  0  0  0  0  0  0  0  0  0  0
    1.8623   -2.9412    5.5444 H   0  0  0  0  0  0  0  0  0  0  0  0
    1.3729   -3.5807    3.9389 H   0  0  0  0  0  0  0  0  0  0  0  0
    3.0620   -3.7913    4.5127 H   0  0  0  0  0  0  0  0  0  0  0  0
 25 27  1  0  0  0  0
 26 27  2  0  0  0  0
 23 25  2  0  0  0  0
 24 26  1  0  0  0  0
 22 23  1  0  0  0  0
 22 24  2  0  0  0  0
 21 22  1  0  0  0  0
  1  3  1  0  0  0  0
  1  7  1  0  0  0  0
  1  2  2  0  0  0  0
 38 39  1  0  0  0  0
 39 47  1  0  0  0  0
 39 40  2  0  0  0  0
  8  9  1  0  0  0  0
  9 17  1  0  0  0  0
  9 10  2  0  0  0  0
 18 19  1  0  0  0  0
 19 37  1  0  0  0  0
 19 20  2  0  0  0  0
 38 41  1  0  0  0  0
  8 11  1  0  0  0  0
 47 48  1  0  0  0  0
 18 21  1  0  0  0  0
 37 38  1  0  0  0  0
  7  8  1  0  0  0  0
 17 18  1  0  0  0  0
 27 36  1  0  0  0  0
 25 34  1  0  0  0  0
 26 35  1  0  0  0  0
 23 32  1  0  0  0  0
 24 33  1  0  0  0  0
  3  4  1  0  0  0  0
  3  5  1  0  0  0  0
  3  6  1  0  0  0  0
 41 44  1  0  0  0  0
 41 45  1  0  0  0  0
 41 46  1  0  0  0  0
 11 14  1  0  0  0  0
 11 15  1  0  0  0  0
 11 16  1  0  0  0  0
 48 50  1  0  0  0  0
 48 51  1  0  0  0  0
 48 52  1  0  0  0  0
 21 30  1  0  0  0  0
 21 31  1  0  0  0  0
 38 43  1  0  0  0  0
  8 13  1  0  0  0  0
 18 29  1  0  0  0  0
 47 49  1  0  0  0  0
  7 12  1  0  0  0  0
 37 42  1  0  0  0  0
 17 28  1  0  0  0  0
M  END
$$$$

  -OEChem-05262214473D

 52 52  0     1  0  0  0  0  0999 V2000
   -1.8248    0.3424    3.9102 C   0  0  0  0  0  0  0  0  0  0  0  0
   -0.8774   -0.2723    3.4345 O   0  0  0  0  0  0  0  0  0  0  0  0
   -2.2566    0.0600    5.3109 C   0  0  0  0  0  0  0  0  0  0  0  0
   -3.0163   -0.7363    5.3643 H   0  0  0  0  0  0  0  0  0  0  0  0
   -1.4254   -0.2876    5.9452 H   0  0  0  0  0  0  0  0  0  0  0  0
   -2.6947    0.9149    5.8505 H   0  0  0  0  0  0  0  0  0  0  0  0
   -2.5745    1.3149    3.2691 N   0  0  0  0  0  0  0  0  0  0  0  0
   -2.3276    1.7409    1.9167 C   0  0  2  0  0  0  0  0  0  0  0  0
   -0.9926    1.1555    1.4755 C   0  0  0  0  0  0  0  0  0  0  0  0
   -0.1206    0.8028    2.2668 O   0  0  0  0  0  0  0  0  0  0  0  0
   -2.3188    3.2577    1.8072 C   0  0  0  0  0  0  0  0  0  0  0  0
   -3.3395    1.7507    3.7809 H   0  0  0  0  0  0  0  0  0  0  0  0
   -3.1317    1.3224    1.3015 H   0  0  0  0  0  0  0  0  0  0  0  0
   -1.5198    3.6949    2.4169 H   0  0  0  0  0  0  0  0  0  0  0  0
   -2.1594    3.5799    0.7729 H   0  0  0  0  0  0  0  0  0  0  0  0
   -3.2690    3.6789    2.1530 H   0  0  0  0  0  0  0  0  0  0  0  0
   -0.8700    1.1124    0.0921 N   0  0  0  0  0  0  0  0  0  0  0  0
    0.3073    0.6116   -0.5716 C   0  0  2  0  0  0  0  0  0  0  0  0
    1.1191   -0.1542    0.4670 C   0  0  0  0  0  0  0  0  0  0  0  0
    1.6551   -1.2354    0.2331 O   0  0  0  0  0  0  0  0  0  0  0  0
    1.1501    1.7368   -1.1829 C   0  0  0  0  0  0  0  0  0  0  0  0
    0.4538    2.4316   -2.3275 C   0  0  0  0  0  0  0  0  0  0  0  0
    0.4651    1.8618   -3.6007 C   0  0  0  0  0  0  0  0  0  0  0  0
   -0.2014    3.6439   -2.1119 C   0  0  0  0  0  0  0  0  0  0  0  0
   -0.1788    2.5043   -4.6581 C   0  0  0  0  0  0  0  0  0  0  0  0
   -0.8453    4.2865   -3.1693 C   0  0  0  0  0  0  0  0  0  0  0  0
   -0.8341    3.7166   -4.4424 C   0  0  0  0  0  0  0  0  0  0  0  0
   -1.6531    1.4091   -0.4852 H   0  0  0  0  0  0  0  0  0  0  0  0
   -0.0413   -0.0872   -1.3411 H   0  0  0  0  0  0  0  0  0  0  0  0
    2.1185    1.3451   -1.5227 H   0  0  0  0  0  0  0  0  0  0  0  0
    1.3951    2.4894   -0.4218 H   0  0  0  0  0  0  0  0  0  0  0  0
    0.9730    0.9174   -3.7780 H   0  0  0  0  0  0  0  0  0  0  0  0
   -0.2155    4.0953   -1.1233 H   0  0  0  0  0  0  0  0  0  0  0  0
   -0.1690    2.0610   -5.6496 H   0  0  0  0  0  0  0  0  0  0  0  0
   -1.3545    5.2309   -3.0012 H   0  0  0  0  0  0  0  0  0  0  0  0
   -1.3343    4.2175   -5.2662 H   0  0  0  0  0  0  0  0  0  0  0  0
    1.2136    0.5380    1.6663 N   0  0  0  0  0  0  0  0  0  0  0  0
    1.9467    0.0464    2.8107 C   0  0  2  0  0  0  0  0  0  0  0  0
    1.5044   -1.3873    3.0721 C   0  0  0  0  0  0  0  0  0  0  0  0
    0.4280   -1.8382    2.6860 O   0  0  0  0  0  0  0  0  0  0  0  0
    1.7128    0.9190    4.0341 C   0  0  0  0  0  0  0  0  0  0  0  0
    0.7438    1.4353    1.7436 H   0  0  0  0  0  0  0  0  0  0  0  0
    3.0070    0.0578    2.5358 H   0  0  0  0  0  0  0  0  0  0  0  0
    0.6559    0.9201    4.3247 H   0  0  0  0  0  0  0  0  0  0  0  0
    2.2912    0.5619    4.8926 H   0  0  0  0  0  0  0  0  0  0  0  0
    2.0037    1.9560    3.8346 H   0  0  0  0  0  0  0  0  0  0  0  0
    2.4342   -2.0914    3.8243 N   0  0  0  0  0  0  0  0  0  0  0  0
    2.2395   -3.4682    4.2149 C   0  0  0  0  0  0  0  0  0  0  0  0
    3.3081   -1.6439    4.0849 H   0  0  0  0  0  0  0  0  0  0  0  0
    1.7636   -3.5049    5.2059 H   0  0  0  0  0  0  0  0  0  0  0  0
    1.5936   -3.9699    3.4793 H   0  0  0  0  0  0  0  0  0  0  0  0
    3.2130   -3.9785    4.2566 H   0  0  0  0  0  0  0  0  0  0  0  0
 25 27  1  0  0  0  0
 26 27  2  0  0  0  0
 23 25  2  0  0  0  0
 24 26  1  0  0  0  0
 22 23  1  0  0  0  0
 22 24  2  0  0  0  0
 21 22  1  0  0  0  0
  1  3  1  0  0  0  0
  1  7  1  0  0  0  0
  1  2  2  0  0  0  0
 38 39  1  0  0  0  0
 39 47  1  0  0  0  0
 39 40  2  0  0  0  0
  8  9  1  0  0  0  0
  9 17  1  0  0  0  0
  9 10  2  0  0  0  0
 18 19  1  0  0  0  0
 19 37  1  0  0  0  0
 19 20  2  0  0  0  0
 38 41  1  0  0  0  0
  8 11  1  0  0  0  0
 47 48  1  0  0  0  0
 18 21  1  0  0  0  0
 37 38  1  0  0  0  0
  7  8  1  0  0  0  0
 17 18  1  0  0  0  0
 27 36  1  0  0  0  0
 25 34  1  0  0  0  0
 26 35  1  0  0  0  0
 23 32  1  0  0  0  0
 24 33  1  0  0  0  0
  3  4  1  0  0  0  0
  3  5  1  0  0  0  0
  3  6  1  0  0  0  0
 41 44  1  0  0  0  0
 41 45  1  0  0  0  0
 41 46  1  0  0  0  0
 11 14  1  0  0  0  0
 11 15  1  0  0  0  0
 11 16  1  0  0  0  0
 48 50  1  0  0  0  0
 48 51  1  0  0  0  0
 48 52  1  0  0  0  0
 21 30  1  0  0  0  0
 21 31  1  0  0  0  0
 38 43  1  0  0  0  0
  8 13  1  0  0  0  0
 18 29  1  0  0  0  0
 47 49  1  0  0  0  0
  7 12  1  0  0  0  0
 37 42  1  0  0  0  0
 17 28  1  0  0  0  0
M  END
$$$$

  -OEChem-05262214473D

 52 52  0     1  0  0  0  0  0999 V2000
   -1.8248    0.3424    3.9102 C   0  0  0  0  0  0  0  0  0  0  0  0
   -0.8774   -0.2723    3.4345 O   0  0  0  0  0  0  0  0  0  0  0  0
   -2.2566    0.0600    5.3109 C   0  0  0  0  0  0  0  0  0  0  0  0
   -3.0163   -0.7363    5.3643 H   0  0  0  0  0  0  0  0  0  0  0  0
   -1.4254   -0.2876    5.9452 H   0  0  0  0  0  0  0  0  0  0  0  0
   -2.6947    0.9149    5.8505 H   0  0  0  0  0  0  0  0  0  0  0  0
   -2.5745    1.3149    3.2691 N   0  0  0  0  0  0  0  0  0  0  0  0
   -2.3276    1.7409    1.9167 C   0  0  2  0  0  0  0  0  0  0  0  0
   -0.9926    1.1555    1.4755 C   0  0  0  0  0  0  0  0  0  0  0  0
   -0.1206    0.8028    2.2668 O   0  0  0  0  0  0  0  0  0  0  0  0
   -2.3188    3.2577    1.8072 C   0  0  0  0  0  0  0  0  0  0  0  0
   -3.3395    1.7507    3.7809 H   0  0  0  0  0  0  0  0  0  0  0  0
   -3.1317    1.3224    1.3015 H   0  0  0  0  0  0  0  0  0  0  0  0
   -1.5198    3.6949    2.4169 H   0  0  0  0  0  0  0  0  0  0  0  0
   -2.1594    3.5799    0.7729 H   0  0  0  0  0  0  0  0  0  0  0  0
   -3.2690    3.6789    2.1530 H   0  0  0  0  0  0  0  0  0  0  0  0
   -0.8700    1.1124    0.0921 N   0  0  0  0  0  0  0  0  0  0  0  0
    0.3073    0.6116   -0.5716 C   0  0  2  0  0  0  0  0  0  0  0  0
    1.1191   -0.1542    0.4670 C   0  0  0  0  0  0  0  0  0  0  0  0
    1.8700   -1.0833    0.1772 O   0  0  0  0  0  0  0  0  0  0  0  0
    1.1501    1.7368   -1.1829 C   0  0  0  0  0  0  0  0  0  0  0  0
    0.4538    2.4316   -2.3275 C   0  0  0  0  0  0  0  0  0  0  0  0
    0.4651    1.8618   -3.6007 C   0  0  0  0  0  0  0  0  0  0  0  0
   -0.2014    3.6439   -2.1119 C   0  0  0  0  0  0  0  0  0  0  0  0
   -0.1788    2.5043   -4.6581 C   0  0  0  0  0  0  0  0  0  0  0  0
   -0.8453    4.2865   -3.1693 C   0  0  0  0  0  0  0  0  0  0  0  0
   -0.8341    3.7166   -4.4424 C   0  0  0  0  0  0  0  0  0  0  0  0
   -1.6531    1.4091   -0.4852 H   0  0  0  0  0  0  0  0  0  0  0  0
   -0.0413   -0.0872   -1.3411 H   0  0  0  0  0  0  0  0  0  0  0  0
    2.1185    1.3451   -1.5227 H   0  0  0  0  0  0  0  0  0  0  0  0
    1.3951    2.4894   -0.4218 H   0  0  0  0  0  0  0  0  0  0  0  0
    0.9730    0.9174   -3.7780 H   0  0  0  0  0  0  0  0  0  0  0  0
   -0.2155    4.0953   -1.1233 H   0  0  0  0  0  0  0  0  0  0  0  0
   -0.1690    2.0610   -5.6496 H   0  0  0  0  0  0  0  0  0  0  0  0
   -1.3545    5.2309   -3.0012 H   0  0  0  0  0  0  0  0  0  0  0  0
   -1.3343    4.2175   -5.2662 H   0  0  0  0  0  0  0  0  0  0  0  0
    0.9418    0.3569    1.7452 N   0  0  0  0  0  0  0  0  0  0  0  0
    1.6135   -0.1707    2.9111 C   0  0  2  0  0  0  0  0  0  0  0  0
    1.4172   -1.6809    2.9238 C   0  0  0  0  0  0  0  0  0  0  0  0
    0.4960   -2.2425    2.3347 O   0  0  0  0  0  0  0  0  0  0  0  0
    1.0796    0.4577    4.1889 C   0  0  0  0  0  0  0  0  0  0  0  0
    0.3080    1.1412    1.8674 H   0  0  0  0  0  0  0  0  0  0  0  0
    2.6782    0.0588    2.7935 H   0  0  0  0  0  0  0  0  0  0  0  0
    0.0141    0.2386    4.3238 H   0  0  0  0  0  0  0  0  0  0  0  0
    1.6091    0.0780    5.0690 H   0  0  0  0  0  0  0  0  0  0  0  0
    1.1946    1.5467    4.1652 H   0  0  0  0  0  0  0  0  0  0  0  0
    2.3663   -2.3240    3.7059 N   0  0  0  0  0  0  0  0  0  0  0  0
    2.3857   -3.7566    3.8878 C   0  0  0  0  0  0  0  0  0  0  0  0
    3.1052   -1.7807    4.1426 H   0  0  0  0  0  0  0  0  0  0  0  0
    1.8117   -4.0202    4.7884 H   0  0  0  0  0  0  0  0  0  0  0  0
    1.9352   -4.2437    3.0104 H   0  0  0  0  0  0  0  0  0  0  0  0
    3.4252   -4.0975    4.0030 H   0  0  0  0  0  0  0  0  0  0  0  0
 25 27  1  0  0  0  0
 26 27  2  0  0  0  0
 23 25  2  0  0  0  0
 24 26  1  0  0  0  0
 22 23  1  0  0  0  0
 22 24  2  0  0  0  0
 21 22  1  0  0  0  0
  1  3  1  0  0  0  0
  1  7  1  0  0  0  0
  1  2  2  0  0  0  0
 38 39  1  0  0  0  0
 39 47  1  0  0  0  0
 39 40  2  0  0  0  0
  8  9  1  0  0  0  0
  9 17  1  0  0  0  0
  9 10  2  0  0  0  0
 18 19  1  0  0  0  0
 19 37  1  0  0  0  0
 19 20  2  0  0  0  0
 38 41  1  0  0  0  0
  8 11  1  0  0  0  0
 47 48  1  0  0  0  0
 18 21  1  0  0  0  0
 37 38  1  0  0  0  0
  7  8  1  0  0  0  0
 17 18  1  0  0  0  0
 27 36  1  0  0  0  0
 25 34  1  0  0  0  0
 26 35  1  0  0  0  0
 23 32  1  0  0  0  0
 24 33  1  0  0  0  0
  3  4  1  0  0  0  0
  3  5  1  0  0  0  0
  3  6  1  0  0  0  0
 41 44  1  0  0  0  0
 41 45  1  0  0  0  0
 41 46  1  0  0  0  0
 11 14  1  0  0  0  0
 11 15  1  0  0  0  0
 11 16  1  0  0  0  0
 48 50  1  0  0  0  0
 48 51  1  0  0  0  0
 48 52  1  0  0  0  0
 21 30  1  0  0  0  0
 21 31  1  0  0  0  0
 38 43  1  0  0  0  0
  8 13  1  0  0  0  0
 18 29  1  0  0  0  0
 47 49  1  0  0  0  0
  7 12  1  0  0  0  0
 37 42  1  0  0  0  0
 17 28  1  0  0  0  0
M  END
$$$$

  -OEChem-05262214473D

 52 52  0     1  0  0  0  0  0999 V2000
   -1.8248    0.3424    3.9102 C   0  0  0  0  0  0  0  0  0  0  0  0
   -0.8774   -0.2723    3.4345 O   0  0  0  0  0  0  0  0  0  0  0  0
   -2.2566    0.0600    5.3109 C   0  0  0  0  0  0  0  0  0  0  0  0
   -3.0163   -0.7363    5.3643 H   0  0  0  0  0  0  0  0  0  0  0  0
   -1.4254   -0.2876    5.9452 H   0  0  0  0  0  0  0  0  0  0  0  0
   -2.6947    0.9149    5.8505 H   0  0  0  0  0  0  0  0  0  0  0  0
   -2.5745    1.3149    3.2691 N   0  0  0  0  0  0  0  0  0  0  0  0
   -2.3276    1.7409    1.9167 C   0  0  2  0  0  0  0  0  0  0  0  0
   -0.9926    1.1555    1.4755 C   0  0  0  0  0  0  0  0  0  0  0  0
   -0.1206    0.8028    2.2668 O   0  0  0  0  0  0  0  0  0  0  0  0
   -2.3188    3.2577    1.8072 C   0  0  0  0  0  0  0  0  0  0  0  0
   -3.3395    1.7507    3.7809 H   0  0  0  0  0  0  0  0  0  0  0  0
   -3.1317    1.3224    1.3015 H   0  0  0  0  0  0  0  0  0  0  0  0
   -1.5198    3.6949    2.4169 H   0  0  0  0  0  0  0  0  0  0  0  0
   -2.1594    3.5799    0.7729 H   0  0  0  0  0  0  0  0  0  0  0  0
   -3.2690    3.6789    2.1530 H   0  0  0  0  0  0  0  0  0  0  0  0
   -0.8700    1.1124    0.0921 N   0  0  0  0  0  0  0  0  0  0  0  0
    0.3073    0.6116   -0.5716 C   0  0  2  0  0  0  0  0  0  0  0  0
    1.1191   -0.1542    0.4670 C   0  0  0  0  0  0  0  0  0  0  0  0
    2.0580   -0.8907    0.1722 O   0  0  0  0  0  0  0  0  0  0  0  0
    1.1501    1.7368   -1.1829 C   0  0  0  0  0  0  0  0  0  0  0  0
    0.4538    2.4316   -2.3275 C   0  0  0  0  0  0  0  0  0  0  0  0
    0.4651    1.8618   -3.6007 C   0  0  0  0  0  0  0  0  0  0  0  0
   -0.2014    3.6439   -2.1119 C   0  0  0  0  0  0  0  0  0  0  0  0
   -0.1788    2.5043   -4.6581 C   0  0  0  0  0  0  0  0  0  0  0  0
   -0.8453    4.2865   -3.1693 C   0  0  0  0  0  0  0  0  0  0  0  0
   -0.8341    3.7166   -4.4424 C   0  0  0  0  0  0  0  0  0  0  0  0
   -1.6531    1.4091   -0.4852 H   0  0  0  0  0  0  0  0  0  0  0  0
   -0.0413   -0.0872   -1.3411 H   0  0  0  0  0  0  0  0  0  0  0  0
    2.1185    1.3451   -1.5227 H   0  0  0  0  0  0  0  0  0  0  0  0
    1.3951    2.4894   -0.4218 H   0  0  0  0  0  0  0  0  0  0  0  0
    0.9730    0.9174   -3.7780 H   0  0  0  0  0  0  0  0  0  0  0  0
   -0.2155    4.0953   -1.1233 H   0  0  0  0  0  0  0  0  0  0  0  0
   -0.1690    2.0610   -5.6496 H   0  0  0  0  0  0  0  0  0  0  0  0
   -1.3545    5.2309   -3.0012 H   0  0  0  0  0  0  0  0  0  0  0  0
   -1.3343    4.2175   -5.2662 H   0  0  0  0  0  0  0  0  0  0  0  0
    0.7010    0.1232    1.7611 N   0  0  0  0  0  0  0  0  0  0  0  0
    1.3169   -0.4529    2.9348 C   0  0  2  0  0  0  0  0  0  0  0  0
    1.4039   -1.9594    2.7288 C   0  0  0  0  0  0  0  0  0  0  0  0
    0.6788   -2.5727    1.9484 O   0  0  0  0  0  0  0  0  0  0  0  0
    0.5292   -0.1209    4.1925 C   0  0  0  0  0  0  0  0  0  0  0  0
   -0.0772    0.7632    1.8897 H   0  0  0  0  0  0  0  0  0  0  0  0
    2.3269   -0.0337    2.9999 H   0  0  0  0  0  0  0  0  0  0  0  0
   -0.4855   -0.5327    4.1456 H   0  0  0  0  0  0  0  0  0  0  0  0
    1.0126   -0.5339    5.0840 H   0  0  0  0  0  0  0  0  0  0  0  0
    0.4422    0.9632    4.3230 H   0  0  0  0  0  0  0  0  0  0  0  0
    2.3572   -2.5443    3.5506 N   0  0  0  0  0  0  0  0  0  0  0  0
    2.6203   -3.9644    3.5512 C   0  0  0  0  0  0  0  0  0  0  0  0
    2.9259   -1.9566    4.1530 H   0  0  0  0  0  0  0  0  0  0  0  0
    2.0032   -4.4519    4.3204 H   0  0  0  0  0  0  0  0  0  0  0  0
    2.3744   -4.3833    2.5643 H   0  0  0  0  0  0  0  0  0  0  0  0
    3.6841   -4.1400    3.7693 H   0  0  0  0  0  0  0  0  0  0  0  0
 25 27  1  0  0  0  0
 26 27  2  0  0  0  0
 23 25  2  0  0  0  0
 24 26  1  0  0  0  0
 22 23  1  0  0  0  0
 22 24  2  0  0  0  0
 21 22  1  0  0  0  0
  1  3  1  0  0  0  0
  1  7  1  0  0  0  0
  1  2  2  0  0  0  0
 38 39  1  0  0  0  0
 39 47  1  0  0  0  0
 39 40  2  0  0  0  0
  8  9  1  0  0  0  0
  9 17  1  0  0  0  0
  9 10  2  0  0  0  0
 18 19  1  0  0  0  0
 19 37  1  0  0  0  0
 19 20  2  0  0  0  0
 38 41  1  0  0  0  0
  8 11  1  0  0  0  0
 47 48  1  0  0  0  0
 18 21  1  0  0  0  0
 37 38  1  0  0  0  0
  7  8  1  0  0  0  0
 17 18  1  0  0  0  0
 27 36  1  0  0  0  0
 25 34  1  0  0  0  0
 26 35  1  0  0  0  0
 23 32  1  0  0  0  0
 24 33  1  0  0  0  0
  3  4  1  0  0  0  0
  3  5  1  0  0  0  0
  3  6  1  0  0  0  0
 41 44  1  0  0  0  0
 41 45  1  0  0  0  0
 41 46  1  0  0  0  0
 11 14  1  0  0  0  0
 11 15  1  0  0  0  0
 11 16  1  0  0  0  0
 48 50  1  0  0  0  0
 48 51  1  0  0  0  0
 48 52  1  0  0  0  0
 21 30  1  0  0  0  0
 21 31  1  0  0  0  0
 38 43  1  0  0  0  0
  8 13  1  0  0  0  0
 18 29  1  0  0  0  0
 47 49  1  0  0  0  0
  7 12  1  0  0  0  0
 37 42  1  0  0  0  0
 17 28  1  0  0  0  0
M  END
$$$$

  -OEChem-05262214473D

 52 52  0     1  0  0  0  0  0999 V2000
   -1.8248    0.3424    3.9102 C   0  0  0  0  0  0  0  0  0  0  0  0
   -0.8774   -0.2723    3.4345 O   0  0  0  0  0  0  0  0  0  0  0  0
   -2.2566    0.0600    5.3109 C   0  0  0  0  0  0  0  0  0  0  0  0
   -3.0163   -0.7363    5.3643 H   0  0  0  0  0  0  0  0  0  0  0  0
   -1.4254   -0.2876    5.9452 H   0  0  0  0  0  0  0  0  0  0  0  0
   -2.6947    0.9149    5.8505 H   0  0  0  0  0  0  0  0  0  0  0  0
   -2.5745    1.3149    3.2691 N   0  0  0  0  0  0  0  0  0  0  0  0
   -2.3276    1.7409    1.9167 C   0  0  2  0  0  0  0  0  0  0  0  0
   -0.9926    1.1555    1.4755 C   0  0  0  0  0  0  0  0  0  0  0  0
   -0.1206    0.8028    2.2668 O   0  0  0  0  0  0  0  0  0  0  0  0
   -2.3188    3.2577    1.8072 C   0  0  0  0  0  0  0  0  0  0  0  0
   -3.3395    1.7507    3.7809 H   0  0  0  0  0  0  0  0  0  0  0  0
   -3.1317    1.3224    1.3015 H   0  0  0  0  0  0  0  0  0  0  0  0
   -1.5198    3.6949    2.4169 H   0  0  0  0  0  0  0  0  0  0  0  0
   -2.1594    3.5799    0.7729 H   0  0  0  0  0  0  0  0  0  0  0  0
   -3.2690    3.6789    2.1530 H   0  0  0  0  0  0  0  0  0  0  0  0
   -0.8700    1.1124    0.0921 N   0  0  0  0  0  0  0  0  0  0  0  0
    0.3073    0.6116   -0.5716 C   0  0  2  0  0  0  0  0  0  0  0  0
    1.1191   -0.1542    0.4670 C   0  0  0  0  0  0  0  0  0  0  0  0
    2.2064   -0.6709    0.2184 O   0  0  0  0  0  0  0  0  0  0  0  0
    1.1501    1.7368   -1.1829 C   0  0  0  0  0  0  0  0  0  0  0  0
    0.4538    2.4316   -2.3275 C   0  0  0  0  0  0  0  0  0  0  0  0
    0.4651    1.8618   -3.6007 C   0  0  0  0  0  0  0  0  0  0  0  0
   -0.2014    3.6439   -2.1119 C   0  0  0  0  0  0  0  0  0  0  0  0
   -0.1788    2.5043   -4.6581 C   0  0  0  0  0  0  0  0  0  0  0  0
   -0.8453    4.2865   -3.1693 C   0  0  0  0  0  0  0  0  0  0  0  0
   -0.8341    3.7166   -4.4424 C   0  0  0  0  0  0  0  0  0  0  0  0
   -1.6531    1.4091   -0.4852 H   0  0  0  0  0  0  0  0  0  0  0  0
   -0.0413   -0.0872   -1.3411 H   0  0  0  0  0  0  0  0  0  0  0  0
    2.1185    1.3451   -1.5227 H   0  0  0  0  0  0  0  0  0  0  0  0
    1.3951    2.4894   -0.4218 H   0  0  0  0  0  0  0  0  0  0  0  0
    0.9730    0.9174   -3.7780 H   0  0  0  0  0  0  0  0  0  0  0  0
   -0.2155    4.0953   -1.1233 H   0  0  0  0  0  0  0  0  0  0  0  0
   -0.1690    2.0610   -5.6496 H   0  0  0  0  0  0  0  0  0  0  0  0
   -1.3545    5.2309   -3.0012 H   0  0  0  0  0  0  0  0  0  0  0  0
   -1.3343    4.2175   -5.2662 H   0  0  0  0  0  0  0  0  0  0  0  0
    0.5075   -0.1473    1.7129 N   0  0  0  0  0  0  0  0  0  0  0  0
    1.0772   -0.7811    2.8802 C   0  0  2  0  0  0  0  0  0  0  0  0
    1.4656   -2.2039    2.5003 C   0  0  0  0  0  0  0  0  0  0  0  0
    0.9637   -2.8062    1.5535 O   0  0  0  0  0  0  0  0  0  0  0  0
    0.0991   -0.7773    4.0447 C   0  0  0  0  0  0  0  0  0  0  0  0
   -0.3855    0.3272    1.8092 H   0  0  0  0  0  0  0  0  0  0  0  0
    1.9771   -0.2135    3.1408 H   0  0  0  0  0  0  0  0  0  0  0  0
   -0.8089   -1.3413    3.8022 H   0  0  0  0  0  0  0  0  0  0  0  0
    0.5424   -1.2322    4.9367 H   0  0  0  0  0  0  0  0  0  0  0  0
   -0.2021    0.2451    4.2972 H   0  0  0  0  0  0  0  0  0  0  0  0
    2.4074   -2.7374    3.3690 N   0  0  0  0  0  0  0  0  0  0  0  0
    2.9274   -4.0774    3.2279 C   0  0  0  0  0  0  0  0  0  0  0  0
    2.7824   -2.1596    4.1156 H   0  0  0  0  0  0  0  0  0  0  0  0
    2.3252   -4.7706    3.8337 H   0  0  0  0  0  0  0  0  0  0  0  0
    2.8812   -4.3791    2.1711 H   0  0  0  0  0  0  0  0  0  0  0  0
    3.9721   -4.1032    3.5713 H   0  0  0  0  0  0  0  0  0  0  0  0
 25 27  1  0  0  0  0
 26 27  2  0  0  0  0
 23 25  2  0  0  0  0
 24 26  1  0  0  0  0
 22 23  1  0  0  0  0
 22 24  2  0  0  0  0
 21 22  1  0  0  0  0
  1  3  1  0  0  0  0
  1  7  1  0  0  0  0
  1  2  2  0  0  0  0
 38 39  1  0  0  0  0
 39 47  1  0  0  0  0
 39 40  2  0  0  0  0
  8  9  1  0  0  0  0
  9 17  1  0  0  0  0
  9 10  2  0  0  0  0
 18 19  1  0  0  0  0
 19 37  1  0  0  0  0
 19 20  2  0  0  0  0
 38 41  1  0  0  0  0
  8 11  1  0  0  0  0
 47 48  1  0  0  0  0
 18 21  1  0  0  0  0
 37 38  1  0  0  0  0
  7  8  1  0  0  0  0
 17 18  1  0  0  0  0
 27 36  1  0  0  0  0
 25 34  1  0  0  0  0
 26 35  1  0  0  0  0
 23 32  1  0  0  0  0
 24 33  1  0  0  0  0
  3  4  1  0  0  0  0
  3  5  1  0  0  0  0
  3  6  1  0  0  0  0
 41 44  1  0  0  0  0
 41 45  1  0  0  0  0
 41 46  1  0  0  0  0
 11 14  1  0  0  0  0
 11 15  1  0  0  0  0
 11 16  1  0  0  0  0
 48 50  1  0  0  0  0
 48 51  1  0  0  0  0
 48 52  1  0  0  0  0
 21 30  1  0  0  0  0
 21 31  1  0  0  0  0
 38 43  1  0  0  0  0
  8 13  1  0  0  0  0
 18 29  1  0  0  0  0
 47 49  1  0  0  0  0
  7 12  1  0  0  0  0
 37 42  1  0  0  0  0
 17 28  1  0  0  0  0
M  END
$$$$

  -OEChem-05262214473D

 52 52  0     1  0  0  0  0  0999 V2000
   -1.8248    0.3424    3.9102 C   0  0  0  0  0  0  0  0  0  0  0  0
   -0.8774   -0.2723    3.4345 O   0  0  0  0  0  0  0  0  0  0  0  0
   -2.2566    0.0600    5.3109 C   0  0  0  0  0  0  0  0  0  0  0  0
   -3.0163   -0.7363    5.3643 H   0  0  0  0  0  0  0  0  0  0  0  0
   -1.4254   -0.2876    5.9452 H   0  0  0  0  0  0  0  0  0  0  0  0
   -2.6947    0.9149    5.8505 H   0  0  0  0  0  0  0  0  0  0  0  0
   -2.5745    1.3149    3.2691 N   0  0  0  0  0  0  0  0  0  0  0  0
   -2.3276    1.7409    1.9167 C   0  0  2  0  0  0  0  0  0  0  0  0
   -0.9926    1.1555    1.4755 C   0  0  0  0  0  0  0  0  0  0  0  0
   -0.1206    0.8028    2.2668 O   0  0  0  0  0  0  0  0  0  0  0  0
   -2.3188    3.2577    1.8072 C   0  0  0  0  0  0  0  0  0  0  0  0
   -3.3395    1.7507    3.7809 H   0  0  0  0  0  0  0  0  0  0  0  0
   -3.1317    1.3224    1.3015 H   0  0  0  0  0  0  0  0  0  0  0  0
   -1.5198    3.6949    2.4169 H   0  0  0  0  0  0  0  0  0  0  0  0
   -2.1594    3.5799    0.7729 H   0  0  0  0  0  0  0  0  0  0  0  0
   -3.2690    3.6789    2.1530 H   0  0  0  0  0  0  0  0  0  0  0  0
   -0.8700    1.1124    0.0921 N   0  0  0  0  0  0  0  0  0  0  0  0
    0.3073    0.6116   -0.5716 C   0  0  2  0  0  0  0  0  0  0  0  0
    1.1191   -0.1542    0.4670 C   0  0  0  0  0  0  0  0  0  0  0  0
    2.3049   -0.4388    0.3125 O   0  0  0  0  0  0  0  0  0  0  0  0
    1.1501    1.7368   -1.1829 C   0  0  0  0  0  0  0  0  0  0  0  0
    0.4538    2.4316   -2.3275 C   0  0  0  0  0  0  0  0  0  0  0  0
    0.4651    1.8618   -3.6007 C   0  0  0  0  0  0  0  0  0  0  0  0
   -0.2014    3.6439   -2.1119 C   0  0  0  0  0  0  0  0  0  0  0  0
   -0.1788    2.5043   -4.6581 C   0  0  0  0  0  0  0  0  0  0  0  0
   -0.8453    4.2865   -3.1693 C   0  0  0  0  0  0  0  0  0  0  0  0
   -0.8341    3.7166   -4.4424 C   0  0  0  0  0  0  0  0  0  0  0  0
   -1.6531    1.4091   -0.4852 H   0  0  0  0  0  0  0  0  0  0  0  0
   -0.0413   -0.0872   -1.3411 H   0  0  0  0  0  0  0  0  0  0  0  0
    2.1185    1.3451   -1.5227 H   0  0  0  0  0  0  0  0  0  0  0  0
    1.3951    2.4894   -0.4218 H   0  0  0  0  0  0  0  0  0  0  0  0
    0.9730    0.9174   -3.7780 H   0  0  0  0  0  0  0  0  0  0  0  0
   -0.2155    4.0953   -1.1233 H   0  0  0  0  0  0  0  0  0  0  0  0
   -0.1690    2.0610   -5.6496 H   0  0  0  0  0  0  0  0  0  0  0  0
   -1.3545    5.2309   -3.0012 H   0  0  0  0  0  0  0  0  0  0  0  0
   -1.3343    4.2175   -5.2662 H   0  0  0  0  0  0  0  0  0  0  0  0
    0.3745   -0.4360    1.6040 N   0  0  0  0  0  0  0  0  0  0  0  0
    0.9105   -1.1329    2.7510 C   0  0  2  0  0  0  0  0  0  0  0  0
    1.5980   -2.3977    2.2539 C   0  0  0  0  0  0  0  0  0  0  0  0
    1.3314   -2.9270    1.1769 O   0  0  0  0  0  0  0  0  0  0  0  0
   -0.1814   -1.4667    3.7556 C   0  0  0  0  0  0  0  0  0  0  0  0
   -0.5959   -0.1373    1.6312 H   0  0  0  0  0  0  0  0  0  0  0  0
    1.6525   -0.4682    3.2067 H   0  0  0  0  0  0  0  0  0  0  0  0
   -0.9341   -2.1320    3.3171 H   0  0  0  0  0  0  0  0  0  0  0  0
    0.2305   -1.9693    4.6369 H   0  0  0  0  0  0  0  0  0  0  0  0
   -0.6946   -0.5585    4.0896 H   0  0  0  0  0  0  0  0  0  0  0  0
    2.5135   -2.8899    3.1735 N   0  0  0  0  0  0  0  0  0  0  0  0
    3.2859   -4.0878    2.9400 C   0  0  0  0  0  0  0  0  0  0  0  0
    2.6844   -2.3758    4.0327 H   0  0  0  0  0  0  0  0  0  0  0  0
    2.7557   -4.9546    3.3615 H   0  0  0  0  0  0  0  0  0  0  0  0
    3.4211   -4.2316    1.8579 H   0  0  0  0  0  0  0  0  0  0  0  0
    4.2695   -3.9896    3.4226 H   0  0  0  0  0  0  0  0  0  0  0  0
 25 27  1  0  0  0  0
 26 27  2  0  0  0  0
 23 25  2  0  0  0  0
 24 26  1  0  0  0  0
 22 23  1  0  0  0  0
 22 24  2  0  0  0  0
 21 22  1  0  0  0  0
  1  3  1  0  0  0  0
  1  7  1  0  0  0  0
  1  2  2  0  0  0  0
 38 39  1  0  0  0  0
 39 47  1  0  0  0  0
 39 40  2  0  0  0  0
  8  9  1  0  0  0  0
  9 17  1  0  0  0  0
  9 10  2  0  0  0  0
 18 19  1  0  0  0  0
 19 37  1  0  0  0  0
 19 20  2  0  0  0  0
 38 41  1  0  0  0  0
  8 11  1  0  0  0  0
 47 48  1  0  0  0  0
 18 21  1  0  0  0  0
 37 38  1  0  0  0  0
  7  8  1  0  0  0  0
 17 18  1  0  0  0  0
 27 36  1  0  0  0  0
 25 34  1  0  0  0  0
 26 35  1  0  0  0  0
 23 32  1  0  0  0  0
 24 33  1  0  0  0  0
  3  4  1  0  0  0  0
  3  5  1  0  0  0  0
  3  6  1  0  0  0  0
 41 44  1  0  0  0  0
 41 45  1  0  0  0  0
 41 46  1  0  0  0  0
 11 14  1  0  0  0  0
 11 15  1  0  0  0  0
 11 16  1  0  0  0  0
 48 50  1  0  0  0  0
 48 51  1  0  0  0  0
 48 52  1  0  0  0  0
 21 30  1  0  0  0  0
 21 31  1  0  0  0  0
 38 43  1  0  0  0  0
  8 13  1  0  0  0  0
 18 29  1  0  0  0  0
 47 49  1  0  0  0  0
  7 12  1  0  0  0  0
 37 42  1  0  0  0  0
 17 28  1  0  0  0  0
M  END
$$$$

  -OEChem-05262214473D

 52 52  0     1  0  0  0  0  0999 V2000
   -1.8248    0.3424    3.9102 C   0  0  0  0  0  0  0  0  0  0  0  0
   -0.8774   -0.2723    3.4345 O   0  0  0  0  0  0  0  0  0  0  0  0
   -2.2566    0.0600    5.3109 C   0  0  0  0  0  0  0  0  0  0  0  0
   -3.0163   -0.7363    5.3643 H   0  0  0  0  0  0  0  0  0  0  0  0
   -1.4254   -0.2876    5.9452 H   0  0  0  0  0  0  0  0  0  0  0  0
   -2.6947    0.9149    5.8505 H   0  0  0  0  0  0  0  0  0  0  0  0
   -2.5745    1.3149    3.2691 N   0  0  0  0  0  0  0  0  0  0  0  0
   -2.3276    1.7409    1.9167 C   0  0  2  0  0  0  0  0  0  0  0  0
   -0.9926    1.1555    1.4755 C   0  0  0  0  0  0  0  0  0  0  0  0
   -0.1206    0.8028    2.2668 O   0  0  0  0  0  0  0  0  0  0  0  0
   -2.3188    3.2577    1.8072 C   0  0  0  0  0  0  0  0  0  0  0  0
   -3.3395    1.7507    3.7809 H   0  0  0  0  0  0  0  0  0  0  0  0
   -3.1317    1.3224    1.3015 H   0  0  0  0  0  0  0  0  0  0  0  0
   -1.5198    3.6949    2.4169 H   0  0  0  0  0  0  0  0  0  0  0  0
   -2.1594    3.5799    0.7729 H   0  0  0  0  0  0  0  0  0  0  0  0
   -3.2690    3.6789    2.1530 H   0  0  0  0  0  0  0  0  0  0  0  0
   -0.8700    1.1124    0.0921 N   0  0  0  0  0  0  0  0  0  0  0  0
    0.3073    0.6116   -0.5716 C   0  0  2  0  0  0  0  0  0  0  0  0
    1.1191   -0.1542    0.4670 C   0  0  0  0  0  0  0  0  0  0  0  0
    2.3469   -0.2102    0.4482 O   0  0  0  0  0  0  0  0  0  0  0  0
    1.1501    1.7368   -1.1829 C   0  0  0  0  0  0  0  0  0  0  0  0
    0.4538    2.4316   -2.3275 C   0  0  0  0  0  0  0  0  0  0  0  0
    0.4651    1.8618   -3.6007 C   0  0  0  0  0  0  0  0  0  0  0  0
   -0.2014    3.6439   -2.1119 C   0  0  0  0  0  0  0  0  0  0  0  0
   -0.1788    2.5043   -4.6581 C   0  0  0  0  0  0  0  0  0  0  0  0
   -0.8453    4.2865   -3.1693 C   0  0  0  0  0  0  0  0  0  0  0  0
   -0.8341    3.7166   -4.4424 C   0  0  0  0  0  0  0  0  0  0  0  0
   -1.6531    1.4091   -0.4852 H   0  0  0  0  0  0  0  0  0  0  0  0
   -0.0413   -0.0872   -1.3411 H   0  0  0  0  0  0  0  0  0  0  0  0
    2.1185    1.3451   -1.5227 H   0  0  0  0  0  0  0  0  0  0  0  0
    1.3951    2.4894   -0.4218 H   0  0  0  0  0  0  0  0  0  0  0  0
    0.9730    0.9174   -3.7780 H   0  0  0  0  0  0  0  0  0  0  0  0
   -0.2155    4.0953   -1.1233 H   0  0  0  0  0  0  0  0  0  0  0  0
   -0.1690    2.0610   -5.6496 H   0  0  0  0  0  0  0  0  0  0  0  0
   -1.3545    5.2309   -3.0012 H   0  0  0  0  0  0  0  0  0  0  0  0
   -1.3343    4.2175   -5.2662 H   0  0  0  0  0  0  0  0  0  0  0  0
    0.3112   -0.7232    1.4416 N   0  0  0  0  0  0  0  0  0  0  0  0
    0.8284   -1.4843    2.5562 C   0  0  2  0  0  0  0  0  0  0  0  0
    1.7921   -2.5276    2.0064 C   0  0  0  0  0  0  0  0  0  0  0  0
    1.7569   -2.9270    0.8444 O   0  0  0  0  0  0  0  0  0  0  0  0
   -0.2931   -2.1423    3.3448 C   0  0  0  0  0  0  0  0  0  0  0  0
   -0.6942   -0.5985    1.3679 H   0  0  0  0  0  0  0  0  0  0  0  0
    1.3754   -0.7805    3.1930 H   0  0  0  0  0  0  0  0  0  0  0  0
   -0.8526   -2.8509    2.7232 H   0  0  0  0  0  0  0  0  0  0  0  0
    0.0982   -2.6949    4.2053 H   0  0  0  0  0  0  0  0  0  0  0  0
   -1.0015   -1.3930    3.7142 H   0  0  0  0  0  0  0  0  0  0  0  0
    2.6683   -2.9917    2.9775 N   0  0  0  0  0  0  0  0  0  0  0  0
    3.6715   -3.9950    2.7071 C   0  0  0  0  0  0  0  0  0  0  0  0
    2.6386   -2.5905    3.9102 H   0  0  0  0  0  0  0  0  0  0  0  0
    3.2654   -4.9913    2.9360 H   0  0  0  0  0  0  0  0  0  0  0  0
    3.9574   -3.9507    1.6458 H   0  0  0  0  0  0  0  0  0  0  0  0
    4.5561   -3.8070    3.3333 H   0  0  0  0  0  0  0  0  0  0  0  0
 25 27  1  0  0  0  0
 26 27  2  0  0  0  0
 23 25  2  0  0  0  0
 24 26  1  0  0  0  0
 22 23  1  0  0  0  0
 22 24  2  0  0  0  0
 21 22  1  0  0  0  0
  1  3  1  0  0  0  0
  1  7  1  0  0  0  0
  1  2  2  0  0  0  0
 38 39  1  0  0  0  0
 39 47  1  0  0  0  0
 39 40  2  0  0  0  0
  8  9  1  0  0  0  0
  9 17  1  0  0  0  0
  9 10  2  0  0  0  0
 18 19  1  0  0  0  0
 19 37  1  0  0  0  0
 19 20  2  0  0  0  0
 38 41  1  0  0  0  0
  8 11  1  0  0  0  0
 47 48  1  0  0  0  0
 18 21  1  0  0  0  0
 37 38  1  0  0  0  0
  7  8  1  0  0  0  0
 17 18  1  0  0  0  0
 27 36  1  0  0  0  0
 25 34  1  0  0  0  0
 26 35  1  0  0  0  0
 23 32  1  0  0  0  0
 24 33  1  0  0  0  0
  3  4  1  0  0  0  0
  3  5  1  0  0  0  0
  3  6  1  0  0  0  0
 41 44  1  0  0  0  0
 41 45  1  0  0  0  0
 41 46  1  0  0  0  0
 11 14  1  0  0  0  0
 11 15  1  0  0  0  0
 11 16  1  0  0  0  0
 48 50  1  0  0  0  0
 48 51  1  0  0  0  0
 48 52  1  0  0  0  0
 21 30  1  0  0  0  0
 21 31  1  0  0  0  0
 38 43  1  0  0  0  0
  8 13  1  0  0  0  0
 18 29  1  0  0  0  0
 47 49  1  0  0  0  0
  7 12  1  0  0  0  0
 37 42  1  0  0  0  0
 17 28  1  0  0  0  0
M  END
$$$$

  -OEChem-05262214473D

 52 52  0     1  0  0  0  0  0999 V2000
   -1.8248    0.3424    3.9102 C   0  0  0  0  0  0  0  0  0  0  0  0
   -0.8774   -0.2723    3.4345 O   0  0  0  0  0  0  0  0  0  0  0  0
   -2.2566    0.0600    5.3109 C   0  0  0  0  0  0  0  0  0  0  0  0
   -3.0163   -0.7363    5.3643 H   0  0  0  0  0  0  0  0  0  0  0  0
   -1.4254   -0.2876    5.9452 H   0  0  0  0  0  0  0  0  0  0  0  0
   -2.6947    0.9149    5.8505 H   0  0  0  0  0  0  0  0  0  0  0  0
   -2.5745    1.3149    3.2691 N   0  0  0  0  0  0  0  0  0  0  0  0
   -2.3276    1.7409    1.9167 C   0  0  2  0  0  0  0  0  0  0  0  0
   -0.9926    1.1555    1.4755 C   0  0  0  0  0  0  0  0  0  0  0  0
   -0.1206    0.8028    2.2668 O   0  0  0  0  0  0  0  0  0  0  0  0
   -2.3188    3.2577    1.8072 C   0  0  0  0  0  0  0  0  0  0  0  0
   -3.3395    1.7507    3.7809 H   0  0  0  0  0  0  0  0  0  0  0  0
   -3.1317    1.3224    1.3015 H   0  0  0  0  0  0  0  0  0  0  0  0
   -1.5198    3.6949    2.4169 H   0  0  0  0  0  0  0  0  0  0  0  0
   -2.1594    3.5799    0.7729 H   0  0  0  0  0  0  0  0  0  0  0  0
   -3.2690    3.6789    2.1530 H   0  0  0  0  0  0  0  0  0  0  0  0
   -0.8700    1.1124    0.0921 N   0  0  0  0  0  0  0  0  0  0  0  0
    0.3073    0.6116   -0.5716 C   0  0  2  0  0  0  0  0  0  0  0  0
    1.1191   -0.1542    0.4670 C   0  0  0  0  0  0  0  0  0  0  0  0
    2.3295   -0.0006    0.6163 O   0  0  0  0  0  0  0  0  0  0  0  0
    1.1501    1.7368   -1.1829 C   0  0  0  0  0  0  0  0  0  0  0  0
    0.4538    2.4316   -2.3275 C   0  0  0  0  0  0  0  0  0  0  0  0
    0.4651    1.8618   -3.6007 C   0  0  0  0  0  0  0  0  0  0  0  0
   -0.2014    3.6439   -2.1119 C   0  0  0  0  0  0  0  0  0  0  0  0
   -0.1788    2.5043   -4.6581 C   0  0  0  0  0  0  0  0  0  0  0  0
   -0.8453    4.2865   -3.1693 C   0  0  0  0  0  0  0  0  0  0  0  0
   -0.8341    3.7166   -4.4424 C   0  0  0  0  0  0  0  0  0  0  0  0
   -1.6531    1.4091   -0.4852 H   0  0  0  0  0  0  0  0  0  0  0  0
   -0.0413   -0.0872   -1.3411 H   0  0  0  0  0  0  0  0  0  0  0  0
    2.1185    1.3451   -1.5227 H   0  0  0  0  0  0  0  0  0  0  0  0
    1.3951    2.4894   -0.4218 H   0  0  0  0  0  0  0  0  0  0  0  0
    0.9730    0.9174   -3.7780 H   0  0  0  0  0  0  0  0  0  0  0  0
   -0.2155    4.0953   -1.1233 H   0  0  0  0  0  0  0  0  0  0  0  0
   -0.1690    2.0610   -5.6496 H   0  0  0  0  0  0  0  0  0  0  0  0
   -1.3545    5.2309   -3.0012 H   0  0  0  0  0  0  0  0  0  0  0  0
   -1.3343    4.2175   -5.2662 H   0  0  0  0  0  0  0  0  0  0  0  0
    0.3218   -0.9895    1.2370 N   0  0  0  0  0  0  0  0  0  0  0  0
    0.8363   -1.8113    2.3088 C   0  0  2  0  0  0  0  0  0  0  0  0
    2.0347   -2.5847    1.7747 C   0  0  0  0  0  0  0  0  0  0  0  0
    2.2111   -2.8061    0.5785 O   0  0  0  0  0  0  0  0  0  0  0  0
   -0.2286   -2.7580    2.8403 C   0  0  0  0  0  0  0  0  0  0  0  0
   -0.6735   -1.0251    1.0372 H   0  0  0  0  0  0  0  0  0  0  0  0
    1.1646   -1.1292    3.1007 H   0  0  0  0  0  0  0  0  0  0  0  0
   -0.5698   -3.4492    2.0610 H   0  0  0  0  0  0  0  0  0  0  0  0
    0.1545   -3.3597    3.6711 H   0  0  0  0  0  0  0  0  0  0  0  0
   -1.1021   -2.2014    3.1967 H   0  0  0  0  0  0  0  0  0  0  0  0
    2.8613   -3.0356    2.7942 N   0  0  0  0  0  0  0  0  0  0  0  0
    4.0578   -3.8052    2.5450 C   0  0  0  0  0  0  0  0  0  0  0  0
    2.6482   -2.7891    3.7563 H   0  0  0  0  0  0  0  0  0  0  0  0
    3.8195   -4.8783    2.5863 H   0  0  0  0  0  0  0  0  0  0  0  0
    4.4534   -3.5557    1.5494 H   0  0  0  0  0  0  0  0  0  0  0  0
    4.8123   -3.5677    3.3094 H   0  0  0  0  0  0  0  0  0  0  0  0
 25 27  1  0  0  0  0
 26 27  2  0  0  0  0
 23 25  2  0  0  0  0
 24 26  1  0  0  0  0
 22 23  1  0  0  0  0
 22 24  2  0  0  0  0
 21 22  1  0  0  0  0
  1  3  1  0  0  0  0
  1  7  1  0  0  0  0
  1  2  2  0  0  0  0
 38 39  1  0  0  0  0
 39 47  1  0  0  0  0
 39 40  2  0  0  0  0
  8  9  1  0  0  0  0
  9 17  1  0  0  0  0
  9 10  2  0  0  0  0
 18 19  1  0  0  0  0
 19 37  1  0  0  0  0
 19 20  2  0  0  0  0
 38 41  1  0  0  0  0
  8 11  1  0  0  0  0
 47 48  1  0  0  0  0
 18 21  1  0  0  0  0
 37 38  1  0  0  0  0
  7  8  1  0  0  0  0
 17 18  1  0  0  0  0
 27 36  1  0  0  0  0
 25 34  1  0  0  0  0
 26 35  1  0  0  0  0
 23 32  1  0  0  0  0
 24 33  1  0  0  0  0
  3  4  1  0  0  0  0
  3  5  1  0  0  0  0
  3  6  1  0  0  0  0
 41 44  1  0  0  0  0
 41 45  1  0  0  0  0
 41 46  1  0  0  0  0
 11 14  1  0  0  0  0
 11 15  1  0  0  0  0
 11 16  1  0  0  0  0
 48 50  1  0  0  0  0
 48 51  1  0  0  0  0
 48 52  1  0  0  0  0
 21 30  1  0  0  0  0
 21 31  1  0  0  0  0
 38 43  1  0  0  0  0
  8 13  1  0  0  0  0
 18 29  1  0  0  0  0
 47 49  1  0  0  0  0
  7 12  1  0  0  0  0
 37 42  1  0  0  0  0
 17 28  1  0  0  0  0
M  END
$$$$

  -OEChem-05262214473D

 52 52  0     1  0  0  0  0  0999 V2000
   -1.8248    0.3424    3.9102 C   0  0  0  0  0  0  0  0  0  0  0  0
   -0.8774   -0.2723    3.4345 O   0  0  0  0  0  0  0  0  0  0  0  0
   -2.2566    0.0600    5.3109 C   0  0  0  0  0  0  0  0  0  0  0  0
   -3.0163   -0.7363    5.3643 H   0  0  0  0  0  0  0  0  0  0  0  0
   -1.4254   -0.2876    5.9452 H   0  0  0  0  0  0  0  0  0  0  0  0
   -2.6947    0.9149    5.8505 H   0  0  0  0  0  0  0  0  0  0  0  0
   -2.5745    1.3149    3.2691 N   0  0  0  0  0  0  0  0  0  0  0  0
   -2.3276    1.7409    1.9167 C   0  0  2  0  0  0  0  0  0  0  0  0
   -0.9926    1.1555    1.4755 C   0  0  0  0  0  0  0  0  0  0  0  0
   -0.1206    0.8028    2.2668 O   0  0  0  0  0  0  0  0  0  0  0  0
   -2.3188    3.2577    1.8072 C   0  0  0  0  0  0  0  0  0  0  0  0
   -3.3395    1.7507    3.7809 H   0  0  0  0  0  0  0  0  0  0  0  0
   -3.1317    1.3224    1.3015 H   0  0  0  0  0  0  0  0  0  0  0  0
   -1.5198    3.6949    2.4169 H   0  0  0  0  0  0  0  0  0  0  0  0
   -2.1594    3.5799    0.7729 H   0  0  0  0  0  0  0  0  0  0  0  0
   -3.2690    3.6789    2.1530 H   0  0  0  0  0  0  0  0  0  0  0  0
   -0.8700    1.1124    0.0921 N   0  0  0  0  0  0  0  0  0  0  0  0
    0.3073    0.6116   -0.5716 C   0  0  2  0  0  0  0  0  0  0  0  0
    1.1191   -0.1542    0.4670 C   0  0  0  0  0  0  0  0  0  0  0  0
    2.2539    0.1755    0.8053 O   0  0  0  0  0  0  0  0  0  0  0  0
    1.1501    1.7368   -1.1829 C   0  0  0  0  0  0  0  0  0  0  0  0
    0.4538    2.4316   -2.3275 C   0  0  0  0  0  0  0  0  0  0  0  0
    0.4651    1.8618   -3.6007 C   0  0  0  0  0  0  0  0  0  0  0  0
   -0.2014    3.6439   -2.1119 C   0  0  0  0  0  0  0  0  0  0  0  0
   -0.1788    2.5043   -4.6581 C   0  0  0  0  0  0  0  0  0  0  0  0
   -0.8453    4.2865   -3.1693 C   0  0  0  0  0  0  0  0  0  0  0  0
   -0.8341    3.7166   -4.4424 C   0  0  0  0  0  0  0  0  0  0  0  0
   -1.6531    1.4091   -0.4852 H   0  0  0  0  0  0  0  0  0  0  0  0
   -0.0413   -0.0872   -1.3411 H   0  0  0  0  0  0  0  0  0  0  0  0
    2.1185    1.3451   -1.5227 H   0  0  0  0  0  0  0  0  0  0  0  0
    1.3951    2.4894   -0.4218 H   0  0  0  0  0  0  0  0  0  0  0  0
    0.9730    0.9174   -3.7780 H   0  0  0  0  0  0  0  0  0  0  0  0
   -0.2155    4.0953   -1.1233 H   0  0  0  0  0  0  0  0  0  0  0  0
   -0.1690    2.0610   -5.6496 H   0  0  0  0  0  0  0  0  0  0  0  0
   -1.3545    5.2309   -3.0012 H   0  0  0  0  0  0  0  0  0  0  0  0
   -1.3343    4.2175   -5.2662 H   0  0  0  0  0  0  0  0  0  0  0  0
    0.4055   -1.2167    1.0040 N   0  0  0  0  0  0  0  0  0  0  0  0
    0.9338   -2.0917    2.0258 C   0  0  2  0  0  0  0  0  0  0  0  0
    2.3092   -2.5652    1.5745 C   0  0  0  0  0  0  0  0  0  0  0  0
    2.6631   -2.5727    0.3973 O   0  0  0  0  0  0  0  0  0  0  0  0
    0.0079   -3.2718    2.2766 C   0  0  0  0  0  0  0  0  0  0  0  0
   -0.5353   -1.3879    0.6617 H   0  0  0  0  0  0  0  0  0  0  0  0
    1.0344   -1.4904    2.9360 H   0  0  0  0  0  0  0  0  0  0  0  0
   -0.1051   -3.8859    1.3758 H   0  0  0  0  0  0  0  0  0  0  0  0
    0.3954   -3.9183    3.0709 H   0  0  0  0  0  0  0  0  0  0  0  0
   -0.9894   -2.9287    2.5723 H   0  0  0  0  0  0  0  0  0  0  0  0
    3.0793   -3.0188    2.6362 N   0  0  0  0  0  0  0  0  0  0  0  0
    4.4186   -3.5315    2.4648 C   0  0  0  0  0  0  0  0  0  0  0  0
    2.7125   -2.9580    3.5815 H   0  0  0  0  0  0  0  0  0  0  0  0
    4.3802   -4.6232    2.3360 H   0  0  0  0  0  0  0  0  0  0  0  0
    4.8754   -3.0733    1.5752 H   0  0  0  0  0  0  0  0  0  0  0  0
    5.0207   -3.2881    3.3527 H   0  0  0  0  0  0  0  0  0  0  0  0
 25 27  1  0  0  0  0
 26 27  2  0  0  0  0
 23 25  2  0  0  0  0
 24 26  1  0  0  0  0
 22 23  1  0  0  0  0
 22 24  2  0  0  0  0
 21 22  1  0  0  0  0
  1  3  1  0  0  0  0
  1  7  1  0  0  0  0
  1  2  2  0  0  0  0
 38 39  1  0  0  0  0
 39 47  1  0  0  0  0
 39 40  2  0  0  0  0
  8  9  1  0  0  0  0
  9 17  1  0  0  0  0
  9 10  2  0  0  0  0
 18 19  1  0  0  0  0
 19 37  1  0  0  0  0
 19 20  2  0  0  0  0
 38 41  1  0  0  0  0
  8 11  1  0  0  0  0
 47 48  1  0  0  0  0
 18 21  1  0  0  0  0
 37 38  1  0  0  0  0
  7  8  1  0  0  0  0
 17 18  1  0  0  0  0
 27 36  1  0  0  0  0
 25 34  1  0  0  0  0
 26 35  1  0  0  0  0
 23 32  1  0  0  0  0
 24 33  1  0  0  0  0
  3  4  1  0  0  0  0
  3  5  1  0  0  0  0
  3  6  1  0  0  0  0
 41 44  1  0  0  0  0
 41 45  1  0  0  0  0
 41 46  1  0  0  0  0
 11 14  1  0  0  0  0
 11 15  1  0  0  0  0
 11 16  1  0  0  0  0
 48 50  1  0  0  0  0
 48 51  1  0  0  0  0
 48 52  1  0  0  0  0
 21 30  1  0  0  0  0
 21 31  1  0  0  0  0
 38 43  1  0  0  0  0
  8 13  1  0  0  0  0
 18 29  1  0  0  0  0
 47 49  1  0  0  0  0
  7 12  1  0  0  0  0
 37 42  1  0  0  0  0
 17 28  1  0  0  0  0
M  END
$$$$

  -OEChem-05262214473D

 52 52  0     1  0  0  0  0  0999 V2000
   -1.8248    0.3424    3.9102 C   0  0  0  0  0  0  0  0  0  0  0  0
   -0.8774   -0.2723    3.4345 O   0  0  0  0  0  0  0  0  0  0  0  0
   -2.2566    0.0600    5.3109 C   0  0  0  0  0  0  0  0  0  0  0  0
   -3.0163   -0.7363    5.3643 H   0  0  0  0  0  0  0  0  0  0  0  0
   -1.4254   -0.2876    5.9452 H   0  0  0  0  0  0  0  0  0  0  0  0
   -2.6947    0.9149    5.8505 H   0  0  0  0  0  0  0  0  0  0  0  0
   -2.5745    1.3149    3.2691 N   0  0  0  0  0  0  0  0  0  0  0  0
   -2.3276    1.7409    1.9167 C   0  0  2  0  0  0  0  0  0  0  0  0
   -0.9926    1.1555    1.4755 C   0  0  0  0  0  0  0  0  0  0  0  0
   -0.1206    0.8028    2.2668 O   0  0  0  0  0  0  0  0  0  0  0  0
   -2.3188    3.2577    1.8072 C   0  0  0  0  0  0  0  0  0  0  0  0
   -3.3395    1.7507    3.7809 H   0  0  0  0  0  0  0  0  0  0  0  0
   -3.1317    1.3224    1.3015 H   0  0  0  0  0  0  0  0  0  0  0  0
   -1.5198    3.6949    2.4169 H   0  0  0  0  0  0  0  0  0  0  0  0
   -2.1594    3.5799    0.7729 H   0  0  0  0  0  0  0  0  0  0  0  0
   -3.2690    3.6789    2.1530 H   0  0  0  0  0  0  0  0  0  0  0  0
   -0.8700    1.1124    0.0921 N   0  0  0  0  0  0  0  0  0  0  0  0
    0.3073    0.6116   -0.5716 C   0  0  2  0  0  0  0  0  0  0  0  0
    1.1191   -0.1542    0.4670 C   0  0  0  0  0  0  0  0  0  0  0  0
    2.1253    0.3063    1.0023 O   0  0  0  0  0  0  0  0  0  0  0  0
    1.1501    1.7368   -1.1829 C   0  0  0  0  0  0  0  0  0  0  0  0
    0.4538    2.4316   -2.3275 C   0  0  0  0  0  0  0  0  0  0  0  0
    0.4651    1.8618   -3.6007 C   0  0  0  0  0  0  0  0  0  0  0  0
   -0.2014    3.6439   -2.1119 C   0  0  0  0  0  0  0  0  0  0  0  0
   -0.1788    2.5043   -4.6581 C   0  0  0  0  0  0  0  0  0  0  0  0
   -0.8453    4.2865   -3.1693 C   0  0  0  0  0  0  0  0  0  0  0  0
   -0.8341    3.7166   -4.4424 C   0  0  0  0  0  0  0  0  0  0  0  0
   -1.6531    1.4091   -0.4852 H   0  0  0  0  0  0  0  0  0  0  0  0
   -0.0413   -0.0872   -1.3411 H   0  0  0  0  0  0  0  0  0  0  0  0
    2.1185    1.3451   -1.5227 H   0  0  0  0  0  0  0  0  0  0  0  0
    1.3951    2.4894   -0.4218 H   0  0  0  0  0  0  0  0  0  0  0  0
    0.9730    0.9174   -3.7780 H   0  0  0  0  0  0  0  0  0  0  0  0
   -0.2155    4.0953   -1.1233 H   0  0  0  0  0  0  0  0  0  0  0  0
   -0.1690    2.0610   -5.6496 H   0  0  0  0  0  0  0  0  0  0  0  0
   -1.3545    5.2309   -3.0012 H   0  0  0  0  0  0  0  0  0  0  0  0
   -1.3343    4.2175   -5.2662 H   0  0  0  0  0  0  0  0  0  0  0  0
    0.5568   -1.3892    0.7586 N   0  0  0  0  0  0  0  0  0  0  0  0
    1.1142   -2.3063    1.7266 C   0  0  2  0  0  0  0  0  0  0  0  0
    2.5969   -2.4703    1.4196 C   0  0  0  0  0  0  0  0  0  0  0  0
    3.0820   -2.2425    0.3133 O   0  0  0  0  0  0  0  0  0  0  0  0
    0.4003   -3.6486    1.6920 C   0  0  0  0  0  0  0  0  0  0  0  0
   -0.2891   -1.6622    0.2669 H   0  0  0  0  0  0  0  0  0  0  0  0
    0.9938   -1.8396    2.7103 H   0  0  0  0  0  0  0  0  0  0  0  0
    0.5098   -4.1314    0.7141 H   0  0  0  0  0  0  0  0  0  0  0  0
    0.8048   -4.3327    2.4454 H   0  0  0  0  0  0  0  0  0  0  0  0
   -0.6711   -3.5253    1.8836 H   0  0  0  0  0  0  0  0  0  0  0  0
    3.3074   -2.9423    2.5143 N   0  0  0  0  0  0  0  0  0  0  0  0
    4.7293   -3.1924    2.4720 C   0  0  0  0  0  0  0  0  0  0  0  0
    2.8271   -3.0857    3.3977 H   0  0  0  0  0  0  0  0  0  0  0  0
    4.9094   -4.2435    2.2024 H   0  0  0  0  0  0  0  0  0  0  0  0
    5.1946   -2.5365    1.7215 H   0  0  0  0  0  0  0  0  0  0  0  0
    5.1671   -2.9873    3.4601 H   0  0  0  0  0  0  0  0  0  0  0  0
 25 27  1  0  0  0  0
 26 27  2  0  0  0  0
 23 25  2  0  0  0  0
 24 26  1  0  0  0  0
 22 23  1  0  0  0  0
 22 24  2  0  0  0  0
 21 22  1  0  0  0  0
  1  3  1  0  0  0  0
  1  7  1  0  0  0  0
  1  2  2  0  0  0  0
 38 39  1  0  0  0  0
 39 47  1  0  0  0  0
 39 40  2  0  0  0  0
  8  9  1  0  0  0  0
  9 17  1  0  0  0  0
  9 10  2  0  0  0  0
 18 19  1  0  0  0  0
 19 37  1  0  0  0  0
 19 20  2  0  0  0  0
 38 41  1  0  0  0  0
  8 11  1  0  0  0  0
 47 48  1  0  0  0  0
 18 21  1  0  0  0  0
 37 38  1  0  0  0  0
  7  8  1  0  0  0  0
 17 18  1  0  0  0  0
 27 36  1  0  0  0  0
 25 34  1  0  0  0  0
 26 35  1  0  0  0  0
 23 32  1  0  0  0  0
 24 33  1  0  0  0  0
  3  4  1  0  0  0  0
  3  5  1  0  0  0  0
  3  6  1  0  0  0  0
 41 44  1  0  0  0  0
 41 45  1  0  0  0  0
 41 46  1  0  0  0  0
 11 14  1  0  0  0  0
 11 15  1  0  0  0  0
 11 16  1  0  0  0  0
 48 50  1  0  0  0  0
 48 51  1  0  0  0  0
 48 52  1  0  0  0  0
 21 30  1  0  0  0  0
 21 31  1  0  0  0  0
 38 43  1  0  0  0  0
  8 13  1  0  0  0  0
 18 29  1  0  0  0  0
 47 49  1  0  0  0  0
  7 12  1  0  0  0  0
 37 42  1  0  0  0  0
 17 28  1  0  0  0  0
M  END
$$$$

  -OEChem-05262214473D

 52 52  0     1  0  0  0  0  0999 V2000
   -1.8248    0.3424    3.9102 C   0  0  0  0  0  0  0  0  0  0  0  0
   -0.8774   -0.2723    3.4345 O   0  0  0  0  0  0  0  0  0  0  0  0
   -2.2566    0.0600    5.3109 C   0  0  0  0  0  0  0  0  0  0  0  0
   -3.0163   -0.7363    5.3643 H   0  0  0  0  0  0  0  0  0  0  0  0
   -1.4254   -0.2876    5.9452 H   0  0  0  0  0  0  0  0  0  0  0  0
   -2.6947    0.9149    5.8505 H   0  0  0  0  0  0  0  0  0  0  0  0
   -2.5745    1.3149    3.2691 N   0  0  0  0  0  0  0  0  0  0  0  0
   -2.3276    1.7409    1.9167 C   0  0  2  0  0  0  0  0  0  0  0  0
   -0.9926    1.1555    1.4755 C   0  0  0  0  0  0  0  0  0  0  0  0
   -0.1206    0.8028    2.2668 O   0  0  0  0  0  0  0  0  0  0  0  0
   -2.3188    3.2577    1.8072 C   0  0  0  0  0  0  0  0  0  0  0  0
   -3.3395    1.7507    3.7809 H   0  0  0  0  0  0  0  0  0  0  0  0
   -3.1317    1.3224    1.3015 H   0  0  0  0  0  0  0  0  0  0  0  0
   -1.5198    3.6949    2.4169 H   0  0  0  0  0  0  0  0  0  0  0  0
   -2.1594    3.5799    0.7729 H   0  0  0  0  0  0  0  0  0  0  0  0
   -3.2690    3.6789    2.1530 H   0  0  0  0  0  0  0  0  0  0  0  0
   -0.8700    1.1124    0.0921 N   0  0  0  0  0  0  0  0  0  0  0  0
    0.3073    0.6116   -0.5716 C   0  0  2  0  0  0  0  0  0  0  0  0
    1.1191   -0.1542    0.4670 C   0  0  0  0  0  0  0  0  0  0  0  0
    1.9523    0.3828    1.1939 O   0  0  0  0  0  0  0  0  0  0  0  0
    1.1501    1.7368   -1.1829 C   0  0  0  0  0  0  0  0  0  0  0  0
    0.4538    2.4316   -2.3275 C   0  0  0  0  0  0  0  0  0  0  0  0
    0.4651    1.8618   -3.6007 C   0  0  0  0  0  0  0  0  0  0  0  0
   -0.2014    3.6439   -2.1119 C   0  0  0  0  0  0  0  0  0  0  0  0
   -0.1788    2.5043   -4.6581 C   0  0  0  0  0  0  0  0  0  0  0  0
   -0.8453    4.2865   -3.1693 C   0  0  0  0  0  0  0  0  0  0  0  0
   -0.8341    3.7166   -4.4424 C   0  0  0  0  0  0  0  0  0  0  0  0
   -1.6531    1.4091   -0.4852 H   0  0  0  0  0  0  0  0  0  0  0  0
   -0.0413   -0.0872   -1.3411 H   0  0  0  0  0  0  0  0  0  0  0  0
    2.1185    1.3451   -1.5227 H   0  0  0  0  0  0  0  0  0  0  0  0
    1.3951    2.4894   -0.4218 H   0  0  0  0  0  0  0  0  0  0  0  0
    0.9730    0.9174   -3.7780 H   0  0  0  0  0  0  0  0  0  0  0  0
   -0.2155    4.0953   -1.1233 H   0  0  0  0  0  0  0  0  0  0  0  0
   -0.1690    2.0610   -5.6496 H   0  0  0  0  0  0  0  0  0  0  0  0
   -1.3545    5.2309   -3.0012 H   0  0  0  0  0  0  0  0  0  0  0  0
   -1.3343    4.2175   -5.2662 H   0  0  0  0  0  0  0  0  0  0  0  0
    0.7652   -1.4954    0.5174 N   0  0  0  0  0  0  0  0  0  0  0  0
    1.3652   -2.4406    1.4313 C   0  0  2  0  0  0  0  0  0  0  0  0
    2.8782   -2.3066    1.3204 C   0  0  0  0  0  0  0  0  0  0  0  0
    3.4395   -1.8381    0.3321 O   0  0  0  0  0  0  0  0  0  0  0  0
    0.9217   -3.8629    1.1265 C   0  0  0  0  0  0  0  0  0  0  0  0
    0.0485   -1.8293   -0.1201 H   0  0  0  0  0  0  0  0  0  0  0  0
    1.0455   -2.1530    2.4388 H   0  0  0  0  0  0  0  0  0  0  0  0
    1.2331   -4.1689    0.1210 H   0  0  0  0  0  0  0  0  0  0  0  0
    1.3545   -4.5745    1.8373 H   0  0  0  0  0  0  0  0  0  0  0  0
   -0.1690   -3.9505    1.1776 H   0  0  0  0  0  0  0  0  0  0  0  0
    3.5302   -2.8114    2.4367 N   0  0  0  0  0  0  0  0  0  0  0  0
    4.9686   -2.8111    2.5661 C   0  0  0  0  0  0  0  0  0  0  0  0
    2.9842   -3.1636    3.2175 H   0  0  0  0  0  0  0  0  0  0  0  0
    5.3710   -3.7650    2.1944 H   0  0  0  0  0  0  0  0  0  0  0  0
    5.3893   -1.9819    1.9783 H   0  0  0  0  0  0  0  0  0  0  0  0
    5.2415   -2.6857    3.6243 H   0  0  0  0  0  0  0  0  0  0  0  0
 25 27  1  0  0  0  0
 26 27  2  0  0  0  0
 23 25  2  0  0  0  0
 24 26  1  0  0  0  0
 22 23  1  0  0  0  0
 22 24  2  0  0  0  0
 21 22  1  0  0  0  0
  1  3  1  0  0  0  0
  1  7  1  0  0  0  0
  1  2  2  0  0  0  0
 38 39  1  0  0  0  0
 39 47  1  0  0  0  0
 39 40  2  0  0  0  0
  8  9  1  0  0  0  0
  9 17  1  0  0  0  0
  9 10  2  0  0  0  0
 18 19  1  0  0  0  0
 19 37  1  0  0  0  0
 19 20  2  0  0  0  0
 38 41  1  0  0  0  0
  8 11  1  0  0  0  0
 47 48  1  0  0  0  0
 18 21  1  0  0  0  0
 37 38  1  0  0  0  0
  7  8  1  0  0  0  0
 17 18  1  0  0  0  0
 27 36  1  0  0  0  0
 25 34  1  0  0  0  0
 26 35  1  0  0  0  0
 23 32  1  0  0  0  0
 24 33  1  0  0  0  0
  3  4  1  0  0  0  0
  3  5  1  0  0  0  0
  3  6  1  0  0  0  0
 41 44  1  0  0  0  0
 41 45  1  0  0  0  0
 41 46  1  0  0  0  0
 11 14  1  0  0  0  0
 11 15  1  0  0  0  0
 11 16  1  0  0  0  0
 48 50  1  0  0  0  0
 48 51  1  0  0  0  0
 48 52  1  0  0  0  0
 21 30  1  0  0  0  0
 21 31  1  0  0  0  0
 38 43  1  0  0  0  0
  8 13  1  0  0  0  0
 18 29  1  0  0  0  0
 47 49  1  0  0  0  0
  7 12  1  0  0  0  0
 37 42  1  0  0  0  0
 17 28  1  0  0  0  0
M  END
$$$$

  -OEChem-05262214473D

 52 52  0     1  0  0  0  0  0999 V2000
   -1.8248    0.3424    3.9102 C   0  0  0  0  0  0  0  0  0  0  0  0
   -0.8774   -0.2723    3.4345 O   0  0  0  0  0  0  0  0  0  0  0  0
   -2.2566    0.0600    5.3109 C   0  0  0  0  0  0  0  0  0  0  0  0
   -3.0163   -0.7363    5.3643 H   0  0  0  0  0  0  0  0  0  0  0  0
   -1.4254   -0.2876    5.9452 H   0  0  0  0  0  0  0  0  0  0  0  0
   -2.6947    0.9149    5.8505 H   0  0  0  0  0  0  0  0  0  0  0  0
   -2.5745    1.3149    3.2691 N   0  0  0  0  0  0  0  0  0  0  0  0
   -2.3276    1.7409    1.9167 C   0  0  2  0  0  0  0  0  0  0  0  0
   -0.9926    1.1555    1.4755 C   0  0  0  0  0  0  0  0  0  0  0  0
   -0.1206    0.8028    2.2668 O   0  0  0  0  0  0  0  0  0  0  0  0
   -2.3188    3.2577    1.8072 C   0  0  0  0  0  0  0  0  0  0  0  0
   -3.3395    1.7507    3.7809 H   0  0  0  0  0  0  0  0  0  0  0  0
   -3.1317    1.3224    1.3015 H   0  0  0  0  0  0  0  0  0  0  0  0
   -1.5198    3.6949    2.4169 H   0  0  0  0  0  0  0  0  0  0  0  0
   -2.1594    3.5799    0.7729 H   0  0  0  0  0  0  0  0  0  0  0  0
   -3.2690    3.6789    2.1530 H   0  0  0  0  0  0  0  0  0  0  0  0
   -0.8700    1.1124    0.0921 N   0  0  0  0  0  0  0  0  0  0  0  0
    0.3073    0.6116   -0.5716 C   0  0  2  0  0  0  0  0  0  0  0  0
    1.1191   -0.1542    0.4670 C   0  0  0  0  0  0  0  0  0  0  0  0
    1.7469    0.3997    1.3670 O   0  0  0  0  0  0  0  0  0  0  0  0
    1.1501    1.7368   -1.1829 C   0  0  0  0  0  0  0  0  0  0  0  0
    0.4538    2.4316   -2.3275 C   0  0  0  0  0  0  0  0  0  0  0  0
    0.4651    1.8618   -3.6007 C   0  0  0  0  0  0  0  0  0  0  0  0
   -0.2014    3.6439   -2.1119 C   0  0  0  0  0  0  0  0  0  0  0  0
   -0.1788    2.5043   -4.6581 C   0  0  0  0  0  0  0  0  0  0  0  0
   -0.8453    4.2865   -3.1693 C   0  0  0  0  0  0  0  0  0  0  0  0
   -0.8341    3.7166   -4.4424 C   0  0  0  0  0  0  0  0  0  0  0  0
   -1.6531    1.4091   -0.4852 H   0  0  0  0  0  0  0  0  0  0  0  0
   -0.0413   -0.0872   -1.3411 H   0  0  0  0  0  0  0  0  0  0  0  0
    2.1185    1.3451   -1.5227 H   0  0  0  0  0  0  0  0  0  0  0  0
    1.3951    2.4894   -0.4218 H   0  0  0  0  0  0  0  0  0  0  0  0
    0.9730    0.9174   -3.7780 H   0  0  0  0  0  0  0  0  0  0  0  0
   -0.2155    4.0953   -1.1233 H   0  0  0  0  0  0  0  0  0  0  0  0
   -0.1690    2.0610   -5.6496 H   0  0  0  0  0  0  0  0  0  0  0  0
   -1.3545    5.2309   -3.0012 H   0  0  0  0  0  0  0  0  0  0  0  0
   -1.3343    4.2175   -5.2662 H   0  0  0  0  0  0  0  0  0  0  0  0
    1.0166   -1.5279    0.2969 N   0  0  0  0  0  0  0  0  0  0  0  0
    1.6697   -2.4854    1.1603 C   0  0  2  0  0  0  0  0  0  0  0  0
    3.1340   -2.0852    1.2837 C   0  0  0  0  0  0  0  0  0  0  0  0
    3.7109   -1.3871    0.4525 O   0  0  0  0  0  0  0  0  0  0  0  0
    1.5366   -3.9000    0.6184 C   0  0  0  0  0  0  0  0  0  0  0  0
    0.4543   -1.8779   -0.4732 H   0  0  0  0  0  0  0  0  0  0  0  0
    1.1859   -2.4092    2.1402 H   0  0  0  0  0  0  0  0  0  0  0  0
    2.0155   -3.9958   -0.3629 H   0  0  0  0  0  0  0  0  0  0  0  0
    2.0072   -4.6274    1.2882 H   0  0  0  0  0  0  0  0  0  0  0  0
    0.4828   -4.1754    0.5023 H   0  0  0  0  0  0  0  0  0  0  0  0
    3.7323   -2.6351    2.4088 N   0  0  0  0  0  0  0  0  0  0  0  0
    5.1204   -2.4135    2.7407 C   0  0  0  0  0  0  0  0  0  0  0  0
    3.1731   -3.1862    3.0532 H   0  0  0  0  0  0  0  0  0  0  0  0
    5.7335   -3.2203    2.3127 H   0  0  0  0  0  0  0  0  0  0  0  0
    5.4462   -1.4472    2.3281 H   0  0  0  0  0  0  0  0  0  0  0  0
    5.2388   -2.4039    3.8342 H   0  0  0  0  0  0  0  0  0  0  0  0
 25 27  1  0  0  0  0
 26 27  2  0  0  0  0
 23 25  2  0  0  0  0
 24 26  1  0  0  0  0
 22 23  1  0  0  0  0
 22 24  2  0  0  0  0
 21 22  1  0  0  0  0
  1  3  1  0  0  0  0
  1  7  1  0  0  0  0
  1  2  2  0  0  0  0
 38 39  1  0  0  0  0
 39 47  1  0  0  0  0
 39 40  2  0  0  0  0
  8  9  1  0  0  0  0
  9 17  1  0  0  0  0
  9 10  2  0  0  0  0
 18 19  1  0  0  0  0
 19 37  1  0  0  0  0
 19 20  2  0  0  0  0
 38 41  1  0  0  0  0
  8 11  1  0  0  0  0
 47 48  1  0  0  0  0
 18 21  1  0  0  0  0
 37 38  1  0  0  0  0
  7  8  1  0  0  0  0
 17 18  1  0  0  0  0
 27 36  1  0  0  0  0
 25 34  1  0  0  0  0
 26 35  1  0  0  0  0
 23 32  1  0  0  0  0
 24 33  1  0  0  0  0
  3  4  1  0  0  0  0
  3  5  1  0  0  0  0
  3  6  1  0  0  0  0
 41 44  1  0  0  0  0
 41 45  1  0  0  0  0
 41 46  1  0  0  0  0
 11 14  1  0  0  0  0
 11 15  1  0  0  0  0
 11 16  1  0  0  0  0
 48 50  1  0  0  0  0
 48 51  1  0  0  0  0
 48 52  1  0  0  0  0
 21 30  1  0  0  0  0
 21 31  1  0  0  0  0
 38 43  1  0  0  0  0
  8 13  1  0  0  0  0
 18 29  1  0  0  0  0
 47 49  1  0  0  0  0
  7 12  1  0  0  0  0
 37 42  1  0  0  0  0
 17 28  1  0  0  0  0
M  END
$$$$

  -OEChem-05262214473D

 52 52  0     1  0  0  0  0  0999 V2000
   -1.8248    0.3424    3.9102 C   0  0  0  0  0  0  0  0  0  0  0  0
   -0.8774   -0.2723    3.4345 O   0  0  0  0  0  0  0  0  0  0  0  0
   -2.2566    0.0600    5.3109 C   0  0  0  0  0  0  0  0  0  0  0  0
   -3.0163   -0.7363    5.3643 H   0  0  0  0  0  0  0  0  0  0  0  0
   -1.4254   -0.2876    5.9452 H   0  0  0  0  0  0  0  0  0  0  0  0
   -2.6947    0.9149    5.8505 H   0  0  0  0  0  0  0  0  0  0  0  0
   -2.5745    1.3149    3.2691 N   0  0  0  0  0  0  0  0  0  0  0  0
   -2.3276    1.7409    1.9167 C   0  0  2  0  0  0  0  0  0  0  0  0
   -0.9926    1.1555    1.4755 C   0  0  0  0  0  0  0  0  0  0  0  0
   -0.1206    0.8028    2.2668 O   0  0  0  0  0  0  0  0  0  0  0  0
   -2.3188    3.2577    1.8072 C   0  0  0  0  0  0  0  0  0  0  0  0
   -3.3395    1.7507    3.7809 H   0  0  0  0  0  0  0  0  0  0  0  0
   -3.1317    1.3224    1.3015 H   0  0  0  0  0  0  0  0  0  0  0  0
   -1.5198    3.6949    2.4169 H   0  0  0  0  0  0  0  0  0  0  0  0
   -2.1594    3.5799    0.7729 H   0  0  0  0  0  0  0  0  0  0  0  0
   -3.2690    3.6789    2.1530 H   0  0  0  0  0  0  0  0  0  0  0  0
   -0.8700    1.1124    0.0921 N   0  0  0  0  0  0  0  0  0  0  0  0
    0.3073    0.6116   -0.5716 C   0  0  2  0  0  0  0  0  0  0  0  0
    1.1191   -0.1542    0.4670 C   0  0  0  0  0  0  0  0  0  0  0  0
    1.5230    0.3561    1.5098 O   0  0  0  0  0  0  0  0  0  0  0  0
    1.1501    1.7368   -1.1829 C   0  0  0  0  0  0  0  0  0  0  0  0
    0.4538    2.4316   -2.3275 C   0  0  0  0  0  0  0  0  0  0  0  0
    0.4651    1.8618   -3.6007 C   0  0  0  0  0  0  0  0  0  0  0  0
   -0.2014    3.6439   -2.1119 C   0  0  0  0  0  0  0  0  0  0  0  0
   -0.1788    2.5043   -4.6581 C   0  0  0  0  0  0  0  0  0  0  0  0
   -0.8453    4.2865   -3.1693 C   0  0  0  0  0  0  0  0  0  0  0  0
   -0.8341    3.7166   -4.4424 C   0  0  0  0  0  0  0  0  0  0  0  0
   -1.6531    1.4091   -0.4852 H   0  0  0  0  0  0  0  0  0  0  0  0
   -0.0413   -0.0872   -1.3411 H   0  0  0  0  0  0  0  0  0  0  0  0
    2.1185    1.3451   -1.5227 H   0  0  0  0  0  0  0  0  0  0  0  0
    1.3951    2.4894   -0.4218 H   0  0  0  0  0  0  0  0  0  0  0  0
    0.9730    0.9174   -3.7780 H   0  0  0  0  0  0  0  0  0  0  0  0
   -0.2155    4.0953   -1.1233 H   0  0  0  0  0  0  0  0  0  0  0  0
   -0.1690    2.0610   -5.6496 H   0  0  0  0  0  0  0  0  0  0  0  0
   -1.3545    5.2309   -3.0012 H   0  0  0  0  0  0  0  0  0  0  0  0
   -1.3343    4.2175   -5.2662 H   0  0  0  0  0  0  0  0  0  0  0  0
    1.2939   -1.4846    0.1121 N   0  0  0  0  0  0  0  0  0  0  0  0
    2.0070   -2.4376    0.9319 C   0  0  2  0  0  0  0  0  0  0  0  0
    3.3468   -1.8212    1.3120 C   0  0  0  0  0  0  0  0  0  0  0  0
    3.8780   -0.9201    0.6662 O   0  0  0  0  0  0  0  0  0  0  0  0
    2.2032   -3.7574    0.2025 C   0  0  0  0  0  0  0  0  0  0  0  0
    0.9008   -1.8046   -0.7681 H   0  0  0  0  0  0  0  0  0  0  0  0
    1.4056   -2.5907    1.8346 H   0  0  0  0  0  0  0  0  0  0  0  0
    2.8036   -3.6240   -0.7048 H   0  0  0  0  0  0  0  0  0  0  0  0
    2.7184   -4.4877    0.8353 H   0  0  0  0  0  0  0  0  0  0  0  0
    1.2399   -4.1846   -0.0963 H   0  0  0  0  0  0  0  0  0  0  0  0
    3.9001   -2.4252    2.4324 N   0  0  0  0  0  0  0  0  0  0  0  0
    5.1742   -2.0268    2.9838 C   0  0  0  0  0  0  0  0  0  0  0  0
    3.3809   -3.1521    2.9159 H   0  0  0  0  0  0  0  0  0  0  0  0
    5.9723   -2.6465    2.5491 H   0  0  0  0  0  0  0  0  0  0  0  0
    5.3614   -0.9690    2.7470 H   0  0  0  0  0  0  0  0  0  0  0  0
    5.1592   -2.1611    4.0755 H   0  0  0  0  0  0  0  0  0  0  0  0
 25 27  1  0  0  0  0
 26 27  2  0  0  0  0
 23 25  2  0  0  0  0
 24 26  1  0  0  0  0
 22 23  1  0  0  0  0
 22 24  2  0  0  0  0
 21 22  1  0  0  0  0
  1  3  1  0  0  0  0
  1  7  1  0  0  0  0
  1  2  2  0  0  0  0
 38 39  1  0  0  0  0
 39 47  1  0  0  0  0
 39 40  2  0  0  0  0
  8  9  1  0  0  0  0
  9 17  1  0  0  0  0
  9 10  2  0  0  0  0
 18 19  1  0  0  0  0
 19 37  1  0  0  0  0
 19 20  2  0  0  0  0
 38 41  1  0  0  0  0
  8 11  1  0  0  0  0
 47 48  1  0  0  0  0
 18 21  1  0  0  0  0
 37 38  1  0  0  0  0
  7  8  1  0  0  0  0
 17 18  1  0  0  0  0
 27 36  1  0  0  0  0
 25 34  1  0  0  0  0
 26 35  1  0  0  0  0
 23 32  1  0  0  0  0
 24 33  1  0  0  0  0
  3  4  1  0  0  0  0
  3  5  1  0  0  0  0
  3  6  1  0  0  0  0
 41 44  1  0  0  0  0
 41 45  1  0  0  0  0
 41 46  1  0  0  0  0
 11 14  1  0  0  0  0
 11 15  1  0  0  0  0
 11 16  1  0  0  0  0
 48 50  1  0  0  0  0
 48 51  1  0  0  0  0
 48 52  1  0  0  0  0
 21 30  1  0  0  0  0
 21 31  1  0  0  0  0
 38 43  1  0  0  0  0
  8 13  1  0  0  0  0
 18 29  1  0  0  0  0
 47 49  1  0  0  0  0
  7 12  1  0  0  0  0
 37 42  1  0  0  0  0
 17 28  1  0  0  0  0
M  END
$$$$

  -OEChem-05262214473D

 52 52  0     1  0  0  0  0  0999 V2000
   -1.8248    0.3424    3.9102 C   0  0  0  0  0  0  0  0  0  0  0  0
   -0.8774   -0.2723    3.4345 O   0  0  0  0  0  0  0  0  0  0  0  0
   -2.2566    0.0600    5.3109 C   0  0  0  0  0  0  0  0  0  0  0  0
   -3.0163   -0.7363    5.3643 H   0  0  0  0  0  0  0  0  0  0  0  0
   -1.4254   -0.2876    5.9452 H   0  0  0  0  0  0  0  0  0  0  0  0
   -2.6947    0.9149    5.8505 H   0  0  0  0  0  0  0  0  0  0  0  0
   -2.5745    1.3149    3.2691 N   0  0  0  0  0  0  0  0  0  0  0  0
   -2.3276    1.7409    1.9167 C   0  0  2  0  0  0  0  0  0  0  0  0
   -0.9926    1.1555    1.4755 C   0  0  0  0  0  0  0  0  0  0  0  0
   -0.1206    0.8028    2.2668 O   0  0  0  0  0  0  0  0  0  0  0  0
   -2.3188    3.2577    1.8072 C   0  0  0  0  0  0  0  0  0  0  0  0
   -3.3395    1.7507    3.7809 H   0  0  0  0  0  0  0  0  0  0  0  0
   -3.1317    1.3224    1.3015 H   0  0  0  0  0  0  0  0  0  0  0  0
   -1.5198    3.6949    2.4169 H   0  0  0  0  0  0  0  0  0  0  0  0
   -2.1594    3.5799    0.7729 H   0  0  0  0  0  0  0  0  0  0  0  0
   -3.2690    3.6789    2.1530 H   0  0  0  0  0  0  0  0  0  0  0  0
   -0.8700    1.1124    0.0921 N   0  0  0  0  0  0  0  0  0  0  0  0
    0.3073    0.6116   -0.5716 C   0  0  2  0  0  0  0  0  0  0  0  0
    1.1191   -0.1542    0.4670 C   0  0  0  0  0  0  0  0  0  0  0  0
    1.2958    0.2547    1.6126 O   0  0  0  0  0  0  0  0  0  0  0  0
    1.1501    1.7368   -1.1829 C   0  0  0  0  0  0  0  0  0  0  0  0
    0.4538    2.4316   -2.3275 C   0  0  0  0  0  0  0  0  0  0  0  0
    0.4651    1.8618   -3.6007 C   0  0  0  0  0  0  0  0  0  0  0  0
   -0.2014    3.6439   -2.1119 C   0  0  0  0  0  0  0  0  0  0  0  0
   -0.1788    2.5043   -4.6581 C   0  0  0  0  0  0  0  0  0  0  0  0
   -0.8453    4.2865   -3.1693 C   0  0  0  0  0  0  0  0  0  0  0  0
   -0.8341    3.7166   -4.4424 C   0  0  0  0  0  0  0  0  0  0  0  0
   -1.6531    1.4091   -0.4852 H   0  0  0  0  0  0  0  0  0  0  0  0
   -0.0413   -0.0872   -1.3411 H   0  0  0  0  0  0  0  0  0  0  0  0
    2.1185    1.3451   -1.5227 H   0  0  0  0  0  0  0  0  0  0  0  0
    1.3951    2.4894   -0.4218 H   0  0  0  0  0  0  0  0  0  0  0  0
    0.9730    0.9174   -3.7780 H   0  0  0  0  0  0  0  0  0  0  0  0
   -0.2155    4.0953   -1.1233 H   0  0  0  0  0  0  0  0  0  0  0  0
   -0.1690    2.0610   -5.6496 H   0  0  0  0  0  0  0  0  0  0  0  0
   -1.3545    5.2309   -3.0012 H   0  0  0  0  0  0  0  0  0  0  0  0
   -1.3343    4.2175   -5.2662 H   0  0  0  0  0  0  0  0  0  0  0  0
    1.5781   -1.3684   -0.0244 N   0  0  0  0  0  0  0  0  0  0  0  0
    2.3540   -2.3004    0.7618 C   0  0  2  0  0  0  0  0  0  0  0  0
    3.5021   -1.5326    1.4034 C   0  0  0  0  0  0  0  0  0  0  0  0
    3.9292   -0.4691    0.9588 O   0  0  0  0  0  0  0  0  0  0  0  0
    2.8761   -3.4448   -0.0929 C   0  0  0  0  0  0  0  0  0  0  0  0
    1.3575   -1.6144   -0.9849 H   0  0  0  0  0  0  0  0  0  0  0  0
    1.6895   -2.6851    1.5431 H   0  0  0  0  0  0  0  0  0  0  0  0
    3.5438   -3.0788   -0.8813 H   0  0  0  0  0  0  0  0  0  0  0  0
    3.4396   -4.1649    0.5095 H   0  0  0  0  0  0  0  0  0  0  0  0
    2.0506   -3.9775   -0.5773 H   0  0  0  0  0  0  0  0  0  0  0  0
    4.0221   -2.1961    2.5059 N   0  0  0  0  0  0  0  0  0  0  0  0
    5.1263   -1.6773    3.2789 C   0  0  0  0  0  0  0  0  0  0  0  0
    3.5935   -3.0636    2.8149 H   0  0  0  0  0  0  0  0  0  0  0  0
    6.0710   -2.0828    2.8877 H   0  0  0  0  0  0  0  0  0  0  0  0
    5.1406   -0.5797    3.2066 H   0  0  0  0  0  0  0  0  0  0  0  0
    5.0082   -1.9738    4.3316 H   0  0  0  0  0  0  0  0  0  0  0  0
 25 27  1  0  0  0  0
 26 27  2  0  0  0  0
 23 25  2  0  0  0  0
 24 26  1  0  0  0  0
 22 23  1  0  0  0  0
 22 24  2  0  0  0  0
 21 22  1  0  0  0  0
  1  3  1  0  0  0  0
  1  7  1  0  0  0  0
  1  2  2  0  0  0  0
 38 39  1  0  0  0  0
 39 47  1  0  0  0  0
 39 40  2  0  0  0  0
  8  9  1  0  0  0  0
  9 17  1  0  0  0  0
  9 10  2  0  0  0  0
 18 19  1  0  0  0  0
 19 37  1  0  0  0  0
 19 20  2  0  0  0  0
 38 41  1  0  0  0  0
  8 11  1  0  0  0  0
 47 48  1  0  0  0  0
 18 21  1  0  0  0  0
 37 38  1  0  0  0  0
  7  8  1  0  0  0  0
 17 18  1  0  0  0  0
 27 36  1  0  0  0  0
 25 34  1  0  0  0  0
 26 35  1  0  0  0  0
 23 32  1  0  0  0  0
 24 33  1  0  0  0  0
  3  4  1  0  0  0  0
  3  5  1  0  0  0  0
  3  6  1  0  0  0  0
 41 44  1  0  0  0  0
 41 45  1  0  0  0  0
 41 46  1  0  0  0  0
 11 14  1  0  0  0  0
 11 15  1  0  0  0  0
 11 16  1  0  0  0  0
 48 50  1  0  0  0  0
 48 51  1  0  0  0  0
 48 52  1  0  0  0  0
 21 30  1  0  0  0  0
 21 31  1  0  0  0  0
 38 43  1  0  0  0  0
  8 13  1  0  0  0  0
 18 29  1  0  0  0  0
 47 49  1  0  0  0  0
  7 12  1  0  0  0  0
 37 42  1  0  0  0  0
 17 28  1  0  0  0  0
M  END
$$$$

  -OEChem-05262214473D

 52 52  0     1  0  0  0  0  0999 V2000
   -1.8248    0.3424    3.9102 C   0  0  0  0  0  0  0  0  0  0  0  0
   -0.8774   -0.2723    3.4345 O   0  0  0  0  0  0  0  0  0  0  0  0
   -2.2566    0.0600    5.3109 C   0  0  0  0  0  0  0  0  0  0  0  0
   -3.0163   -0.7363    5.3643 H   0  0  0  0  0  0  0  0  0  0  0  0
   -1.4254   -0.2876    5.9452 H   0  0  0  0  0  0  0  0  0  0  0  0
   -2.6947    0.9149    5.8505 H   0  0  0  0  0  0  0  0  0  0  0  0
   -2.5745    1.3149    3.2691 N   0  0  0  0  0  0  0  0  0  0  0  0
   -2.3276    1.7409    1.9167 C   0  0  2  0  0  0  0  0  0  0  0  0
   -0.9926    1.1555    1.4755 C   0  0  0  0  0  0  0  0  0  0  0  0
   -0.1206    0.8028    2.2668 O   0  0  0  0  0  0  0  0  0  0  0  0
   -2.3188    3.2577    1.8072 C   0  0  0  0  0  0  0  0  0  0  0  0
   -3.3395    1.7507    3.7809 H   0  0  0  0  0  0  0  0  0  0  0  0
   -3.1317    1.3224    1.3015 H   0  0  0  0  0  0  0  0  0  0  0  0
   -1.5198    3.6949    2.4169 H   0  0  0  0  0  0  0  0  0  0  0  0
   -2.1594    3.5799    0.7729 H   0  0  0  0  0  0  0  0  0  0  0  0
   -3.2690    3.6789    2.1530 H   0  0  0  0  0  0  0  0  0  0  0  0
   -0.8700    1.1124    0.0921 N   0  0  0  0  0  0  0  0  0  0  0  0
    0.3073    0.6116   -0.5716 C   0  0  2  0  0  0  0  0  0  0  0  0
    1.1191   -0.1542    0.4670 C   0  0  0  0  0  0  0  0  0  0  0  0
    1.0809    0.1026    1.6685 O   0  0  0  0  0  0  0  0  0  0  0  0
    1.1501    1.7368   -1.1829 C   0  0  0  0  0  0  0  0  0  0  0  0
    0.4538    2.4316   -2.3275 C   0  0  0  0  0  0  0  0  0  0  0  0
    0.4651    1.8618   -3.6007 C   0  0  0  0  0  0  0  0  0  0  0  0
   -0.2014    3.6439   -2.1119 C   0  0  0  0  0  0  0  0  0  0  0  0
   -0.1788    2.5043   -4.6581 C   0  0  0  0  0  0  0  0  0  0  0  0
   -0.8453    4.2865   -3.1693 C   0  0  0  0  0  0  0  0  0  0  0  0
   -0.8341    3.7166   -4.4424 C   0  0  0  0  0  0  0  0  0  0  0  0
   -1.6531    1.4091   -0.4852 H   0  0  0  0  0  0  0  0  0  0  0  0
   -0.0413   -0.0872   -1.3411 H   0  0  0  0  0  0  0  0  0  0  0  0
    2.1185    1.3451   -1.5227 H   0  0  0  0  0  0  0  0  0  0  0  0
    1.3951    2.4894   -0.4218 H   0  0  0  0  0  0  0  0  0  0  0  0
    0.9730    0.9174   -3.7780 H   0  0  0  0  0  0  0  0  0  0  0  0
   -0.2155    4.0953   -1.1233 H   0  0  0  0  0  0  0  0  0  0  0  0
   -0.1690    2.0610   -5.6496 H   0  0  0  0  0  0  0  0  0  0  0  0
   -1.3545    5.2309   -3.0012 H   0  0  0  0  0  0  0  0  0  0  0  0
   -1.3343    4.2175   -5.2662 H   0  0  0  0  0  0  0  0  0  0  0  0
    1.8498   -1.1873   -0.1033 N   0  0  0  0  0  0  0  0  0  0  0  0
    2.6872   -2.0833    0.6615 C   0  0  2  0  0  0  0  0  0  0  0  0
    3.5894   -1.2390    1.5517 C   0  0  0  0  0  0  0  0  0  0  0  0
    3.8611   -0.0647    1.3101 O   0  0  0  0  0  0  0  0  0  0  0  0
    3.5092   -2.9835   -0.2477 C   0  0  0  0  0  0  0  0  0  0  0  0
    1.7932   -1.3203   -1.1087 H   0  0  0  0  0  0  0  0  0  0  0  0
    2.0183   -2.6861    1.2853 H   0  0  0  0  0  0  0  0  0  0  0  0
    4.1856   -2.3973   -0.8805 H   0  0  0  0  0  0  0  0  0  0  0  0
    4.1217   -3.6811    0.3331 H   0  0  0  0  0  0  0  0  0  0  0  0
    2.8597   -3.5683   -0.9080 H   0  0  0  0  0  0  0  0  0  0  0  0
    4.0900   -1.9635    2.6244 N   0  0  0  0  0  0  0  0  0  0  0  0
    4.9801   -1.3888    3.6059 C   0  0  0  0  0  0  0  0  0  0  0  0
    3.7963   -2.9268    2.7573 H   0  0  0  0  0  0  0  0  0  0  0  0
    6.0229   -1.5675    3.3052 H   0  0  0  0  0  0  0  0  0  0  0  0
    4.7991   -0.3060    3.6754 H   0  0  0  0  0  0  0  0  0  0  0  0
    4.7960   -1.8549    4.5851 H   0  0  0  0  0  0  0  0  0  0  0  0
 25 27  1  0  0  0  0
 26 27  2  0  0  0  0
 23 25  2  0  0  0  0
 24 26  1  0  0  0  0
 22 23  1  0  0  0  0
 22 24  2  0  0  0  0
 21 22  1  0  0  0  0
  1  3  1  0  0  0  0
  1  7  1  0  0  0  0
  1  2  2  0  0  0  0
 38 39  1  0  0  0  0
 39 47  1  0  0  0  0
 39 40  2  0  0  0  0
  8  9  1  0  0  0  0
  9 17  1  0  0  0  0
  9 10  2  0  0  0  0
 18 19  1  0  0  0  0
 19 37  1  0  0  0  0
 19 20  2  0  0  0  0
 38 41  1  0  0  0  0
  8 11  1  0  0  0  0
 47 48  1  0  0  0  0
 18 21  1  0  0  0  0
 37 38  1  0  0  0  0
  7  8  1  0  0  0  0
 17 18  1  0  0  0  0
 27 36  1  0  0  0  0
 25 34  1  0  0  0  0
 26 35  1  0  0  0  0
 23 32  1  0  0  0  0
 24 33  1  0  0  0  0
  3  4  1  0  0  0  0
  3  5  1  0  0  0  0
  3  6  1  0  0  0  0
 41 44  1  0  0  0  0
 41 45  1  0  0  0  0
 41 46  1  0  0  0  0
 11 14  1  0  0  0  0
 11 15  1  0  0  0  0
 11 16  1  0  0  0  0
 48 50  1  0  0  0  0
 48 51  1  0  0  0  0
 48 52  1  0  0  0  0
 21 30  1  0  0  0  0
 21 31  1  0  0  0  0
 38 43  1  0  0  0  0
  8 13  1  0  0  0  0
 18 29  1  0  0  0  0
 47 49  1  0  0  0  0
  7 12  1  0  0  0  0
 37 42  1  0  0  0  0
 17 28  1  0  0  0  0
M  END
$$$$

  -OEChem-05262214473D

 52 52  0     1  0  0  0  0  0999 V2000
   -1.8248    0.3424    3.9102 C   0  0  0  0  0  0  0  0  0  0  0  0
   -0.8774   -0.2723    3.4345 O   0  0  0  0  0  0  0  0  0  0  0  0
   -2.2566    0.0600    5.3109 C   0  0  0  0  0  0  0  0  0  0  0  0
   -3.0163   -0.7363    5.3643 H   0  0  0  0  0  0  0  0  0  0  0  0
   -1.4254   -0.2876    5.9452 H   0  0  0  0  0  0  0  0  0  0  0  0
   -2.6947    0.9149    5.8505 H   0  0  0  0  0  0  0  0  0  0  0  0
   -2.5745    1.3149    3.2691 N   0  0  0  0  0  0  0  0  0  0  0  0
   -2.3276    1.7409    1.9167 C   0  0  2  0  0  0  0  0  0  0  0  0
   -0.9926    1.1555    1.4755 C   0  0  0  0  0  0  0  0  0  0  0  0
   -0.1206    0.8028    2.2668 O   0  0  0  0  0  0  0  0  0  0  0  0
   -2.3188    3.2577    1.8072 C   0  0  0  0  0  0  0  0  0  0  0  0
   -3.3395    1.7507    3.7809 H   0  0  0  0  0  0  0  0  0  0  0  0
   -3.1317    1.3224    1.3015 H   0  0  0  0  0  0  0  0  0  0  0  0
   -1.5198    3.6949    2.4169 H   0  0  0  0  0  0  0  0  0  0  0  0
   -2.1594    3.5799    0.7729 H   0  0  0  0  0  0  0  0  0  0  0  0
   -3.2690    3.6789    2.1530 H   0  0  0  0  0  0  0  0  0  0  0  0
   -0.8700    1.1124    0.0921 N   0  0  0  0  0  0  0  0  0  0  0  0
    0.3073    0.6116   -0.5716 C   0  0  2  0  0  0  0  0  0  0  0  0
    1.1191   -0.1542    0.4670 C   0  0  0  0  0  0  0  0  0  0  0  0
    0.8928   -0.0899    1.6735 O   0  0  0  0  0  0  0  0  0  0  0  0
    1.1501    1.7368   -1.1829 C   0  0  0  0  0  0  0  0  0  0  0  0
    0.4538    2.4316   -2.3275 C   0  0  0  0  0  0  0  0  0  0  0  0
    0.4651    1.8618   -3.6007 C   0  0  0  0  0  0  0  0  0  0  0  0
   -0.2014    3.6439   -2.1119 C   0  0  0  0  0  0  0  0  0  0  0  0
   -0.1788    2.5043   -4.6581 C   0  0  0  0  0  0  0  0  0  0  0  0
   -0.8453    4.2865   -3.1693 C   0  0  0  0  0  0  0  0  0  0  0  0
   -0.8341    3.7166   -4.4424 C   0  0  0  0  0  0  0  0  0  0  0  0
   -1.6531    1.4091   -0.4852 H   0  0  0  0  0  0  0  0  0  0  0  0
   -0.0413   -0.0872   -1.3411 H   0  0  0  0  0  0  0  0  0  0  0  0
    2.1185    1.3451   -1.5227 H   0  0  0  0  0  0  0  0  0  0  0  0
    1.3951    2.4894   -0.4218 H   0  0  0  0  0  0  0  0  0  0  0  0
    0.9730    0.9174   -3.7780 H   0  0  0  0  0  0  0  0  0  0  0  0
   -0.2155    4.0953   -1.1233 H   0  0  0  0  0  0  0  0  0  0  0  0
   -0.1690    2.0610   -5.6496 H   0  0  0  0  0  0  0  0  0  0  0  0
   -1.3545    5.2309   -3.0012 H   0  0  0  0  0  0  0  0  0  0  0  0
   -1.3343    4.2175   -5.2662 H   0  0  0  0  0  0  0  0  0  0  0  0
    2.0907   -0.9536   -0.1191 N   0  0  0  0  0  0  0  0  0  0  0  0
    2.9838   -1.8011    0.6378 C   0  0  2  0  0  0  0  0  0  0  0  0
    3.6026   -0.9604    1.7468 C   0  0  0  0  0  0  0  0  0  0  0  0
    3.6784    0.2654    1.6964 O   0  0  0  0  0  0  0  0  0  0  0  0
    4.0596   -2.4050   -0.2513 C   0  0  0  0  0  0  0  0  0  0  0  0
    2.1784   -0.9424   -1.1310 H   0  0  0  0  0  0  0  0  0  0  0  0
    2.3696   -2.5936    1.0790 H   0  0  0  0  0  0  0  0  0  0  0  0
    4.6852   -1.6260   -0.7023 H   0  0  0  0  0  0  0  0  0  0  0  0
    4.7182   -3.0692    0.3181 H   0  0  0  0  0  0  0  0  0  0  0  0
    3.6121   -2.9847   -1.0658 H   0  0  0  0  0  0  0  0  0  0  0  0
    4.0991   -1.7432    2.7797 N   0  0  0  0  0  0  0  0  0  0  0  0
    4.7454   -1.1810    3.9426 C   0  0  0  0  0  0  0  0  0  0  0  0
    3.9757   -2.7508    2.7469 H   0  0  0  0  0  0  0  0  0  0  0  0
    5.8314   -1.1358    3.7732 H   0  0  0  0  0  0  0  0  0  0  0  0
    4.3599   -0.1664    4.1216 H   0  0  0  0  0  0  0  0  0  0  0  0
    4.5371   -1.8124    4.8189 H   0  0  0  0  0  0  0  0  0  0  0  0
 25 27  1  0  0  0  0
 26 27  2  0  0  0  0
 23 25  2  0  0  0  0
 24 26  1  0  0  0  0
 22 23  1  0  0  0  0
 22 24  2  0  0  0  0
 21 22  1  0  0  0  0
  1  3  1  0  0  0  0
  1  7  1  0  0  0  0
  1  2  2  0  0  0  0
 38 39  1  0  0  0  0
 39 47  1  0  0  0  0
 39 40  2  0  0  0  0
  8  9  1  0  0  0  0
  9 17  1  0  0  0  0
  9 10  2  0  0  0  0
 18 19  1  0  0  0  0
 19 37  1  0  0  0  0
 19 20  2  0  0  0  0
 38 41  1  0  0  0  0
  8 11  1  0  0  0  0
 47 48  1  0  0  0  0
 18 21  1  0  0  0  0
 37 38  1  0  0  0  0
  7  8  1  0  0  0  0
 17 18  1  0  0  0  0
 27 36  1  0  0  0  0
 25 34  1  0  0  0  0
 26 35  1  0  0  0  0
 23 32  1  0  0  0  0
 24 33  1  0  0  0  0
  3  4  1  0  0  0  0
  3  5  1  0  0  0  0
  3  6  1  0  0  0  0
 41 44  1  0  0  0  0
 41 45  1  0  0  0  0
 41 46  1  0  0  0  0
 11 14  1  0  0  0  0
 11 15  1  0  0  0  0
 11 16  1  0  0  0  0
 48 50  1  0  0  0  0
 48 51  1  0  0  0  0
 48 52  1  0  0  0  0
 21 30  1  0  0  0  0
 21 31  1  0  0  0  0
 38 43  1  0  0  0  0
  8 13  1  0  0  0  0
 18 29  1  0  0  0  0
 47 49  1  0  0  0  0
  7 12  1  0  0  0  0
 37 42  1  0  0  0  0
 17 28  1  0  0  0  0
M  END
$$$$

  -OEChem-05262214473D

 52 52  0     1  0  0  0  0  0999 V2000
   -1.8248    0.3424    3.9102 C   0  0  0  0  0  0  0  0  0  0  0  0
   -0.8774   -0.2723    3.4345 O   0  0  0  0  0  0  0  0  0  0  0  0
   -2.2566    0.0600    5.3109 C   0  0  0  0  0  0  0  0  0  0  0  0
   -3.0163   -0.7363    5.3643 H   0  0  0  0  0  0  0  0  0  0  0  0
   -1.4254   -0.2876    5.9452 H   0  0  0  0  0  0  0  0  0  0  0  0
   -2.6947    0.9149    5.8505 H   0  0  0  0  0  0  0  0  0  0  0  0
   -2.5745    1.3149    3.2691 N   0  0  0  0  0  0  0  0  0  0  0  0
   -2.3276    1.7409    1.9167 C   0  0  2  0  0  0  0  0  0  0  0  0
   -0.9926    1.1555    1.4755 C   0  0  0  0  0  0  0  0  0  0  0  0
   -0.1206    0.8028    2.2668 O   0  0  0  0  0  0  0  0  0  0  0  0
   -2.3188    3.2577    1.8072 C   0  0  0  0  0  0  0  0  0  0  0  0
   -3.3395    1.7507    3.7809 H   0  0  0  0  0  0  0  0  0  0  0  0
   -3.1317    1.3224    1.3015 H   0  0  0  0  0  0  0  0  0  0  0  0
   -1.5198    3.6949    2.4169 H   0  0  0  0  0  0  0  0  0  0  0  0
   -2.1594    3.5799    0.7729 H   0  0  0  0  0  0  0  0  0  0  0  0
   -3.2690    3.6789    2.1530 H   0  0  0  0  0  0  0  0  0  0  0  0
   -0.8700    1.1124    0.0921 N   0  0  0  0  0  0  0  0  0  0  0  0
    0.3073    0.6116   -0.5716 C   0  0  2  0  0  0  0  0  0  0  0  0
    0.9194   -0.4498    0.3356 C   0  0  0  0  0  0  0  0  0  0  0  0
    0.4127   -0.7914    1.4022 O   0  0  0  0  0  0  0  0  0  0  0  0
    1.3266    1.7204   -0.8575 C   0  0  0  0  0  0  0  0  0  0  0  0
    0.8319    2.7199   -1.8744 C   0  0  0  0  0  0  0  0  0  0  0  0
    0.9115    2.4279   -3.2361 C   0  0  0  0  0  0  0  0  0  0  0  0
    0.2947    3.9359   -1.4521 C   0  0  0  0  0  0  0  0  0  0  0  0
    0.4539    3.3519   -4.1754 C   0  0  0  0  0  0  0  0  0  0  0  0
   -0.1629    4.8599   -2.3915 C   0  0  0  0  0  0  0  0  0  0  0  0
   -0.0834    4.5679   -3.7531 C   0  0  0  0  0  0  0  0  0  0  0  0
   -1.6531    1.4091   -0.4852 H   0  0  0  0  0  0  0  0  0  0  0  0
   -0.0348    0.1372   -1.4989 H   0  0  0  0  0  0  0  0  0  0  0  0
    2.2760    1.2857   -1.1984 H   0  0  0  0  0  0  0  0  0  0  0  0
    1.5730    2.2622    0.0653 H   0  0  0  0  0  0  0  0  0  0  0  0
    1.3284    1.4829   -3.5743 H   0  0  0  0  0  0  0  0  0  0  0  0
    0.2286    4.1719   -0.3933 H   0  0  0  0  0  0  0  0  0  0  0  0
    0.5169    3.1248   -5.2357 H   0  0  0  0  0  0  0  0  0  0  0  0
   -0.5801    5.8070   -2.0624 H   0  0  0  0  0  0  0  0  0  0  0  0
   -0.4384    5.2879   -4.4847 H   0  0  0  0  0  0  0  0  0  0  0  0
    2.0685   -1.0022   -0.2128 N   0  0  0  0  0  0  0  0  0  0  0  0
    2.8323   -2.0465    0.4313 C   0  0  2  0  0  0  0  0  0  0  0  0
    3.0972   -1.6174    1.8683 C   0  0  0  0  0  0  0  0  0  0  0  0
    3.0725   -0.4438    2.2333 O   0  0  0  0  0  0  0  0  0  0  0  0
    4.1358   -2.3132   -0.3054 C   0  0  0  0  0  0  0  0  0  0  0  0
    2.3888   -0.6550   -1.1120 H   0  0  0  0  0  0  0  0  0  0  0  0
    2.2056   -2.9450    0.4274 H   0  0  0  0  0  0  0  0  0  0  0  0
    4.7770   -1.4242   -0.3120 H   0  0  0  0  0  0  0  0  0  0  0  0
    4.6999   -3.1241    0.1672 H   0  0  0  0  0  0  0  0  0  0  0  0
    3.9446   -2.5928   -1.3471 H   0  0  0  0  0  0  0  0  0  0  0  0
    3.4068   -2.6951    2.6862 N   0  0  0  0  0  0  0  0  0  0  0  0
    3.7106   -2.5463    4.0903 C   0  0  0  0  0  0  0  0  0  0  0  0
    3.3852   -3.6356    2.3030 H   0  0  0  0  0  0  0  0  0  0  0  0
    4.7975   -2.4397    4.2215 H   0  0  0  0  0  0  0  0  0  0  0  0
    3.2046   -1.6516    4.4820 H   0  0  0  0  0  0  0  0  0  0  0  0
    3.3607   -3.4343    4.6371 H   0  0  0  0  0  0  0  0  0  0  0  0
 25 27  1  0  0  0  0
 26 27  2  0  0  0  0
 23 25  2  0  0  0  0
 24 26  1  0  0  0  0
 22 23  1  0  0  0  0
 22 24  2  0  0  0  0
 21 22  1  0  0  0  0
  1  3  1  0  0  0  0
  1  7  1  0  0  0  0
  1  2  2  0  0  0  0
 38 39  1  0  0  0  0
 39 47  1  0  0  0  0
 39 40  2  0  0  0  0
  8  9  1  0  0  0  0
  9 17  1  0  0  0  0
  9 10  2  0  0  0  0
 18 19  1  0  0  0  0
 19 37  1  0  0  0  0
 19 20  2  0  0  0  0
 38 41  1  0  0  0  0
  8 11  1  0  0  0  0
 47 48  1  0  0  0  0
 18 21  1  0  0  0  0
 37 38  1  0  0  0  0
  7  8  1  0  0  0  0
 17 18  1  0  0  0  0
 27 36  1  0  0  0  0
 25 34  1  0  0  0  0
 26 35  1  0  0  0  0
 23 32  1  0  0  0  0
 24 33  1  0  0  0  0
  3  4  1  0  0  0  0
  3  5  1  0  0  0  0
  3  6  1  0  0  0  0
 41 44  1  0  0  0  0
 41 45  1  0  0  0  0
 41 46  1  0  0  0  0
 11 14  1  0  0  0  0
 11 15  1  0  0  0  0
 11 16  1  0  0  0  0
 48 50  1  0  0  0  0
 48 51  1  0  0  0  0
 48 52  1  0  0  0  0
 21 30  1  0  0  0  0
 21 31  1  0  0  0  0
 38 43  1  0  0  0  0
  8 13  1  0  0  0  0
 18 29  1  0  0  0  0
 47 49  1  0  0  0  0
  7 12  1  0  0  0  0
 37 42  1  0  0  0  0
 17 28  1  0  0  0  0
M  END
$$$$

  -OEChem-05262214473D

 52 52  0     1  0  0  0  0  0999 V2000
   -1.8248    0.3424    3.9102 C   0  0  0  0  0  0  0  0  0  0  0  0
   -0.8774   -0.2723    3.4345 O   0  0  0  0  0  0  0  0  0  0  0  0
   -2.2566    0.0600    5.3109 C   0  0  0  0  0  0  0  0  0  0  0  0
   -3.0163   -0.7363    5.3643 H   0  0  0  0  0  0  0  0  0  0  0  0
   -1.4254   -0.2876    5.9452 H   0  0  0  0  0  0  0  0  0  0  0  0
   -2.6947    0.9149    5.8505 H   0  0  0  0  0  0  0  0  0  0  0  0
   -2.5745    1.3149    3.2691 N   0  0  0  0  0  0  0  0  0  0  0  0
   -2.3276    1.7409    1.9167 C   0  0  2  0  0  0  0  0  0  0  0  0
   -0.9926    1.1555    1.4755 C   0  0  0  0  0  0  0  0  0  0  0  0
   -0.1206    0.8028    2.2668 O   0  0  0  0  0  0  0  0  0  0  0  0
   -2.3188    3.2577    1.8072 C   0  0  0  0  0  0  0  0  0  0  0  0
   -3.3395    1.7507    3.7809 H   0  0  0  0  0  0  0  0  0  0  0  0
   -3.1317    1.3224    1.3015 H   0  0  0  0  0  0  0  0  0  0  0  0
   -1.5198    3.6949    2.4169 H   0  0  0  0  0  0  0  0  0  0  0  0
   -2.1594    3.5799    0.7729 H   0  0  0  0  0  0  0  0  0  0  0  0
   -3.2690    3.6789    2.1530 H   0  0  0  0  0  0  0  0  0  0  0  0
   -0.8700    1.1124    0.0921 N   0  0  0  0  0  0  0  0  0  0  0  0
    0.3073    0.6116   -0.5716 C   0  0  2  0  0  0  0  0  0  0  0  0
    0.9194   -0.4498    0.3356 C   0  0  0  0  0  0  0  0  0  0  0  0
    0.2996   -0.9845    1.2526 O   0  0  0  0  0  0  0  0  0  0  0  0
    1.3266    1.7204   -0.8575 C   0  0  0  0  0  0  0  0  0  0  0  0
    0.8319    2.7199   -1.8744 C   0  0  0  0  0  0  0  0  0  0  0  0
    0.9115    2.4279   -3.2361 C   0  0  0  0  0  0  0  0  0  0  0  0
    0.2947    3.9359   -1.4521 C   0  0  0  0  0  0  0  0  0  0  0  0
    0.4539    3.3519   -4.1754 C   0  0  0  0  0  0  0  0  0  0  0  0
   -0.1629    4.8599   -2.3915 C   0  0  0  0  0  0  0  0  0  0  0  0
   -0.0834    4.5679   -3.7531 C   0  0  0  0  0  0  0  0  0  0  0  0
   -1.6531    1.4091   -0.4852 H   0  0  0  0  0  0  0  0  0  0  0  0
   -0.0348    0.1372   -1.4989 H   0  0  0  0  0  0  0  0  0  0  0  0
    2.2760    1.2857   -1.1984 H   0  0  0  0  0  0  0  0  0  0  0  0
    1.5730    2.2622    0.0653 H   0  0  0  0  0  0  0  0  0  0  0  0
    1.3284    1.4829   -3.5743 H   0  0  0  0  0  0  0  0  0  0  0  0
    0.2286    4.1719   -0.3933 H   0  0  0  0  0  0  0  0  0  0  0  0
    0.5169    3.1248   -5.2357 H   0  0  0  0  0  0  0  0  0  0  0  0
   -0.5801    5.8070   -2.0624 H   0  0  0  0  0  0  0  0  0  0  0  0
   -0.4384    5.2879   -4.4847 H   0  0  0  0  0  0  0  0  0  0  0  0
    2.2204   -0.7617   -0.0339 N   0  0  0  0  0  0  0  0  0  0  0  0
    3.0223   -1.7533    0.6461 C   0  0  2  0  0  0  0  0  0  0  0  0
    2.9622   -1.4631    2.1399 C   0  0  0  0  0  0  0  0  0  0  0  0
    2.6835   -0.3568    2.5976 O   0  0  0  0  0  0  0  0  0  0  0  0
    4.4589   -1.7401    0.1472 C   0  0  0  0  0  0  0  0  0  0  0  0
    2.6294   -0.2682   -0.8218 H   0  0  0  0  0  0  0  0  0  0  0  0
    2.5611   -2.7261    0.4436 H   0  0  0  0  0  0  0  0  0  0  0  0
    4.9375   -0.7733    0.3413 H   0  0  0  0  0  0  0  0  0  0  0  0
    5.0581   -2.5110    0.6428 H   0  0  0  0  0  0  0  0  0  0  0  0
    4.4981   -1.9194   -0.9327 H   0  0  0  0  0  0  0  0  0  0  0  0
    3.2985   -2.5737    2.9013 N   0  0  0  0  0  0  0  0  0  0  0  0
    3.3277   -2.5493    4.3451 C   0  0  0  0  0  0  0  0  0  0  0  0
    3.4972   -3.4555    2.4380 H   0  0  0  0  0  0  0  0  0  0  0  0
    4.3436   -2.3030    4.6877 H   0  0  0  0  0  0  0  0  0  0  0  0
    2.6225   -1.7896    4.7132 H   0  0  0  0  0  0  0  0  0  0  0  0
    3.0390   -3.5368    4.7343 H   0  0  0  0  0  0  0  0  0  0  0  0
 25 27  1  0  0  0  0
 26 27  2  0  0  0  0
 23 25  2  0  0  0  0
 24 26  1  0  0  0  0
 22 23  1  0  0  0  0
 22 24  2  0  0  0  0
 21 22  1  0  0  0  0
  1  3  1  0  0  0  0
  1  7  1  0  0  0  0
  1  2  2  0  0  0  0
 38 39  1  0  0  0  0
 39 47  1  0  0  0  0
 39 40  2  0  0  0  0
  8  9  1  0  0  0  0
  9 17  1  0  0  0  0
  9 10  2  0  0  0  0
 18 19  1  0  0  0  0
 19 37  1  0  0  0  0
 19 20  2  0  0  0  0
 38 41  1  0  0  0  0
  8 11  1  0  0  0  0
 47 48  1  0  0  0  0
 18 21  1  0  0  0  0
 37 38  1  0  0  0  0
  7  8  1  0  0  0  0
 17 18  1  0  0  0  0
 27 36  1  0  0  0  0
 25 34  1  0  0  0  0
 26 35  1  0  0  0  0
 23 32  1  0  0  0  0
 24 33  1  0  0  0  0
  3  4  1  0  0  0  0
  3  5  1  0  0  0  0
  3  6  1  0  0  0  0
 41 44  1  0  0  0  0
 41 45  1  0  0  0  0
 41 46  1  0  0  0  0
 11 14  1  0  0  0  0
 11 15  1  0  0  0  0
 11 16  1  0  0  0  0
 48 50  1  0  0  0  0
 48 51  1  0  0  0  0
 48 52  1  0  0  0  0
 21 30  1  0  0  0  0
 21 31  1  0  0  0  0
 38 43  1  0  0  0  0
  8 13  1  0  0  0  0
 18 29  1  0  0  0  0
 47 49  1  0  0  0  0
  7 12  1  0  0  0  0
 37 42  1  0  0  0  0
 17 28  1  0  0  0  0
M  END
$$$$

  -OEChem-05262214473D

 52 52  0     1  0  0  0  0  0999 V2000
   -1.8248    0.3424    3.9102 C   0  0  0  0  0  0  0  0  0  0  0  0
   -0.8774   -0.2723    3.4345 O   0  0  0  0  0  0  0  0  0  0  0  0
   -2.2566    0.0600    5.3109 C   0  0  0  0  0  0  0  0  0  0  0  0
   -3.0163   -0.7363    5.3643 H   0  0  0  0  0  0  0  0  0  0  0  0
   -1.4254   -0.2876    5.9452 H   0  0  0  0  0  0  0  0  0  0  0  0
   -2.6947    0.9149    5.8505 H   0  0  0  0  0  0  0  0  0  0  0  0
   -2.5745    1.3149    3.2691 N   0  0  0  0  0  0  0  0  0  0  0  0
   -2.3276    1.7409    1.9167 C   0  0  2  0  0  0  0  0  0  0  0  0
   -0.9926    1.1555    1.4755 C   0  0  0  0  0  0  0  0  0  0  0  0
   -0.1206    0.8028    2.2668 O   0  0  0  0  0  0  0  0  0  0  0  0
   -2.3188    3.2577    1.8072 C   0  0  0  0  0  0  0  0  0  0  0  0
   -3.3395    1.7507    3.7809 H   0  0  0  0  0  0  0  0  0  0  0  0
   -3.1317    1.3224    1.3015 H   0  0  0  0  0  0  0  0  0  0  0  0
   -1.5198    3.6949    2.4169 H   0  0  0  0  0  0  0  0  0  0  0  0
   -2.1594    3.5799    0.7729 H   0  0  0  0  0  0  0  0  0  0  0  0
   -3.2690    3.6789    2.1530 H   0  0  0  0  0  0  0  0  0  0  0  0
   -0.8700    1.1124    0.0921 N   0  0  0  0  0  0  0  0  0  0  0  0
    0.3073    0.6116   -0.5716 C   0  0  2  0  0  0  0  0  0  0  0  0
    0.9194   -0.4498    0.3356 C   0  0  0  0  0  0  0  0  0  0  0  0
    0.2470   -1.1729    1.0677 O   0  0  0  0  0  0  0  0  0  0  0  0
    1.3266    1.7204   -0.8575 C   0  0  0  0  0  0  0  0  0  0  0  0
    0.8319    2.7199   -1.8744 C   0  0  0  0  0  0  0  0  0  0  0  0
    0.9115    2.4279   -3.2361 C   0  0  0  0  0  0  0  0  0  0  0  0
    0.2947    3.9359   -1.4521 C   0  0  0  0  0  0  0  0  0  0  0  0
    0.4539    3.3519   -4.1754 C   0  0  0  0  0  0  0  0  0  0  0  0
   -0.1629    4.8599   -2.3915 C   0  0  0  0  0  0  0  0  0  0  0  0
   -0.0834    4.5679   -3.7531 C   0  0  0  0  0  0  0  0  0  0  0  0
   -1.6531    1.4091   -0.4852 H   0  0  0  0  0  0  0  0  0  0  0  0
   -0.0348    0.1372   -1.4989 H   0  0  0  0  0  0  0  0  0  0  0  0
    2.2760    1.2857   -1.1984 H   0  0  0  0  0  0  0  0  0  0  0  0
    1.5730    2.2622    0.0653 H   0  0  0  0  0  0  0  0  0  0  0  0
    1.3284    1.4829   -3.5743 H   0  0  0  0  0  0  0  0  0  0  0  0
    0.2286    4.1719   -0.3933 H   0  0  0  0  0  0  0  0  0  0  0  0
    0.5169    3.1248   -5.2357 H   0  0  0  0  0  0  0  0  0  0  0  0
   -0.5801    5.8070   -2.0624 H   0  0  0  0  0  0  0  0  0  0  0  0
   -0.4384    5.2879   -4.4847 H   0  0  0  0  0  0  0  0  0  0  0  0
    2.2978   -0.5246    0.1913 N   0  0  0  0  0  0  0  0  0  0  0  0
    3.1220   -1.4632    0.9182 C   0  0  2  0  0  0  0  0  0  0  0  0
    2.7591   -1.3631    2.3940 C   0  0  0  0  0  0  0  0  0  0  0  0
    2.2287   -0.3705    2.8884 O   0  0  0  0  0  0  0  0  0  0  0  0
    4.6011   -1.1837    0.7021 C   0  0  0  0  0  0  0  0  0  0  0  0
    2.7500    0.1123   -0.4580 H   0  0  0  0  0  0  0  0  0  0  0  0
    2.8679   -2.4617    0.5460 H   0  0  0  0  0  0  0  0  0  0  0  0
    4.8746   -0.1877    1.0689 H   0  0  0  0  0  0  0  0  0  0  0  0
    5.2241   -1.9130    1.2304 H   0  0  0  0  0  0  0  0  0  0  0  0
    4.8544   -1.2268   -0.3627 H   0  0  0  0  0  0  0  0  0  0  0  0
    3.1364   -2.4954    3.1022 N   0  0  0  0  0  0  0  0  0  0  0  0
    2.9124   -2.6377    4.5219 C   0  0  0  0  0  0  0  0  0  0  0  0
    3.5534   -3.2784    2.6074 H   0  0  0  0  0  0  0  0  0  0  0  0
    3.8000   -2.2893    5.0704 H   0  0  0  0  0  0  0  0  0  0  0  0
    2.0397   -2.0367    4.8173 H   0  0  0  0  0  0  0  0  0  0  0  0
    2.7265   -3.6955    4.7595 H   0  0  0  0  0  0  0  0  0  0  0  0
 25 27  1  0  0  0  0
 26 27  2  0  0  0  0
 23 25  2  0  0  0  0
 24 26  1  0  0  0  0
 22 23  1  0  0  0  0
 22 24  2  0  0  0  0
 21 22  1  0  0  0  0
  1  3  1  0  0  0  0
  1  7  1  0  0  0  0
  1  2  2  0  0  0  0
 38 39  1  0  0  0  0
 39 47  1  0  0  0  0
 39 40  2  0  0  0  0
  8  9  1  0  0  0  0
  9 17  1  0  0  0  0
  9 10  2  0  0  0  0
 18 19  1  0  0  0  0
 19 37  1  0  0  0  0
 19 20  2  0  0  0  0
 38 41  1  0  0  0  0
  8 11  1  0  0  0  0
 47 48  1  0  0  0  0
 18 21  1  0  0  0  0
 37 38  1  0  0  0  0
  7  8  1  0  0  0  0
 17 18  1  0  0  0  0
 27 36  1  0  0  0  0
 25 34  1  0  0  0  0
 26 35  1  0  0  0  0
 23 32  1  0  0  0  0
 24 33  1  0  0  0  0
  3  4  1  0  0  0  0
  3  5  1  0  0  0  0
  3  6  1  0  0  0  0
 41 44  1  0  0  0  0
 41 45  1  0  0  0  0
 41 46  1  0  0  0  0
 11 14  1  0  0  0  0
 11 15  1  0  0  0  0
 11 16  1  0  0  0  0
 48 50  1  0  0  0  0
 48 51  1  0  0  0  0
 48 52  1  0  0  0  0
 21 30  1  0  0  0  0
 21 31  1  0  0  0  0
 38 43  1  0  0  0  0
  8 13  1  0  0  0  0
 18 29  1  0  0  0  0
 47 49  1  0  0  0  0
  7 12  1  0  0  0  0
 37 42  1  0  0  0  0
 17 28  1  0  0  0  0
M  END
$$$$

  -OEChem-05262214473D

 52 52  0     1  0  0  0  0  0999 V2000
   -1.8248    0.3424    3.9102 C   0  0  0  0  0  0  0  0  0  0  0  0
   -0.8774   -0.2723    3.4345 O   0  0  0  0  0  0  0  0  0  0  0  0
   -2.2566    0.0600    5.3109 C   0  0  0  0  0  0  0  0  0  0  0  0
   -3.0163   -0.7363    5.3643 H   0  0  0  0  0  0  0  0  0  0  0  0
   -1.4254   -0.2876    5.9452 H   0  0  0  0  0  0  0  0  0  0  0  0
   -2.6947    0.9149    5.8505 H   0  0  0  0  0  0  0  0  0  0  0  0
   -2.5745    1.3149    3.2691 N   0  0  0  0  0  0  0  0  0  0  0  0
   -2.3276    1.7409    1.9167 C   0  0  2  0  0  0  0  0  0  0  0  0
   -0.9926    1.1555    1.4755 C   0  0  0  0  0  0  0  0  0  0  0  0
   -0.1206    0.8028    2.2668 O   0  0  0  0  0  0  0  0  0  0  0  0
   -2.3188    3.2577    1.8072 C   0  0  0  0  0  0  0  0  0  0  0  0
   -3.3395    1.7507    3.7809 H   0  0  0  0  0  0  0  0  0  0  0  0
   -3.1317    1.3224    1.3015 H   0  0  0  0  0  0  0  0  0  0  0  0
   -1.5198    3.6949    2.4169 H   0  0  0  0  0  0  0  0  0  0  0  0
   -2.1594    3.5799    0.7729 H   0  0  0  0  0  0  0  0  0  0  0  0
   -3.2690    3.6789    2.1530 H   0  0  0  0  0  0  0  0  0  0  0  0
   -0.8700    1.1124    0.0921 N   0  0  0  0  0  0  0  0  0  0  0  0
    0.3073    0.6116   -0.5716 C   0  0  2  0  0  0  0  0  0  0  0  0
    0.9194   -0.4498    0.3356 C   0  0  0  0  0  0  0  0  0  0  0  0
    0.2585   -1.3437    0.8600 O   0  0  0  0  0  0  0  0  0  0  0  0
    1.3266    1.7204   -0.8575 C   0  0  0  0  0  0  0  0  0  0  0  0
    0.8319    2.7199   -1.8744 C   0  0  0  0  0  0  0  0  0  0  0  0
    0.9115    2.4279   -3.2361 C   0  0  0  0  0  0  0  0  0  0  0  0
    0.2947    3.9359   -1.4521 C   0  0  0  0  0  0  0  0  0  0  0  0
    0.4539    3.3519   -4.1754 C   0  0  0  0  0  0  0  0  0  0  0  0
   -0.1629    4.8599   -2.3915 C   0  0  0  0  0  0  0  0  0  0  0  0
   -0.0834    4.5679   -3.7531 C   0  0  0  0  0  0  0  0  0  0  0  0
   -1.6531    1.4091   -0.4852 H   0  0  0  0  0  0  0  0  0  0  0  0
   -0.0348    0.1372   -1.4989 H   0  0  0  0  0  0  0  0  0  0  0  0
    2.2760    1.2857   -1.1984 H   0  0  0  0  0  0  0  0  0  0  0  0
    1.5730    2.2622    0.0653 H   0  0  0  0  0  0  0  0  0  0  0  0
    1.3284    1.4829   -3.5743 H   0  0  0  0  0  0  0  0  0  0  0  0
    0.2286    4.1719   -0.3933 H   0  0  0  0  0  0  0  0  0  0  0  0
    0.5169    3.1248   -5.2357 H   0  0  0  0  0  0  0  0  0  0  0  0
   -0.5801    5.8070   -2.0624 H   0  0  0  0  0  0  0  0  0  0  0  0
   -0.4384    5.2879   -4.4847 H   0  0  0  0  0  0  0  0  0  0  0  0
    2.2954   -0.3071    0.4473 N   0  0  0  0  0  0  0  0  0  0  0  0
    3.1245   -1.1959    1.2293 C   0  0  2  0  0  0  0  0  0  0  0  0
    2.5017   -1.3241    2.6132 C   0  0  0  0  0  0  0  0  0  0  0  0
    1.7391   -0.4840    3.0860 O   0  0  0  0  0  0  0  0  0  0  0  0
    4.5529   -0.6821    1.3215 C   0  0  0  0  0  0  0  0  0  0  0  0
    2.7423    0.4606   -0.0453 H   0  0  0  0  0  0  0  0  0  0  0  0
    3.1050   -2.1696    0.7277 H   0  0  0  0  0  0  0  0  0  0  0  0
    4.5925    0.2927    1.8212 H   0  0  0  0  0  0  0  0  0  0  0  0
    5.1864   -1.3709    1.8901 H   0  0  0  0  0  0  0  0  0  0  0  0
    4.9891   -0.5622    0.3239 H   0  0  0  0  0  0  0  0  0  0  0  0
    2.9316   -2.4657    3.2752 N   0  0  0  0  0  0  0  0  0  0  0  0
    2.4930   -2.8053    4.6087 C   0  0  0  0  0  0  0  0  0  0  0  0
    3.5498   -3.1162    2.7995 H   0  0  0  0  0  0  0  0  0  0  0  0
    3.2039   -2.3996    5.3435 H   0  0  0  0  0  0  0  0  0  0  0  0
    1.4962   -2.3759    4.7872 H   0  0  0  0  0  0  0  0  0  0  0  0
    2.4445   -3.8995    4.7110 H   0  0  0  0  0  0  0  0  0  0  0  0
 25 27  1  0  0  0  0
 26 27  2  0  0  0  0
 23 25  2  0  0  0  0
 24 26  1  0  0  0  0
 22 23  1  0  0  0  0
 22 24  2  0  0  0  0
 21 22  1  0  0  0  0
  1  3  1  0  0  0  0
  1  7  1  0  0  0  0
  1  2  2  0  0  0  0
 38 39  1  0  0  0  0
 39 47  1  0  0  0  0
 39 40  2  0  0  0  0
  8  9  1  0  0  0  0
  9 17  1  0  0  0  0
  9 10  2  0  0  0  0
 18 19  1  0  0  0  0
 19 37  1  0  0  0  0
 19 20  2  0  0  0  0
 38 41  1  0  0  0  0
  8 11  1  0  0  0  0
 47 48  1  0  0  0  0
 18 21  1  0  0  0  0
 37 38  1  0  0  0  0
  7  8  1  0  0  0  0
 17 18  1  0  0  0  0
 27 36  1  0  0  0  0
 25 34  1  0  0  0  0
 26 35  1  0  0  0  0
 23 32  1  0  0  0  0
 24 33  1  0  0  0  0
  3  4  1  0  0  0  0
  3  5  1  0  0  0  0
  3  6  1  0  0  0  0
 41 44  1  0  0  0  0
 41 45  1  0  0  0  0
 41 46  1  0  0  0  0
 11 14  1  0  0  0  0
 11 15  1  0  0  0  0
 11 16  1  0  0  0  0
 48 50  1  0  0  0  0
 48 51  1  0  0  0  0
 48 52  1  0  0  0  0
 21 30  1  0  0  0  0
 21 31  1  0  0  0  0
 38 43  1  0  0  0  0
  8 13  1  0  0  0  0
 18 29  1  0  0  0  0
 47 49  1  0  0  0  0
  7 12  1  0  0  0  0
 37 42  1  0  0  0  0
 17 28  1  0  0  0  0
M  END
$$$$

  -OEChem-05262214473D

 52 52  0     1  0  0  0  0  0999 V2000
   -1.8248    0.3424    3.9102 C   0  0  0  0  0  0  0  0  0  0  0  0
   -0.8774   -0.2723    3.4345 O   0  0  0  0  0  0  0  0  0  0  0  0
   -2.2566    0.0600    5.3109 C   0  0  0  0  0  0  0  0  0  0  0  0
   -3.0163   -0.7363    5.3643 H   0  0  0  0  0  0  0  0  0  0  0  0
   -1.4254   -0.2876    5.9452 H   0  0  0  0  0  0  0  0  0  0  0  0
   -2.6947    0.9149    5.8505 H   0  0  0  0  0  0  0  0  0  0  0  0
   -2.5745    1.3149    3.2691 N   0  0  0  0  0  0  0  0  0  0  0  0
   -2.3276    1.7409    1.9167 C   0  0  2  0  0  0  0  0  0  0  0  0
   -0.9926    1.1555    1.4755 C   0  0  0  0  0  0  0  0  0  0  0  0
   -0.1206    0.8028    2.2668 O   0  0  0  0  0  0  0  0  0  0  0  0
   -2.3188    3.2577    1.8072 C   0  0  0  0  0  0  0  0  0  0  0  0
   -3.3395    1.7507    3.7809 H   0  0  0  0  0  0  0  0  0  0  0  0
   -3.1317    1.3224    1.3015 H   0  0  0  0  0  0  0  0  0  0  0  0
   -1.5198    3.6949    2.4169 H   0  0  0  0  0  0  0  0  0  0  0  0
   -2.1594    3.5799    0.7729 H   0  0  0  0  0  0  0  0  0  0  0  0
   -3.2690    3.6789    2.1530 H   0  0  0  0  0  0  0  0  0  0  0  0
   -0.8700    1.1124    0.0921 N   0  0  0  0  0  0  0  0  0  0  0  0
    0.3073    0.6116   -0.5716 C   0  0  2  0  0  0  0  0  0  0  0  0
    0.9194   -0.4498    0.3356 C   0  0  0  0  0  0  0  0  0  0  0  0
    0.3333   -1.4854    0.6438 O   0  0  0  0  0  0  0  0  0  0  0  0
    1.3266    1.7204   -0.8575 C   0  0  0  0  0  0  0  0  0  0  0  0
    0.8319    2.7199   -1.8744 C   0  0  0  0  0  0  0  0  0  0  0  0
    0.9115    2.4279   -3.2361 C   0  0  0  0  0  0  0  0  0  0  0  0
    0.2947    3.9359   -1.4521 C   0  0  0  0  0  0  0  0  0  0  0  0
    0.4539    3.3519   -4.1754 C   0  0  0  0  0  0  0  0  0  0  0  0
   -0.1629    4.8599   -2.3915 C   0  0  0  0  0  0  0  0  0  0  0  0
   -0.0834    4.5679   -3.7531 C   0  0  0  0  0  0  0  0  0  0  0  0
   -1.6531    1.4091   -0.4852 H   0  0  0  0  0  0  0  0  0  0  0  0
   -0.0348    0.1372   -1.4989 H   0  0  0  0  0  0  0  0  0  0  0  0
    2.2760    1.2857   -1.1984 H   0  0  0  0  0  0  0  0  0  0  0  0
    1.5730    2.2622    0.0653 H   0  0  0  0  0  0  0  0  0  0  0  0
    1.3284    1.4829   -3.5743 H   0  0  0  0  0  0  0  0  0  0  0  0
    0.2286    4.1719   -0.3933 H   0  0  0  0  0  0  0  0  0  0  0  0
    0.5169    3.1248   -5.2357 H   0  0  0  0  0  0  0  0  0  0  0  0
   -0.5801    5.8070   -2.0624 H   0  0  0  0  0  0  0  0  0  0  0  0
   -0.4384    5.2879   -4.4847 H   0  0  0  0  0  0  0  0  0  0  0  0
    2.2136   -0.1240    0.7168 N   0  0  0  0  0  0  0  0  0  0  0  0
    3.0298   -0.9696    1.5579 C   0  0  2  0  0  0  0  0  0  0  0  0
    2.2077   -1.3489    2.7825 C   0  0  0  0  0  0  0  0  0  0  0  0
    1.2481   -0.6895    3.1768 O   0  0  0  0  0  0  0  0  0  0  0  0
    4.3174   -0.2693    1.9633 C   0  0  0  0  0  0  0  0  0  0  0  0
    2.6069    0.7530    0.3882 H   0  0  0  0  0  0  0  0  0  0  0  0
    3.2564   -1.8699    0.9763 H   0  0  0  0  0  0  0  0  0  0  0  0
    4.1105    0.6351    2.5469 H   0  0  0  0  0  0  0  0  0  0  0  0
    4.9476   -0.9216    2.5768 H   0  0  0  0  0  0  0  0  0  0  0  0
    4.8932    0.0292    1.0806 H   0  0  0  0  0  0  0  0  0  0  0  0
    2.6980   -2.4864    3.4084 N   0  0  0  0  0  0  0  0  0  0  0  0
    2.0981   -3.0409    4.5995 C   0  0  0  0  0  0  0  0  0  0  0  0
    3.4868   -2.9801    3.0012 H   0  0  0  0  0  0  0  0  0  0  0  0
    2.5958   -2.6263    5.4885 H   0  0  0  0  0  0  0  0  0  0  0  0
    1.0288   -2.7841    4.6249 H   0  0  0  0  0  0  0  0  0  0  0  0
    2.2123   -4.1349    4.5922 H   0  0  0  0  0  0  0  0  0  0  0  0
 25 27  1  0  0  0  0
 26 27  2  0  0  0  0
 23 25  2  0  0  0  0
 24 26  1  0  0  0  0
 22 23  1  0  0  0  0
 22 24  2  0  0  0  0
 21 22  1  0  0  0  0
  1  3  1  0  0  0  0
  1  7  1  0  0  0  0
  1  2  2  0  0  0  0
 38 39  1  0  0  0  0
 39 47  1  0  0  0  0
 39 40  2  0  0  0  0
  8  9  1  0  0  0  0
  9 17  1  0  0  0  0
  9 10  2  0  0  0  0
 18 19  1  0  0  0  0
 19 37  1  0  0  0  0
 19 20  2  0  0  0  0
 38 41  1  0  0  0  0
  8 11  1  0  0  0  0
 47 48  1  0  0  0  0
 18 21  1  0  0  0  0
 37 38  1  0  0  0  0
  7  8  1  0  0  0  0
 17 18  1  0  0  0  0
 27 36  1  0  0  0  0
 25 34  1  0  0  0  0
 26 35  1  0  0  0  0
 23 32  1  0  0  0  0
 24 33  1  0  0  0  0
  3  4  1  0  0  0  0
  3  5  1  0  0  0  0
  3  6  1  0  0  0  0
 41 44  1  0  0  0  0
 41 45  1  0  0  0  0
 41 46  1  0  0  0  0
 11 14  1  0  0  0  0
 11 15  1  0  0  0  0
 11 16  1  0  0  0  0
 48 50  1  0  0  0  0
 48 51  1  0  0  0  0
 48 52  1  0  0  0  0
 21 30  1  0  0  0  0
 21 31  1  0  0  0  0
 38 43  1  0  0  0  0
  8 13  1  0  0  0  0
 18 29  1  0  0  0  0
 47 49  1  0  0  0  0
  7 12  1  0  0  0  0
 37 42  1  0  0  0  0
 17 28  1  0  0  0  0
M  END
$$$$

  -OEChem-05262214473D

 52 52  0     1  0  0  0  0  0999 V2000
   -1.8248    0.3424    3.9102 C   0  0  0  0  0  0  0  0  0  0  0  0
   -0.8774   -0.2723    3.4345 O   0  0  0  0  0  0  0  0  0  0  0  0
   -2.2566    0.0600    5.3109 C   0  0  0  0  0  0  0  0  0  0  0  0
   -3.0163   -0.7363    5.3643 H   0  0  0  0  0  0  0  0  0  0  0  0
   -1.4254   -0.2876    5.9452 H   0  0  0  0  0  0  0  0  0  0  0  0
   -2.6947    0.9149    5.8505 H   0  0  0  0  0  0  0  0  0  0  0  0
   -2.5745    1.3149    3.2691 N   0  0  0  0  0  0  0  0  0  0  0  0
   -2.3276    1.7409    1.9167 C   0  0  2  0  0  0  0  0  0  0  0  0
   -0.9926    1.1555    1.4755 C   0  0  0  0  0  0  0  0  0  0  0  0
   -0.1206    0.8028    2.2668 O   0  0  0  0  0  0  0  0  0  0  0  0
   -2.3188    3.2577    1.8072 C   0  0  0  0  0  0  0  0  0  0  0  0
   -3.3395    1.7507    3.7809 H   0  0  0  0  0  0  0  0  0  0  0  0
   -3.1317    1.3224    1.3015 H   0  0  0  0  0  0  0  0  0  0  0  0
   -1.5198    3.6949    2.4169 H   0  0  0  0  0  0  0  0  0  0  0  0
   -2.1594    3.5799    0.7729 H   0  0  0  0  0  0  0  0  0  0  0  0
   -3.2690    3.6789    2.1530 H   0  0  0  0  0  0  0  0  0  0  0  0
   -0.8700    1.1124    0.0921 N   0  0  0  0  0  0  0  0  0  0  0  0
    0.3073    0.6116   -0.5716 C   0  0  2  0  0  0  0  0  0  0  0  0
    0.9194   -0.4498    0.3356 C   0  0  0  0  0  0  0  0  0  0  0  0
    0.4664   -1.5883    0.4336 O   0  0  0  0  0  0  0  0  0  0  0  0
    1.3266    1.7204   -0.8575 C   0  0  0  0  0  0  0  0  0  0  0  0
    0.8319    2.7199   -1.8744 C   0  0  0  0  0  0  0  0  0  0  0  0
    0.9115    2.4279   -3.2361 C   0  0  0  0  0  0  0  0  0  0  0  0
    0.2947    3.9359   -1.4521 C   0  0  0  0  0  0  0  0  0  0  0  0
    0.4539    3.3519   -4.1754 C   0  0  0  0  0  0  0  0  0  0  0  0
   -0.1629    4.8599   -2.3915 C   0  0  0  0  0  0  0  0  0  0  0  0
   -0.0834    4.5679   -3.7531 C   0  0  0  0  0  0  0  0  0  0  0  0
   -1.6531    1.4091   -0.4852 H   0  0  0  0  0  0  0  0  0  0  0  0
   -0.0348    0.1372   -1.4989 H   0  0  0  0  0  0  0  0  0  0  0  0
    2.2760    1.2857   -1.1984 H   0  0  0  0  0  0  0  0  0  0  0  0
    1.5730    2.2622    0.0653 H   0  0  0  0  0  0  0  0  0  0  0  0
    1.3284    1.4829   -3.5743 H   0  0  0  0  0  0  0  0  0  0  0  0
    0.2286    4.1719   -0.3933 H   0  0  0  0  0  0  0  0  0  0  0  0
    0.5169    3.1248   -5.2357 H   0  0  0  0  0  0  0  0  0  0  0  0
   -0.5801    5.8070   -2.0624 H   0  0  0  0  0  0  0  0  0  0  0  0
   -0.4384    5.2879   -4.4847 H   0  0  0  0  0  0  0  0  0  0  0  0
    2.0577    0.0123    0.9815 N   0  0  0  0  0  0  0  0  0  0  0  0
    2.8442   -0.7998    1.8818 C   0  0  2  0  0  0  0  0  0  0  0  0
    1.8969   -1.4358    2.8906 C   0  0  0  0  0  0  0  0  0  0  0  0
    0.7891   -0.9731    3.1546 O   0  0  0  0  0  0  0  0  0  0  0  0
    3.9108    0.0264    2.5836 C   0  0  0  0  0  0  0  0  0  0  0  0
    2.3529    0.9695    0.8128 H   0  0  0  0  0  0  0  0  0  0  0  0
    3.3116   -1.5829    1.2748 H   0  0  0  0  0  0  0  0  0  0  0  0
    3.4614    0.8162    3.1967 H   0  0  0  0  0  0  0  0  0  0  0  0
    4.5241   -0.5958    3.2437 H   0  0  0  0  0  0  0  0  0  0  0  0
    4.5731    0.5071    1.8556 H   0  0  0  0  0  0  0  0  0  0  0  0
    2.4516   -2.5563    3.4929 N   0  0  0  0  0  0  0  0  0  0  0  0
    1.7545   -3.3283    4.4950 C   0  0  0  0  0  0  0  0  0  0  0  0
    3.3686   -2.8793    3.1989 H   0  0  0  0  0  0  0  0  0  0  0  0
    2.0173   -2.9540    5.4954 H   0  0  0  0  0  0  0  0  0  0  0  0
    0.6694   -3.2335    4.3415 H   0  0  0  0  0  0  0  0  0  0  0  0
    2.0457   -4.3858    4.4112 H   0  0  0  0  0  0  0  0  0  0  0  0
 25 27  1  0  0  0  0
 26 27  2  0  0  0  0
 23 25  2  0  0  0  0
 24 26  1  0  0  0  0
 22 23  1  0  0  0  0
 22 24  2  0  0  0  0
 21 22  1  0  0  0  0
  1  3  1  0  0  0  0
  1  7  1  0  0  0  0
  1  2  2  0  0  0  0
 38 39  1  0  0  0  0
 39 47  1  0  0  0  0
 39 40  2  0  0  0  0
  8  9  1  0  0  0  0
  9 17  1  0  0  0  0
  9 10  2  0  0  0  0
 18 19  1  0  0  0  0
 19 37  1  0  0  0  0
 19 20  2  0  0  0  0
 38 41  1  0  0  0  0
  8 11  1  0  0  0  0
 47 48  1  0  0  0  0
 18 21  1  0  0  0  0
 37 38  1  0  0  0  0
  7  8  1  0  0  0  0
 17 18  1  0  0  0  0
 27 36  1  0  0  0  0
 25 34  1  0  0  0  0
 26 35  1  0  0  0  0
 23 32  1  0  0  0  0
 24 33  1  0  0  0  0
  3  4  1  0  0  0  0
  3  5  1  0  0  0  0
  3  6  1  0  0  0  0
 41 44  1  0  0  0  0
 41 45  1  0  0  0  0
 41 46  1  0  0  0  0
 11 14  1  0  0  0  0
 11 15  1  0  0  0  0
 11 16  1  0  0  0  0
 48 50  1  0  0  0  0
 48 51  1  0  0  0  0
 48 52  1  0  0  0  0
 21 30  1  0  0  0  0
 21 31  1  0  0  0  0
 38 43  1  0  0  0  0
  8 13  1  0  0  0  0
 18 29  1  0  0  0  0
 47 49  1  0  0  0  0
  7 12  1  0  0  0  0
 37 42  1  0  0  0  0
 17 28  1  0  0  0  0
M  END
$$$$

  -OEChem-05262214473D

 52 52  0     1  0  0  0  0  0999 V2000
   -1.8248    0.3424    3.9102 C   0  0  0  0  0  0  0  0  0  0  0  0
   -0.8774   -0.2723    3.4345 O   0  0  0  0  0  0  0  0  0  0  0  0
   -2.2566    0.0600    5.3109 C   0  0  0  0  0  0  0  0  0  0  0  0
   -3.0163   -0.7363    5.3643 H   0  0  0  0  0  0  0  0  0  0  0  0
   -1.4254   -0.2876    5.9452 H   0  0  0  0  0  0  0  0  0  0  0  0
   -2.6947    0.9149    5.8505 H   0  0  0  0  0  0  0  0  0  0  0  0
   -2.5745    1.3149    3.2691 N   0  0  0  0  0  0  0  0  0  0  0  0
   -2.3276    1.7409    1.9167 C   0  0  2  0  0  0  0  0  0  0  0  0
   -0.9926    1.1555    1.4755 C   0  0  0  0  0  0  0  0  0  0  0  0
   -0.1206    0.8028    2.2668 O   0  0  0  0  0  0  0  0  0  0  0  0
   -2.3188    3.2577    1.8072 C   0  0  0  0  0  0  0  0  0  0  0  0
   -3.3395    1.7507    3.7809 H   0  0  0  0  0  0  0  0  0  0  0  0
   -3.1317    1.3224    1.3015 H   0  0  0  0  0  0  0  0  0  0  0  0
   -1.5198    3.6949    2.4169 H   0  0  0  0  0  0  0  0  0  0  0  0
   -2.1594    3.5799    0.7729 H   0  0  0  0  0  0  0  0  0  0  0  0
   -3.2690    3.6789    2.1530 H   0  0  0  0  0  0  0  0  0  0  0  0
   -0.8700    1.1124    0.0921 N   0  0  0  0  0  0  0  0  0  0  0  0
    0.3073    0.6116   -0.5716 C   0  0  2  0  0  0  0  0  0  0  0  0
    0.9194   -0.4498    0.3356 C   0  0  0  0  0  0  0  0  0  0  0  0
    0.6487   -1.6453    0.2440 O   0  0  0  0  0  0  0  0  0  0  0  0
    1.3266    1.7204   -0.8575 C   0  0  0  0  0  0  0  0  0  0  0  0
    0.8319    2.7199   -1.8744 C   0  0  0  0  0  0  0  0  0  0  0  0
    0.9115    2.4279   -3.2361 C   0  0  0  0  0  0  0  0  0  0  0  0
    0.2947    3.9359   -1.4521 C   0  0  0  0  0  0  0  0  0  0  0  0
    0.4539    3.3519   -4.1754 C   0  0  0  0  0  0  0  0  0  0  0  0
   -0.1629    4.8599   -2.3915 C   0  0  0  0  0  0  0  0  0  0  0  0
   -0.0834    4.5679   -3.7531 C   0  0  0  0  0  0  0  0  0  0  0  0
   -1.6531    1.4091   -0.4852 H   0  0  0  0  0  0  0  0  0  0  0  0
   -0.0348    0.1372   -1.4989 H   0  0  0  0  0  0  0  0  0  0  0  0
    2.2760    1.2857   -1.1984 H   0  0  0  0  0  0  0  0  0  0  0  0
    1.5730    2.2622    0.0653 H   0  0  0  0  0  0  0  0  0  0  0  0
    1.3284    1.4829   -3.5743 H   0  0  0  0  0  0  0  0  0  0  0  0
    0.2286    4.1719   -0.3933 H   0  0  0  0  0  0  0  0  0  0  0  0
    0.5169    3.1248   -5.2357 H   0  0  0  0  0  0  0  0  0  0  0  0
   -0.5801    5.8070   -2.0624 H   0  0  0  0  0  0  0  0  0  0  0  0
   -0.4384    5.2879   -4.4847 H   0  0  0  0  0  0  0  0  0  0  0  0
    1.8385    0.0925    1.2231 N   0  0  0  0  0  0  0  0  0  0  0  0
    2.5804   -0.6980    2.1788 C   0  0  2  0  0  0  0  0  0  0  0  0
    1.5906   -1.5788    2.9299 C   0  0  0  0  0  0  0  0  0  0  0  0
    0.3934   -1.3155    3.0211 O   0  0  0  0  0  0  0  0  0  0  0  0
    3.3606    0.1850    3.1403 C   0  0  0  0  0  0  0  0  0  0  0  0
    1.9977    1.0954    1.1997 H   0  0  0  0  0  0  0  0  0  0  0  0
    3.2669   -1.3281    1.6030 H   0  0  0  0  0  0  0  0  0  0  0  0
    2.6895    0.8236    3.7261 H   0  0  0  0  0  0  0  0  0  0  0  0
    3.9446   -0.4156    3.8455 H   0  0  0  0  0  0  0  0  0  0  0  0
    4.0507    0.8389    2.5962 H   0  0  0  0  0  0  0  0  0  0  0  0
    2.2091   -2.6706    3.5229 N   0  0  0  0  0  0  0  0  0  0  0  0
    1.4858   -3.6480    4.3023 C   0  0  0  0  0  0  0  0  0  0  0  0
    3.2033   -2.8207    3.3790 H   0  0  0  0  0  0  0  0  0  0  0  0
    1.5077   -3.3604    5.3638 H   0  0  0  0  0  0  0  0  0  0  0  0
    0.4426   -3.6935    3.9564 H   0  0  0  0  0  0  0  0  0  0  0  0
    1.9560   -4.6349    4.1802 H   0  0  0  0  0  0  0  0  0  0  0  0
 25 27  1  0  0  0  0
 26 27  2  0  0  0  0
 23 25  2  0  0  0  0
 24 26  1  0  0  0  0
 22 23  1  0  0  0  0
 22 24  2  0  0  0  0
 21 22  1  0  0  0  0
  1  3  1  0  0  0  0
  1  7  1  0  0  0  0
  1  2  2  0  0  0  0
 38 39  1  0  0  0  0
 39 47  1  0  0  0  0
 39 40  2  0  0  0  0
  8  9  1  0  0  0  0
  9 17  1  0  0  0  0
  9 10  2  0  0  0  0
 18 19  1  0  0  0  0
 19 37  1  0  0  0  0
 19 20  2  0  0  0  0
 38 41  1  0  0  0  0
  8 11  1  0  0  0  0
 47 48  1  0  0  0  0
 18 21  1  0  0  0  0
 37 38  1  0  0  0  0
  7  8  1  0  0  0  0
 17 18  1  0  0  0  0
 27 36  1  0  0  0  0
 25 34  1  0  0  0  0
 26 35  1  0  0  0  0
 23 32  1  0  0  0  0
 24 33  1  0  0  0  0
  3  4  1  0  0  0  0
  3  5  1  0  0  0  0
  3  6  1  0  0  0  0
 41 44  1  0  0  0  0
 41 45  1  0  0  0  0
 41 46  1  0  0  0  0
 11 14  1  0  0  0  0
 11 15  1  0  0  0  0
 11 16  1  0  0  0  0
 48 50  1  0  0  0  0
 48 51  1  0  0  0  0
 48 52  1  0  0  0  0
 21 30  1  0  0  0  0
 21 31  1  0  0  0  0
 38 43  1  0  0  0  0
  8 13  1  0  0  0  0
 18 29  1  0  0  0  0
 47 49  1  0  0  0  0
  7 12  1  0  0  0  0
 37 42  1  0  0  0  0
 17 28  1  0  0  0  0
M  END
$$$$

  -OEChem-05262214473D

 52 52  0     1  0  0  0  0  0999 V2000
   -1.8248    0.3424    3.9102 C   0  0  0  0  0  0  0  0  0  0  0  0
   -0.8774   -0.2723    3.4345 O   0  0  0  0  0  0  0  0  0  0  0  0
   -2.2566    0.0600    5.3109 C   0  0  0  0  0  0  0  0  0  0  0  0
   -3.0163   -0.7363    5.3643 H   0  0  0  0  0  0  0  0  0  0  0  0
   -1.4254   -0.2876    5.9452 H   0  0  0  0  0  0  0  0  0  0  0  0
   -2.6947    0.9149    5.8505 H   0  0  0  0  0  0  0  0  0  0  0  0
   -2.5745    1.3149    3.2691 N   0  0  0  0  0  0  0  0  0  0  0  0
   -2.3276    1.7409    1.9167 C   0  0  2  0  0  0  0  0  0  0  0  0
   -0.9926    1.1555    1.4755 C   0  0  0  0  0  0  0  0  0  0  0  0
   -0.1206    0.8028    2.2668 O   0  0  0  0  0  0  0  0  0  0  0  0
   -2.3188    3.2577    1.8072 C   0  0  0  0  0  0  0  0  0  0  0  0
   -3.3395    1.7507    3.7809 H   0  0  0  0  0  0  0  0  0  0  0  0
   -3.1317    1.3224    1.3015 H   0  0  0  0  0  0  0  0  0  0  0  0
   -1.5198    3.6949    2.4169 H   0  0  0  0  0  0  0  0  0  0  0  0
   -2.1594    3.5799    0.7729 H   0  0  0  0  0  0  0  0  0  0  0  0
   -3.2690    3.6789    2.1530 H   0  0  0  0  0  0  0  0  0  0  0  0
   -0.8700    1.1124    0.0921 N   0  0  0  0  0  0  0  0  0  0  0  0
    0.3073    0.6116   -0.5716 C   0  0  2  0  0  0  0  0  0  0  0  0
    0.9194   -0.4498    0.3356 C   0  0  0  0  0  0  0  0  0  0  0  0
    0.8677   -1.6526    0.0877 O   0  0  0  0  0  0  0  0  0  0  0  0
    1.3266    1.7204   -0.8575 C   0  0  0  0  0  0  0  0  0  0  0  0
    0.8319    2.7199   -1.8744 C   0  0  0  0  0  0  0  0  0  0  0  0
    0.9115    2.4279   -3.2361 C   0  0  0  0  0  0  0  0  0  0  0  0
    0.2947    3.9359   -1.4521 C   0  0  0  0  0  0  0  0  0  0  0  0
    0.4539    3.3519   -4.1754 C   0  0  0  0  0  0  0  0  0  0  0  0
   -0.1629    4.8599   -2.3915 C   0  0  0  0  0  0  0  0  0  0  0  0
   -0.0834    4.5679   -3.7531 C   0  0  0  0  0  0  0  0  0  0  0  0
   -1.6531    1.4091   -0.4852 H   0  0  0  0  0  0  0  0  0  0  0  0
   -0.0348    0.1372   -1.4989 H   0  0  0  0  0  0  0  0  0  0  0  0
    2.2760    1.2857   -1.1984 H   0  0  0  0  0  0  0  0  0  0  0  0
    1.5730    2.2622    0.0653 H   0  0  0  0  0  0  0  0  0  0  0  0
    1.3284    1.4829   -3.5743 H   0  0  0  0  0  0  0  0  0  0  0  0
    0.2286    4.1719   -0.3933 H   0  0  0  0  0  0  0  0  0  0  0  0
    0.5169    3.1248   -5.2357 H   0  0  0  0  0  0  0  0  0  0  0  0
   -0.5801    5.8070   -2.0624 H   0  0  0  0  0  0  0  0  0  0  0  0
   -0.4384    5.2879   -4.4847 H   0  0  0  0  0  0  0  0  0  0  0  0
    1.5708    0.1110    1.4254 N   0  0  0  0  0  0  0  0  0  0  0  0
    2.2564   -0.6712    2.4288 C   0  0  2  0  0  0  0  0  0  0  0  0
    1.3097   -1.7681    2.8979 C   0  0  0  0  0  0  0  0  0  0  0  0
    0.0879   -1.6932    2.7852 O   0  0  0  0  0  0  0  0  0  0  0  0
    2.7045    0.1956    3.5953 C   0  0  0  0  0  0  0  0  0  0  0  0
    1.5655    1.1221    1.5225 H   0  0  0  0  0  0  0  0  0  0  0  0
    3.1254   -1.1231    1.9383 H   0  0  0  0  0  0  0  0  0  0  0  0
    1.8473    0.6569    4.0992 H   0  0  0  0  0  0  0  0  0  0  0  0
    3.2486   -0.3933    4.3411 H   0  0  0  0  0  0  0  0  0  0  0  0
    3.3615    1.0019    3.2519 H   0  0  0  0  0  0  0  0  0  0  0  0
    1.9870   -2.8214    3.4962 N   0  0  0  0  0  0  0  0  0  0  0  0
    1.3102   -3.9782    4.0345 C   0  0  0  0  0  0  0  0  0  0  0  0
    3.0022   -2.8082    3.5293 H   0  0  0  0  0  0  0  0  0  0  0  0
    1.1018   -3.8177    5.1026 H   0  0  0  0  0  0  0  0  0  0  0  0
    0.3638   -4.1328    3.4956 H   0  0  0  0  0  0  0  0  0  0  0  0
    1.9493   -4.8654    3.9150 H   0  0  0  0  0  0  0  0  0  0  0  0
 25 27  1  0  0  0  0
 26 27  2  0  0  0  0
 23 25  2  0  0  0  0
 24 26  1  0  0  0  0
 22 23  1  0  0  0  0
 22 24  2  0  0  0  0
 21 22  1  0  0  0  0
  1  3  1  0  0  0  0
  1  7  1  0  0  0  0
  1  2  2  0  0  0  0
 38 39  1  0  0  0  0
 39 47  1  0  0  0  0
 39 40  2  0  0  0  0
  8  9  1  0  0  0  0
  9 17  1  0  0  0  0
  9 10  2  0  0  0  0
 18 19  1  0  0  0  0
 19 37  1  0  0  0  0
 19 20  2  0  0  0  0
 38 41  1  0  0  0  0
  8 11  1  0  0  0  0
 47 48  1  0  0  0  0
 18 21  1  0  0  0  0
 37 38  1  0  0  0  0
  7  8  1  0  0  0  0
 17 18  1  0  0  0  0
 27 36  1  0  0  0  0
 25 34  1  0  0  0  0
 26 35  1  0  0  0  0
 23 32  1  0  0  0  0
 24 33  1  0  0  0  0
  3  4  1  0  0  0  0
  3  5  1  0  0  0  0
  3  6  1  0  0  0  0
 41 44  1  0  0  0  0
 41 45  1  0  0  0  0
 41 46  1  0  0  0  0
 11 14  1  0  0  0  0
 11 15  1  0  0  0  0
 11 16  1  0  0  0  0
 48 50  1  0  0  0  0
 48 51  1  0  0  0  0
 48 52  1  0  0  0  0
 21 30  1  0  0  0  0
 21 31  1  0  0  0  0
 38 43  1  0  0  0  0
  8 13  1  0  0  0  0
 18 29  1  0  0  0  0
 47 49  1  0  0  0  0
  7 12  1  0  0  0  0
 37 42  1  0  0  0  0
 17 28  1  0  0  0  0
M  END
$$$$

  -OEChem-05262214473D

 52 52  0     1  0  0  0  0  0999 V2000
   -1.8248    0.3424    3.9102 C   0  0  0  0  0  0  0  0  0  0  0  0
   -0.8774   -0.2723    3.4345 O   0  0  0  0  0  0  0  0  0  0  0  0
   -2.2566    0.0600    5.3109 C   0  0  0  0  0  0  0  0  0  0  0  0
   -3.0163   -0.7363    5.3643 H   0  0  0  0  0  0  0  0  0  0  0  0
   -1.4254   -0.2876    5.9452 H   0  0  0  0  0  0  0  0  0  0  0  0
   -2.6947    0.9149    5.8505 H   0  0  0  0  0  0  0  0  0  0  0  0
   -2.5745    1.3149    3.2691 N   0  0  0  0  0  0  0  0  0  0  0  0
   -2.3276    1.7409    1.9167 C   0  0  2  0  0  0  0  0  0  0  0  0
   -0.9926    1.1555    1.4755 C   0  0  0  0  0  0  0  0  0  0  0  0
   -0.1206    0.8028    2.2668 O   0  0  0  0  0  0  0  0  0  0  0  0
   -2.3188    3.2577    1.8072 C   0  0  0  0  0  0  0  0  0  0  0  0
   -3.3395    1.7507    3.7809 H   0  0  0  0  0  0  0  0  0  0  0  0
   -3.1317    1.3224    1.3015 H   0  0  0  0  0  0  0  0  0  0  0  0
   -1.5198    3.6949    2.4169 H   0  0  0  0  0  0  0  0  0  0  0  0
   -2.1594    3.5799    0.7729 H   0  0  0  0  0  0  0  0  0  0  0  0
   -3.2690    3.6789    2.1530 H   0  0  0  0  0  0  0  0  0  0  0  0
   -0.8700    1.1124    0.0921 N   0  0  0  0  0  0  0  0  0  0  0  0
    0.3073    0.6116   -0.5716 C   0  0  2  0  0  0  0  0  0  0  0  0
    0.9194   -0.4498    0.3356 C   0  0  0  0  0  0  0  0  0  0  0  0
    1.1086   -1.6097   -0.0246 O   0  0  0  0  0  0  0  0  0  0  0  0
    1.3266    1.7204   -0.8575 C   0  0  0  0  0  0  0  0  0  0  0  0
    0.8319    2.7199   -1.8744 C   0  0  0  0  0  0  0  0  0  0  0  0
    0.9115    2.4279   -3.2361 C   0  0  0  0  0  0  0  0  0  0  0  0
    0.2947    3.9359   -1.4521 C   0  0  0  0  0  0  0  0  0  0  0  0
    0.4539    3.3519   -4.1754 C   0  0  0  0  0  0  0  0  0  0  0  0
   -0.1629    4.8599   -2.3915 C   0  0  0  0  0  0  0  0  0  0  0  0
   -0.0834    4.5679   -3.7531 C   0  0  0  0  0  0  0  0  0  0  0  0
   -1.6531    1.4091   -0.4852 H   0  0  0  0  0  0  0  0  0  0  0  0
   -0.0348    0.1372   -1.4989 H   0  0  0  0  0  0  0  0  0  0  0  0
    2.2760    1.2857   -1.1984 H   0  0  0  0  0  0  0  0  0  0  0  0
    1.5730    2.2622    0.0653 H   0  0  0  0  0  0  0  0  0  0  0  0
    1.3284    1.4829   -3.5743 H   0  0  0  0  0  0  0  0  0  0  0  0
    0.2286    4.1719   -0.3933 H   0  0  0  0  0  0  0  0  0  0  0  0
    0.5169    3.1248   -5.2357 H   0  0  0  0  0  0  0  0  0  0  0  0
   -0.5801    5.8070   -2.0624 H   0  0  0  0  0  0  0  0  0  0  0  0
   -0.4384    5.2879   -4.4847 H   0  0  0  0  0  0  0  0  0  0  0  0
    1.2730    0.0667    1.5744 N   0  0  0  0  0  0  0  0  0  0  0  0
    1.8943   -0.7211    2.6147 C   0  0  2  0  0  0  0  0  0  0  0  0
    1.0733   -1.9910    2.7966 C   0  0  0  0  0  0  0  0  0  0  0  0
   -0.1064   -2.0806    2.4630 O   0  0  0  0  0  0  0  0  0  0  0  0
    1.9871    0.0575    3.9177 C   0  0  0  0  0  0  0  0  0  0  0  0
    1.0858    1.0478    1.7592 H   0  0  0  0  0  0  0  0  0  0  0  0
    2.8968   -0.9816    2.2581 H   0  0  0  0  0  0  0  0  0  0  0  0
    0.9923    0.3273    4.2905 H   0  0  0  0  0  0  0  0  0  0  0  0
    2.4837   -0.5304    4.6967 H   0  0  0  0  0  0  0  0  0  0  0  0
    2.5526    0.9851    3.7780 H   0  0  0  0  0  0  0  0  0  0  0  0
    1.8006   -2.9985    3.4148 N   0  0  0  0  0  0  0  0  0  0  0  0
    1.2397   -4.2963    3.7099 C   0  0  0  0  0  0  0  0  0  0  0  0
    2.7788   -2.8428    3.6396 H   0  0  0  0  0  0  0  0  0  0  0  0
    0.8272   -4.2948    4.7296 H   0  0  0  0  0  0  0  0  0  0  0  0
    0.4383   -4.5214    2.9908 H   0  0  0  0  0  0  0  0  0  0  0  0
    2.0262   -5.0615    3.6337 H   0  0  0  0  0  0  0  0  0  0  0  0
 25 27  1  0  0  0  0
 26 27  2  0  0  0  0
 23 25  2  0  0  0  0
 24 26  1  0  0  0  0
 22 23  1  0  0  0  0
 22 24  2  0  0  0  0
 21 22  1  0  0  0  0
  1  3  1  0  0  0  0
  1  7  1  0  0  0  0
  1  2  2  0  0  0  0
 38 39  1  0  0  0  0
 39 47  1  0  0  0  0
 39 40  2  0  0  0  0
  8  9  1  0  0  0  0
  9 17  1  0  0  0  0
  9 10  2  0  0  0  0
 18 19  1  0  0  0  0
 19 37  1  0  0  0  0
 19 20  2  0  0  0  0
 38 41  1  0  0  0  0
  8 11  1  0  0  0  0
 47 48  1  0  0  0  0
 18 21  1  0  0  0  0
 37 38  1  0  0  0  0
  7  8  1  0  0  0  0
 17 18  1  0  0  0  0
 27 36  1  0  0  0  0
 25 34  1  0  0  0  0
 26 35  1  0  0  0  0
 23 32  1  0  0  0  0
 24 33  1  0  0  0  0
  3  4  1  0  0  0  0
  3  5  1  0  0  0  0
  3  6  1  0  0  0  0
 41 44  1  0  0  0  0
 41 45  1  0  0  0  0
 41 46  1  0  0  0  0
 11 14  1  0  0  0  0
 11 15  1  0  0  0  0
 11 16  1  0  0  0  0
 48 50  1  0  0  0  0
 48 51  1  0  0  0  0
 48 52  1  0  0  0  0
 21 30  1  0  0  0  0
 21 31  1  0  0  0  0
 38 43  1  0  0  0  0
  8 13  1  0  0  0  0
 18 29  1  0  0  0  0
 47 49  1  0  0  0  0
  7 12  1  0  0  0  0
 37 42  1  0  0  0  0
 17 28  1  0  0  0  0
M  END
$$$$

  -OEChem-05262214473D

 52 52  0     1  0  0  0  0  0999 V2000
   -1.8248    0.3424    3.9102 C   0  0  0  0  0  0  0  0  0  0  0  0
   -0.8774   -0.2723    3.4345 O   0  0  0  0  0  0  0  0  0  0  0  0
   -2.2566    0.0600    5.3109 C   0  0  0  0  0  0  0  0  0  0  0  0
   -3.0163   -0.7363    5.3643 H   0  0  0  0  0  0  0  0  0  0  0  0
   -1.4254   -0.2876    5.9452 H   0  0  0  0  0  0  0  0  0  0  0  0
   -2.6947    0.9149    5.8505 H   0  0  0  0  0  0  0  0  0  0  0  0
   -2.5745    1.3149    3.2691 N   0  0  0  0  0  0  0  0  0  0  0  0
   -2.3276    1.7409    1.9167 C   0  0  2  0  0  0  0  0  0  0  0  0
   -0.9926    1.1555    1.4755 C   0  0  0  0  0  0  0  0  0  0  0  0
   -0.1206    0.8028    2.2668 O   0  0  0  0  0  0  0  0  0  0  0  0
   -2.3188    3.2577    1.8072 C   0  0  0  0  0  0  0  0  0  0  0  0
   -3.3395    1.7507    3.7809 H   0  0  0  0  0  0  0  0  0  0  0  0
   -3.1317    1.3224    1.3015 H   0  0  0  0  0  0  0  0  0  0  0  0
   -1.5198    3.6949    2.4169 H   0  0  0  0  0  0  0  0  0  0  0  0
   -2.1594    3.5799    0.7729 H   0  0  0  0  0  0  0  0  0  0  0  0
   -3.2690    3.6789    2.1530 H   0  0  0  0  0  0  0  0  0  0  0  0
   -0.8700    1.1124    0.0921 N   0  0  0  0  0  0  0  0  0  0  0  0
    0.3073    0.6116   -0.5716 C   0  0  2  0  0  0  0  0  0  0  0  0
    0.9194   -0.4498    0.3356 C   0  0  0  0  0  0  0  0  0  0  0  0
    1.3549   -1.5194   -0.0852 O   0  0  0  0  0  0  0  0  0  0  0  0
    1.3266    1.7204   -0.8575 C   0  0  0  0  0  0  0  0  0  0  0  0
    0.8319    2.7199   -1.8744 C   0  0  0  0  0  0  0  0  0  0  0  0
    0.9115    2.4279   -3.2361 C   0  0  0  0  0  0  0  0  0  0  0  0
    0.2947    3.9359   -1.4521 C   0  0  0  0  0  0  0  0  0  0  0  0
    0.4539    3.3519   -4.1754 C   0  0  0  0  0  0  0  0  0  0  0  0
   -0.1629    4.8599   -2.3915 C   0  0  0  0  0  0  0  0  0  0  0  0
   -0.0834    4.5679   -3.7531 C   0  0  0  0  0  0  0  0  0  0  0  0
   -1.6531    1.4091   -0.4852 H   0  0  0  0  0  0  0  0  0  0  0  0
   -0.0348    0.1372   -1.4989 H   0  0  0  0  0  0  0  0  0  0  0  0
    2.2760    1.2857   -1.1984 H   0  0  0  0  0  0  0  0  0  0  0  0
    1.5730    2.2622    0.0653 H   0  0  0  0  0  0  0  0  0  0  0  0
    1.3284    1.4829   -3.5743 H   0  0  0  0  0  0  0  0  0  0  0  0
    0.2286    4.1719   -0.3933 H   0  0  0  0  0  0  0  0  0  0  0  0
    0.5169    3.1248   -5.2357 H   0  0  0  0  0  0  0  0  0  0  0  0
   -0.5801    5.8070   -2.0624 H   0  0  0  0  0  0  0  0  0  0  0  0
   -0.4384    5.2879   -4.4847 H   0  0  0  0  0  0  0  0  0  0  0  0
    0.9653   -0.0375    1.6602 N   0  0  0  0  0  0  0  0  0  0  0  0
    1.5187   -0.8445    2.7238 C   0  0  2  0  0  0  0  0  0  0  0  0
    0.8976   -2.2321    2.6331 C   0  0  0  0  0  0  0  0  0  0  0  0
   -0.1764   -2.4513    2.0766 O   0  0  0  0  0  0  0  0  0  0  0  0
    1.2573   -0.2199    4.0855 C   0  0  0  0  0  0  0  0  0  0  0  0
    0.5911    0.8775    1.8937 H   0  0  0  0  0  0  0  0  0  0  0  0
    2.5965   -0.9135    2.5404 H   0  0  0  0  0  0  0  0  0  0  0  0
    0.1827   -0.1426    4.2870 H   0  0  0  0  0  0  0  0  0  0  0  0
    1.7018   -0.8177    4.8881 H   0  0  0  0  0  0  0  0  0  0  0  0
    1.6789    0.7896    4.1386 H   0  0  0  0  0  0  0  0  0  0  0  0
    1.6625   -3.1898    3.2842 N   0  0  0  0  0  0  0  0  0  0  0  0
    1.2790   -4.5807    3.3506 C   0  0  0  0  0  0  0  0  0  0  0  0
    2.5486   -2.9220    3.7022 H   0  0  0  0  0  0  0  0  0  0  0  0
    0.7027   -4.7592    4.2704 H   0  0  0  0  0  0  0  0  0  0  0  0
    0.6611   -4.8327    2.4761 H   0  0  0  0  0  0  0  0  0  0  0  0
    2.1813   -5.2098    3.3555 H   0  0  0  0  0  0  0  0  0  0  0  0
 25 27  1  0  0  0  0
 26 27  2  0  0  0  0
 23 25  2  0  0  0  0
 24 26  1  0  0  0  0
 22 23  1  0  0  0  0
 22 24  2  0  0  0  0
 21 22  1  0  0  0  0
  1  3  1  0  0  0  0
  1  7  1  0  0  0  0
  1  2  2  0  0  0  0
 38 39  1  0  0  0  0
 39 47  1  0  0  0  0
 39 40  2  0  0  0  0
  8  9  1  0  0  0  0
  9 17  1  0  0  0  0
  9 10  2  0  0  0  0
 18 19  1  0  0  0  0
 19 37  1  0  0  0  0
 19 20  2  0  0  0  0
 38 41  1  0  0  0  0
  8 11  1  0  0  0  0
 47 48  1  0  0  0  0
 18 21  1  0  0  0  0
 37 38  1  0  0  0  0
  7  8  1  0  0  0  0
 17 18  1  0  0  0  0
 27 36  1  0  0  0  0
 25 34  1  0  0  0  0
 26 35  1  0  0  0  0
 23 32  1  0  0  0  0
 24 33  1  0  0  0  0
  3  4  1  0  0  0  0
  3  5  1  0  0  0  0
  3  6  1  0  0  0  0
 41 44  1  0  0  0  0
 41 45  1  0  0  0  0
 41 46  1  0  0  0  0
 11 14  1  0  0  0  0
 11 15  1  0  0  0  0
 11 16  1  0  0  0  0
 48 50  1  0  0  0  0
 48 51  1  0  0  0  0
 48 52  1  0  0  0  0
 21 30  1  0  0  0  0
 21 31  1  0  0  0  0
 38 43  1  0  0  0  0
  8 13  1  0  0  0  0
 18 29  1  0  0  0  0
 47 49  1  0  0  0  0
  7 12  1  0  0  0  0
 37 42  1  0  0  0  0
 17 28  1  0  0  0  0
M  END
$$$$

  -OEChem-05262214473D

 52 52  0     1  0  0  0  0  0999 V2000
   -1.8248    0.3424    3.9102 C   0  0  0  0  0  0  0  0  0  0  0  0
   -0.8774   -0.2723    3.4345 O   0  0  0  0  0  0  0  0  0  0  0  0
   -2.2566    0.0600    5.3109 C   0  0  0  0  0  0  0  0  0  0  0  0
   -3.0163   -0.7363    5.3643 H   0  0  0  0  0  0  0  0  0  0  0  0
   -1.4254   -0.2876    5.9452 H   0  0  0  0  0  0  0  0  0  0  0  0
   -2.6947    0.9149    5.8505 H   0  0  0  0  0  0  0  0  0  0  0  0
   -2.5745    1.3149    3.2691 N   0  0  0  0  0  0  0  0  0  0  0  0
   -2.3276    1.7409    1.9167 C   0  0  2  0  0  0  0  0  0  0  0  0
   -0.9926    1.1555    1.4755 C   0  0  0  0  0  0  0  0  0  0  0  0
   -0.1206    0.8028    2.2668 O   0  0  0  0  0  0  0  0  0  0  0  0
   -2.3188    3.2577    1.8072 C   0  0  0  0  0  0  0  0  0  0  0  0
   -3.3395    1.7507    3.7809 H   0  0  0  0  0  0  0  0  0  0  0  0
   -3.1317    1.3224    1.3015 H   0  0  0  0  0  0  0  0  0  0  0  0
   -1.5198    3.6949    2.4169 H   0  0  0  0  0  0  0  0  0  0  0  0
   -2.1594    3.5799    0.7729 H   0  0  0  0  0  0  0  0  0  0  0  0
   -3.2690    3.6789    2.1530 H   0  0  0  0  0  0  0  0  0  0  0  0
   -0.8700    1.1124    0.0921 N   0  0  0  0  0  0  0  0  0  0  0  0
    0.3073    0.6116   -0.5716 C   0  0  2  0  0  0  0  0  0  0  0  0
    0.9194   -0.4498    0.3356 C   0  0  0  0  0  0  0  0  0  0  0  0
    1.5897   -1.3881   -0.0899 O   0  0  0  0  0  0  0  0  0  0  0  0
    1.3266    1.7204   -0.8575 C   0  0  0  0  0  0  0  0  0  0  0  0
    0.8319    2.7199   -1.8744 C   0  0  0  0  0  0  0  0  0  0  0  0
    0.9115    2.4279   -3.2361 C   0  0  0  0  0  0  0  0  0  0  0  0
    0.2947    3.9359   -1.4521 C   0  0  0  0  0  0  0  0  0  0  0  0
    0.4539    3.3519   -4.1754 C   0  0  0  0  0  0  0  0  0  0  0  0
   -0.1629    4.8599   -2.3915 C   0  0  0  0  0  0  0  0  0  0  0  0
   -0.0834    4.5679   -3.7531 C   0  0  0  0  0  0  0  0  0  0  0  0
   -1.6531    1.4091   -0.4852 H   0  0  0  0  0  0  0  0  0  0  0  0
   -0.0348    0.1372   -1.4989 H   0  0  0  0  0  0  0  0  0  0  0  0
    2.2760    1.2857   -1.1984 H   0  0  0  0  0  0  0  0  0  0  0  0
    1.5730    2.2622    0.0653 H   0  0  0  0  0  0  0  0  0  0  0  0
    1.3284    1.4829   -3.5743 H   0  0  0  0  0  0  0  0  0  0  0  0
    0.2286    4.1719   -0.3933 H   0  0  0  0  0  0  0  0  0  0  0  0
    0.5169    3.1248   -5.2357 H   0  0  0  0  0  0  0  0  0  0  0  0
   -0.5801    5.8070   -2.0624 H   0  0  0  0  0  0  0  0  0  0  0  0
   -0.4384    5.2879   -4.4847 H   0  0  0  0  0  0  0  0  0  0  0  0
    0.6687   -0.1944    1.6767 N   0  0  0  0  0  0  0  0  0  0  0  0
    1.1552   -1.0328    2.7486 C   0  0  2  0  0  0  0  0  0  0  0  0
    0.7944   -2.4751    2.4184 C   0  0  0  0  0  0  0  0  0  0  0  0
   -0.1173   -2.7799    1.6522 O   0  0  0  0  0  0  0  0  0  0  0  0
    0.5649   -0.6177    4.0873 C   0  0  0  0  0  0  0  0  0  0  0  0
    0.1154    0.6229    1.9168 H   0  0  0  0  0  0  0  0  0  0  0  0
    2.2450   -0.9232    2.7661 H   0  0  0  0  0  0  0  0  0  0  0  0
   -0.5264   -0.7207    4.0889 H   0  0  0  0  0  0  0  0  0  0  0  0
    0.9564   -1.2355    4.9022 H   0  0  0  0  0  0  0  0  0  0  0  0
    0.8002    0.4288    4.3093 H   0  0  0  0  0  0  0  0  0  0  0  0
    1.5820   -3.3823    3.1132 N   0  0  0  0  0  0  0  0  0  0  0  0
    1.4256   -4.8120    2.9811 C   0  0  0  0  0  0  0  0  0  0  0  0
    2.3271   -3.0405    3.7130 H   0  0  0  0  0  0  0  0  0  0  0  0
    0.7367   -5.1792    3.7560 H   0  0  0  0  0  0  0  0  0  0  0  0
    1.0170   -5.0457    1.9868 H   0  0  0  0  0  0  0  0  0  0  0  0
    2.4042   -5.3003    3.0994 H   0  0  0  0  0  0  0  0  0  0  0  0
 25 27  1  0  0  0  0
 26 27  2  0  0  0  0
 23 25  2  0  0  0  0
 24 26  1  0  0  0  0
 22 23  1  0  0  0  0
 22 24  2  0  0  0  0
 21 22  1  0  0  0  0
  1  3  1  0  0  0  0
  1  7  1  0  0  0  0
  1  2  2  0  0  0  0
 38 39  1  0  0  0  0
 39 47  1  0  0  0  0
 39 40  2  0  0  0  0
  8  9  1  0  0  0  0
  9 17  1  0  0  0  0
  9 10  2  0  0  0  0
 18 19  1  0  0  0  0
 19 37  1  0  0  0  0
 19 20  2  0  0  0  0
 38 41  1  0  0  0  0
  8 11  1  0  0  0  0
 47 48  1  0  0  0  0
 18 21  1  0  0  0  0
 37 38  1  0  0  0  0
  7  8  1  0  0  0  0
 17 18  1  0  0  0  0
 27 36  1  0  0  0  0
 25 34  1  0  0  0  0
 26 35  1  0  0  0  0
 23 32  1  0  0  0  0
 24 33  1  0  0  0  0
  3  4  1  0  0  0  0
  3  5  1  0  0  0  0
  3  6  1  0  0  0  0
 41 44  1  0  0  0  0
 41 45  1  0  0  0  0
 41 46  1  0  0  0  0
 11 14  1  0  0  0  0
 11 15  1  0  0  0  0
 11 16  1  0  0  0  0
 48 50  1  0  0  0  0
 48 51  1  0  0  0  0
 48 52  1  0  0  0  0
 21 30  1  0  0  0  0
 21 31  1  0  0  0  0
 38 43  1  0  0  0  0
  8 13  1  0  0  0  0
 18 29  1  0  0  0  0
 47 49  1  0  0  0  0
  7 12  1  0  0  0  0
 37 42  1  0  0  0  0
 17 28  1  0  0  0  0
M  END
$$$$

  -OEChem-05262214473D

 52 52  0     1  0  0  0  0  0999 V2000
   -1.8248    0.3424    3.9102 C   0  0  0  0  0  0  0  0  0  0  0  0
   -0.8774   -0.2723    3.4345 O   0  0  0  0  0  0  0  0  0  0  0  0
   -2.2566    0.0600    5.3109 C   0  0  0  0  0  0  0  0  0  0  0  0
   -3.0163   -0.7363    5.3643 H   0  0  0  0  0  0  0  0  0  0  0  0
   -1.4254   -0.2876    5.9452 H   0  0  0  0  0  0  0  0  0  0  0  0
   -2.6947    0.9149    5.8505 H   0  0  0  0  0  0  0  0  0  0  0  0
   -2.5745    1.3149    3.2691 N   0  0  0  0  0  0  0  0  0  0  0  0
   -2.3276    1.7409    1.9167 C   0  0  2  0  0  0  0  0  0  0  0  0
   -0.9926    1.1555    1.4755 C   0  0  0  0  0  0  0  0  0  0  0  0
   -0.1206    0.8028    2.2668 O   0  0  0  0  0  0  0  0  0  0  0  0
   -2.3188    3.2577    1.8072 C   0  0  0  0  0  0  0  0  0  0  0  0
   -3.3395    1.7507    3.7809 H   0  0  0  0  0  0  0  0  0  0  0  0
   -3.1317    1.3224    1.3015 H   0  0  0  0  0  0  0  0  0  0  0  0
   -1.5198    3.6949    2.4169 H   0  0  0  0  0  0  0  0  0  0  0  0
   -2.1594    3.5799    0.7729 H   0  0  0  0  0  0  0  0  0  0  0  0
   -3.2690    3.6789    2.1530 H   0  0  0  0  0  0  0  0  0  0  0  0
   -0.8700    1.1124    0.0921 N   0  0  0  0  0  0  0  0  0  0  0  0
    0.3073    0.6116   -0.5716 C   0  0  2  0  0  0  0  0  0  0  0  0
    0.9194   -0.4498    0.3356 C   0  0  0  0  0  0  0  0  0  0  0  0
    1.7973   -1.2245   -0.0386 O   0  0  0  0  0  0  0  0  0  0  0  0
    1.3266    1.7204   -0.8575 C   0  0  0  0  0  0  0  0  0  0  0  0
    0.8319    2.7199   -1.8744 C   0  0  0  0  0  0  0  0  0  0  0  0
    0.9115    2.4279   -3.2361 C   0  0  0  0  0  0  0  0  0  0  0  0
    0.2947    3.9359   -1.4521 C   0  0  0  0  0  0  0  0  0  0  0  0
    0.4539    3.3519   -4.1754 C   0  0  0  0  0  0  0  0  0  0  0  0
   -0.1629    4.8599   -2.3915 C   0  0  0  0  0  0  0  0  0  0  0  0
   -0.0834    4.5679   -3.7531 C   0  0  0  0  0  0  0  0  0  0  0  0
   -1.6531    1.4091   -0.4852 H   0  0  0  0  0  0  0  0  0  0  0  0
   -0.0348    0.1372   -1.4989 H   0  0  0  0  0  0  0  0  0  0  0  0
    2.2760    1.2857   -1.1984 H   0  0  0  0  0  0  0  0  0  0  0  0
    1.5730    2.2622    0.0653 H   0  0  0  0  0  0  0  0  0  0  0  0
    1.3284    1.4829   -3.5743 H   0  0  0  0  0  0  0  0  0  0  0  0
    0.2286    4.1719   -0.3933 H   0  0  0  0  0  0  0  0  0  0  0  0
    0.5169    3.1248   -5.2357 H   0  0  0  0  0  0  0  0  0  0  0  0
   -0.5801    5.8070   -2.0624 H   0  0  0  0  0  0  0  0  0  0  0  0
   -0.4384    5.2879   -4.4847 H   0  0  0  0  0  0  0  0  0  0  0  0
    0.4033   -0.3934    1.6229 N   0  0  0  0  0  0  0  0  0  0  0  0
    0.8287   -1.2733    2.6876 C   0  0  2  0  0  0  0  0  0  0  0  0
    0.7708   -2.7034    2.1672 C   0  0  0  0  0  0  0  0  0  0  0  0
    0.0669   -3.0442    1.2188 O   0  0  0  0  0  0  0  0  0  0  0  0
   -0.0430   -1.1087    3.9229 C   0  0  0  0  0  0  0  0  0  0  0  0
   -0.3091    0.3013    1.8269 H   0  0  0  0  0  0  0  0  0  0  0  0
    1.8664   -1.0102    2.9198 H   0  0  0  0  0  0  0  0  0  0  0  0
   -1.0865   -1.3678    3.7096 H   0  0  0  0  0  0  0  0  0  0  0  0
    0.2981   -1.7553    4.7381 H   0  0  0  0  0  0  0  0  0  0  0  0
   -0.0237   -0.0728    4.2783 H   0  0  0  0  0  0  0  0  0  0  0  0
    1.5648   -3.5629    2.9136 N   0  0  0  0  0  0  0  0  0  0  0  0
    1.6694   -4.9745    2.6265 C   0  0  0  0  0  0  0  0  0  0  0  0
    2.1295   -3.1902    3.6711 H   0  0  0  0  0  0  0  0  0  0  0  0
    0.9269   -5.5263    3.2217 H   0  0  0  0  0  0  0  0  0  0  0  0
    1.4818   -5.1458    1.5562 H   0  0  0  0  0  0  0  0  0  0  0  0
    2.6795   -5.3268    2.8826 H   0  0  0  0  0  0  0  0  0  0  0  0
 25 27  1  0  0  0  0
 26 27  2  0  0  0  0
 23 25  2  0  0  0  0
 24 26  1  0  0  0  0
 22 23  1  0  0  0  0
 22 24  2  0  0  0  0
 21 22  1  0  0  0  0
  1  3  1  0  0  0  0
  1  7  1  0  0  0  0
  1  2  2  0  0  0  0
 38 39  1  0  0  0  0
 39 47  1  0  0  0  0
 39 40  2  0  0  0  0
  8  9  1  0  0  0  0
  9 17  1  0  0  0  0
  9 10  2  0  0  0  0
 18 19  1  0  0  0  0
 19 37  1  0  0  0  0
 19 20  2  0  0  0  0
 38 41  1  0  0  0  0
  8 11  1  0  0  0  0
 47 48  1  0  0  0  0
 18 21  1  0  0  0  0
 37 38  1  0  0  0  0
  7  8  1  0  0  0  0
 17 18  1  0  0  0  0
 27 36  1  0  0  0  0
 25 34  1  0  0  0  0
 26 35  1  0  0  0  0
 23 32  1  0  0  0  0
 24 33  1  0  0  0  0
  3  4  1  0  0  0  0
  3  5  1  0  0  0  0
  3  6  1  0  0  0  0
 41 44  1  0  0  0  0
 41 45  1  0  0  0  0
 41 46  1  0  0  0  0
 11 14  1  0  0  0  0
 11 15  1  0  0  0  0
 11 16  1  0  0  0  0
 48 50  1  0  0  0  0
 48 51  1  0  0  0  0
 48 52  1  0  0  0  0
 21 30  1  0  0  0  0
 21 31  1  0  0  0  0
 38 43  1  0  0  0  0
  8 13  1  0  0  0  0
 18 29  1  0  0  0  0
 47 49  1  0  0  0  0
  7 12  1  0  0  0  0
 37 42  1  0  0  0  0
 17 28  1  0  0  0  0
M  END
$$$$

  -OEChem-05262214473D

 52 52  0     1  0  0  0  0  0999 V2000
   -1.8248    0.3424    3.9102 C   0  0  0  0  0  0  0  0  0  0  0  0
   -0.8774   -0.2723    3.4345 O   0  0  0  0  0  0  0  0  0  0  0  0
   -2.2566    0.0600    5.3109 C   0  0  0  0  0  0  0  0  0  0  0  0
   -3.0163   -0.7363    5.3643 H   0  0  0  0  0  0  0  0  0  0  0  0
   -1.4254   -0.2876    5.9452 H   0  0  0  0  0  0  0  0  0  0  0  0
   -2.6947    0.9149    5.8505 H   0  0  0  0  0  0  0  0  0  0  0  0
   -2.5745    1.3149    3.2691 N   0  0  0  0  0  0  0  0  0  0  0  0
   -2.3276    1.7409    1.9167 C   0  0  2  0  0  0  0  0  0  0  0  0
   -0.9926    1.1555    1.4755 C   0  0  0  0  0  0  0  0  0  0  0  0
   -0.1206    0.8028    2.2668 O   0  0  0  0  0  0  0  0  0  0  0  0
   -2.3188    3.2577    1.8072 C   0  0  0  0  0  0  0  0  0  0  0  0
   -3.3395    1.7507    3.7809 H   0  0  0  0  0  0  0  0  0  0  0  0
   -3.1317    1.3224    1.3015 H   0  0  0  0  0  0  0  0  0  0  0  0
   -1.5198    3.6949    2.4169 H   0  0  0  0  0  0  0  0  0  0  0  0
   -2.1594    3.5799    0.7729 H   0  0  0  0  0  0  0  0  0  0  0  0
   -3.2690    3.6789    2.1530 H   0  0  0  0  0  0  0  0  0  0  0  0
   -0.8700    1.1124    0.0921 N   0  0  0  0  0  0  0  0  0  0  0  0
    0.3073    0.6116   -0.5716 C   0  0  2  0  0  0  0  0  0  0  0  0
    0.9194   -0.4498    0.3356 C   0  0  0  0  0  0  0  0  0  0  0  0
    1.9632   -1.0399    0.0655 O   0  0  0  0  0  0  0  0  0  0  0  0
    1.3266    1.7204   -0.8575 C   0  0  0  0  0  0  0  0  0  0  0  0
    0.8319    2.7199   -1.8744 C   0  0  0  0  0  0  0  0  0  0  0  0
    0.9115    2.4279   -3.2361 C   0  0  0  0  0  0  0  0  0  0  0  0
    0.2947    3.9359   -1.4521 C   0  0  0  0  0  0  0  0  0  0  0  0
    0.4539    3.3519   -4.1754 C   0  0  0  0  0  0  0  0  0  0  0  0
   -0.1629    4.8599   -2.3915 C   0  0  0  0  0  0  0  0  0  0  0  0
   -0.0834    4.5679   -3.7531 C   0  0  0  0  0  0  0  0  0  0  0  0
   -1.6531    1.4091   -0.4852 H   0  0  0  0  0  0  0  0  0  0  0  0
   -0.0348    0.1372   -1.4989 H   0  0  0  0  0  0  0  0  0  0  0  0
    2.2760    1.2857   -1.1984 H   0  0  0  0  0  0  0  0  0  0  0  0
    1.5730    2.2622    0.0653 H   0  0  0  0  0  0  0  0  0  0  0  0
    1.3284    1.4829   -3.5743 H   0  0  0  0  0  0  0  0  0  0  0  0
    0.2286    4.1719   -0.3933 H   0  0  0  0  0  0  0  0  0  0  0  0
    0.5169    3.1248   -5.2357 H   0  0  0  0  0  0  0  0  0  0  0  0
   -0.5801    5.8070   -2.0624 H   0  0  0  0  0  0  0  0  0  0  0  0
   -0.4384    5.2879   -4.4847 H   0  0  0  0  0  0  0  0  0  0  0  0
    0.1874   -0.6208    1.5024 N   0  0  0  0  0  0  0  0  0  0  0  0
    0.5613   -1.5495    2.5448 C   0  0  2  0  0  0  0  0  0  0  0  0
    0.8285   -2.9015    1.8965 C   0  0  0  0  0  0  0  0  0  0  0  0
    0.3636   -3.2260    0.8059 O   0  0  0  0  0  0  0  0  0  0  0  0
   -0.5249   -1.6596    3.6035 C   0  0  0  0  0  0  0  0  0  0  0  0
   -0.6534   -0.0654    1.6302 H   0  0  0  0  0  0  0  0  0  0  0  0
    1.4864   -1.1685    2.9910 H   0  0  0  0  0  0  0  0  0  0  0  0
   -1.4595   -2.0398    3.1752 H   0  0  0  0  0  0  0  0  0  0  0  0
   -0.2281   -2.3417    4.4070 H   0  0  0  0  0  0  0  0  0  0  0  0
   -0.7367   -0.6810    4.0477 H   0  0  0  0  0  0  0  0  0  0  0  0
    1.6120   -3.7192    2.6989 N   0  0  0  0  0  0  0  0  0  0  0  0
    1.9938   -5.0571    2.3111 C   0  0  0  0  0  0  0  0  0  0  0  0
    1.9692   -3.3609    3.5796 H   0  0  0  0  0  0  0  0  0  0  0  0
    1.2603   -5.7767    2.7038 H   0  0  0  0  0  0  0  0  0  0  0  0
    2.0237   -5.1261    1.2136 H   0  0  0  0  0  0  0  0  0  0  0  0
    2.9886   -5.2874    2.7202 H   0  0  0  0  0  0  0  0  0  0  0  0
 25 27  1  0  0  0  0
 26 27  2  0  0  0  0
 23 25  2  0  0  0  0
 24 26  1  0  0  0  0
 22 23  1  0  0  0  0
 22 24  2  0  0  0  0
 21 22  1  0  0  0  0
  1  3  1  0  0  0  0
  1  7  1  0  0  0  0
  1  2  2  0  0  0  0
 38 39  1  0  0  0  0
 39 47  1  0  0  0  0
 39 40  2  0  0  0  0
  8  9  1  0  0  0  0
  9 17  1  0  0  0  0
  9 10  2  0  0  0  0
 18 19  1  0  0  0  0
 19 37  1  0  0  0  0
 19 20  2  0  0  0  0
 38 41  1  0  0  0  0
  8 11  1  0  0  0  0
 47 48  1  0  0  0  0
 18 21  1  0  0  0  0
 37 38  1  0  0  0  0
  7  8  1  0  0  0  0
 17 18  1  0  0  0  0
 27 36  1  0  0  0  0
 25 34  1  0  0  0  0
 26 35  1  0  0  0  0
 23 32  1  0  0  0  0
 24 33  1  0  0  0  0
  3  4  1  0  0  0  0
  3  5  1  0  0  0  0
  3  6  1  0  0  0  0
 41 44  1  0  0  0  0
 41 45  1  0  0  0  0
 41 46  1  0  0  0  0
 11 14  1  0  0  0  0
 11 15  1  0  0  0  0
 11 16  1  0  0  0  0
 48 50  1  0  0  0  0
 48 51  1  0  0  0  0
 48 52  1  0  0  0  0
 21 30  1  0  0  0  0
 21 31  1  0  0  0  0
 38 43  1  0  0  0  0
  8 13  1  0  0  0  0
 18 29  1  0  0  0  0
 47 49  1  0  0  0  0
  7 12  1  0  0  0  0
 37 42  1  0  0  0  0
 17 28  1  0  0  0  0
M  END
$$$$

  -OEChem-05262214473D

 52 52  0     1  0  0  0  0  0999 V2000
   -1.8248    0.3424    3.9102 C   0  0  0  0  0  0  0  0  0  0  0  0
   -0.8774   -0.2723    3.4345 O   0  0  0  0  0  0  0  0  0  0  0  0
   -2.2566    0.0600    5.3109 C   0  0  0  0  0  0  0  0  0  0  0  0
   -3.0163   -0.7363    5.3643 H   0  0  0  0  0  0  0  0  0  0  0  0
   -1.4254   -0.2876    5.9452 H   0  0  0  0  0  0  0  0  0  0  0  0
   -2.6947    0.9149    5.8505 H   0  0  0  0  0  0  0  0  0  0  0  0
   -2.5745    1.3149    3.2691 N   0  0  0  0  0  0  0  0  0  0  0  0
   -2.3276    1.7409    1.9167 C   0  0  2  0  0  0  0  0  0  0  0  0
   -0.9926    1.1555    1.4755 C   0  0  0  0  0  0  0  0  0  0  0  0
   -0.1206    0.8028    2.2668 O   0  0  0  0  0  0  0  0  0  0  0  0
   -2.3188    3.2577    1.8072 C   0  0  0  0  0  0  0  0  0  0  0  0
   -3.3395    1.7507    3.7809 H   0  0  0  0  0  0  0  0  0  0  0  0
   -3.1317    1.3224    1.3015 H   0  0  0  0  0  0  0  0  0  0  0  0
   -1.5198    3.6949    2.4169 H   0  0  0  0  0  0  0  0  0  0  0  0
   -2.1594    3.5799    0.7729 H   0  0  0  0  0  0  0  0  0  0  0  0
   -3.2690    3.6789    2.1530 H   0  0  0  0  0  0  0  0  0  0  0  0
   -0.8700    1.1124    0.0921 N   0  0  0  0  0  0  0  0  0  0  0  0
    0.3073    0.6116   -0.5716 C   0  0  2  0  0  0  0  0  0  0  0  0
    0.9194   -0.4498    0.3356 C   0  0  0  0  0  0  0  0  0  0  0  0
    2.0764   -0.8468    0.2150 O   0  0  0  0  0  0  0  0  0  0  0  0
    1.3266    1.7204   -0.8575 C   0  0  0  0  0  0  0  0  0  0  0  0
    0.8319    2.7199   -1.8744 C   0  0  0  0  0  0  0  0  0  0  0  0
    0.9115    2.4279   -3.2361 C   0  0  0  0  0  0  0  0  0  0  0  0
    0.2947    3.9359   -1.4521 C   0  0  0  0  0  0  0  0  0  0  0  0
    0.4539    3.3519   -4.1754 C   0  0  0  0  0  0  0  0  0  0  0  0
   -0.1629    4.8599   -2.3915 C   0  0  0  0  0  0  0  0  0  0  0  0
   -0.0834    4.5679   -3.7531 C   0  0  0  0  0  0  0  0  0  0  0  0
   -1.6531    1.4091   -0.4852 H   0  0  0  0  0  0  0  0  0  0  0  0
   -0.0348    0.1372   -1.4989 H   0  0  0  0  0  0  0  0  0  0  0  0
    2.2760    1.2857   -1.1984 H   0  0  0  0  0  0  0  0  0  0  0  0
    1.5730    2.2622    0.0653 H   0  0  0  0  0  0  0  0  0  0  0  0
    1.3284    1.4829   -3.5743 H   0  0  0  0  0  0  0  0  0  0  0  0
    0.2286    4.1719   -0.3933 H   0  0  0  0  0  0  0  0  0  0  0  0
    0.5169    3.1248   -5.2357 H   0  0  0  0  0  0  0  0  0  0  0  0
   -0.5801    5.8070   -2.0624 H   0  0  0  0  0  0  0  0  0  0  0  0
   -0.4384    5.2879   -4.4847 H   0  0  0  0  0  0  0  0  0  0  0  0
    0.0355   -0.8613    1.3235 N   0  0  0  0  0  0  0  0  0  0  0  0
    0.3713   -1.8427    2.3300 C   0  0  2  0  0  0  0  0  0  0  0  0
    0.9635   -3.0558    1.6249 C   0  0  0  0  0  0  0  0  0  0  0  0
    0.7526   -3.3131    0.4416 O   0  0  0  0  0  0  0  0  0  0  0  0
   -0.8480   -2.2327    3.1510 C   0  0  0  0  0  0  0  0  0  0  0  0
   -0.8940   -0.4522    1.3400 H   0  0  0  0  0  0  0  0  0  0  0  0
    1.1308   -1.3873    2.9748 H   0  0  0  0  0  0  0  0  0  0  0  0
   -1.6200   -2.6907    2.5219 H   0  0  0  0  0  0  0  0  0  0  0  0
   -0.5864   -2.9548    3.9315 H   0  0  0  0  0  0  0  0  0  0  0  0
   -1.2903   -1.3544    3.6334 H   0  0  0  0  0  0  0  0  0  0  0  0
    1.7203   -3.8407    2.4837 N   0  0  0  0  0  0  0  0  0  0  0  0
    2.3767   -5.0541    2.0563 C   0  0  0  0  0  0  0  0  0  0  0  0
    1.8572   -3.5409    3.4445 H   0  0  0  0  0  0  0  0  0  0  0  0
    1.7143   -5.9133    2.2376 H   0  0  0  0  0  0  0  0  0  0  0  0
    2.6058   -4.9881    0.9824 H   0  0  0  0  0  0  0  0  0  0  0  0
    3.3103   -5.1849    2.6230 H   0  0  0  0  0  0  0  0  0  0  0  0
 25 27  1  0  0  0  0
 26 27  2  0  0  0  0
 23 25  2  0  0  0  0
 24 26  1  0  0  0  0
 22 23  1  0  0  0  0
 22 24  2  0  0  0  0
 21 22  1  0  0  0  0
  1  3  1  0  0  0  0
  1  7  1  0  0  0  0
  1  2  2  0  0  0  0
 38 39  1  0  0  0  0
 39 47  1  0  0  0  0
 39 40  2  0  0  0  0
  8  9  1  0  0  0  0
  9 17  1  0  0  0  0
  9 10  2  0  0  0  0
 18 19  1  0  0  0  0
 19 37  1  0  0  0  0
 19 20  2  0  0  0  0
 38 41  1  0  0  0  0
  8 11  1  0  0  0  0
 47 48  1  0  0  0  0
 18 21  1  0  0  0  0
 37 38  1  0  0  0  0
  7  8  1  0  0  0  0
 17 18  1  0  0  0  0
 27 36  1  0  0  0  0
 25 34  1  0  0  0  0
 26 35  1  0  0  0  0
 23 32  1  0  0  0  0
 24 33  1  0  0  0  0
  3  4  1  0  0  0  0
  3  5  1  0  0  0  0
  3  6  1  0  0  0  0
 41 44  1  0  0  0  0
 41 45  1  0  0  0  0
 41 46  1  0  0  0  0
 11 14  1  0  0  0  0
 11 15  1  0  0  0  0
 11 16  1  0  0  0  0
 48 50  1  0  0  0  0
 48 51  1  0  0  0  0
 48 52  1  0  0  0  0
 21 30  1  0  0  0  0
 21 31  1  0  0  0  0
 38 43  1  0  0  0  0
  8 13  1  0  0  0  0
 18 29  1  0  0  0  0
 47 49  1  0  0  0  0
  7 12  1  0  0  0  0
 37 42  1  0  0  0  0
 17 28  1  0  0  0  0
M  END
$$$$

  -OEChem-05262214473D

 52 52  0     1  0  0  0  0  0999 V2000
   -1.8248    0.3424    3.9102 C   0  0  0  0  0  0  0  0  0  0  0  0
   -0.8774   -0.2723    3.4345 O   0  0  0  0  0  0  0  0  0  0  0  0
   -2.2566    0.0600    5.3109 C   0  0  0  0  0  0  0  0  0  0  0  0
   -3.0163   -0.7363    5.3643 H   0  0  0  0  0  0  0  0  0  0  0  0
   -1.4254   -0.2876    5.9452 H   0  0  0  0  0  0  0  0  0  0  0  0
   -2.6947    0.9149    5.8505 H   0  0  0  0  0  0  0  0  0  0  0  0
   -2.5745    1.3149    3.2691 N   0  0  0  0  0  0  0  0  0  0  0  0
   -2.3276    1.7409    1.9167 C   0  0  2  0  0  0  0  0  0  0  0  0
   -0.9926    1.1555    1.4755 C   0  0  0  0  0  0  0  0  0  0  0  0
   -0.1206    0.8028    2.2668 O   0  0  0  0  0  0  0  0  0  0  0  0
   -2.3188    3.2577    1.8072 C   0  0  0  0  0  0  0  0  0  0  0  0
   -3.3395    1.7507    3.7809 H   0  0  0  0  0  0  0  0  0  0  0  0
   -3.1317    1.3224    1.3015 H   0  0  0  0  0  0  0  0  0  0  0  0
   -1.5198    3.6949    2.4169 H   0  0  0  0  0  0  0  0  0  0  0  0
   -2.1594    3.5799    0.7729 H   0  0  0  0  0  0  0  0  0  0  0  0
   -3.2690    3.6789    2.1530 H   0  0  0  0  0  0  0  0  0  0  0  0
   -0.8700    1.1124    0.0921 N   0  0  0  0  0  0  0  0  0  0  0  0
    0.3073    0.6116   -0.5716 C   0  0  2  0  0  0  0  0  0  0  0  0
    0.9194   -0.4498    0.3356 C   0  0  0  0  0  0  0  0  0  0  0  0
    2.1290   -0.6584    0.3999 O   0  0  0  0  0  0  0  0  0  0  0  0
    1.3266    1.7204   -0.8575 C   0  0  0  0  0  0  0  0  0  0  0  0
    0.8319    2.7199   -1.8744 C   0  0  0  0  0  0  0  0  0  0  0  0
    0.9115    2.4279   -3.2361 C   0  0  0  0  0  0  0  0  0  0  0  0
    0.2947    3.9359   -1.4521 C   0  0  0  0  0  0  0  0  0  0  0  0
    0.4539    3.3519   -4.1754 C   0  0  0  0  0  0  0  0  0  0  0  0
   -0.1629    4.8599   -2.3915 C   0  0  0  0  0  0  0  0  0  0  0  0
   -0.0834    4.5679   -3.7531 C   0  0  0  0  0  0  0  0  0  0  0  0
   -1.6531    1.4091   -0.4852 H   0  0  0  0  0  0  0  0  0  0  0  0
   -0.0348    0.1372   -1.4989 H   0  0  0  0  0  0  0  0  0  0  0  0
    2.2760    1.2857   -1.1984 H   0  0  0  0  0  0  0  0  0  0  0  0
    1.5730    2.2622    0.0653 H   0  0  0  0  0  0  0  0  0  0  0  0
    1.3284    1.4829   -3.5743 H   0  0  0  0  0  0  0  0  0  0  0  0
    0.2286    4.1719   -0.3933 H   0  0  0  0  0  0  0  0  0  0  0  0
    0.5169    3.1248   -5.2357 H   0  0  0  0  0  0  0  0  0  0  0  0
   -0.5801    5.8070   -2.0624 H   0  0  0  0  0  0  0  0  0  0  0  0
   -0.4384    5.2879   -4.4847 H   0  0  0  0  0  0  0  0  0  0  0  0
   -0.0419   -1.0984    1.0984 N   0  0  0  0  0  0  0  0  0  0  0  0
    0.2716   -2.1328    2.0578 C   0  0  2  0  0  0  0  0  0  0  0  0
    1.1666   -3.1558    1.3709 C   0  0  0  0  0  0  0  0  0  0  0  0
    1.2075   -3.2994    0.1507 O   0  0  0  0  0  0  0  0  0  0  0  0
   -0.9903   -2.7891    2.5961 C   0  0  0  0  0  0  0  0  0  0  0  0
   -1.0146   -0.8327    0.9761 H   0  0  0  0  0  0  0  0  0  0  0  0
    0.8241   -1.6518    2.8723 H   0  0  0  0  0  0  0  0  0  0  0  0
   -1.5571   -3.2763    1.7943 H   0  0  0  0  0  0  0  0  0  0  0  0
   -0.7523   -3.5528    3.3438 H   0  0  0  0  0  0  0  0  0  0  0  0
   -1.6465   -2.0470    3.0634 H   0  0  0  0  0  0  0  0  0  0  0  0
    1.8823   -3.9189    2.2828 N   0  0  0  0  0  0  0  0  0  0  0  0
    2.7920   -4.9657    1.8794 C   0  0  0  0  0  0  0  0  0  0  0  0
    1.8010   -3.7181    3.2752 H   0  0  0  0  0  0  0  0  0  0  0  0
    2.2579   -5.9270    1.8549 H   0  0  0  0  0  0  0  0  0  0  0  0
    3.1886   -4.7411    0.8783 H   0  0  0  0  0  0  0  0  0  0  0  0
    3.6228   -5.0263    2.5978 H   0  0  0  0  0  0  0  0  0  0  0  0
 25 27  1  0  0  0  0
 26 27  2  0  0  0  0
 23 25  2  0  0  0  0
 24 26  1  0  0  0  0
 22 23  1  0  0  0  0
 22 24  2  0  0  0  0
 21 22  1  0  0  0  0
  1  3  1  0  0  0  0
  1  7  1  0  0  0  0
  1  2  2  0  0  0  0
 38 39  1  0  0  0  0
 39 47  1  0  0  0  0
 39 40  2  0  0  0  0
  8  9  1  0  0  0  0
  9 17  1  0  0  0  0
  9 10  2  0  0  0  0
 18 19  1  0  0  0  0
 19 37  1  0  0  0  0
 19 20  2  0  0  0  0
 38 41  1  0  0  0  0
  8 11  1  0  0  0  0
 47 48  1  0  0  0  0
 18 21  1  0  0  0  0
 37 38  1  0  0  0  0
  7  8  1  0  0  0  0
 17 18  1  0  0  0  0
 27 36  1  0  0  0  0
 25 34  1  0  0  0  0
 26 35  1  0  0  0  0
 23 32  1  0  0  0  0
 24 33  1  0  0  0  0
  3  4  1  0  0  0  0
  3  5  1  0  0  0  0
  3  6  1  0  0  0  0
 41 44  1  0  0  0  0
 41 45  1  0  0  0  0
 41 46  1  0  0  0  0
 11 14  1  0  0  0  0
 11 15  1  0  0  0  0
 11 16  1  0  0  0  0
 48 50  1  0  0  0  0
 48 51  1  0  0  0  0
 48 52  1  0  0  0  0
 21 30  1  0  0  0  0
 21 31  1  0  0  0  0
 38 43  1  0  0  0  0
  8 13  1  0  0  0  0
 18 29  1  0  0  0  0
 47 49  1  0  0  0  0
  7 12  1  0  0  0  0
 37 42  1  0  0  0  0
 17 28  1  0  0  0  0
M  END
$$$$

  -OEChem-05262214473D

 52 52  0     1  0  0  0  0  0999 V2000
   -1.8248    0.3424    3.9102 C   0  0  0  0  0  0  0  0  0  0  0  0
   -0.8774   -0.2723    3.4345 O   0  0  0  0  0  0  0  0  0  0  0  0
   -2.2566    0.0600    5.3109 C   0  0  0  0  0  0  0  0  0  0  0  0
   -3.0163   -0.7363    5.3643 H   0  0  0  0  0  0  0  0  0  0  0  0
   -1.4254   -0.2876    5.9452 H   0  0  0  0  0  0  0  0  0  0  0  0
   -2.6947    0.9149    5.8505 H   0  0  0  0  0  0  0  0  0  0  0  0
   -2.5745    1.3149    3.2691 N   0  0  0  0  0  0  0  0  0  0  0  0
   -2.3276    1.7409    1.9167 C   0  0  2  0  0  0  0  0  0  0  0  0
   -0.9926    1.1555    1.4755 C   0  0  0  0  0  0  0  0  0  0  0  0
   -0.1206    0.8028    2.2668 O   0  0  0  0  0  0  0  0  0  0  0  0
   -2.3188    3.2577    1.8072 C   0  0  0  0  0  0  0  0  0  0  0  0
   -3.3395    1.7507    3.7809 H   0  0  0  0  0  0  0  0  0  0  0  0
   -3.1317    1.3224    1.3015 H   0  0  0  0  0  0  0  0  0  0  0  0
   -1.5198    3.6949    2.4169 H   0  0  0  0  0  0  0  0  0  0  0  0
   -2.1594    3.5799    0.7729 H   0  0  0  0  0  0  0  0  0  0  0  0
   -3.2690    3.6789    2.1530 H   0  0  0  0  0  0  0  0  0  0  0  0
   -0.8700    1.1124    0.0921 N   0  0  0  0  0  0  0  0  0  0  0  0
    0.3073    0.6116   -0.5716 C   0  0  2  0  0  0  0  0  0  0  0  0
    0.9194   -0.4498    0.3356 C   0  0  0  0  0  0  0  0  0  0  0  0
    2.1175   -0.4875    0.6076 O   0  0  0  0  0  0  0  0  0  0  0  0
    1.3266    1.7204   -0.8575 C   0  0  0  0  0  0  0  0  0  0  0  0
    0.8319    2.7199   -1.8744 C   0  0  0  0  0  0  0  0  0  0  0  0
    0.9115    2.4279   -3.2361 C   0  0  0  0  0  0  0  0  0  0  0  0
    0.2947    3.9359   -1.4521 C   0  0  0  0  0  0  0  0  0  0  0  0
    0.4539    3.3519   -4.1754 C   0  0  0  0  0  0  0  0  0  0  0  0
   -0.1629    4.8599   -2.3915 C   0  0  0  0  0  0  0  0  0  0  0  0
   -0.0834    4.5679   -3.7531 C   0  0  0  0  0  0  0  0  0  0  0  0
   -1.6531    1.4091   -0.4852 H   0  0  0  0  0  0  0  0  0  0  0  0
   -0.0348    0.1372   -1.4989 H   0  0  0  0  0  0  0  0  0  0  0  0
    2.2760    1.2857   -1.1984 H   0  0  0  0  0  0  0  0  0  0  0  0
    1.5730    2.2622    0.0653 H   0  0  0  0  0  0  0  0  0  0  0  0
    1.3284    1.4829   -3.5743 H   0  0  0  0  0  0  0  0  0  0  0  0
    0.2286    4.1719   -0.3933 H   0  0  0  0  0  0  0  0  0  0  0  0
    0.5169    3.1248   -5.2357 H   0  0  0  0  0  0  0  0  0  0  0  0
   -0.5801    5.8070   -2.0624 H   0  0  0  0  0  0  0  0  0  0  0  0
   -0.4384    5.2879   -4.4847 H   0  0  0  0  0  0  0  0  0  0  0  0
   -0.0396   -1.3159    0.8423 N   0  0  0  0  0  0  0  0  0  0  0  0
    0.2690   -2.4001    1.7468 C   0  0  2  0  0  0  0  0  0  0  0  0
    1.4240   -3.1947    1.1517 C   0  0  0  0  0  0  0  0  0  0  0  0
    1.6971   -3.1859   -0.0468 O   0  0  0  0  0  0  0  0  0  0  0  0
   -0.9420   -3.2907    1.9766 C   0  0  0  0  0  0  0  0  0  0  0  0
   -1.0069   -1.1810    0.5634 H   0  0  0  0  0  0  0  0  0  0  0  0
    0.5869   -1.9438    2.6906 H   0  0  0  0  0  0  0  0  0  0  0  0
   -1.2750   -3.7567    1.0420 H   0  0  0  0  0  0  0  0  0  0  0  0
   -0.7146   -4.0949    2.6842 H   0  0  0  0  0  0  0  0  0  0  0  0
   -1.7813   -2.7117    2.3768 H   0  0  0  0  0  0  0  0  0  0  0  0
    2.0871   -3.9487    2.1098 N   0  0  0  0  0  0  0  0  0  0  0  0
    3.2114   -4.7980    1.7927 C   0  0  0  0  0  0  0  0  0  0  0  0
    1.8046   -3.8802    3.0831 H   0  0  0  0  0  0  0  0  0  0  0  0
    2.8540   -5.8167    1.5817 H   0  0  0  0  0  0  0  0  0  0  0  0
    3.7321   -4.4019    0.9084 H   0  0  0  0  0  0  0  0  0  0  0  0
    3.9048   -4.8223    2.6463 H   0  0  0  0  0  0  0  0  0  0  0  0
 25 27  1  0  0  0  0
 26 27  2  0  0  0  0
 23 25  2  0  0  0  0
 24 26  1  0  0  0  0
 22 23  1  0  0  0  0
 22 24  2  0  0  0  0
 21 22  1  0  0  0  0
  1  3  1  0  0  0  0
  1  7  1  0  0  0  0
  1  2  2  0  0  0  0
 38 39  1  0  0  0  0
 39 47  1  0  0  0  0
 39 40  2  0  0  0  0
  8  9  1  0  0  0  0
  9 17  1  0  0  0  0
  9 10  2  0  0  0  0
 18 19  1  0  0  0  0
 19 37  1  0  0  0  0
 19 20  2  0  0  0  0
 38 41  1  0  0  0  0
  8 11  1  0  0  0  0
 47 48  1  0  0  0  0
 18 21  1  0  0  0  0
 37 38  1  0  0  0  0
  7  8  1  0  0  0  0
 17 18  1  0  0  0  0
 27 36  1  0  0  0  0
 25 34  1  0  0  0  0
 26 35  1  0  0  0  0
 23 32  1  0  0  0  0
 24 33  1  0  0  0  0
  3  4  1  0  0  0  0
  3  5  1  0  0  0  0
  3  6  1  0  0  0  0
 41 44  1  0  0  0  0
 41 45  1  0  0  0  0
 41 46  1  0  0  0  0
 11 14  1  0  0  0  0
 11 15  1  0  0  0  0
 11 16  1  0  0  0  0
 48 50  1  0  0  0  0
 48 51  1  0  0  0  0
 48 52  1  0  0  0  0
 21 30  1  0  0  0  0
 21 31  1  0  0  0  0
 38 43  1  0  0  0  0
  8 13  1  0  0  0  0
 18 29  1  0  0  0  0
 47 49  1  0  0  0  0
  7 12  1  0  0  0  0
 37 42  1  0  0  0  0
 17 28  1  0  0  0  0
M  END
$$$$

  -OEChem-05262214473D

 52 52  0     1  0  0  0  0  0999 V2000
   -1.8248    0.3424    3.9102 C   0  0  0  0  0  0  0  0  0  0  0  0
   -0.8774   -0.2723    3.4345 O   0  0  0  0  0  0  0  0  0  0  0  0
   -2.2566    0.0600    5.3109 C   0  0  0  0  0  0  0  0  0  0  0  0
   -3.0163   -0.7363    5.3643 H   0  0  0  0  0  0  0  0  0  0  0  0
   -1.4254   -0.2876    5.9452 H   0  0  0  0  0  0  0  0  0  0  0  0
   -2.6947    0.9149    5.8505 H   0  0  0  0  0  0  0  0  0  0  0  0
   -2.5745    1.3149    3.2691 N   0  0  0  0  0  0  0  0  0  0  0  0
   -2.3276    1.7409    1.9167 C   0  0  2  0  0  0  0  0  0  0  0  0
   -0.9926    1.1555    1.4755 C   0  0  0  0  0  0  0  0  0  0  0  0
   -0.1206    0.8028    2.2668 O   0  0  0  0  0  0  0  0  0  0  0  0
   -2.3188    3.2577    1.8072 C   0  0  0  0  0  0  0  0  0  0  0  0
   -3.3395    1.7507    3.7809 H   0  0  0  0  0  0  0  0  0  0  0  0
   -3.1317    1.3224    1.3015 H   0  0  0  0  0  0  0  0  0  0  0  0
   -1.5198    3.6949    2.4169 H   0  0  0  0  0  0  0  0  0  0  0  0
   -2.1594    3.5799    0.7729 H   0  0  0  0  0  0  0  0  0  0  0  0
   -3.2690    3.6789    2.1530 H   0  0  0  0  0  0  0  0  0  0  0  0
   -0.8700    1.1124    0.0921 N   0  0  0  0  0  0  0  0  0  0  0  0
    0.3073    0.6116   -0.5716 C   0  0  2  0  0  0  0  0  0  0  0  0
    0.9194   -0.4498    0.3356 C   0  0  0  0  0  0  0  0  0  0  0  0
    2.0426   -0.3458    0.8239 O   0  0  0  0  0  0  0  0  0  0  0  0
    1.3266    1.7204   -0.8575 C   0  0  0  0  0  0  0  0  0  0  0  0
    0.8319    2.7199   -1.8744 C   0  0  0  0  0  0  0  0  0  0  0  0
    0.9115    2.4279   -3.2361 C   0  0  0  0  0  0  0  0  0  0  0  0
    0.2947    3.9359   -1.4521 C   0  0  0  0  0  0  0  0  0  0  0  0
    0.4539    3.3519   -4.1754 C   0  0  0  0  0  0  0  0  0  0  0  0
   -0.1629    4.8599   -2.3915 C   0  0  0  0  0  0  0  0  0  0  0  0
   -0.0834    4.5679   -3.7531 C   0  0  0  0  0  0  0  0  0  0  0  0
   -1.6531    1.4091   -0.4852 H   0  0  0  0  0  0  0  0  0  0  0  0
   -0.0348    0.1372   -1.4989 H   0  0  0  0  0  0  0  0  0  0  0  0
    2.2760    1.2857   -1.1984 H   0  0  0  0  0  0  0  0  0  0  0  0
    1.5730    2.2622    0.0653 H   0  0  0  0  0  0  0  0  0  0  0  0
    1.3284    1.4829   -3.5743 H   0  0  0  0  0  0  0  0  0  0  0  0
    0.2286    4.1719   -0.3933 H   0  0  0  0  0  0  0  0  0  0  0  0
    0.5169    3.1248   -5.2357 H   0  0  0  0  0  0  0  0  0  0  0  0
   -0.5801    5.8070   -2.0624 H   0  0  0  0  0  0  0  0  0  0  0  0
   -0.4384    5.2879   -4.4847 H   0  0  0  0  0  0  0  0  0  0  0  0
    0.0423   -1.4991    0.5728 N   0  0  0  0  0  0  0  0  0  0  0  0
    0.3638   -2.6264    1.4182 C   0  0  2  0  0  0  0  0  0  0  0  0
    1.7181   -3.1699    0.9823 C   0  0  0  0  0  0  0  0  0  0  0  0
    2.1881   -2.9804   -0.1376 O   0  0  0  0  0  0  0  0  0  0  0  0
   -0.7066   -3.7035    1.3349 C   0  0  0  0  0  0  0  0  0  0  0  0
   -0.8715   -1.4734    0.1300 H   0  0  0  0  0  0  0  0  0  0  0  0
    0.4356   -2.2436    2.4421 H   0  0  0  0  0  0  0  0  0  0  0  0
   -0.7930   -4.0991    0.3163 H   0  0  0  0  0  0  0  0  0  0  0  0
   -0.4759   -4.5442    1.9975 H   0  0  0  0  0  0  0  0  0  0  0  0
   -1.6854   -3.3031    1.6201 H   0  0  0  0  0  0  0  0  0  0  0  0
    2.3207   -3.9279    1.9766 N   0  0  0  0  0  0  0  0  0  0  0  0
    3.6063   -4.5625    1.8018 C   0  0  0  0  0  0  0  0  0  0  0  0
    1.8676   -4.0163    2.8813 H   0  0  0  0  0  0  0  0  0  0  0  0
    3.4620   -5.5900    1.4368 H   0  0  0  0  0  0  0  0  0  0  0  0
    4.1995   -3.9936    1.0707 H   0  0  0  0  0  0  0  0  0  0  0  0
    4.1370   -4.5868    2.7651 H   0  0  0  0  0  0  0  0  0  0  0  0
 25 27  1  0  0  0  0
 26 27  2  0  0  0  0
 23 25  2  0  0  0  0
 24 26  1  0  0  0  0
 22 23  1  0  0  0  0
 22 24  2  0  0  0  0
 21 22  1  0  0  0  0
  1  3  1  0  0  0  0
  1  7  1  0  0  0  0
  1  2  2  0  0  0  0
 38 39  1  0  0  0  0
 39 47  1  0  0  0  0
 39 40  2  0  0  0  0
  8  9  1  0  0  0  0
  9 17  1  0  0  0  0
  9 10  2  0  0  0  0
 18 19  1  0  0  0  0
 19 37  1  0  0  0  0
 19 20  2  0  0  0  0
 38 41  1  0  0  0  0
  8 11  1  0  0  0  0
 47 48  1  0  0  0  0
 18 21  1  0  0  0  0
 37 38  1  0  0  0  0
  7  8  1  0  0  0  0
 17 18  1  0  0  0  0
 27 36  1  0  0  0  0
 25 34  1  0  0  0  0
 26 35  1  0  0  0  0
 23 32  1  0  0  0  0
 24 33  1  0  0  0  0
  3  4  1  0  0  0  0
  3  5  1  0  0  0  0
  3  6  1  0  0  0  0
 41 44  1  0  0  0  0
 41 45  1  0  0  0  0
 41 46  1  0  0  0  0
 11 14  1  0  0  0  0
 11 15  1  0  0  0  0
 11 16  1  0  0  0  0
 48 50  1  0  0  0  0
 48 51  1  0  0  0  0
 48 52  1  0  0  0  0
 21 30  1  0  0  0  0
 21 31  1  0  0  0  0
 38 43  1  0  0  0  0
  8 13  1  0  0  0  0
 18 29  1  0  0  0  0
 47 49  1  0  0  0  0
  7 12  1  0  0  0  0
 37 42  1  0  0  0  0
 17 28  1  0  0  0  0
M  END
$$$$

  -OEChem-05262214473D

 52 52  0     1  0  0  0  0  0999 V2000
   -1.8248    0.3424    3.9102 C   0  0  0  0  0  0  0  0  0  0  0  0
   -0.8774   -0.2723    3.4345 O   0  0  0  0  0  0  0  0  0  0  0  0
   -2.2566    0.0600    5.3109 C   0  0  0  0  0  0  0  0  0  0  0  0
   -3.0163   -0.7363    5.3643 H   0  0  0  0  0  0  0  0  0  0  0  0
   -1.4254   -0.2876    5.9452 H   0  0  0  0  0  0  0  0  0  0  0  0
   -2.6947    0.9149    5.8505 H   0  0  0  0  0  0  0  0  0  0  0  0
   -2.5745    1.3149    3.2691 N   0  0  0  0  0  0  0  0  0  0  0  0
   -2.3276    1.7409    1.9167 C   0  0  2  0  0  0  0  0  0  0  0  0
   -0.9926    1.1555    1.4755 C   0  0  0  0  0  0  0  0  0  0  0  0
   -0.1206    0.8028    2.2668 O   0  0  0  0  0  0  0  0  0  0  0  0
   -2.3188    3.2577    1.8072 C   0  0  0  0  0  0  0  0  0  0  0  0
   -3.3395    1.7507    3.7809 H   0  0  0  0  0  0  0  0  0  0  0  0
   -3.1317    1.3224    1.3015 H   0  0  0  0  0  0  0  0  0  0  0  0
   -1.5198    3.6949    2.4169 H   0  0  0  0  0  0  0  0  0  0  0  0
   -2.1594    3.5799    0.7729 H   0  0  0  0  0  0  0  0  0  0  0  0
   -3.2690    3.6789    2.1530 H   0  0  0  0  0  0  0  0  0  0  0  0
   -0.8700    1.1124    0.0921 N   0  0  0  0  0  0  0  0  0  0  0  0
    0.3073    0.6116   -0.5716 C   0  0  2  0  0  0  0  0  0  0  0  0
    0.9194   -0.4498    0.3356 C   0  0  0  0  0  0  0  0  0  0  0  0
    1.9095   -0.2430    1.0340 O   0  0  0  0  0  0  0  0  0  0  0  0
    1.3266    1.7204   -0.8575 C   0  0  0  0  0  0  0  0  0  0  0  0
    0.8319    2.7199   -1.8744 C   0  0  0  0  0  0  0  0  0  0  0  0
    0.9115    2.4279   -3.2361 C   0  0  0  0  0  0  0  0  0  0  0  0
    0.2947    3.9359   -1.4521 C   0  0  0  0  0  0  0  0  0  0  0  0
    0.4539    3.3519   -4.1754 C   0  0  0  0  0  0  0  0  0  0  0  0
   -0.1629    4.8599   -2.3915 C   0  0  0  0  0  0  0  0  0  0  0  0
   -0.0834    4.5679   -3.7531 C   0  0  0  0  0  0  0  0  0  0  0  0
   -1.6531    1.4091   -0.4852 H   0  0  0  0  0  0  0  0  0  0  0  0
   -0.0348    0.1372   -1.4989 H   0  0  0  0  0  0  0  0  0  0  0  0
    2.2760    1.2857   -1.1984 H   0  0  0  0  0  0  0  0  0  0  0  0
    1.5730    2.2622    0.0653 H   0  0  0  0  0  0  0  0  0  0  0  0
    1.3284    1.4829   -3.5743 H   0  0  0  0  0  0  0  0  0  0  0  0
    0.2286    4.1719   -0.3933 H   0  0  0  0  0  0  0  0  0  0  0  0
    0.5169    3.1248   -5.2357 H   0  0  0  0  0  0  0  0  0  0  0  0
   -0.5801    5.8070   -2.0624 H   0  0  0  0  0  0  0  0  0  0  0  0
   -0.4384    5.2879   -4.4847 H   0  0  0  0  0  0  0  0  0  0  0  0
    0.1982   -1.6354    0.3082 N   0  0  0  0  0  0  0  0  0  0  0  0
    0.5494   -2.7962    1.0943 C   0  0  2  0  0  0  0  0  0  0  0  0
    2.0289   -3.0831    0.8743 C   0  0  0  0  0  0  0  0  0  0  0  0
    2.6471   -2.6967   -0.1154 O   0  0  0  0  0  0  0  0  0  0  0  0
   -0.2999   -3.9992    0.7145 C   0  0  0  0  0  0  0  0  0  0  0  0
   -0.6175   -1.6899   -0.2947 H   0  0  0  0  0  0  0  0  0  0  0  0
    0.3804   -2.5306    2.1435 H   0  0  0  0  0  0  0  0  0  0  0  0
   -0.1440   -4.2802   -0.3334 H   0  0  0  0  0  0  0  0  0  0  0  0
   -0.0523   -4.8700    1.3305 H   0  0  0  0  0  0  0  0  0  0  0  0
   -1.3653   -3.7809    0.8451 H   0  0  0  0  0  0  0  0  0  0  0  0
    2.5672   -3.8580    1.8921 N   0  0  0  0  0  0  0  0  0  0  0  0
    3.9499   -4.2751    1.9063 C   0  0  0  0  0  0  0  0  0  0  0  0
    1.9858   -4.1171    2.6836 H   0  0  0  0  0  0  0  0  0  0  0  0
    4.0405   -5.2623    1.4299 H   0  0  0  0  0  0  0  0  0  0  0  0
    4.5589   -3.5442    1.3541 H   0  0  0  0  0  0  0  0  0  0  0  0
    4.3036   -4.3360    2.9461 H   0  0  0  0  0  0  0  0  0  0  0  0
 25 27  1  0  0  0  0
 26 27  2  0  0  0  0
 23 25  2  0  0  0  0
 24 26  1  0  0  0  0
 22 23  1  0  0  0  0
 22 24  2  0  0  0  0
 21 22  1  0  0  0  0
  1  3  1  0  0  0  0
  1  7  1  0  0  0  0
  1  2  2  0  0  0  0
 38 39  1  0  0  0  0
 39 47  1  0  0  0  0
 39 40  2  0  0  0  0
  8  9  1  0  0  0  0
  9 17  1  0  0  0  0
  9 10  2  0  0  0  0
 18 19  1  0  0  0  0
 19 37  1  0  0  0  0
 19 20  2  0  0  0  0
 38 41  1  0  0  0  0
  8 11  1  0  0  0  0
 47 48  1  0  0  0  0
 18 21  1  0  0  0  0
 37 38  1  0  0  0  0
  7  8  1  0  0  0  0
 17 18  1  0  0  0  0
 27 36  1  0  0  0  0
 25 34  1  0  0  0  0
 26 35  1  0  0  0  0
 23 32  1  0  0  0  0
 24 33  1  0  0  0  0
  3  4  1  0  0  0  0
  3  5  1  0  0  0  0
  3  6  1  0  0  0  0
 41 44  1  0  0  0  0
 41 45  1  0  0  0  0
 41 46  1  0  0  0  0
 11 14  1  0  0  0  0
 11 15  1  0  0  0  0
 11 16  1  0  0  0  0
 48 50  1  0  0  0  0
 48 51  1  0  0  0  0
 48 52  1  0  0  0  0
 21 30  1  0  0  0  0
 21 31  1  0  0  0  0
 38 43  1  0  0  0  0
  8 13  1  0  0  0  0
 18 29  1  0  0  0  0
 47 49  1  0  0  0  0
  7 12  1  0  0  0  0
 37 42  1  0  0  0  0
 17 28  1  0  0  0  0
M  END
$$$$

  -OEChem-05262214473D

 52 52  0     1  0  0  0  0  0999 V2000
   -1.8248    0.3424    3.9102 C   0  0  0  0  0  0  0  0  0  0  0  0
   -0.8774   -0.2723    3.4345 O   0  0  0  0  0  0  0  0  0  0  0  0
   -2.2566    0.0600    5.3109 C   0  0  0  0  0  0  0  0  0  0  0  0
   -3.0163   -0.7363    5.3643 H   0  0  0  0  0  0  0  0  0  0  0  0
   -1.4254   -0.2876    5.9452 H   0  0  0  0  0  0  0  0  0  0  0  0
   -2.6947    0.9149    5.8505 H   0  0  0  0  0  0  0  0  0  0  0  0
   -2.5745    1.3149    3.2691 N   0  0  0  0  0  0  0  0  0  0  0  0
   -2.3276    1.7409    1.9167 C   0  0  2  0  0  0  0  0  0  0  0  0
   -0.9926    1.1555    1.4755 C   0  0  0  0  0  0  0  0  0  0  0  0
   -0.1206    0.8028    2.2668 O   0  0  0  0  0  0  0  0  0  0  0  0
   -2.3188    3.2577    1.8072 C   0  0  0  0  0  0  0  0  0  0  0  0
   -3.3395    1.7507    3.7809 H   0  0  0  0  0  0  0  0  0  0  0  0
   -3.1317    1.3224    1.3015 H   0  0  0  0  0  0  0  0  0  0  0  0
   -1.5198    3.6949    2.4169 H   0  0  0  0  0  0  0  0  0  0  0  0
   -2.1594    3.5799    0.7729 H   0  0  0  0  0  0  0  0  0  0  0  0
   -3.2690    3.6789    2.1530 H   0  0  0  0  0  0  0  0  0  0  0  0
   -0.8700    1.1124    0.0921 N   0  0  0  0  0  0  0  0  0  0  0  0
    0.3073    0.6116   -0.5716 C   0  0  2  0  0  0  0  0  0  0  0  0
    0.9194   -0.4498    0.3356 C   0  0  0  0  0  0  0  0  0  0  0  0
    1.7272   -0.1860    1.2237 O   0  0  0  0  0  0  0  0  0  0  0  0
    1.3266    1.7204   -0.8575 C   0  0  0  0  0  0  0  0  0  0  0  0
    0.8319    2.7199   -1.8744 C   0  0  0  0  0  0  0  0  0  0  0  0
    0.9115    2.4279   -3.2361 C   0  0  0  0  0  0  0  0  0  0  0  0
    0.2947    3.9359   -1.4521 C   0  0  0  0  0  0  0  0  0  0  0  0
    0.4539    3.3519   -4.1754 C   0  0  0  0  0  0  0  0  0  0  0  0
   -0.1629    4.8599   -2.3915 C   0  0  0  0  0  0  0  0  0  0  0  0
   -0.0834    4.5679   -3.7531 C   0  0  0  0  0  0  0  0  0  0  0  0
   -1.6531    1.4091   -0.4852 H   0  0  0  0  0  0  0  0  0  0  0  0
   -0.0348    0.1372   -1.4989 H   0  0  0  0  0  0  0  0  0  0  0  0
    2.2760    1.2857   -1.1984 H   0  0  0  0  0  0  0  0  0  0  0  0
    1.5730    2.2622    0.0653 H   0  0  0  0  0  0  0  0  0  0  0  0
    1.3284    1.4829   -3.5743 H   0  0  0  0  0  0  0  0  0  0  0  0
    0.2286    4.1719   -0.3933 H   0  0  0  0  0  0  0  0  0  0  0  0
    0.5169    3.1248   -5.2357 H   0  0  0  0  0  0  0  0  0  0  0  0
   -0.5801    5.8070   -2.0624 H   0  0  0  0  0  0  0  0  0  0  0  0
   -0.4384    5.2879   -4.4847 H   0  0  0  0  0  0  0  0  0  0  0  0
    0.4174   -1.7155    0.0665 N   0  0  0  0  0  0  0  0  0  0  0  0
    0.8132   -2.8980    0.7972 C   0  0  2  0  0  0  0  0  0  0  0  0
    2.3351   -2.9401    0.8349 C   0  0  0  0  0  0  0  0  0  0  0  0
    3.0428   -2.3544    0.0181 O   0  0  0  0  0  0  0  0  0  0  0  0
    0.2503   -4.1578    0.1579 C   0  0  0  0  0  0  0  0  0  0  0  0
   -0.2623   -1.8158   -0.6816 H   0  0  0  0  0  0  0  0  0  0  0  0
    0.4250   -2.7853    1.8154 H   0  0  0  0  0  0  0  0  0  0  0  0
    0.6280   -4.2876   -0.8629 H   0  0  0  0  0  0  0  0  0  0  0  0
    0.5272   -5.0502    0.7287 H   0  0  0  0  0  0  0  0  0  0  0  0
   -0.8429   -4.1127    0.1045 H   0  0  0  0  0  0  0  0  0  0  0  0
    2.8097   -3.7438    1.8621 N   0  0  0  0  0  0  0  0  0  0  0  0
    4.2186   -3.9554    2.0991 C   0  0  0  0  0  0  0  0  0  0  0  0
    2.1511   -4.1758    2.5035 H   0  0  0  0  0  0  0  0  0  0  0  0
    4.5501   -4.8560    1.5615 H   0  0  0  0  0  0  0  0  0  0  0  0
    4.7857   -3.0842    1.7393 H   0  0  0  0  0  0  0  0  0  0  0  0
    4.3933   -4.0868    3.1771 H   0  0  0  0  0  0  0  0  0  0  0  0
 25 27  1  0  0  0  0
 26 27  2  0  0  0  0
 23 25  2  0  0  0  0
 24 26  1  0  0  0  0
 22 23  1  0  0  0  0
 22 24  2  0  0  0  0
 21 22  1  0  0  0  0
  1  3  1  0  0  0  0
  1  7  1  0  0  0  0
  1  2  2  0  0  0  0
 38 39  1  0  0  0  0
 39 47  1  0  0  0  0
 39 40  2  0  0  0  0
  8  9  1  0  0  0  0
  9 17  1  0  0  0  0
  9 10  2  0  0  0  0
 18 19  1  0  0  0  0
 19 37  1  0  0  0  0
 19 20  2  0  0  0  0
 38 41  1  0  0  0  0
  8 11  1  0  0  0  0
 47 48  1  0  0  0  0
 18 21  1  0  0  0  0
 37 38  1  0  0  0  0
  7  8  1  0  0  0  0
 17 18  1  0  0  0  0
 27 36  1  0  0  0  0
 25 34  1  0  0  0  0
 26 35  1  0  0  0  0
 23 32  1  0  0  0  0
 24 33  1  0  0  0  0
  3  4  1  0  0  0  0
  3  5  1  0  0  0  0
  3  6  1  0  0  0  0
 41 44  1  0  0  0  0
 41 45  1  0  0  0  0
 41 46  1  0  0  0  0
 11 14  1  0  0  0  0
 11 15  1  0  0  0  0
 11 16  1  0  0  0  0
 48 50  1  0  0  0  0
 48 51  1  0  0  0  0
 48 52  1  0  0  0  0
 21 30  1  0  0  0  0
 21 31  1  0  0  0  0
 38 43  1  0  0  0  0
  8 13  1  0  0  0  0
 18 29  1  0  0  0  0
 47 49  1  0  0  0  0
  7 12  1  0  0  0  0
 37 42  1  0  0  0  0
 17 28  1  0  0  0  0
M  END
$$$$

  -OEChem-05262214473D

 52 52  0     1  0  0  0  0  0999 V2000
   -1.8248    0.3424    3.9102 C   0  0  0  0  0  0  0  0  0  0  0  0
   -0.8774   -0.2723    3.4345 O   0  0  0  0  0  0  0  0  0  0  0  0
   -2.2566    0.0600    5.3109 C   0  0  0  0  0  0  0  0  0  0  0  0
   -3.0163   -0.7363    5.3643 H   0  0  0  0  0  0  0  0  0  0  0  0
   -1.4254   -0.2876    5.9452 H   0  0  0  0  0  0  0  0  0  0  0  0
   -2.6947    0.9149    5.8505 H   0  0  0  0  0  0  0  0  0  0  0  0
   -2.5745    1.3149    3.2691 N   0  0  0  0  0  0  0  0  0  0  0  0
   -2.3276    1.7409    1.9167 C   0  0  2  0  0  0  0  0  0  0  0  0
   -0.9926    1.1555    1.4755 C   0  0  0  0  0  0  0  0  0  0  0  0
   -0.1206    0.8028    2.2668 O   0  0  0  0  0  0  0  0  0  0  0  0
   -2.3188    3.2577    1.8072 C   0  0  0  0  0  0  0  0  0  0  0  0
   -3.3395    1.7507    3.7809 H   0  0  0  0  0  0  0  0  0  0  0  0
   -3.1317    1.3224    1.3015 H   0  0  0  0  0  0  0  0  0  0  0  0
   -1.5198    3.6949    2.4169 H   0  0  0  0  0  0  0  0  0  0  0  0
   -2.1594    3.5799    0.7729 H   0  0  0  0  0  0  0  0  0  0  0  0
   -3.2690    3.6789    2.1530 H   0  0  0  0  0  0  0  0  0  0  0  0
   -0.8700    1.1124    0.0921 N   0  0  0  0  0  0  0  0  0  0  0  0
    0.3073    0.6116   -0.5716 C   0  0  2  0  0  0  0  0  0  0  0  0
    0.9194   -0.4498    0.3356 C   0  0  0  0  0  0  0  0  0  0  0  0
    1.5082   -0.1787    1.3800 O   0  0  0  0  0  0  0  0  0  0  0  0
    1.3266    1.7204   -0.8575 C   0  0  0  0  0  0  0  0  0  0  0  0
    0.8319    2.7199   -1.8744 C   0  0  0  0  0  0  0  0  0  0  0  0
    0.9115    2.4279   -3.2361 C   0  0  0  0  0  0  0  0  0  0  0  0
    0.2947    3.9359   -1.4521 C   0  0  0  0  0  0  0  0  0  0  0  0
    0.4539    3.3519   -4.1754 C   0  0  0  0  0  0  0  0  0  0  0  0
   -0.1629    4.8599   -2.3915 C   0  0  0  0  0  0  0  0  0  0  0  0
   -0.0834    4.5679   -3.7531 C   0  0  0  0  0  0  0  0  0  0  0  0
   -1.6531    1.4091   -0.4852 H   0  0  0  0  0  0  0  0  0  0  0  0
   -0.0348    0.1372   -1.4989 H   0  0  0  0  0  0  0  0  0  0  0  0
    2.2760    1.2857   -1.1984 H   0  0  0  0  0  0  0  0  0  0  0  0
    1.5730    2.2622    0.0653 H   0  0  0  0  0  0  0  0  0  0  0  0
    1.3284    1.4829   -3.5743 H   0  0  0  0  0  0  0  0  0  0  0  0
    0.2286    4.1719   -0.3933 H   0  0  0  0  0  0  0  0  0  0  0  0
    0.5169    3.1248   -5.2357 H   0  0  0  0  0  0  0  0  0  0  0  0
   -0.5801    5.8070   -2.0624 H   0  0  0  0  0  0  0  0  0  0  0  0
   -0.4384    5.2879   -4.4847 H   0  0  0  0  0  0  0  0  0  0  0  0
    0.6851   -1.7341   -0.1357 N   0  0  0  0  0  0  0  0  0  0  0  0
    1.1372   -2.9248    0.5472 C   0  0  2  0  0  0  0  0  0  0  0  0
    2.6160   -2.7507    0.8670 C   0  0  0  0  0  0  0  0  0  0  0  0
    3.3482   -1.9767    0.2540 O   0  0  0  0  0  0  0  0  0  0  0  0
    0.9064   -4.1684   -0.2972 C   0  0  0  0  0  0  0  0  0  0  0  0
    0.1699   -1.8425   -1.0044 H   0  0  0  0  0  0  0  0  0  0  0  0
    0.5665   -2.9904    1.4800 H   0  0  0  0  0  0  0  0  0  0  0  0
    1.4702   -4.1208   -1.2360 H   0  0  0  0  0  0  0  0  0  0  0  0
    1.2231   -5.0725    0.2331 H   0  0  0  0  0  0  0  0  0  0  0  0
   -0.1537   -4.2757   -0.5512 H   0  0  0  0  0  0  0  0  0  0  0  0
    3.0317   -3.5929    1.8888 N   0  0  0  0  0  0  0  0  0  0  0  0
    4.3942   -3.6252    2.3668 C   0  0  0  0  0  0  0  0  0  0  0  0
    2.3523   -4.1882    2.3532 H   0  0  0  0  0  0  0  0  0  0  0  0
    4.9560   -4.3987    1.8227 H   0  0  0  0  0  0  0  0  0  0  0  0
    4.8645   -2.6449    2.2000 H   0  0  0  0  0  0  0  0  0  0  0  0
    4.4000   -3.8564    3.4423 H   0  0  0  0  0  0  0  0  0  0  0  0
 25 27  1  0  0  0  0
 26 27  2  0  0  0  0
 23 25  2  0  0  0  0
 24 26  1  0  0  0  0
 22 23  1  0  0  0  0
 22 24  2  0  0  0  0
 21 22  1  0  0  0  0
  1  3  1  0  0  0  0
  1  7  1  0  0  0  0
  1  2  2  0  0  0  0
 38 39  1  0  0  0  0
 39 47  1  0  0  0  0
 39 40  2  0  0  0  0
  8  9  1  0  0  0  0
  9 17  1  0  0  0  0
  9 10  2  0  0  0  0
 18 19  1  0  0  0  0
 19 37  1  0  0  0  0
 19 20  2  0  0  0  0
 38 41  1  0  0  0  0
  8 11  1  0  0  0  0
 47 48  1  0  0  0  0
 18 21  1  0  0  0  0
 37 38  1  0  0  0  0
  7  8  1  0  0  0  0
 17 18  1  0  0  0  0
 27 36  1  0  0  0  0
 25 34  1  0  0  0  0
 26 35  1  0  0  0  0
 23 32  1  0  0  0  0
 24 33  1  0  0  0  0
  3  4  1  0  0  0  0
  3  5  1  0  0  0  0
  3  6  1  0  0  0  0
 41 44  1  0  0  0  0
 41 45  1  0  0  0  0
 41 46  1  0  0  0  0
 11 14  1  0  0  0  0
 11 15  1  0  0  0  0
 11 16  1  0  0  0  0
 48 50  1  0  0  0  0
 48 51  1  0  0  0  0
 48 52  1  0  0  0  0
 21 30  1  0  0  0  0
 21 31  1  0  0  0  0
 38 43  1  0  0  0  0
  8 13  1  0  0  0  0
 18 29  1  0  0  0  0
 47 49  1  0  0  0  0
  7 12  1  0  0  0  0
 37 42  1  0  0  0  0
 17 28  1  0  0  0  0
M  END
$$$$

  -OEChem-05262214473D

 52 52  0     1  0  0  0  0  0999 V2000
   -1.8248    0.3424    3.9102 C   0  0  0  0  0  0  0  0  0  0  0  0
   -0.8774   -0.2723    3.4345 O   0  0  0  0  0  0  0  0  0  0  0  0
   -2.2566    0.0600    5.3109 C   0  0  0  0  0  0  0  0  0  0  0  0
   -3.0163   -0.7363    5.3643 H   0  0  0  0  0  0  0  0  0  0  0  0
   -1.4254   -0.2876    5.9452 H   0  0  0  0  0  0  0  0  0  0  0  0
   -2.6947    0.9149    5.8505 H   0  0  0  0  0  0  0  0  0  0  0  0
   -2.5745    1.3149    3.2691 N   0  0  0  0  0  0  0  0  0  0  0  0
   -2.3276    1.7409    1.9167 C   0  0  2  0  0  0  0  0  0  0  0  0
   -0.9926    1.1555    1.4755 C   0  0  0  0  0  0  0  0  0  0  0  0
   -0.1206    0.8028    2.2668 O   0  0  0  0  0  0  0  0  0  0  0  0
   -2.3188    3.2577    1.8072 C   0  0  0  0  0  0  0  0  0  0  0  0
   -3.3395    1.7507    3.7809 H   0  0  0  0  0  0  0  0  0  0  0  0
   -3.1317    1.3224    1.3015 H   0  0  0  0  0  0  0  0  0  0  0  0
   -1.5198    3.6949    2.4169 H   0  0  0  0  0  0  0  0  0  0  0  0
   -2.1594    3.5799    0.7729 H   0  0  0  0  0  0  0  0  0  0  0  0
   -3.2690    3.6789    2.1530 H   0  0  0  0  0  0  0  0  0  0  0  0
   -0.8700    1.1124    0.0921 N   0  0  0  0  0  0  0  0  0  0  0  0
    0.3073    0.6116   -0.5716 C   0  0  2  0  0  0  0  0  0  0  0  0
    0.9194   -0.4498    0.3356 C   0  0  0  0  0  0  0  0  0  0  0  0
    1.2674   -0.2216    1.4922 O   0  0  0  0  0  0  0  0  0  0  0  0
    1.3266    1.7204   -0.8575 C   0  0  0  0  0  0  0  0  0  0  0  0
    0.8319    2.7199   -1.8744 C   0  0  0  0  0  0  0  0  0  0  0  0
    0.9115    2.4279   -3.2361 C   0  0  0  0  0  0  0  0  0  0  0  0
    0.2947    3.9359   -1.4521 C   0  0  0  0  0  0  0  0  0  0  0  0
    0.4539    3.3519   -4.1754 C   0  0  0  0  0  0  0  0  0  0  0  0
   -0.1629    4.8599   -2.3915 C   0  0  0  0  0  0  0  0  0  0  0  0
   -0.0834    4.5679   -3.7531 C   0  0  0  0  0  0  0  0  0  0  0  0
   -1.6531    1.4091   -0.4852 H   0  0  0  0  0  0  0  0  0  0  0  0
   -0.0348    0.1372   -1.4989 H   0  0  0  0  0  0  0  0  0  0  0  0
    2.2760    1.2857   -1.1984 H   0  0  0  0  0  0  0  0  0  0  0  0
    1.5730    2.2622    0.0653 H   0  0  0  0  0  0  0  0  0  0  0  0
    1.3284    1.4829   -3.5743 H   0  0  0  0  0  0  0  0  0  0  0  0
    0.2286    4.1719   -0.3933 H   0  0  0  0  0  0  0  0  0  0  0  0
    0.5169    3.1248   -5.2357 H   0  0  0  0  0  0  0  0  0  0  0  0
   -0.5801    5.8070   -2.0624 H   0  0  0  0  0  0  0  0  0  0  0  0
   -0.4384    5.2879   -4.4847 H   0  0  0  0  0  0  0  0  0  0  0  0
    0.9829   -1.6897   -0.2848 N   0  0  0  0  0  0  0  0  0  0  0  0
    1.4993   -2.8749    0.3614 C   0  0  2  0  0  0  0  0  0  0  0  0
    2.8524   -2.5279    0.9682 C   0  0  0  0  0  0  0  0  0  0  0  0
    3.5426   -1.5893    0.5762 O   0  0  0  0  0  0  0  0  0  0  0  0
    1.6238   -4.0303   -0.6196 C   0  0  0  0  0  0  0  0  0  0  0  0
    0.6496   -1.7682   -1.2411 H   0  0  0  0  0  0  0  0  0  0  0  0
    0.7952   -3.1318    1.1603 H   0  0  0  0  0  0  0  0  0  0  0  0
    2.3252   -3.7913   -1.4273 H   0  0  0  0  0  0  0  0  0  0  0  0
    1.9881   -4.9353   -0.1225 H   0  0  0  0  0  0  0  0  0  0  0  0
    0.6553   -4.2589   -1.0773 H   0  0  0  0  0  0  0  0  0  0  0  0
    3.2181   -3.4158    1.9702 N   0  0  0  0  0  0  0  0  0  0  0  0
    4.4647   -3.3071    2.6914 C   0  0  0  0  0  0  0  0  0  0  0  0
    2.5756   -4.1537    2.2430 H   0  0  0  0  0  0  0  0  0  0  0  0
    5.2306   -3.9216    2.1956 H   0  0  0  0  0  0  0  0  0  0  0  0
    4.7900   -2.2564    2.7049 H   0  0  0  0  0  0  0  0  0  0  0  0
    4.3231   -3.6603    3.7235 H   0  0  0  0  0  0  0  0  0  0  0  0
 25 27  1  0  0  0  0
 26 27  2  0  0  0  0
 23 25  2  0  0  0  0
 24 26  1  0  0  0  0
 22 23  1  0  0  0  0
 22 24  2  0  0  0  0
 21 22  1  0  0  0  0
  1  3  1  0  0  0  0
  1  7  1  0  0  0  0
  1  2  2  0  0  0  0
 38 39  1  0  0  0  0
 39 47  1  0  0  0  0
 39 40  2  0  0  0  0
  8  9  1  0  0  0  0
  9 17  1  0  0  0  0
  9 10  2  0  0  0  0
 18 19  1  0  0  0  0
 19 37  1  0  0  0  0
 19 20  2  0  0  0  0
 38 41  1  0  0  0  0
  8 11  1  0  0  0  0
 47 48  1  0  0  0  0
 18 21  1  0  0  0  0
 37 38  1  0  0  0  0
  7  8  1  0  0  0  0
 17 18  1  0  0  0  0
 27 36  1  0  0  0  0
 25 34  1  0  0  0  0
 26 35  1  0  0  0  0
 23 32  1  0  0  0  0
 24 33  1  0  0  0  0
  3  4  1  0  0  0  0
  3  5  1  0  0  0  0
  3  6  1  0  0  0  0
 41 44  1  0  0  0  0
 41 45  1  0  0  0  0
 41 46  1  0  0  0  0
 11 14  1  0  0  0  0
 11 15  1  0  0  0  0
 11 16  1  0  0  0  0
 48 50  1  0  0  0  0
 48 51  1  0  0  0  0
 48 52  1  0  0  0  0
 21 30  1  0  0  0  0
 21 31  1  0  0  0  0
 38 43  1  0  0  0  0
  8 13  1  0  0  0  0
 18 29  1  0  0  0  0
 47 49  1  0  0  0  0
  7 12  1  0  0  0  0
 37 42  1  0  0  0  0
 17 28  1  0  0  0  0
M  END
$$$$

  -OEChem-05262214473D

 52 52  0     1  0  0  0  0  0999 V2000
   -1.8248    0.3424    3.9102 C   0  0  0  0  0  0  0  0  0  0  0  0
   -0.8774   -0.2723    3.4345 O   0  0  0  0  0  0  0  0  0  0  0  0
   -2.2566    0.0600    5.3109 C   0  0  0  0  0  0  0  0  0  0  0  0
   -3.0163   -0.7363    5.3643 H   0  0  0  0  0  0  0  0  0  0  0  0
   -1.4254   -0.2876    5.9452 H   0  0  0  0  0  0  0  0  0  0  0  0
   -2.6947    0.9149    5.8505 H   0  0  0  0  0  0  0  0  0  0  0  0
   -2.5745    1.3149    3.2691 N   0  0  0  0  0  0  0  0  0  0  0  0
   -2.3276    1.7409    1.9167 C   0  0  2  0  0  0  0  0  0  0  0  0
   -0.9926    1.1555    1.4755 C   0  0  0  0  0  0  0  0  0  0  0  0
   -0.1206    0.8028    2.2668 O   0  0  0  0  0  0  0  0  0  0  0  0
   -2.3188    3.2577    1.8072 C   0  0  0  0  0  0  0  0  0  0  0  0
   -3.3395    1.7507    3.7809 H   0  0  0  0  0  0  0  0  0  0  0  0
   -3.1317    1.3224    1.3015 H   0  0  0  0  0  0  0  0  0  0  0  0
   -1.5198    3.6949    2.4169 H   0  0  0  0  0  0  0  0  0  0  0  0
   -2.1594    3.5799    0.7729 H   0  0  0  0  0  0  0  0  0  0  0  0
   -3.2690    3.6789    2.1530 H   0  0  0  0  0  0  0  0  0  0  0  0
   -0.8700    1.1124    0.0921 N   0  0  0  0  0  0  0  0  0  0  0  0
    0.3073    0.6116   -0.5716 C   0  0  2  0  0  0  0  0  0  0  0  0
    0.9194   -0.4498    0.3356 C   0  0  0  0  0  0  0  0  0  0  0  0
    1.0211   -0.3118    1.5528 O   0  0  0  0  0  0  0  0  0  0  0  0
    1.3266    1.7204   -0.8575 C   0  0  0  0  0  0  0  0  0  0  0  0
    0.8319    2.7199   -1.8744 C   0  0  0  0  0  0  0  0  0  0  0  0
    0.9115    2.4279   -3.2361 C   0  0  0  0  0  0  0  0  0  0  0  0
    0.2947    3.9359   -1.4521 C   0  0  0  0  0  0  0  0  0  0  0  0
    0.4539    3.3519   -4.1754 C   0  0  0  0  0  0  0  0  0  0  0  0
   -0.1629    4.8599   -2.3915 C   0  0  0  0  0  0  0  0  0  0  0  0
   -0.0834    4.5679   -3.7531 C   0  0  0  0  0  0  0  0  0  0  0  0
   -1.6531    1.4091   -0.4852 H   0  0  0  0  0  0  0  0  0  0  0  0
   -0.0348    0.1372   -1.4989 H   0  0  0  0  0  0  0  0  0  0  0  0
    2.2760    1.2857   -1.1984 H   0  0  0  0  0  0  0  0  0  0  0  0
    1.5730    2.2622    0.0653 H   0  0  0  0  0  0  0  0  0  0  0  0
    1.3284    1.4829   -3.5743 H   0  0  0  0  0  0  0  0  0  0  0  0
    0.2286    4.1719   -0.3933 H   0  0  0  0  0  0  0  0  0  0  0  0
    0.5169    3.1248   -5.2357 H   0  0  0  0  0  0  0  0  0  0  0  0
   -0.5801    5.8070   -2.0624 H   0  0  0  0  0  0  0  0  0  0  0  0
   -0.4384    5.2879   -4.4847 H   0  0  0  0  0  0  0  0  0  0  0  0
    1.2906   -1.5856   -0.3705 N   0  0  0  0  0  0  0  0  0  0  0  0
    1.8749   -2.7515    0.2523 C   0  0  2  0  0  0  0  0  0  0  0  0
    3.0282   -2.2868    1.1318 C   0  0  0  0  0  0  0  0  0  0  0  0
    3.6126   -1.2186    0.9626 O   0  0  0  0  0  0  0  0  0  0  0  0
    2.3535   -3.7529   -0.7874 C   0  0  0  0  0  0  0  0  0  0  0  0
    1.1443   -1.5979   -1.3756 H   0  0  0  0  0  0  0  0  0  0  0  0
    1.0955   -3.2000    0.8779 H   0  0  0  0  0  0  0  0  0  0  0  0
    3.1348   -3.3214   -1.4238 H   0  0  0  0  0  0  0  0  0  0  0  0
    2.7700   -4.6481   -0.3138 H   0  0  0  0  0  0  0  0  0  0  0  0
    1.5289   -4.0635   -1.4379 H   0  0  0  0  0  0  0  0  0  0  0  0
    3.3563   -3.2245    2.1009 N   0  0  0  0  0  0  0  0  0  0  0  0
    4.4254   -3.0227    3.0508 C   0  0  0  0  0  0  0  0  0  0  0  0
    2.8058   -4.0744    2.1804 H   0  0  0  0  0  0  0  0  0  0  0  0
    5.3552   -3.4572    2.6549 H   0  0  0  0  0  0  0  0  0  0  0  0
    4.5672   -1.9450    3.2195 H   0  0  0  0  0  0  0  0  0  0  0  0
    4.1680   -3.5119    4.0017 H   0  0  0  0  0  0  0  0  0  0  0  0
 25 27  1  0  0  0  0
 26 27  2  0  0  0  0
 23 25  2  0  0  0  0
 24 26  1  0  0  0  0
 22 23  1  0  0  0  0
 22 24  2  0  0  0  0
 21 22  1  0  0  0  0
  1  3  1  0  0  0  0
  1  7  1  0  0  0  0
  1  2  2  0  0  0  0
 38 39  1  0  0  0  0
 39 47  1  0  0  0  0
 39 40  2  0  0  0  0
  8  9  1  0  0  0  0
  9 17  1  0  0  0  0
  9 10  2  0  0  0  0
 18 19  1  0  0  0  0
 19 37  1  0  0  0  0
 19 20  2  0  0  0  0
 38 41  1  0  0  0  0
  8 11  1  0  0  0  0
 47 48  1  0  0  0  0
 18 21  1  0  0  0  0
 37 38  1  0  0  0  0
  7  8  1  0  0  0  0
 17 18  1  0  0  0  0
 27 36  1  0  0  0  0
 25 34  1  0  0  0  0
 26 35  1  0  0  0  0
 23 32  1  0  0  0  0
 24 33  1  0  0  0  0
  3  4  1  0  0  0  0
  3  5  1  0  0  0  0
  3  6  1  0  0  0  0
 41 44  1  0  0  0  0
 41 45  1  0  0  0  0
 41 46  1  0  0  0  0
 11 14  1  0  0  0  0
 11 15  1  0  0  0  0
 11 16  1  0  0  0  0
 48 50  1  0  0  0  0
 48 51  1  0  0  0  0
 48 52  1  0  0  0  0
 21 30  1  0  0  0  0
 21 31  1  0  0  0  0
 38 43  1  0  0  0  0
  8 13  1  0  0  0  0
 18 29  1  0  0  0  0
 47 49  1  0  0  0  0
  7 12  1  0  0  0  0
 37 42  1  0  0  0  0
 17 28  1  0  0  0  0
M  END
$$$$

  -OEChem-05262214473D

 52 52  0     1  0  0  0  0  0999 V2000
   -1.8248    0.3424    3.9102 C   0  0  0  0  0  0  0  0  0  0  0  0
   -0.8774   -0.2723    3.4345 O   0  0  0  0  0  0  0  0  0  0  0  0
   -2.2566    0.0600    5.3109 C   0  0  0  0  0  0  0  0  0  0  0  0
   -3.0163   -0.7363    5.3643 H   0  0  0  0  0  0  0  0  0  0  0  0
   -1.4254   -0.2876    5.9452 H   0  0  0  0  0  0  0  0  0  0  0  0
   -2.6947    0.9149    5.8505 H   0  0  0  0  0  0  0  0  0  0  0  0
   -2.5745    1.3149    3.2691 N   0  0  0  0  0  0  0  0  0  0  0  0
   -2.3276    1.7409    1.9167 C   0  0  2  0  0  0  0  0  0  0  0  0
   -0.9926    1.1555    1.4755 C   0  0  0  0  0  0  0  0  0  0  0  0
   -0.1206    0.8028    2.2668 O   0  0  0  0  0  0  0  0  0  0  0  0
   -2.3188    3.2577    1.8072 C   0  0  0  0  0  0  0  0  0  0  0  0
   -3.3395    1.7507    3.7809 H   0  0  0  0  0  0  0  0  0  0  0  0
   -3.1317    1.3224    1.3015 H   0  0  0  0  0  0  0  0  0  0  0  0
   -1.5198    3.6949    2.4169 H   0  0  0  0  0  0  0  0  0  0  0  0
   -2.1594    3.5799    0.7729 H   0  0  0  0  0  0  0  0  0  0  0  0
   -3.2690    3.6789    2.1530 H   0  0  0  0  0  0  0  0  0  0  0  0
   -0.8700    1.1124    0.0921 N   0  0  0  0  0  0  0  0  0  0  0  0
    0.3073    0.6116   -0.5716 C   0  0  2  0  0  0  0  0  0  0  0  0
    0.9194   -0.4498    0.3356 C   0  0  0  0  0  0  0  0  0  0  0  0
    0.7862   -0.4432    1.5576 O   0  0  0  0  0  0  0  0  0  0  0  0
    1.3266    1.7204   -0.8575 C   0  0  0  0  0  0  0  0  0  0  0  0
    0.8319    2.7199   -1.8744 C   0  0  0  0  0  0  0  0  0  0  0  0
    0.9115    2.4279   -3.2361 C   0  0  0  0  0  0  0  0  0  0  0  0
    0.2947    3.9359   -1.4521 C   0  0  0  0  0  0  0  0  0  0  0  0
    0.4539    3.3519   -4.1754 C   0  0  0  0  0  0  0  0  0  0  0  0
   -0.1629    4.8599   -2.3915 C   0  0  0  0  0  0  0  0  0  0  0  0
   -0.0834    4.5679   -3.7531 C   0  0  0  0  0  0  0  0  0  0  0  0
   -1.6531    1.4091   -0.4852 H   0  0  0  0  0  0  0  0  0  0  0  0
   -0.0348    0.1372   -1.4989 H   0  0  0  0  0  0  0  0  0  0  0  0
    2.2760    1.2857   -1.1984 H   0  0  0  0  0  0  0  0  0  0  0  0
    1.5730    2.2622    0.0653 H   0  0  0  0  0  0  0  0  0  0  0  0
    1.3284    1.4829   -3.5743 H   0  0  0  0  0  0  0  0  0  0  0  0
    0.2286    4.1719   -0.3933 H   0  0  0  0  0  0  0  0  0  0  0  0
    0.5169    3.1248   -5.2357 H   0  0  0  0  0  0  0  0  0  0  0  0
   -0.5801    5.8070   -2.0624 H   0  0  0  0  0  0  0  0  0  0  0  0
   -0.4384    5.2879   -4.4847 H   0  0  0  0  0  0  0  0  0  0  0  0
    1.5872   -1.4286   -0.3870 N   0  0  0  0  0  0  0  0  0  0  0  0
    2.2384   -2.5632    0.2274 C   0  0  2  0  0  0  0  0  0  0  0  0
    3.1314   -2.0437    1.3465 C   0  0  0  0  0  0  0  0  0  0  0  0
    3.5534   -0.8899    1.3870 O   0  0  0  0  0  0  0  0  0  0  0  0
    3.0460   -3.3551   -0.7891 C   0  0  0  0  0  0  0  0  0  0  0  0
    1.6200   -1.3433   -1.3986 H   0  0  0  0  0  0  0  0  0  0  0  0
    1.4469   -3.1903    0.6522 H   0  0  0  0  0  0  0  0  0  0  0  0
    3.8438   -2.7432   -1.2256 H   0  0  0  0  0  0  0  0  0  0  0  0
    3.5154   -4.2303   -0.3280 H   0  0  0  0  0  0  0  0  0  0  0  0
    2.4076   -3.7026   -1.6086 H   0  0  0  0  0  0  0  0  0  0  0  0
    3.4367   -3.0320    2.2718 N   0  0  0  0  0  0  0  0  0  0  0  0
    4.2788   -2.7913    3.4203 C   0  0  0  0  0  0  0  0  0  0  0  0
    3.0273   -3.9559    2.1696 H   0  0  0  0  0  0  0  0  0  0  0  0
    5.3212   -3.0371    3.1693 H   0  0  0  0  0  0  0  0  0  0  0  0
    4.2113   -1.7320    3.7088 H   0  0  0  0  0  0  0  0  0  0  0  0
    3.9451   -3.4214    4.2579 H   0  0  0  0  0  0  0  0  0  0  0  0
 25 27  1  0  0  0  0
 26 27  2  0  0  0  0
 23 25  2  0  0  0  0
 24 26  1  0  0  0  0
 22 23  1  0  0  0  0
 22 24  2  0  0  0  0
 21 22  1  0  0  0  0
  1  3  1  0  0  0  0
  1  7  1  0  0  0  0
  1  2  2  0  0  0  0
 38 39  1  0  0  0  0
 39 47  1  0  0  0  0
 39 40  2  0  0  0  0
  8  9  1  0  0  0  0
  9 17  1  0  0  0  0
  9 10  2  0  0  0  0
 18 19  1  0  0  0  0
 19 37  1  0  0  0  0
 19 20  2  0  0  0  0
 38 41  1  0  0  0  0
  8 11  1  0  0  0  0
 47 48  1  0  0  0  0
 18 21  1  0  0  0  0
 37 38  1  0  0  0  0
  7  8  1  0  0  0  0
 17 18  1  0  0  0  0
 27 36  1  0  0  0  0
 25 34  1  0  0  0  0
 26 35  1  0  0  0  0
 23 32  1  0  0  0  0
 24 33  1  0  0  0  0
  3  4  1  0  0  0  0
  3  5  1  0  0  0  0
  3  6  1  0  0  0  0
 41 44  1  0  0  0  0
 41 45  1  0  0  0  0
 41 46  1  0  0  0  0
 11 14  1  0  0  0  0
 11 15  1  0  0  0  0
 11 16  1  0  0  0  0
 48 50  1  0  0  0  0
 48 51  1  0  0  0  0
 48 52  1  0  0  0  0
 21 30  1  0  0  0  0
 21 31  1  0  0  0  0
 38 43  1  0  0  0  0
  8 13  1  0  0  0  0
 18 29  1  0  0  0  0
 47 49  1  0  0  0  0
  7 12  1  0  0  0  0
 37 42  1  0  0  0  0
 17 28  1  0  0  0  0
M  END
$$$$

  -OEChem-05262214473D

 52 52  0     1  0  0  0  0  0999 V2000
   -1.8248    0.3424    3.9102 C   0  0  0  0  0  0  0  0  0  0  0  0
   -0.8774   -0.2723    3.4345 O   0  0  0  0  0  0  0  0  0  0  0  0
   -2.2566    0.0600    5.3109 C   0  0  0  0  0  0  0  0  0  0  0  0
   -3.0163   -0.7363    5.3643 H   0  0  0  0  0  0  0  0  0  0  0  0
   -1.4254   -0.2876    5.9452 H   0  0  0  0  0  0  0  0  0  0  0  0
   -2.6947    0.9149    5.8505 H   0  0  0  0  0  0  0  0  0  0  0  0
   -2.5745    1.3149    3.2691 N   0  0  0  0  0  0  0  0  0  0  0  0
   -2.3276    1.7409    1.9167 C   0  0  2  0  0  0  0  0  0  0  0  0
   -0.9926    1.1555    1.4755 C   0  0  0  0  0  0  0  0  0  0  0  0
   -0.1206    0.8028    2.2668 O   0  0  0  0  0  0  0  0  0  0  0  0
   -2.3188    3.2577    1.8072 C   0  0  0  0  0  0  0  0  0  0  0  0
   -3.3395    1.7507    3.7809 H   0  0  0  0  0  0  0  0  0  0  0  0
   -3.1317    1.3224    1.3015 H   0  0  0  0  0  0  0  0  0  0  0  0
   -1.5198    3.6949    2.4169 H   0  0  0  0  0  0  0  0  0  0  0  0
   -2.1594    3.5799    0.7729 H   0  0  0  0  0  0  0  0  0  0  0  0
   -3.2690    3.6789    2.1530 H   0  0  0  0  0  0  0  0  0  0  0  0
   -0.8700    1.1124    0.0921 N   0  0  0  0  0  0  0  0  0  0  0  0
    0.3073    0.6116   -0.5716 C   0  0  2  0  0  0  0  0  0  0  0  0
    0.9194   -0.4498    0.3356 C   0  0  0  0  0  0  0  0  0  0  0  0
    0.5787   -0.6068    1.5062 O   0  0  0  0  0  0  0  0  0  0  0  0
    1.3266    1.7204   -0.8575 C   0  0  0  0  0  0  0  0  0  0  0  0
    0.8319    2.7199   -1.8744 C   0  0  0  0  0  0  0  0  0  0  0  0
    0.9115    2.4279   -3.2361 C   0  0  0  0  0  0  0  0  0  0  0  0
    0.2947    3.9359   -1.4521 C   0  0  0  0  0  0  0  0  0  0  0  0
    0.4539    3.3519   -4.1754 C   0  0  0  0  0  0  0  0  0  0  0  0
   -0.1629    4.8599   -2.3915 C   0  0  0  0  0  0  0  0  0  0  0  0
   -0.0834    4.5679   -3.7531 C   0  0  0  0  0  0  0  0  0  0  0  0
   -1.6531    1.4091   -0.4852 H   0  0  0  0  0  0  0  0  0  0  0  0
   -0.0348    0.1372   -1.4989 H   0  0  0  0  0  0  0  0  0  0  0  0
    2.2760    1.2857   -1.1984 H   0  0  0  0  0  0  0  0  0  0  0  0
    1.5730    2.2622    0.0653 H   0  0  0  0  0  0  0  0  0  0  0  0
    1.3284    1.4829   -3.5743 H   0  0  0  0  0  0  0  0  0  0  0  0
    0.2286    4.1719   -0.3933 H   0  0  0  0  0  0  0  0  0  0  0  0
    0.5169    3.1248   -5.2357 H   0  0  0  0  0  0  0  0  0  0  0  0
   -0.5801    5.8070   -2.0624 H   0  0  0  0  0  0  0  0  0  0  0  0
   -0.4384    5.2879   -4.4847 H   0  0  0  0  0  0  0  0  0  0  0  0
    1.8526   -1.2297   -0.3332 N   0  0  0  0  0  0  0  0  0  0  0  0
    2.5649   -2.3227    0.2885 C   0  0  2  0  0  0  0  0  0  0  0  0
    3.1549   -1.8154    1.5977 C   0  0  0  0  0  0  0  0  0  0  0  0
    3.3693   -0.6257    1.8204 O   0  0  0  0  0  0  0  0  0  0  0  0
    3.6538   -2.8641   -0.6247 C   0  0  0  0  0  0  0  0  0  0  0  0
    2.0445   -1.0217   -1.3088 H   0  0  0  0  0  0  0  0  0  0  0  0
    1.8256   -3.1033    0.4986 H   0  0  0  0  0  0  0  0  0  0  0  0
    4.4039   -2.0961   -0.8464 H   0  0  0  0  0  0  0  0  0  0  0  0
    4.1737   -3.7105   -0.1639 H   0  0  0  0  0  0  0  0  0  0  0  0
    3.2315   -3.2010   -1.5776 H   0  0  0  0  0  0  0  0  0  0  0  0
    3.4539   -2.8514    2.4715 N   0  0  0  0  0  0  0  0  0  0  0  0
    4.0350   -2.6289    3.7748 C   0  0  0  0  0  0  0  0  0  0  0  0
    3.2249   -3.8062    2.2114 H   0  0  0  0  0  0  0  0  0  0  0  0
    5.1310   -2.6901    3.7036 H   0  0  0  0  0  0  0  0  0  0  0  0
    3.7465   -1.6319    4.1394 H   0  0  0  0  0  0  0  0  0  0  0  0
    3.6698   -3.3950    4.4746 H   0  0  0  0  0  0  0  0  0  0  0  0
 25 27  1  0  0  0  0
 26 27  2  0  0  0  0
 23 25  2  0  0  0  0
 24 26  1  0  0  0  0
 22 23  1  0  0  0  0
 22 24  2  0  0  0  0
 21 22  1  0  0  0  0
  1  3  1  0  0  0  0
  1  7  1  0  0  0  0
  1  2  2  0  0  0  0
 38 39  1  0  0  0  0
 39 47  1  0  0  0  0
 39 40  2  0  0  0  0
  8  9  1  0  0  0  0
  9 17  1  0  0  0  0
  9 10  2  0  0  0  0
 18 19  1  0  0  0  0
 19 37  1  0  0  0  0
 19 20  2  0  0  0  0
 38 41  1  0  0  0  0
  8 11  1  0  0  0  0
 47 48  1  0  0  0  0
 18 21  1  0  0  0  0
 37 38  1  0  0  0  0
  7  8  1  0  0  0  0
 17 18  1  0  0  0  0
 27 36  1  0  0  0  0
 25 34  1  0  0  0  0
 26 35  1  0  0  0  0
 23 32  1  0  0  0  0
 24 33  1  0  0  0  0
  3  4  1  0  0  0  0
  3  5  1  0  0  0  0
  3  6  1  0  0  0  0
 41 44  1  0  0  0  0
 41 45  1  0  0  0  0
 41 46  1  0  0  0  0
 11 14  1  0  0  0  0
 11 15  1  0  0  0  0
 11 16  1  0  0  0  0
 48 50  1  0  0  0  0
 48 51  1  0  0  0  0
 48 52  1  0  0  0  0
 21 30  1  0  0  0  0
 21 31  1  0  0  0  0
 38 43  1  0  0  0  0
  8 13  1  0  0  0  0
 18 29  1  0  0  0  0
 47 49  1  0  0  0  0
  7 12  1  0  0  0  0
 37 42  1  0  0  0  0
 17 28  1  0  0  0  0
M  END
$$$$

  -OEChem-05262214473D

 52 52  0     1  0  0  0  0  0999 V2000
   -1.8248    0.3424    3.9102 C   0  0  0  0  0  0  0  0  0  0  0  0
   -0.8774   -0.2723    3.4345 O   0  0  0  0  0  0  0  0  0  0  0  0
   -2.2566    0.0600    5.3109 C   0  0  0  0  0  0  0  0  0  0  0  0
   -3.0163   -0.7363    5.3643 H   0  0  0  0  0  0  0  0  0  0  0  0
   -1.4254   -0.2876    5.9452 H   0  0  0  0  0  0  0  0  0  0  0  0
   -2.6947    0.9149    5.8505 H   0  0  0  0  0  0  0  0  0  0  0  0
   -2.5745    1.3149    3.2691 N   0  0  0  0  0  0  0  0  0  0  0  0
   -2.3276    1.7409    1.9167 C   0  0  2  0  0  0  0  0  0  0  0  0
   -0.9926    1.1555    1.4755 C   0  0  0  0  0  0  0  0  0  0  0  0
   -0.1206    0.8028    2.2668 O   0  0  0  0  0  0  0  0  0  0  0  0
   -2.3188    3.2577    1.8072 C   0  0  0  0  0  0  0  0  0  0  0  0
   -3.3395    1.7507    3.7809 H   0  0  0  0  0  0  0  0  0  0  0  0
   -3.1317    1.3224    1.3015 H   0  0  0  0  0  0  0  0  0  0  0  0
   -1.5198    3.6949    2.4169 H   0  0  0  0  0  0  0  0  0  0  0  0
   -2.1594    3.5799    0.7729 H   0  0  0  0  0  0  0  0  0  0  0  0
   -3.2690    3.6789    2.1530 H   0  0  0  0  0  0  0  0  0  0  0  0
   -0.8700    1.1124    0.0921 N   0  0  0  0  0  0  0  0  0  0  0  0
    0.3073    0.6116   -0.5716 C   0  0  2  0  0  0  0  0  0  0  0  0
    0.7030   -0.6837    0.1283 C   0  0  0  0  0  0  0  0  0  0  0  0
    0.0551   -1.1695    1.0531 O   0  0  0  0  0  0  0  0  0  0  0  0
    1.4659    1.6147   -0.5308 C   0  0  0  0  0  0  0  0  0  0  0  0
    1.1907    2.8574   -1.3418 C   0  0  0  0  0  0  0  0  0  0  0  0
    1.3773    2.8444   -2.7241 C   0  0  0  0  0  0  0  0  0  0  0  0
    0.7493    4.0193   -0.7085 C   0  0  0  0  0  0  0  0  0  0  0  0
    1.1226    3.9932   -3.4731 C   0  0  0  0  0  0  0  0  0  0  0  0
    0.4946    5.1681   -1.4576 C   0  0  0  0  0  0  0  0  0  0  0  0
    0.6812    5.1550   -2.8399 C   0  0  0  0  0  0  0  0  0  0  0  0
   -1.6531    1.4091   -0.4852 H   0  0  0  0  0  0  0  0  0  0  0  0
    0.0124    0.3865   -1.6033 H   0  0  0  0  0  0  0  0  0  0  0  0
    2.3919    1.1409   -0.8836 H   0  0  0  0  0  0  0  0  0  0  0  0
    1.6740    1.9185    0.5037 H   0  0  0  0  0  0  0  0  0  0  0  0
    1.7207    1.9437   -3.2260 H   0  0  0  0  0  0  0  0  0  0  0  0
    0.6010    4.0387    0.3679 H   0  0  0  0  0  0  0  0  0  0  0  0
    1.2690    3.9832   -4.5492 H   0  0  0  0  0  0  0  0  0  0  0  0
    0.1520    6.0728   -0.9641 H   0  0  0  0  0  0  0  0  0  0  0  0
    0.4842    6.0498   -3.4231 H   0  0  0  0  0  0  0  0  0  0  0  0
    1.8350   -1.2547   -0.4366 N   0  0  0  0  0  0  0  0  0  0  0  0
    2.4096   -2.4988    0.0226 C   0  0  2  0  0  0  0  0  0  0  0  0
    2.5708   -2.4126    1.5346 C   0  0  0  0  0  0  0  0  0  0  0  0
    2.6374   -1.3462    2.1424 O   0  0  0  0  0  0  0  0  0  0  0  0
    3.7447   -2.7737   -0.6516 C   0  0  0  0  0  0  0  0  0  0  0  0
    2.2820   -0.7739   -1.2117 H   0  0  0  0  0  0  0  0  0  0  0  0
    1.6920   -3.2887   -0.2244 H   0  0  0  0  0  0  0  0  0  0  0  0
    4.4767   -1.9926   -0.4158 H   0  0  0  0  0  0  0  0  0  0  0  0
    4.1651   -3.7303   -0.3241 H   0  0  0  0  0  0  0  0  0  0  0  0
    3.6321   -2.8057   -1.7407 H   0  0  0  0  0  0  0  0  0  0  0  0
    2.6748   -3.6664    2.1206 N   0  0  0  0  0  0  0  0  0  0  0  0
    2.8472   -3.8504    3.5427 C   0  0  0  0  0  0  0  0  0  0  0  0
    2.5898   -4.4970    1.5421 H   0  0  0  0  0  0  0  0  0  0  0  0
    3.9200   -3.9140    3.7773 H   0  0  0  0  0  0  0  0  0  0  0  0
    2.4047   -2.9979    4.0789 H   0  0  0  0  0  0  0  0  0  0  0  0
    2.3479   -4.7793    3.8553 H   0  0  0  0  0  0  0  0  0  0  0  0
 25 27  1  0  0  0  0
 26 27  2  0  0  0  0
 23 25  2  0  0  0  0
 24 26  1  0  0  0  0
 22 23  1  0  0  0  0
 22 24  2  0  0  0  0
 21 22  1  0  0  0  0
  1  3  1  0  0  0  0
  1  7  1  0  0  0  0
  1  2  2  0  0  0  0
 38 39  1  0  0  0  0
 39 47  1  0  0  0  0
 39 40  2  0  0  0  0
  8  9  1  0  0  0  0
  9 17  1  0  0  0  0
  9 10  2  0  0  0  0
 18 19  1  0  0  0  0
 19 37  1  0  0  0  0
 19 20  2  0  0  0  0
 38 41  1  0  0  0  0
  8 11  1  0  0  0  0
 47 48  1  0  0  0  0
 18 21  1  0  0  0  0
 37 38  1  0  0  0  0
  7  8  1  0  0  0  0
 17 18  1  0  0  0  0
 27 36  1  0  0  0  0
 25 34  1  0  0  0  0
 26 35  1  0  0  0  0
 23 32  1  0  0  0  0
 24 33  1  0  0  0  0
  3  4  1  0  0  0  0
  3  5  1  0  0  0  0
  3  6  1  0  0  0  0
 41 44  1  0  0  0  0
 41 45  1  0  0  0  0
 41 46  1  0  0  0  0
 11 14  1  0  0  0  0
 11 15  1  0  0  0  0
 11 16  1  0  0  0  0
 48 50  1  0  0  0  0
 48 51  1  0  0  0  0
 48 52  1  0  0  0  0
 21 30  1  0  0  0  0
 21 31  1  0  0  0  0
 38 43  1  0  0  0  0
  8 13  1  0  0  0  0
 18 29  1  0  0  0  0
 47 49  1  0  0  0  0
  7 12  1  0  0  0  0
 37 42  1  0  0  0  0
 17 28  1  0  0  0  0
M  END
$$$$

  -OEChem-05262214473D

 52 52  0     1  0  0  0  0  0999 V2000
   -1.8248    0.3424    3.9102 C   0  0  0  0  0  0  0  0  0  0  0  0
   -0.8774   -0.2723    3.4345 O   0  0  0  0  0  0  0  0  0  0  0  0
   -2.2566    0.0600    5.3109 C   0  0  0  0  0  0  0  0  0  0  0  0
   -3.0163   -0.7363    5.3643 H   0  0  0  0  0  0  0  0  0  0  0  0
   -1.4254   -0.2876    5.9452 H   0  0  0  0  0  0  0  0  0  0  0  0
   -2.6947    0.9149    5.8505 H   0  0  0  0  0  0  0  0  0  0  0  0
   -2.5745    1.3149    3.2691 N   0  0  0  0  0  0  0  0  0  0  0  0
   -2.3276    1.7409    1.9167 C   0  0  2  0  0  0  0  0  0  0  0  0
   -0.9926    1.1555    1.4755 C   0  0  0  0  0  0  0  0  0  0  0  0
   -0.1206    0.8028    2.2668 O   0  0  0  0  0  0  0  0  0  0  0  0
   -2.3188    3.2577    1.8072 C   0  0  0  0  0  0  0  0  0  0  0  0
   -3.3395    1.7507    3.7809 H   0  0  0  0  0  0  0  0  0  0  0  0
   -3.1317    1.3224    1.3015 H   0  0  0  0  0  0  0  0  0  0  0  0
   -1.5198    3.6949    2.4169 H   0  0  0  0  0  0  0  0  0  0  0  0
   -2.1594    3.5799    0.7729 H   0  0  0  0  0  0  0  0  0  0  0  0
   -3.2690    3.6789    2.1530 H   0  0  0  0  0  0  0  0  0  0  0  0
   -0.8700    1.1124    0.0921 N   0  0  0  0  0  0  0  0  0  0  0  0
    0.3073    0.6116   -0.5716 C   0  0  2  0  0  0  0  0  0  0  0  0
    0.7030   -0.6837    0.1283 C   0  0  0  0  0  0  0  0  0  0  0  0
   -0.0626   -1.3114    0.8569 O   0  0  0  0  0  0  0  0  0  0  0  0
    1.4659    1.6147   -0.5308 C   0  0  0  0  0  0  0  0  0  0  0  0
    1.1907    2.8574   -1.3418 C   0  0  0  0  0  0  0  0  0  0  0  0
    1.3773    2.8444   -2.7241 C   0  0  0  0  0  0  0  0  0  0  0  0
    0.7493    4.0193   -0.7085 C   0  0  0  0  0  0  0  0  0  0  0  0
    1.1226    3.9932   -3.4731 C   0  0  0  0  0  0  0  0  0  0  0  0
    0.4946    5.1681   -1.4576 C   0  0  0  0  0  0  0  0  0  0  0  0
    0.6812    5.1550   -2.8399 C   0  0  0  0  0  0  0  0  0  0  0  0
   -1.6531    1.4091   -0.4852 H   0  0  0  0  0  0  0  0  0  0  0  0
    0.0124    0.3865   -1.6033 H   0  0  0  0  0  0  0  0  0  0  0  0
    2.3919    1.1409   -0.8836 H   0  0  0  0  0  0  0  0  0  0  0  0
    1.6740    1.9185    0.5037 H   0  0  0  0  0  0  0  0  0  0  0  0
    1.7207    1.9437   -3.2260 H   0  0  0  0  0  0  0  0  0  0  0  0
    0.6010    4.0387    0.3679 H   0  0  0  0  0  0  0  0  0  0  0  0
    1.2690    3.9832   -4.5492 H   0  0  0  0  0  0  0  0  0  0  0  0
    0.1520    6.0728   -0.9641 H   0  0  0  0  0  0  0  0  0  0  0  0
    0.4842    6.0498   -3.4231 H   0  0  0  0  0  0  0  0  0  0  0  0
    1.9930   -1.0778   -0.1986 N   0  0  0  0  0  0  0  0  0  0  0  0
    2.6075   -2.2831    0.3099 C   0  0  2  0  0  0  0  0  0  0  0  0
    2.4263   -2.3015    1.8219 C   0  0  0  0  0  0  0  0  0  0  0  0
    2.2249   -1.2867    2.4858 O   0  0  0  0  0  0  0  0  0  0  0  0
    4.0804   -2.3526   -0.0620 C   0  0  0  0  0  0  0  0  0  0  0  0
    2.5325   -0.4895   -0.8269 H   0  0  0  0  0  0  0  0  0  0  0  0
    2.0658   -3.1256   -0.1337 H   0  0  0  0  0  0  0  0  0  0  0  0
    4.6395   -1.5164    0.3735 H   0  0  0  0  0  0  0  0  0  0  0  0
    4.5376   -3.2797    0.2993 H   0  0  0  0  0  0  0  0  0  0  0  0
    4.2105   -2.3092   -1.1487 H   0  0  0  0  0  0  0  0  0  0  0  0
    2.5589   -3.5789    2.3479 N   0  0  0  0  0  0  0  0  0  0  0  0
    2.4421   -3.8564    3.7605 C   0  0  0  0  0  0  0  0  0  0  0  0
    2.7064   -4.3646    1.7212 H   0  0  0  0  0  0  0  0  0  0  0  0
    3.4382   -3.8190    4.2256 H   0  0  0  0  0  0  0  0  0  0  0  0
    1.7903   -3.1045    4.2291 H   0  0  0  0  0  0  0  0  0  0  0  0
    2.0086   -4.8573    3.9028 H   0  0  0  0  0  0  0  0  0  0  0  0
 25 27  1  0  0  0  0
 26 27  2  0  0  0  0
 23 25  2  0  0  0  0
 24 26  1  0  0  0  0
 22 23  1  0  0  0  0
 22 24  2  0  0  0  0
 21 22  1  0  0  0  0
  1  3  1  0  0  0  0
  1  7  1  0  0  0  0
  1  2  2  0  0  0  0
 38 39  1  0  0  0  0
 39 47  1  0  0  0  0
 39 40  2  0  0  0  0
  8  9  1  0  0  0  0
  9 17  1  0  0  0  0
  9 10  2  0  0  0  0
 18 19  1  0  0  0  0
 19 37  1  0  0  0  0
 19 20  2  0  0  0  0
 38 41  1  0  0  0  0
  8 11  1  0  0  0  0
 47 48  1  0  0  0  0
 18 21  1  0  0  0  0
 37 38  1  0  0  0  0
  7  8  1  0  0  0  0
 17 18  1  0  0  0  0
 27 36  1  0  0  0  0
 25 34  1  0  0  0  0
 26 35  1  0  0  0  0
 23 32  1  0  0  0  0
 24 33  1  0  0  0  0
  3  4  1  0  0  0  0
  3  5  1  0  0  0  0
  3  6  1  0  0  0  0
 41 44  1  0  0  0  0
 41 45  1  0  0  0  0
 41 46  1  0  0  0  0
 11 14  1  0  0  0  0
 11 15  1  0  0  0  0
 11 16  1  0  0  0  0
 48 50  1  0  0  0  0
 48 51  1  0  0  0  0
 48 52  1  0  0  0  0
 21 30  1  0  0  0  0
 21 31  1  0  0  0  0
 38 43  1  0  0  0  0
  8 13  1  0  0  0  0
 18 29  1  0  0  0  0
 47 49  1  0  0  0  0
  7 12  1  0  0  0  0
 37 42  1  0  0  0  0
 17 28  1  0  0  0  0
M  END
$$$$

  -OEChem-05262214473D

 52 52  0     1  0  0  0  0  0999 V2000
   -1.8248    0.3424    3.9102 C   0  0  0  0  0  0  0  0  0  0  0  0
   -0.8774   -0.2723    3.4345 O   0  0  0  0  0  0  0  0  0  0  0  0
   -2.2566    0.0600    5.3109 C   0  0  0  0  0  0  0  0  0  0  0  0
   -3.0163   -0.7363    5.3643 H   0  0  0  0  0  0  0  0  0  0  0  0
   -1.4254   -0.2876    5.9452 H   0  0  0  0  0  0  0  0  0  0  0  0
   -2.6947    0.9149    5.8505 H   0  0  0  0  0  0  0  0  0  0  0  0
   -2.5745    1.3149    3.2691 N   0  0  0  0  0  0  0  0  0  0  0  0
   -2.3276    1.7409    1.9167 C   0  0  2  0  0  0  0  0  0  0  0  0
   -0.9926    1.1555    1.4755 C   0  0  0  0  0  0  0  0  0  0  0  0
   -0.1206    0.8028    2.2668 O   0  0  0  0  0  0  0  0  0  0  0  0
   -2.3188    3.2577    1.8072 C   0  0  0  0  0  0  0  0  0  0  0  0
   -3.3395    1.7507    3.7809 H   0  0  0  0  0  0  0  0  0  0  0  0
   -3.1317    1.3224    1.3015 H   0  0  0  0  0  0  0  0  0  0  0  0
   -1.5198    3.6949    2.4169 H   0  0  0  0  0  0  0  0  0  0  0  0
   -2.1594    3.5799    0.7729 H   0  0  0  0  0  0  0  0  0  0  0  0
   -3.2690    3.6789    2.1530 H   0  0  0  0  0  0  0  0  0  0  0  0
   -0.8700    1.1124    0.0921 N   0  0  0  0  0  0  0  0  0  0  0  0
    0.3073    0.6116   -0.5716 C   0  0  2  0  0  0  0  0  0  0  0  0
    0.7030   -0.6837    0.1283 C   0  0  0  0  0  0  0  0  0  0  0  0
   -0.1162   -1.4493    0.6321 O   0  0  0  0  0  0  0  0  0  0  0  0
    1.4659    1.6147   -0.5308 C   0  0  0  0  0  0  0  0  0  0  0  0
    1.1907    2.8574   -1.3418 C   0  0  0  0  0  0  0  0  0  0  0  0
    1.3773    2.8444   -2.7241 C   0  0  0  0  0  0  0  0  0  0  0  0
    0.7493    4.0193   -0.7085 C   0  0  0  0  0  0  0  0  0  0  0  0
    1.1226    3.9932   -3.4731 C   0  0  0  0  0  0  0  0  0  0  0  0
    0.4946    5.1681   -1.4576 C   0  0  0  0  0  0  0  0  0  0  0  0
    0.6812    5.1550   -2.8399 C   0  0  0  0  0  0  0  0  0  0  0  0
   -1.6531    1.4091   -0.4852 H   0  0  0  0  0  0  0  0  0  0  0  0
    0.0124    0.3865   -1.6033 H   0  0  0  0  0  0  0  0  0  0  0  0
    2.3919    1.1409   -0.8836 H   0  0  0  0  0  0  0  0  0  0  0  0
    1.6740    1.9185    0.5037 H   0  0  0  0  0  0  0  0  0  0  0  0
    1.7207    1.9437   -3.2260 H   0  0  0  0  0  0  0  0  0  0  0  0
    0.6010    4.0387    0.3679 H   0  0  0  0  0  0  0  0  0  0  0  0
    1.2690    3.9832   -4.5492 H   0  0  0  0  0  0  0  0  0  0  0  0
    0.1520    6.0728   -0.9641 H   0  0  0  0  0  0  0  0  0  0  0  0
    0.4842    6.0498   -3.4231 H   0  0  0  0  0  0  0  0  0  0  0  0
    2.0724   -0.9042    0.0779 N   0  0  0  0  0  0  0  0  0  0  0  0
    2.7098   -2.0706    0.6453 C   0  0  2  0  0  0  0  0  0  0  0  0
    2.2104   -2.2306    2.0752 C   0  0  0  0  0  0  0  0  0  0  0  0
    1.7439   -1.3013    2.7307 O   0  0  0  0  0  0  0  0  0  0  0  0
    4.2250   -1.9455    0.6096 C   0  0  0  0  0  0  0  0  0  0  0  0
    2.6560   -0.2109   -0.3810 H   0  0  0  0  0  0  0  0  0  0  0  0
    2.3875   -2.9297    0.0470 H   0  0  0  0  0  0  0  0  0  0  0  0
    4.5667   -1.0901    1.2037 H   0  0  0  0  0  0  0  0  0  0  0  0
    4.7067   -2.8420    1.0137 H   0  0  0  0  0  0  0  0  0  0  0  0
    4.5800   -1.8007   -0.4164 H   0  0  0  0  0  0  0  0  0  0  0  0
    2.3866   -3.5235    2.5479 N   0  0  0  0  0  0  0  0  0  0  0  0
    2.0037   -3.9250    3.8814 C   0  0  0  0  0  0  0  0  0  0  0  0
    2.7640   -4.2348    1.9287 H   0  0  0  0  0  0  0  0  0  0  0  0
    2.8630   -3.8145    4.5591 H   0  0  0  0  0  0  0  0  0  0  0  0
    1.1764   -3.2905    4.2319 H   0  0  0  0  0  0  0  0  0  0  0  0
    1.6796   -4.9762    3.8688 H   0  0  0  0  0  0  0  0  0  0  0  0
 25 27  1  0  0  0  0
 26 27  2  0  0  0  0
 23 25  2  0  0  0  0
 24 26  1  0  0  0  0
 22 23  1  0  0  0  0
 22 24  2  0  0  0  0
 21 22  1  0  0  0  0
  1  3  1  0  0  0  0
  1  7  1  0  0  0  0
  1  2  2  0  0  0  0
 38 39  1  0  0  0  0
 39 47  1  0  0  0  0
 39 40  2  0  0  0  0
  8  9  1  0  0  0  0
  9 17  1  0  0  0  0
  9 10  2  0  0  0  0
 18 19  1  0  0  0  0
 19 37  1  0  0  0  0
 19 20  2  0  0  0  0
 38 41  1  0  0  0  0
  8 11  1  0  0  0  0
 47 48  1  0  0  0  0
 18 21  1  0  0  0  0
 37 38  1  0  0  0  0
  7  8  1  0  0  0  0
 17 18  1  0  0  0  0
 27 36  1  0  0  0  0
 25 34  1  0  0  0  0
 26 35  1  0  0  0  0
 23 32  1  0  0  0  0
 24 33  1  0  0  0  0
  3  4  1  0  0  0  0
  3  5  1  0  0  0  0
  3  6  1  0  0  0  0
 41 44  1  0  0  0  0
 41 45  1  0  0  0  0
 41 46  1  0  0  0  0
 11 14  1  0  0  0  0
 11 15  1  0  0  0  0
 11 16  1  0  0  0  0
 48 50  1  0  0  0  0
 48 51  1  0  0  0  0
 48 52  1  0  0  0  0
 21 30  1  0  0  0  0
 21 31  1  0  0  0  0
 38 43  1  0  0  0  0
  8 13  1  0  0  0  0
 18 29  1  0  0  0  0
 47 49  1  0  0  0  0
  7 12  1  0  0  0  0
 37 42  1  0  0  0  0
 17 28  1  0  0  0  0
M  END
$$$$

  -OEChem-05262214473D

 52 52  0     1  0  0  0  0  0999 V2000
   -1.8248    0.3424    3.9102 C   0  0  0  0  0  0  0  0  0  0  0  0
   -0.8774   -0.2723    3.4345 O   0  0  0  0  0  0  0  0  0  0  0  0
   -2.2566    0.0600    5.3109 C   0  0  0  0  0  0  0  0  0  0  0  0
   -3.0163   -0.7363    5.3643 H   0  0  0  0  0  0  0  0  0  0  0  0
   -1.4254   -0.2876    5.9452 H   0  0  0  0  0  0  0  0  0  0  0  0
   -2.6947    0.9149    5.8505 H   0  0  0  0  0  0  0  0  0  0  0  0
   -2.5745    1.3149    3.2691 N   0  0  0  0  0  0  0  0  0  0  0  0
   -2.3276    1.7409    1.9167 C   0  0  2  0  0  0  0  0  0  0  0  0
   -0.9926    1.1555    1.4755 C   0  0  0  0  0  0  0  0  0  0  0  0
   -0.1206    0.8028    2.2668 O   0  0  0  0  0  0  0  0  0  0  0  0
   -2.3188    3.2577    1.8072 C   0  0  0  0  0  0  0  0  0  0  0  0
   -3.3395    1.7507    3.7809 H   0  0  0  0  0  0  0  0  0  0  0  0
   -3.1317    1.3224    1.3015 H   0  0  0  0  0  0  0  0  0  0  0  0
   -1.5198    3.6949    2.4169 H   0  0  0  0  0  0  0  0  0  0  0  0
   -2.1594    3.5799    0.7729 H   0  0  0  0  0  0  0  0  0  0  0  0
   -3.2690    3.6789    2.1530 H   0  0  0  0  0  0  0  0  0  0  0  0
   -0.8700    1.1124    0.0921 N   0  0  0  0  0  0  0  0  0  0  0  0
    0.3073    0.6116   -0.5716 C   0  0  2  0  0  0  0  0  0  0  0  0
    0.7030   -0.6837    0.1283 C   0  0  0  0  0  0  0  0  0  0  0  0
   -0.1022   -1.5737    0.3938 O   0  0  0  0  0  0  0  0  0  0  0  0
    1.4659    1.6147   -0.5308 C   0  0  0  0  0  0  0  0  0  0  0  0
    1.1907    2.8574   -1.3418 C   0  0  0  0  0  0  0  0  0  0  0  0
    1.3773    2.8444   -2.7241 C   0  0  0  0  0  0  0  0  0  0  0  0
    0.7493    4.0193   -0.7085 C   0  0  0  0  0  0  0  0  0  0  0  0
    1.1226    3.9932   -3.4731 C   0  0  0  0  0  0  0  0  0  0  0  0
    0.4946    5.1681   -1.4576 C   0  0  0  0  0  0  0  0  0  0  0  0
    0.6812    5.1550   -2.8399 C   0  0  0  0  0  0  0  0  0  0  0  0
   -1.6531    1.4091   -0.4852 H   0  0  0  0  0  0  0  0  0  0  0  0
    0.0124    0.3865   -1.6033 H   0  0  0  0  0  0  0  0  0  0  0  0
    2.3919    1.1409   -0.8836 H   0  0  0  0  0  0  0  0  0  0  0  0
    1.6740    1.9185    0.5037 H   0  0  0  0  0  0  0  0  0  0  0  0
    1.7207    1.9437   -3.2260 H   0  0  0  0  0  0  0  0  0  0  0  0
    0.6010    4.0387    0.3679 H   0  0  0  0  0  0  0  0  0  0  0  0
    1.2690    3.9832   -4.5492 H   0  0  0  0  0  0  0  0  0  0  0  0
    0.1520    6.0728   -0.9641 H   0  0  0  0  0  0  0  0  0  0  0  0
    0.4842    6.0498   -3.4231 H   0  0  0  0  0  0  0  0  0  0  0  0
    2.0676   -0.7456    0.3740 N   0  0  0  0  0  0  0  0  0  0  0  0
    2.7096   -1.8757    1.0062 C   0  0  2  0  0  0  0  0  0  0  0  0
    1.9377   -2.2048    2.2771 C   0  0  0  0  0  0  0  0  0  0  0  0
    1.2271   -1.3889    2.8606 O   0  0  0  0  0  0  0  0  0  0  0  0
    4.1686   -1.5803    1.3175 C   0  0  0  0  0  0  0  0  0  0  0  0
    2.6441    0.0430    0.0956 H   0  0  0  0  0  0  0  0  0  0  0  0
    2.6353   -2.7144    0.3054 H   0  0  0  0  0  0  0  0  0  0  0  0
    4.2632   -0.7427    2.0182 H   0  0  0  0  0  0  0  0  0  0  0  0
    4.6611   -2.4472    1.7703 H   0  0  0  0  0  0  0  0  0  0  0  0
    4.7155   -1.3147    0.4064 H   0  0  0  0  0  0  0  0  0  0  0  0
    2.1696   -3.5039    2.7069 N   0  0  0  0  0  0  0  0  0  0  0  0
    1.5618   -4.0515    3.8971 C   0  0  0  0  0  0  0  0  0  0  0  0
    2.7585   -4.1167    2.1506 H   0  0  0  0  0  0  0  0  0  0  0  0
    2.2335   -3.9009    4.7551 H   0  0  0  0  0  0  0  0  0  0  0  0
    0.6049   -3.5432    4.0871 H   0  0  0  0  0  0  0  0  0  0  0  0
    1.3835   -5.1277    3.7557 H   0  0  0  0  0  0  0  0  0  0  0  0
 25 27  1  0  0  0  0
 26 27  2  0  0  0  0
 23 25  2  0  0  0  0
 24 26  1  0  0  0  0
 22 23  1  0  0  0  0
 22 24  2  0  0  0  0
 21 22  1  0  0  0  0
  1  3  1  0  0  0  0
  1  7  1  0  0  0  0
  1  2  2  0  0  0  0
 38 39  1  0  0  0  0
 39 47  1  0  0  0  0
 39 40  2  0  0  0  0
  8  9  1  0  0  0  0
  9 17  1  0  0  0  0
  9 10  2  0  0  0  0
 18 19  1  0  0  0  0
 19 37  1  0  0  0  0
 19 20  2  0  0  0  0
 38 41  1  0  0  0  0
  8 11  1  0  0  0  0
 47 48  1  0  0  0  0
 18 21  1  0  0  0  0
 37 38  1  0  0  0  0
  7  8  1  0  0  0  0
 17 18  1  0  0  0  0
 27 36  1  0  0  0  0
 25 34  1  0  0  0  0
 26 35  1  0  0  0  0
 23 32  1  0  0  0  0
 24 33  1  0  0  0  0
  3  4  1  0  0  0  0
  3  5  1  0  0  0  0
  3  6  1  0  0  0  0
 41 44  1  0  0  0  0
 41 45  1  0  0  0  0
 41 46  1  0  0  0  0
 11 14  1  0  0  0  0
 11 15  1  0  0  0  0
 11 16  1  0  0  0  0
 48 50  1  0  0  0  0
 48 51  1  0  0  0  0
 48 52  1  0  0  0  0
 21 30  1  0  0  0  0
 21 31  1  0  0  0  0
 38 43  1  0  0  0  0
  8 13  1  0  0  0  0
 18 29  1  0  0  0  0
 47 49  1  0  0  0  0
  7 12  1  0  0  0  0
 37 42  1  0  0  0  0
 17 28  1  0  0  0  0
M  END
$$$$

  -OEChem-05262214473D

 52 52  0     1  0  0  0  0  0999 V2000
   -1.8248    0.3424    3.9102 C   0  0  0  0  0  0  0  0  0  0  0  0
   -0.8774   -0.2723    3.4345 O   0  0  0  0  0  0  0  0  0  0  0  0
   -2.2566    0.0600    5.3109 C   0  0  0  0  0  0  0  0  0  0  0  0
   -3.0163   -0.7363    5.3643 H   0  0  0  0  0  0  0  0  0  0  0  0
   -1.4254   -0.2876    5.9452 H   0  0  0  0  0  0  0  0  0  0  0  0
   -2.6947    0.9149    5.8505 H   0  0  0  0  0  0  0  0  0  0  0  0
   -2.5745    1.3149    3.2691 N   0  0  0  0  0  0  0  0  0  0  0  0
   -2.3276    1.7409    1.9167 C   0  0  2  0  0  0  0  0  0  0  0  0
   -0.9926    1.1555    1.4755 C   0  0  0  0  0  0  0  0  0  0  0  0
   -0.1206    0.8028    2.2668 O   0  0  0  0  0  0  0  0  0  0  0  0
   -2.3188    3.2577    1.8072 C   0  0  0  0  0  0  0  0  0  0  0  0
   -3.3395    1.7507    3.7809 H   0  0  0  0  0  0  0  0  0  0  0  0
   -3.1317    1.3224    1.3015 H   0  0  0  0  0  0  0  0  0  0  0  0
   -1.5198    3.6949    2.4169 H   0  0  0  0  0  0  0  0  0  0  0  0
   -2.1594    3.5799    0.7729 H   0  0  0  0  0  0  0  0  0  0  0  0
   -3.2690    3.6789    2.1530 H   0  0  0  0  0  0  0  0  0  0  0  0
   -0.8700    1.1124    0.0921 N   0  0  0  0  0  0  0  0  0  0  0  0
    0.3073    0.6116   -0.5716 C   0  0  2  0  0  0  0  0  0  0  0  0
    0.7030   -0.6837    0.1283 C   0  0  0  0  0  0  0  0  0  0  0  0
   -0.0215   -1.6763    0.1584 O   0  0  0  0  0  0  0  0  0  0  0  0
    1.4659    1.6147   -0.5308 C   0  0  0  0  0  0  0  0  0  0  0  0
    1.1907    2.8574   -1.3418 C   0  0  0  0  0  0  0  0  0  0  0  0
    1.3773    2.8444   -2.7241 C   0  0  0  0  0  0  0  0  0  0  0  0
    0.7493    4.0193   -0.7085 C   0  0  0  0  0  0  0  0  0  0  0  0
    1.1226    3.9932   -3.4731 C   0  0  0  0  0  0  0  0  0  0  0  0
    0.4946    5.1681   -1.4576 C   0  0  0  0  0  0  0  0  0  0  0  0
    0.6812    5.1550   -2.8399 C   0  0  0  0  0  0  0  0  0  0  0  0
   -1.6531    1.4091   -0.4852 H   0  0  0  0  0  0  0  0  0  0  0  0
    0.0124    0.3865   -1.6033 H   0  0  0  0  0  0  0  0  0  0  0  0
    2.3919    1.1409   -0.8836 H   0  0  0  0  0  0  0  0  0  0  0  0
    1.6740    1.9185    0.5037 H   0  0  0  0  0  0  0  0  0  0  0  0
    1.7207    1.9437   -3.2260 H   0  0  0  0  0  0  0  0  0  0  0  0
    0.6010    4.0387    0.3679 H   0  0  0  0  0  0  0  0  0  0  0  0
    1.2690    3.9832   -4.5492 H   0  0  0  0  0  0  0  0  0  0  0  0
    0.1520    6.0728   -0.9641 H   0  0  0  0  0  0  0  0  0  0  0  0
    0.4842    6.0498   -3.4231 H   0  0  0  0  0  0  0  0  0  0  0  0
    1.9790   -0.6129    0.6697 N   0  0  0  0  0  0  0  0  0  0  0  0
    2.6070   -1.7116    1.3678 C   0  0  2  0  0  0  0  0  0  0  0  0
    1.6268   -2.2259    2.4138 C   0  0  0  0  0  0  0  0  0  0  0  0
    0.7098   -1.5438    2.8665 O   0  0  0  0  0  0  0  0  0  0  0  0
    3.9150   -1.2817    2.0134 C   0  0  0  0  0  0  0  0  0  0  0  0
    2.4977    0.2548    0.5704 H   0  0  0  0  0  0  0  0  0  0  0  0
    2.7922   -2.4943    0.6240 H   0  0  0  0  0  0  0  0  0  0  0  0
    3.7495   -0.4979    2.7616 H   0  0  0  0  0  0  0  0  0  0  0  0
    4.4036   -2.1220    2.5176 H   0  0  0  0  0  0  0  0  0  0  0  0
    4.6077   -0.8845    1.2636 H   0  0  0  0  0  0  0  0  0  0  0  0
    1.9227   -3.5214    2.8141 N   0  0  0  0  0  0  0  0  0  0  0  0
    1.1465   -4.2273    3.8066 C   0  0  0  0  0  0  0  0  0  0  0  0
    2.6904   -4.0181    2.3716 H   0  0  0  0  0  0  0  0  0  0  0  0
    1.5926   -4.0723    4.8001 H   0  0  0  0  0  0  0  0  0  0  0  0
    0.1148   -3.8456    3.8046 H   0  0  0  0  0  0  0  0  0  0  0  0
    1.1404   -5.3017    3.5711 H   0  0  0  0  0  0  0  0  0  0  0  0
 25 27  1  0  0  0  0
 26 27  2  0  0  0  0
 23 25  2  0  0  0  0
 24 26  1  0  0  0  0
 22 23  1  0  0  0  0
 22 24  2  0  0  0  0
 21 22  1  0  0  0  0
  1  3  1  0  0  0  0
  1  7  1  0  0  0  0
  1  2  2  0  0  0  0
 38 39  1  0  0  0  0
 39 47  1  0  0  0  0
 39 40  2  0  0  0  0
  8  9  1  0  0  0  0
  9 17  1  0  0  0  0
  9 10  2  0  0  0  0
 18 19  1  0  0  0  0
 19 37  1  0  0  0  0
 19 20  2  0  0  0  0
 38 41  1  0  0  0  0
  8 11  1  0  0  0  0
 47 48  1  0  0  0  0
 18 21  1  0  0  0  0
 37 38  1  0  0  0  0
  7  8  1  0  0  0  0
 17 18  1  0  0  0  0
 27 36  1  0  0  0  0
 25 34  1  0  0  0  0
 26 35  1  0  0  0  0
 23 32  1  0  0  0  0
 24 33  1  0  0  0  0
  3  4  1  0  0  0  0
  3  5  1  0  0  0  0
  3  6  1  0  0  0  0
 41 44  1  0  0  0  0
 41 45  1  0  0  0  0
 41 46  1  0  0  0  0
 11 14  1  0  0  0  0
 11 15  1  0  0  0  0
 11 16  1  0  0  0  0
 48 50  1  0  0  0  0
 48 51  1  0  0  0  0
 48 52  1  0  0  0  0
 21 30  1  0  0  0  0
 21 31  1  0  0  0  0
 38 43  1  0  0  0  0
  8 13  1  0  0  0  0
 18 29  1  0  0  0  0
 47 49  1  0  0  0  0
  7 12  1  0  0  0  0
 37 42  1  0  0  0  0
 17 28  1  0  0  0  0
M  END
$$$$

  -OEChem-05262214473D

 52 52  0     1  0  0  0  0  0999 V2000
   -1.8248    0.3424    3.9102 C   0  0  0  0  0  0  0  0  0  0  0  0
   -0.8774   -0.2723    3.4345 O   0  0  0  0  0  0  0  0  0  0  0  0
   -2.2566    0.0600    5.3109 C   0  0  0  0  0  0  0  0  0  0  0  0
   -3.0163   -0.7363    5.3643 H   0  0  0  0  0  0  0  0  0  0  0  0
   -1.4254   -0.2876    5.9452 H   0  0  0  0  0  0  0  0  0  0  0  0
   -2.6947    0.9149    5.8505 H   0  0  0  0  0  0  0  0  0  0  0  0
   -2.5745    1.3149    3.2691 N   0  0  0  0  0  0  0  0  0  0  0  0
   -2.3276    1.7409    1.9167 C   0  0  2  0  0  0  0  0  0  0  0  0
   -0.9926    1.1555    1.4755 C   0  0  0  0  0  0  0  0  0  0  0  0
   -0.1206    0.8028    2.2668 O   0  0  0  0  0  0  0  0  0  0  0  0
   -2.3188    3.2577    1.8072 C   0  0  0  0  0  0  0  0  0  0  0  0
   -3.3395    1.7507    3.7809 H   0  0  0  0  0  0  0  0  0  0  0  0
   -3.1317    1.3224    1.3015 H   0  0  0  0  0  0  0  0  0  0  0  0
   -1.5198    3.6949    2.4169 H   0  0  0  0  0  0  0  0  0  0  0  0
   -2.1594    3.5799    0.7729 H   0  0  0  0  0  0  0  0  0  0  0  0
   -3.2690    3.6789    2.1530 H   0  0  0  0  0  0  0  0  0  0  0  0
   -0.8700    1.1124    0.0921 N   0  0  0  0  0  0  0  0  0  0  0  0
    0.3073    0.6116   -0.5716 C   0  0  2  0  0  0  0  0  0  0  0  0
    0.7030   -0.6837    0.1283 C   0  0  0  0  0  0  0  0  0  0  0  0
    0.1205   -1.7499   -0.0582 O   0  0  0  0  0  0  0  0  0  0  0  0
    1.4659    1.6147   -0.5308 C   0  0  0  0  0  0  0  0  0  0  0  0
    1.1907    2.8574   -1.3418 C   0  0  0  0  0  0  0  0  0  0  0  0
    1.3773    2.8444   -2.7241 C   0  0  0  0  0  0  0  0  0  0  0  0
    0.7493    4.0193   -0.7085 C   0  0  0  0  0  0  0  0  0  0  0  0
    1.1226    3.9932   -3.4731 C   0  0  0  0  0  0  0  0  0  0  0  0
    0.4946    5.1681   -1.4576 C   0  0  0  0  0  0  0  0  0  0  0  0
    0.6812    5.1550   -2.8399 C   0  0  0  0  0  0  0  0  0  0  0  0
   -1.6531    1.4091   -0.4852 H   0  0  0  0  0  0  0  0  0  0  0  0
    0.0124    0.3865   -1.6033 H   0  0  0  0  0  0  0  0  0  0  0  0
    2.3919    1.1409   -0.8836 H   0  0  0  0  0  0  0  0  0  0  0  0
    1.6740    1.9185    0.5037 H   0  0  0  0  0  0  0  0  0  0  0  0
    1.7207    1.9437   -3.2260 H   0  0  0  0  0  0  0  0  0  0  0  0
    0.6010    4.0387    0.3679 H   0  0  0  0  0  0  0  0  0  0  0  0
    1.2690    3.9832   -4.5492 H   0  0  0  0  0  0  0  0  0  0  0  0
    0.1520    6.0728   -0.9641 H   0  0  0  0  0  0  0  0  0  0  0  0
    0.4842    6.0498   -3.4231 H   0  0  0  0  0  0  0  0  0  0  0  0
    1.8127   -0.5151    0.9448 N   0  0  0  0  0  0  0  0  0  0  0  0
    2.4088   -1.5897    1.7055 C   0  0  2  0  0  0  0  0  0  0  0  0
    1.2989   -2.2923    2.4762 C   0  0  0  0  0  0  0  0  0  0  0  0
    0.2272   -1.7552    2.7480 O   0  0  0  0  0  0  0  0  0  0  0  0
    3.4816   -1.0702    2.6499 C   0  0  0  0  0  0  0  0  0  0  0  0
    2.2266    0.4101    1.0110 H   0  0  0  0  0  0  0  0  0  0  0  0
    2.8475   -2.2845    0.9810 H   0  0  0  0  0  0  0  0  0  0  0  0
    3.0609   -0.3725    3.3831 H   0  0  0  0  0  0  0  0  0  0  0  0
    3.9520   -1.8887    3.2046 H   0  0  0  0  0  0  0  0  0  0  0  0
    4.2639   -0.5393    2.0967 H   0  0  0  0  0  0  0  0  0  0  0  0
    1.6627   -3.5748    2.8621 N   0  0  0  0  0  0  0  0  0  0  0  0
    0.7861   -4.4403    3.6161 C   0  0  0  0  0  0  0  0  0  0  0  0
    2.5642   -3.9457    2.5767 H   0  0  0  0  0  0  0  0  0  0  0  0
    0.9841   -4.3171    4.6911 H   0  0  0  0  0  0  0  0  0  0  0  0
   -0.2606   -4.1769    3.4037 H   0  0  0  0  0  0  0  0  0  0  0  0
    0.9668   -5.4863    3.3277 H   0  0  0  0  0  0  0  0  0  0  0  0
 25 27  1  0  0  0  0
 26 27  2  0  0  0  0
 23 25  2  0  0  0  0
 24 26  1  0  0  0  0
 22 23  1  0  0  0  0
 22 24  2  0  0  0  0
 21 22  1  0  0  0  0
  1  3  1  0  0  0  0
  1  7  1  0  0  0  0
  1  2  2  0  0  0  0
 38 39  1  0  0  0  0
 39 47  1  0  0  0  0
 39 40  2  0  0  0  0
  8  9  1  0  0  0  0
  9 17  1  0  0  0  0
  9 10  2  0  0  0  0
 18 19  1  0  0  0  0
 19 37  1  0  0  0  0
 19 20  2  0  0  0  0
 38 41  1  0  0  0  0
  8 11  1  0  0  0  0
 47 48  1  0  0  0  0
 18 21  1  0  0  0  0
 37 38  1  0  0  0  0
  7  8  1  0  0  0  0
 17 18  1  0  0  0  0
 27 36  1  0  0  0  0
 25 34  1  0  0  0  0
 26 35  1  0  0  0  0
 23 32  1  0  0  0  0
 24 33  1  0  0  0  0
  3  4  1  0  0  0  0
  3  5  1  0  0  0  0
  3  6  1  0  0  0  0
 41 44  1  0  0  0  0
 41 45  1  0  0  0  0
 41 46  1  0  0  0  0
 11 14  1  0  0  0  0
 11 15  1  0  0  0  0
 11 16  1  0  0  0  0
 48 50  1  0  0  0  0
 48 51  1  0  0  0  0
 48 52  1  0  0  0  0
 21 30  1  0  0  0  0
 21 31  1  0  0  0  0
 38 43  1  0  0  0  0
  8 13  1  0  0  0  0
 18 29  1  0  0  0  0
 47 49  1  0  0  0  0
  7 12  1  0  0  0  0
 37 42  1  0  0  0  0
 17 28  1  0  0  0  0
M  END
$$$$

  -OEChem-05262214473D

 52 52  0     1  0  0  0  0  0999 V2000
   -1.8248    0.3424    3.9102 C   0  0  0  0  0  0  0  0  0  0  0  0
   -0.8774   -0.2723    3.4345 O   0  0  0  0  0  0  0  0  0  0  0  0
   -2.2566    0.0600    5.3109 C   0  0  0  0  0  0  0  0  0  0  0  0
   -3.0163   -0.7363    5.3643 H   0  0  0  0  0  0  0  0  0  0  0  0
   -1.4254   -0.2876    5.9452 H   0  0  0  0  0  0  0  0  0  0  0  0
   -2.6947    0.9149    5.8505 H   0  0  0  0  0  0  0  0  0  0  0  0
   -2.5745    1.3149    3.2691 N   0  0  0  0  0  0  0  0  0  0  0  0
   -2.3276    1.7409    1.9167 C   0  0  2  0  0  0  0  0  0  0  0  0
   -0.9926    1.1555    1.4755 C   0  0  0  0  0  0  0  0  0  0  0  0
   -0.1206    0.8028    2.2668 O   0  0  0  0  0  0  0  0  0  0  0  0
   -2.3188    3.2577    1.8072 C   0  0  0  0  0  0  0  0  0  0  0  0
   -3.3395    1.7507    3.7809 H   0  0  0  0  0  0  0  0  0  0  0  0
   -3.1317    1.3224    1.3015 H   0  0  0  0  0  0  0  0  0  0  0  0
   -1.5198    3.6949    2.4169 H   0  0  0  0  0  0  0  0  0  0  0  0
   -2.1594    3.5799    0.7729 H   0  0  0  0  0  0  0  0  0  0  0  0
   -3.2690    3.6789    2.1530 H   0  0  0  0  0  0  0  0  0  0  0  0
   -0.8700    1.1124    0.0921 N   0  0  0  0  0  0  0  0  0  0  0  0
    0.3073    0.6116   -0.5716 C   0  0  2  0  0  0  0  0  0  0  0  0
    0.7030   -0.6837    0.1283 C   0  0  0  0  0  0  0  0  0  0  0  0
    0.3139   -1.7896   -0.2411 O   0  0  0  0  0  0  0  0  0  0  0  0
    1.4659    1.6147   -0.5308 C   0  0  0  0  0  0  0  0  0  0  0  0
    1.1907    2.8574   -1.3418 C   0  0  0  0  0  0  0  0  0  0  0  0
    1.3773    2.8444   -2.7241 C   0  0  0  0  0  0  0  0  0  0  0  0
    0.7493    4.0193   -0.7085 C   0  0  0  0  0  0  0  0  0  0  0  0
    1.1226    3.9932   -3.4731 C   0  0  0  0  0  0  0  0  0  0  0  0
    0.4946    5.1681   -1.4576 C   0  0  0  0  0  0  0  0  0  0  0  0
    0.6812    5.1550   -2.8399 C   0  0  0  0  0  0  0  0  0  0  0  0
   -1.6531    1.4091   -0.4852 H   0  0  0  0  0  0  0  0  0  0  0  0
    0.0124    0.3865   -1.6033 H   0  0  0  0  0  0  0  0  0  0  0  0
    2.3919    1.1409   -0.8836 H   0  0  0  0  0  0  0  0  0  0  0  0
    1.6740    1.9185    0.5037 H   0  0  0  0  0  0  0  0  0  0  0  0
    1.7207    1.9437   -3.2260 H   0  0  0  0  0  0  0  0  0  0  0  0
    0.6010    4.0387    0.3679 H   0  0  0  0  0  0  0  0  0  0  0  0
    1.2690    3.9832   -4.5492 H   0  0  0  0  0  0  0  0  0  0  0  0
    0.1520    6.0728   -0.9641 H   0  0  0  0  0  0  0  0  0  0  0  0
    0.4842    6.0498   -3.4231 H   0  0  0  0  0  0  0  0  0  0  0  0
    1.5799   -0.4589    1.1804 N   0  0  0  0  0  0  0  0  0  0  0  0
    2.1286   -1.5182    1.9963 C   0  0  2  0  0  0  0  0  0  0  0  0
    0.9764   -2.3997    2.4599 C   0  0  0  0  0  0  0  0  0  0  0  0
   -0.1878   -2.0088    2.5133 O   0  0  0  0  0  0  0  0  0  0  0  0
    2.8979   -0.9602    3.1835 C   0  0  0  0  0  0  0  0  0  0  0  0
    1.8495    0.4983    1.3874 H   0  0  0  0  0  0  0  0  0  0  0  0
    2.7975   -2.0992    1.3521 H   0  0  0  0  0  0  0  0  0  0  0  0
    2.2441   -0.3749    3.8404 H   0  0  0  0  0  0  0  0  0  0  0  0
    3.3370   -1.7632    3.7846 H   0  0  0  0  0  0  0  0  0  0  0  0
    3.7076   -0.3027    2.8491 H   0  0  0  0  0  0  0  0  0  0  0  0
    1.4074   -3.6606    2.8478 N   0  0  0  0  0  0  0  0  0  0  0  0
    0.5052   -4.6761    3.3385 C   0  0  0  0  0  0  0  0  0  0  0  0
    2.3887   -3.9047    2.7520 H   0  0  0  0  0  0  0  0  0  0  0  0
    0.4493   -4.6185    4.4356 H   0  0  0  0  0  0  0  0  0  0  0  0
   -0.4956   -4.5146    2.9116 H   0  0  0  0  0  0  0  0  0  0  0  0
    0.8745   -5.6689    3.0419 H   0  0  0  0  0  0  0  0  0  0  0  0
 25 27  1  0  0  0  0
 26 27  2  0  0  0  0
 23 25  2  0  0  0  0
 24 26  1  0  0  0  0
 22 23  1  0  0  0  0
 22 24  2  0  0  0  0
 21 22  1  0  0  0  0
  1  3  1  0  0  0  0
  1  7  1  0  0  0  0
  1  2  2  0  0  0  0
 38 39  1  0  0  0  0
 39 47  1  0  0  0  0
 39 40  2  0  0  0  0
  8  9  1  0  0  0  0
  9 17  1  0  0  0  0
  9 10  2  0  0  0  0
 18 19  1  0  0  0  0
 19 37  1  0  0  0  0
 19 20  2  0  0  0  0
 38 41  1  0  0  0  0
  8 11  1  0  0  0  0
 47 48  1  0  0  0  0
 18 21  1  0  0  0  0
 37 38  1  0  0  0  0
  7  8  1  0  0  0  0
 17 18  1  0  0  0  0
 27 36  1  0  0  0  0
 25 34  1  0  0  0  0
 26 35  1  0  0  0  0
 23 32  1  0  0  0  0
 24 33  1  0  0  0  0
  3  4  1  0  0  0  0
  3  5  1  0  0  0  0
  3  6  1  0  0  0  0
 41 44  1  0  0  0  0
 41 45  1  0  0  0  0
 41 46  1  0  0  0  0
 11 14  1  0  0  0  0
 11 15  1  0  0  0  0
 11 16  1  0  0  0  0
 48 50  1  0  0  0  0
 48 51  1  0  0  0  0
 48 52  1  0  0  0  0
 21 30  1  0  0  0  0
 21 31  1  0  0  0  0
 38 43  1  0  0  0  0
  8 13  1  0  0  0  0
 18 29  1  0  0  0  0
 47 49  1  0  0  0  0
  7 12  1  0  0  0  0
 37 42  1  0  0  0  0
 17 28  1  0  0  0  0
M  END
$$$$

  -OEChem-05262214473D

 52 52  0     1  0  0  0  0  0999 V2000
   -1.8248    0.3424    3.9102 C   0  0  0  0  0  0  0  0  0  0  0  0
   -0.8774   -0.2723    3.4345 O   0  0  0  0  0  0  0  0  0  0  0  0
   -2.2566    0.0600    5.3109 C   0  0  0  0  0  0  0  0  0  0  0  0
   -3.0163   -0.7363    5.3643 H   0  0  0  0  0  0  0  0  0  0  0  0
   -1.4254   -0.2876    5.9452 H   0  0  0  0  0  0  0  0  0  0  0  0
   -2.6947    0.9149    5.8505 H   0  0  0  0  0  0  0  0  0  0  0  0
   -2.5745    1.3149    3.2691 N   0  0  0  0  0  0  0  0  0  0  0  0
   -2.3276    1.7409    1.9167 C   0  0  2  0  0  0  0  0  0  0  0  0
   -0.9926    1.1555    1.4755 C   0  0  0  0  0  0  0  0  0  0  0  0
   -0.1206    0.8028    2.2668 O   0  0  0  0  0  0  0  0  0  0  0  0
   -2.3188    3.2577    1.8072 C   0  0  0  0  0  0  0  0  0  0  0  0
   -3.3395    1.7507    3.7809 H   0  0  0  0  0  0  0  0  0  0  0  0
   -3.1317    1.3224    1.3015 H   0  0  0  0  0  0  0  0  0  0  0  0
   -1.5198    3.6949    2.4169 H   0  0  0  0  0  0  0  0  0  0  0  0
   -2.1594    3.5799    0.7729 H   0  0  0  0  0  0  0  0  0  0  0  0
   -3.2690    3.6789    2.1530 H   0  0  0  0  0  0  0  0  0  0  0  0
   -0.8700    1.1124    0.0921 N   0  0  0  0  0  0  0  0  0  0  0  0
    0.3073    0.6116   -0.5716 C   0  0  2  0  0  0  0  0  0  0  0  0
    0.7030   -0.6837    0.1283 C   0  0  0  0  0  0  0  0  0  0  0  0
    0.5457   -1.7927   -0.3778 O   0  0  0  0  0  0  0  0  0  0  0  0
    1.4659    1.6147   -0.5308 C   0  0  0  0  0  0  0  0  0  0  0  0
    1.1907    2.8574   -1.3418 C   0  0  0  0  0  0  0  0  0  0  0  0
    1.3773    2.8444   -2.7241 C   0  0  0  0  0  0  0  0  0  0  0  0
    0.7493    4.0193   -0.7085 C   0  0  0  0  0  0  0  0  0  0  0  0
    1.1226    3.9932   -3.4731 C   0  0  0  0  0  0  0  0  0  0  0  0
    0.4946    5.1681   -1.4576 C   0  0  0  0  0  0  0  0  0  0  0  0
    0.6812    5.1550   -2.8399 C   0  0  0  0  0  0  0  0  0  0  0  0
   -1.6531    1.4091   -0.4852 H   0  0  0  0  0  0  0  0  0  0  0  0
    0.0124    0.3865   -1.6033 H   0  0  0  0  0  0  0  0  0  0  0  0
    2.3919    1.1409   -0.8836 H   0  0  0  0  0  0  0  0  0  0  0  0
    1.6740    1.9185    0.5037 H   0  0  0  0  0  0  0  0  0  0  0  0
    1.7207    1.9437   -3.2260 H   0  0  0  0  0  0  0  0  0  0  0  0
    0.6010    4.0387    0.3679 H   0  0  0  0  0  0  0  0  0  0  0  0
    1.2690    3.9832   -4.5492 H   0  0  0  0  0  0  0  0  0  0  0  0
    0.1520    6.0728   -0.9641 H   0  0  0  0  0  0  0  0  0  0  0  0
    0.4842    6.0498   -3.4231 H   0  0  0  0  0  0  0  0  0  0  0  0
    1.2965   -0.4481    1.3606 N   0  0  0  0  0  0  0  0  0  0  0  0
    1.7855   -1.5019    2.2204 C   0  0  2  0  0  0  0  0  0  0  0  0
    0.6813   -2.5406    2.3659 C   0  0  0  0  0  0  0  0  0  0  0  0
   -0.5069   -2.2872    2.1783 O   0  0  0  0  0  0  0  0  0  0  0  0
    2.2036   -0.9591    3.5781 C   0  0  0  0  0  0  0  0  0  0  0  0
    1.3920    0.5134    1.6740 H   0  0  0  0  0  0  0  0  0  0  0  0
    2.6456   -1.9512    1.7121 H   0  0  0  0  0  0  0  0  0  0  0  0
    1.3549   -0.5049    4.1024 H   0  0  0  0  0  0  0  0  0  0  0  0
    2.6005   -1.7540    4.2181 H   0  0  0  0  0  0  0  0  0  0  0  0
    2.9768   -0.1908    3.4694 H   0  0  0  0  0  0  0  0  0  0  0  0
    1.1741   -3.7728    2.7720 N   0  0  0  0  0  0  0  0  0  0  0  0
    0.3229   -4.9186    2.9928 C   0  0  0  0  0  0  0  0  0  0  0  0
    2.1758   -3.8976    2.8854 H   0  0  0  0  0  0  0  0  0  0  0  0
    0.0248   -4.9560    4.0509 H   0  0  0  0  0  0  0  0  0  0  0  0
   -0.5743   -4.8356    2.3619 H   0  0  0  0  0  0  0  0  0  0  0  0
    0.8700   -5.8370    2.7334 H   0  0  0  0  0  0  0  0  0  0  0  0
 25 27  1  0  0  0  0
 26 27  2  0  0  0  0
 23 25  2  0  0  0  0
 24 26  1  0  0  0  0
 22 23  1  0  0  0  0
 22 24  2  0  0  0  0
 21 22  1  0  0  0  0
  1  3  1  0  0  0  0
  1  7  1  0  0  0  0
  1  2  2  0  0  0  0
 38 39  1  0  0  0  0
 39 47  1  0  0  0  0
 39 40  2  0  0  0  0
  8  9  1  0  0  0  0
  9 17  1  0  0  0  0
  9 10  2  0  0  0  0
 18 19  1  0  0  0  0
 19 37  1  0  0  0  0
 19 20  2  0  0  0  0
 38 41  1  0  0  0  0
  8 11  1  0  0  0  0
 47 48  1  0  0  0  0
 18 21  1  0  0  0  0
 37 38  1  0  0  0  0
  7  8  1  0  0  0  0
 17 18  1  0  0  0  0
 27 36  1  0  0  0  0
 25 34  1  0  0  0  0
 26 35  1  0  0  0  0
 23 32  1  0  0  0  0
 24 33  1  0  0  0  0
  3  4  1  0  0  0  0
  3  5  1  0  0  0  0
  3  6  1  0  0  0  0
 41 44  1  0  0  0  0
 41 45  1  0  0  0  0
 41 46  1  0  0  0  0
 11 14  1  0  0  0  0
 11 15  1  0  0  0  0
 11 16  1  0  0  0  0
 48 50  1  0  0  0  0
 48 51  1  0  0  0  0
 48 52  1  0  0  0  0
 21 30  1  0  0  0  0
 21 31  1  0  0  0  0
 38 43  1  0  0  0  0
  8 13  1  0  0  0  0
 18 29  1  0  0  0  0
 47 49  1  0  0  0  0
  7 12  1  0  0  0  0
 37 42  1  0  0  0  0
 17 28  1  0  0  0  0
M  END
$$$$

  -OEChem-05262214473D

 52 52  0     1  0  0  0  0  0999 V2000
   -1.8248    0.3424    3.9102 C   0  0  0  0  0  0  0  0  0  0  0  0
   -0.8774   -0.2723    3.4345 O   0  0  0  0  0  0  0  0  0  0  0  0
   -2.2566    0.0600    5.3109 C   0  0  0  0  0  0  0  0  0  0  0  0
   -3.0163   -0.7363    5.3643 H   0  0  0  0  0  0  0  0  0  0  0  0
   -1.4254   -0.2876    5.9452 H   0  0  0  0  0  0  0  0  0  0  0  0
   -2.6947    0.9149    5.8505 H   0  0  0  0  0  0  0  0  0  0  0  0
   -2.5745    1.3149    3.2691 N   0  0  0  0  0  0  0  0  0  0  0  0
   -2.3276    1.7409    1.9167 C   0  0  2  0  0  0  0  0  0  0  0  0
   -0.9926    1.1555    1.4755 C   0  0  0  0  0  0  0  0  0  0  0  0
   -0.1206    0.8028    2.2668 O   0  0  0  0  0  0  0  0  0  0  0  0
   -2.3188    3.2577    1.8072 C   0  0  0  0  0  0  0  0  0  0  0  0
   -3.3395    1.7507    3.7809 H   0  0  0  0  0  0  0  0  0  0  0  0
   -3.1317    1.3224    1.3015 H   0  0  0  0  0  0  0  0  0  0  0  0
   -1.5198    3.6949    2.4169 H   0  0  0  0  0  0  0  0  0  0  0  0
   -2.1594    3.5799    0.7729 H   0  0  0  0  0  0  0  0  0  0  0  0
   -3.2690    3.6789    2.1530 H   0  0  0  0  0  0  0  0  0  0  0  0
   -0.8700    1.1124    0.0921 N   0  0  0  0  0  0  0  0  0  0  0  0
    0.3073    0.6116   -0.5716 C   0  0  2  0  0  0  0  0  0  0  0  0
    0.7030   -0.6837    0.1283 C   0  0  0  0  0  0  0  0  0  0  0  0
    0.8001   -1.7590   -0.4592 O   0  0  0  0  0  0  0  0  0  0  0  0
    1.4659    1.6147   -0.5308 C   0  0  0  0  0  0  0  0  0  0  0  0
    1.1907    2.8574   -1.3418 C   0  0  0  0  0  0  0  0  0  0  0  0
    1.3773    2.8444   -2.7241 C   0  0  0  0  0  0  0  0  0  0  0  0
    0.7493    4.0193   -0.7085 C   0  0  0  0  0  0  0  0  0  0  0  0
    1.1226    3.9932   -3.4731 C   0  0  0  0  0  0  0  0  0  0  0  0
    0.4946    5.1681   -1.4576 C   0  0  0  0  0  0  0  0  0  0  0  0
    0.6812    5.1550   -2.8399 C   0  0  0  0  0  0  0  0  0  0  0  0
   -1.6531    1.4091   -0.4852 H   0  0  0  0  0  0  0  0  0  0  0  0
    0.0124    0.3865   -1.6033 H   0  0  0  0  0  0  0  0  0  0  0  0
    2.3919    1.1409   -0.8836 H   0  0  0  0  0  0  0  0  0  0  0  0
    1.6740    1.9185    0.5037 H   0  0  0  0  0  0  0  0  0  0  0  0
    1.7207    1.9437   -3.2260 H   0  0  0  0  0  0  0  0  0  0  0  0
    0.6010    4.0387    0.3679 H   0  0  0  0  0  0  0  0  0  0  0  0
    1.2690    3.9832   -4.5492 H   0  0  0  0  0  0  0  0  0  0  0  0
    0.1520    6.0728   -0.9641 H   0  0  0  0  0  0  0  0  0  0  0  0
    0.4842    6.0498   -3.4231 H   0  0  0  0  0  0  0  0  0  0  0  0
    0.9819   -0.4834    1.4731 N   0  0  0  0  0  0  0  0  0  0  0  0
    1.4029   -1.5419    2.3625 C   0  0  2  0  0  0  0  0  0  0  0  0
    0.4336   -2.7054    2.2009 C   0  0  0  0  0  0  0  0  0  0  0  0
   -0.7083   -2.5717    1.7658 O   0  0  0  0  0  0  0  0  0  0  0  0
    1.4461   -1.0670    3.8065 C   0  0  0  0  0  0  0  0  0  0  0  0
    0.8852    0.4544    1.8513 H   0  0  0  0  0  0  0  0  0  0  0  0
    2.4022   -1.8504    2.0363 H   0  0  0  0  0  0  0  0  0  0  0  0
    0.4538   -0.7538    4.1511 H   0  0  0  0  0  0  0  0  0  0  0  0
    1.7926   -1.8617    4.4754 H   0  0  0  0  0  0  0  0  0  0  0  0
    2.1211   -0.2112    3.9153 H   0  0  0  0  0  0  0  0  0  0  0  0
    0.9787   -3.9038    2.6400 N   0  0  0  0  0  0  0  0  0  0  0  0
    0.2517   -5.1512    2.6025 C   0  0  0  0  0  0  0  0  0  0  0  0
    1.9399   -3.9251    2.9679 H   0  0  0  0  0  0  0  0  0  0  0  0
   -0.2606   -5.3066    3.5634 H   0  0  0  0  0  0  0  0  0  0  0  0
   -0.4913   -5.1182    1.7920 H   0  0  0  0  0  0  0  0  0  0  0  0
    0.9534   -5.9791    2.4231 H   0  0  0  0  0  0  0  0  0  0  0  0
 25 27  1  0  0  0  0
 26 27  2  0  0  0  0
 23 25  2  0  0  0  0
 24 26  1  0  0  0  0
 22 23  1  0  0  0  0
 22 24  2  0  0  0  0
 21 22  1  0  0  0  0
  1  3  1  0  0  0  0
  1  7  1  0  0  0  0
  1  2  2  0  0  0  0
 38 39  1  0  0  0  0
 39 47  1  0  0  0  0
 39 40  2  0  0  0  0
  8  9  1  0  0  0  0
  9 17  1  0  0  0  0
  9 10  2  0  0  0  0
 18 19  1  0  0  0  0
 19 37  1  0  0  0  0
 19 20  2  0  0  0  0
 38 41  1  0  0  0  0
  8 11  1  0  0  0  0
 47 48  1  0  0  0  0
 18 21  1  0  0  0  0
 37 38  1  0  0  0  0
  7  8  1  0  0  0  0
 17 18  1  0  0  0  0
 27 36  1  0  0  0  0
 25 34  1  0  0  0  0
 26 35  1  0  0  0  0
 23 32  1  0  0  0  0
 24 33  1  0  0  0  0
  3  4  1  0  0  0  0
  3  5  1  0  0  0  0
  3  6  1  0  0  0  0
 41 44  1  0  0  0  0
 41 45  1  0  0  0  0
 41 46  1  0  0  0  0
 11 14  1  0  0  0  0
 11 15  1  0  0  0  0
 11 16  1  0  0  0  0
 48 50  1  0  0  0  0
 48 51  1  0  0  0  0
 48 52  1  0  0  0  0
 21 30  1  0  0  0  0
 21 31  1  0  0  0  0
 38 43  1  0  0  0  0
  8 13  1  0  0  0  0
 18 29  1  0  0  0  0
 47 49  1  0  0  0  0
  7 12  1  0  0  0  0
 37 42  1  0  0  0  0
 17 28  1  0  0  0  0
M  END
$$$$

  -OEChem-05262214473D

 52 52  0     1  0  0  0  0  0999 V2000
   -1.8248    0.3424    3.9102 C   0  0  0  0  0  0  0  0  0  0  0  0
   -0.8774   -0.2723    3.4345 O   0  0  0  0  0  0  0  0  0  0  0  0
   -2.2566    0.0600    5.3109 C   0  0  0  0  0  0  0  0  0  0  0  0
   -3.0163   -0.7363    5.3643 H   0  0  0  0  0  0  0  0  0  0  0  0
   -1.4254   -0.2876    5.9452 H   0  0  0  0  0  0  0  0  0  0  0  0
   -2.6947    0.9149    5.8505 H   0  0  0  0  0  0  0  0  0  0  0  0
   -2.5745    1.3149    3.2691 N   0  0  0  0  0  0  0  0  0  0  0  0
   -2.3276    1.7409    1.9167 C   0  0  2  0  0  0  0  0  0  0  0  0
   -0.9926    1.1555    1.4755 C   0  0  0  0  0  0  0  0  0  0  0  0
   -0.1206    0.8028    2.2668 O   0  0  0  0  0  0  0  0  0  0  0  0
   -2.3188    3.2577    1.8072 C   0  0  0  0  0  0  0  0  0  0  0  0
   -3.3395    1.7507    3.7809 H   0  0  0  0  0  0  0  0  0  0  0  0
   -3.1317    1.3224    1.3015 H   0  0  0  0  0  0  0  0  0  0  0  0
   -1.5198    3.6949    2.4169 H   0  0  0  0  0  0  0  0  0  0  0  0
   -2.1594    3.5799    0.7729 H   0  0  0  0  0  0  0  0  0  0  0  0
   -3.2690    3.6789    2.1530 H   0  0  0  0  0  0  0  0  0  0  0  0
   -0.8700    1.1124    0.0921 N   0  0  0  0  0  0  0  0  0  0  0  0
    0.3073    0.6116   -0.5716 C   0  0  2  0  0  0  0  0  0  0  0  0
    0.7030   -0.6837    0.1283 C   0  0  0  0  0  0  0  0  0  0  0  0
    1.0596   -1.6907   -0.4796 O   0  0  0  0  0  0  0  0  0  0  0  0
    1.4659    1.6147   -0.5308 C   0  0  0  0  0  0  0  0  0  0  0  0
    1.1907    2.8574   -1.3418 C   0  0  0  0  0  0  0  0  0  0  0  0
    1.3773    2.8444   -2.7241 C   0  0  0  0  0  0  0  0  0  0  0  0
    0.7493    4.0193   -0.7085 C   0  0  0  0  0  0  0  0  0  0  0  0
    1.1226    3.9932   -3.4731 C   0  0  0  0  0  0  0  0  0  0  0  0
    0.4946    5.1681   -1.4576 C   0  0  0  0  0  0  0  0  0  0  0  0
    0.6812    5.1550   -2.8399 C   0  0  0  0  0  0  0  0  0  0  0  0
   -1.6531    1.4091   -0.4852 H   0  0  0  0  0  0  0  0  0  0  0  0
    0.0124    0.3865   -1.6033 H   0  0  0  0  0  0  0  0  0  0  0  0
    2.3919    1.1409   -0.8836 H   0  0  0  0  0  0  0  0  0  0  0  0
    1.6740    1.9185    0.5037 H   0  0  0  0  0  0  0  0  0  0  0  0
    1.7207    1.9437   -3.2260 H   0  0  0  0  0  0  0  0  0  0  0  0
    0.6010    4.0387    0.3679 H   0  0  0  0  0  0  0  0  0  0  0  0
    1.2690    3.9832   -4.5492 H   0  0  0  0  0  0  0  0  0  0  0  0
    0.1520    6.0728   -0.9641 H   0  0  0  0  0  0  0  0  0  0  0  0
    0.4842    6.0498   -3.4231 H   0  0  0  0  0  0  0  0  0  0  0  0
    0.6574   -0.5625    1.5102 N   0  0  0  0  0  0  0  0  0  0  0  0
    1.0069   -1.6357    2.4129 C   0  0  2  0  0  0  0  0  0  0  0  0
    0.2502   -2.8830    1.9759 C   0  0  0  0  0  0  0  0  0  0  0  0
   -0.7784   -2.8426    1.3040 O   0  0  0  0  0  0  0  0  0  0  0  0
    0.6770   -1.2766    3.8534 C   0  0  0  0  0  0  0  0  0  0  0  0
    0.3637    0.3252    1.9071 H   0  0  0  0  0  0  0  0  0  0  0  0
    2.0838   -1.8037    2.3027 H   0  0  0  0  0  0  0  0  0  0  0  0
   -0.3977   -1.1046    3.9834 H   0  0  0  0  0  0  0  0  0  0  0  0
    0.9685   -2.0790    4.5391 H   0  0  0  0  0  0  0  0  0  0  0  0
    1.1989   -0.3626    4.1565 H   0  0  0  0  0  0  0  0  0  0  0  0
    0.8346   -4.0447    2.4607 N   0  0  0  0  0  0  0  0  0  0  0  0
    0.2964   -5.3582    2.1942 C   0  0  0  0  0  0  0  0  0  0  0  0
    1.6971   -3.9852    2.9939 H   0  0  0  0  0  0  0  0  0  0  0  0
   -0.3874   -5.6465    3.0061 H   0  0  0  0  0  0  0  0  0  0  0  0
   -0.2523   -5.3429    1.2409 H   0  0  0  0  0  0  0  0  0  0  0  0
    1.1191   -6.0857    2.1321 H   0  0  0  0  0  0  0  0  0  0  0  0
 25 27  1  0  0  0  0
 26 27  2  0  0  0  0
 23 25  2  0  0  0  0
 24 26  1  0  0  0  0
 22 23  1  0  0  0  0
 22 24  2  0  0  0  0
 21 22  1  0  0  0  0
  1  3  1  0  0  0  0
  1  7  1  0  0  0  0
  1  2  2  0  0  0  0
 38 39  1  0  0  0  0
 39 47  1  0  0  0  0
 39 40  2  0  0  0  0
  8  9  1  0  0  0  0
  9 17  1  0  0  0  0
  9 10  2  0  0  0  0
 18 19  1  0  0  0  0
 19 37  1  0  0  0  0
 19 20  2  0  0  0  0
 38 41  1  0  0  0  0
  8 11  1  0  0  0  0
 47 48  1  0  0  0  0
 18 21  1  0  0  0  0
 37 38  1  0  0  0  0
  7  8  1  0  0  0  0
 17 18  1  0  0  0  0
 27 36  1  0  0  0  0
 25 34  1  0  0  0  0
 26 35  1  0  0  0  0
 23 32  1  0  0  0  0
 24 33  1  0  0  0  0
  3  4  1  0  0  0  0
  3  5  1  0  0  0  0
  3  6  1  0  0  0  0
 41 44  1  0  0  0  0
 41 45  1  0  0  0  0
 41 46  1  0  0  0  0
 11 14  1  0  0  0  0
 11 15  1  0  0  0  0
 11 16  1  0  0  0  0
 48 50  1  0  0  0  0
 48 51  1  0  0  0  0
 48 52  1  0  0  0  0
 21 30  1  0  0  0  0
 21 31  1  0  0  0  0
 38 43  1  0  0  0  0
  8 13  1  0  0  0  0
 18 29  1  0  0  0  0
 47 49  1  0  0  0  0
  7 12  1  0  0  0  0
 37 42  1  0  0  0  0
 17 28  1  0  0  0  0
M  END
$$$$

  -OEChem-05262214473D

 52 52  0     1  0  0  0  0  0999 V2000
   -1.8248    0.3424    3.9102 C   0  0  0  0  0  0  0  0  0  0  0  0
   -0.8774   -0.2723    3.4345 O   0  0  0  0  0  0  0  0  0  0  0  0
   -2.2566    0.0600    5.3109 C   0  0  0  0  0  0  0  0  0  0  0  0
   -3.0163   -0.7363    5.3643 H   0  0  0  0  0  0  0  0  0  0  0  0
   -1.4254   -0.2876    5.9452 H   0  0  0  0  0  0  0  0  0  0  0  0
   -2.6947    0.9149    5.8505 H   0  0  0  0  0  0  0  0  0  0  0  0
   -2.5745    1.3149    3.2691 N   0  0  0  0  0  0  0  0  0  0  0  0
   -2.3276    1.7409    1.9167 C   0  0  2  0  0  0  0  0  0  0  0  0
   -0.9926    1.1555    1.4755 C   0  0  0  0  0  0  0  0  0  0  0  0
   -0.1206    0.8028    2.2668 O   0  0  0  0  0  0  0  0  0  0  0  0
   -2.3188    3.2577    1.8072 C   0  0  0  0  0  0  0  0  0  0  0  0
   -3.3395    1.7507    3.7809 H   0  0  0  0  0  0  0  0  0  0  0  0
   -3.1317    1.3224    1.3015 H   0  0  0  0  0  0  0  0  0  0  0  0
   -1.5198    3.6949    2.4169 H   0  0  0  0  0  0  0  0  0  0  0  0
   -2.1594    3.5799    0.7729 H   0  0  0  0  0  0  0  0  0  0  0  0
   -3.2690    3.6789    2.1530 H   0  0  0  0  0  0  0  0  0  0  0  0
   -0.8700    1.1124    0.0921 N   0  0  0  0  0  0  0  0  0  0  0  0
    0.3073    0.6116   -0.5716 C   0  0  2  0  0  0  0  0  0  0  0  0
    0.7030   -0.6837    0.1283 C   0  0  0  0  0  0  0  0  0  0  0  0
    1.3067   -1.5926   -0.4376 O   0  0  0  0  0  0  0  0  0  0  0  0
    1.4659    1.6147   -0.5308 C   0  0  0  0  0  0  0  0  0  0  0  0
    1.1907    2.8574   -1.3418 C   0  0  0  0  0  0  0  0  0  0  0  0
    1.3773    2.8444   -2.7241 C   0  0  0  0  0  0  0  0  0  0  0  0
    0.7493    4.0193   -0.7085 C   0  0  0  0  0  0  0  0  0  0  0  0
    1.1226    3.9932   -3.4731 C   0  0  0  0  0  0  0  0  0  0  0  0
    0.4946    5.1681   -1.4576 C   0  0  0  0  0  0  0  0  0  0  0  0
    0.6812    5.1550   -2.8399 C   0  0  0  0  0  0  0  0  0  0  0  0
   -1.6531    1.4091   -0.4852 H   0  0  0  0  0  0  0  0  0  0  0  0
    0.0124    0.3865   -1.6033 H   0  0  0  0  0  0  0  0  0  0  0  0
    2.3919    1.1409   -0.8836 H   0  0  0  0  0  0  0  0  0  0  0  0
    1.6740    1.9185    0.5037 H   0  0  0  0  0  0  0  0  0  0  0  0
    1.7207    1.9437   -3.2260 H   0  0  0  0  0  0  0  0  0  0  0  0
    0.6010    4.0387    0.3679 H   0  0  0  0  0  0  0  0  0  0  0  0
    1.2690    3.9832   -4.5492 H   0  0  0  0  0  0  0  0  0  0  0  0
    0.1520    6.0728   -0.9641 H   0  0  0  0  0  0  0  0  0  0  0  0
    0.4842    6.0498   -3.4231 H   0  0  0  0  0  0  0  0  0  0  0  0
    0.3453   -0.6799    1.4694 N   0  0  0  0  0  0  0  0  0  0  0  0
    0.6244   -1.7766    2.3683 C   0  0  2  0  0  0  0  0  0  0  0  0
    0.1436   -3.0612    1.7063 C   0  0  0  0  0  0  0  0  0  0  0  0
   -0.7123   -3.0816    0.8242 O   0  0  0  0  0  0  0  0  0  0  0  0
   -0.0513   -1.5736    3.7154 C   0  0  0  0  0  0  0  0  0  0  0  0
   -0.1369    0.1348    1.8376 H   0  0  0  0  0  0  0  0  0  0  0  0
    1.7120   -1.8143    2.4931 H   0  0  0  0  0  0  0  0  0  0  0  0
   -1.1417   -1.5333    3.6105 H   0  0  0  0  0  0  0  0  0  0  0  0
    0.1843   -2.3912    4.4047 H   0  0  0  0  0  0  0  0  0  0  0  0
    0.2731   -0.6345    4.1766 H   0  0  0  0  0  0  0  0  0  0  0  0
    0.7516   -4.1858    2.2464 N   0  0  0  0  0  0  0  0  0  0  0  0
    0.4540   -5.5253    1.7957 C   0  0  0  0  0  0  0  0  0  0  0  0
    1.4641   -4.0738    2.9616 H   0  0  0  0  0  0  0  0  0  0  0  0
   -0.3470   -5.9524    2.4171 H   0  0  0  0  0  0  0  0  0  0  0  0
    0.1266   -5.4946    0.7460 H   0  0  0  0  0  0  0  0  0  0  0  0
    1.3558   -6.1495    1.8804 H   0  0  0  0  0  0  0  0  0  0  0  0
 25 27  1  0  0  0  0
 26 27  2  0  0  0  0
 23 25  2  0  0  0  0
 24 26  1  0  0  0  0
 22 23  1  0  0  0  0
 22 24  2  0  0  0  0
 21 22  1  0  0  0  0
  1  3  1  0  0  0  0
  1  7  1  0  0  0  0
  1  2  2  0  0  0  0
 38 39  1  0  0  0  0
 39 47  1  0  0  0  0
 39 40  2  0  0  0  0
  8  9  1  0  0  0  0
  9 17  1  0  0  0  0
  9 10  2  0  0  0  0
 18 19  1  0  0  0  0
 19 37  1  0  0  0  0
 19 20  2  0  0  0  0
 38 41  1  0  0  0  0
  8 11  1  0  0  0  0
 47 48  1  0  0  0  0
 18 21  1  0  0  0  0
 37 38  1  0  0  0  0
  7  8  1  0  0  0  0
 17 18  1  0  0  0  0
 27 36  1  0  0  0  0
 25 34  1  0  0  0  0
 26 35  1  0  0  0  0
 23 32  1  0  0  0  0
 24 33  1  0  0  0  0
  3  4  1  0  0  0  0
  3  5  1  0  0  0  0
  3  6  1  0  0  0  0
 41 44  1  0  0  0  0
 41 45  1  0  0  0  0
 41 46  1  0  0  0  0
 11 14  1  0  0  0  0
 11 15  1  0  0  0  0
 11 16  1  0  0  0  0
 48 50  1  0  0  0  0
 48 51  1  0  0  0  0
 48 52  1  0  0  0  0
 21 30  1  0  0  0  0
 21 31  1  0  0  0  0
 38 43  1  0  0  0  0
  8 13  1  0  0  0  0
 18 29  1  0  0  0  0
 47 49  1  0  0  0  0
  7 12  1  0  0  0  0
 37 42  1  0  0  0  0
 17 28  1  0  0  0  0
M  END
$$$$

  -OEChem-05262214473D

 52 52  0     1  0  0  0  0  0999 V2000
   -1.8248    0.3424    3.9102 C   0  0  0  0  0  0  0  0  0  0  0  0
   -0.8774   -0.2723    3.4345 O   0  0  0  0  0  0  0  0  0  0  0  0
   -2.2566    0.0600    5.3109 C   0  0  0  0  0  0  0  0  0  0  0  0
   -3.0163   -0.7363    5.3643 H   0  0  0  0  0  0  0  0  0  0  0  0
   -1.4254   -0.2876    5.9452 H   0  0  0  0  0  0  0  0  0  0  0  0
   -2.6947    0.9149    5.8505 H   0  0  0  0  0  0  0  0  0  0  0  0
   -2.5745    1.3149    3.2691 N   0  0  0  0  0  0  0  0  0  0  0  0
   -2.3276    1.7409    1.9167 C   0  0  2  0  0  0  0  0  0  0  0  0
   -0.9926    1.1555    1.4755 C   0  0  0  0  0  0  0  0  0  0  0  0
   -0.1206    0.8028    2.2668 O   0  0  0  0  0  0  0  0  0  0  0  0
   -2.3188    3.2577    1.8072 C   0  0  0  0  0  0  0  0  0  0  0  0
   -3.3395    1.7507    3.7809 H   0  0  0  0  0  0  0  0  0  0  0  0
   -3.1317    1.3224    1.3015 H   0  0  0  0  0  0  0  0  0  0  0  0
   -1.5198    3.6949    2.4169 H   0  0  0  0  0  0  0  0  0  0  0  0
   -2.1594    3.5799    0.7729 H   0  0  0  0  0  0  0  0  0  0  0  0
   -3.2690    3.6789    2.1530 H   0  0  0  0  0  0  0  0  0  0  0  0
   -0.8700    1.1124    0.0921 N   0  0  0  0  0  0  0  0  0  0  0  0
    0.3073    0.6116   -0.5716 C   0  0  2  0  0  0  0  0  0  0  0  0
    0.7030   -0.6837    0.1283 C   0  0  0  0  0  0  0  0  0  0  0  0
    1.5245   -1.4712   -0.3362 O   0  0  0  0  0  0  0  0  0  0  0  0
    1.4659    1.6147   -0.5308 C   0  0  0  0  0  0  0  0  0  0  0  0
    1.1907    2.8574   -1.3418 C   0  0  0  0  0  0  0  0  0  0  0  0
    1.3773    2.8444   -2.7241 C   0  0  0  0  0  0  0  0  0  0  0  0
    0.7493    4.0193   -0.7085 C   0  0  0  0  0  0  0  0  0  0  0  0
    1.1226    3.9932   -3.4731 C   0  0  0  0  0  0  0  0  0  0  0  0
    0.4946    5.1681   -1.4576 C   0  0  0  0  0  0  0  0  0  0  0  0
    0.6812    5.1550   -2.8399 C   0  0  0  0  0  0  0  0  0  0  0  0
   -1.6531    1.4091   -0.4852 H   0  0  0  0  0  0  0  0  0  0  0  0
    0.0124    0.3865   -1.6033 H   0  0  0  0  0  0  0  0  0  0  0  0
    2.3919    1.1409   -0.8836 H   0  0  0  0  0  0  0  0  0  0  0  0
    1.6740    1.9185    0.5037 H   0  0  0  0  0  0  0  0  0  0  0  0
    1.7207    1.9437   -3.2260 H   0  0  0  0  0  0  0  0  0  0  0  0
    0.6010    4.0387    0.3679 H   0  0  0  0  0  0  0  0  0  0  0  0
    1.2690    3.9832   -4.5492 H   0  0  0  0  0  0  0  0  0  0  0  0
    0.1520    6.0728   -0.9641 H   0  0  0  0  0  0  0  0  0  0  0  0
    0.4842    6.0498   -3.4231 H   0  0  0  0  0  0  0  0  0  0  0  0
    0.0667   -0.8276    1.3534 N   0  0  0  0  0  0  0  0  0  0  0  0
    0.2815   -1.9553    2.2315 C   0  0  2  0  0  0  0  0  0  0  0  0
    0.1212   -3.2279    1.4105 C   0  0  0  0  0  0  0  0  0  0  0  0
   -0.5146   -3.2724    0.3593 O   0  0  0  0  0  0  0  0  0  0  0  0
   -0.6892   -1.9378    3.4021 C   0  0  0  0  0  0  0  0  0  0  0  0
   -0.5825   -0.1040    1.6477 H   0  0  0  0  0  0  0  0  0  0  0  0
    1.3124   -1.8816    2.5946 H   0  0  0  0  0  0  0  0  0  0  0  0
   -1.7273   -2.0107    3.0579 H   0  0  0  0  0  0  0  0  0  0  0  0
   -0.5065   -2.7768    4.0816 H   0  0  0  0  0  0  0  0  0  0  0  0
   -0.5932   -1.0086    3.9741 H   0  0  0  0  0  0  0  0  0  0  0  0
    0.7353   -4.3177    2.0116 N   0  0  0  0  0  0  0  0  0  0  0  0
    0.7136   -5.6413    1.4342 C   0  0  0  0  0  0  0  0  0  0  0  0
    1.2566   -4.1849    2.8733 H   0  0  0  0  0  0  0  0  0  0  0  0
   -0.1420   -6.2035    1.8365 H   0  0  0  0  0  0  0  0  0  0  0  0
    0.6193   -5.5629    0.3411 H   0  0  0  0  0  0  0  0  0  0  0  0
    1.6474   -6.1660    1.6850 H   0  0  0  0  0  0  0  0  0  0  0  0
 25 27  1  0  0  0  0
 26 27  2  0  0  0  0
 23 25  2  0  0  0  0
 24 26  1  0  0  0  0
 22 23  1  0  0  0  0
 22 24  2  0  0  0  0
 21 22  1  0  0  0  0
  1  3  1  0  0  0  0
  1  7  1  0  0  0  0
  1  2  2  0  0  0  0
 38 39  1  0  0  0  0
 39 47  1  0  0  0  0
 39 40  2  0  0  0  0
  8  9  1  0  0  0  0
  9 17  1  0  0  0  0
  9 10  2  0  0  0  0
 18 19  1  0  0  0  0
 19 37  1  0  0  0  0
 19 20  2  0  0  0  0
 38 41  1  0  0  0  0
  8 11  1  0  0  0  0
 47 48  1  0  0  0  0
 18 21  1  0  0  0  0
 37 38  1  0  0  0  0
  7  8  1  0  0  0  0
 17 18  1  0  0  0  0
 27 36  1  0  0  0  0
 25 34  1  0  0  0  0
 26 35  1  0  0  0  0
 23 32  1  0  0  0  0
 24 33  1  0  0  0  0
  3  4  1  0  0  0  0
  3  5  1  0  0  0  0
  3  6  1  0  0  0  0
 41 44  1  0  0  0  0
 41 45  1  0  0  0  0
 41 46  1  0  0  0  0
 11 14  1  0  0  0  0
 11 15  1  0  0  0  0
 11 16  1  0  0  0  0
 48 50  1  0  0  0  0
 48 51  1  0  0  0  0
 48 52  1  0  0  0  0
 21 30  1  0  0  0  0
 21 31  1  0  0  0  0
 38 43  1  0  0  0  0
  8 13  1  0  0  0  0
 18 29  1  0  0  0  0
 47 49  1  0  0  0  0
  7 12  1  0  0  0  0
 37 42  1  0  0  0  0
 17 28  1  0  0  0  0
M  END
$$$$

  -OEChem-05262214473D

 52 52  0     1  0  0  0  0  0999 V2000
   -1.8248    0.3424    3.9102 C   0  0  0  0  0  0  0  0  0  0  0  0
   -0.8774   -0.2723    3.4345 O   0  0  0  0  0  0  0  0  0  0  0  0
   -2.2566    0.0600    5.3109 C   0  0  0  0  0  0  0  0  0  0  0  0
   -3.0163   -0.7363    5.3643 H   0  0  0  0  0  0  0  0  0  0  0  0
   -1.4254   -0.2876    5.9452 H   0  0  0  0  0  0  0  0  0  0  0  0
   -2.6947    0.9149    5.8505 H   0  0  0  0  0  0  0  0  0  0  0  0
   -2.5745    1.3149    3.2691 N   0  0  0  0  0  0  0  0  0  0  0  0
   -2.3276    1.7409    1.9167 C   0  0  2  0  0  0  0  0  0  0  0  0
   -0.9926    1.1555    1.4755 C   0  0  0  0  0  0  0  0  0  0  0  0
   -0.1206    0.8028    2.2668 O   0  0  0  0  0  0  0  0  0  0  0  0
   -2.3188    3.2577    1.8072 C   0  0  0  0  0  0  0  0  0  0  0  0
   -3.3395    1.7507    3.7809 H   0  0  0  0  0  0  0  0  0  0  0  0
   -3.1317    1.3224    1.3015 H   0  0  0  0  0  0  0  0  0  0  0  0
   -1.5198    3.6949    2.4169 H   0  0  0  0  0  0  0  0  0  0  0  0
   -2.1594    3.5799    0.7729 H   0  0  0  0  0  0  0  0  0  0  0  0
   -3.2690    3.6789    2.1530 H   0  0  0  0  0  0  0  0  0  0  0  0
   -0.8700    1.1124    0.0921 N   0  0  0  0  0  0  0  0  0  0  0  0
    0.3073    0.6116   -0.5716 C   0  0  2  0  0  0  0  0  0  0  0  0
    0.7030   -0.6837    0.1283 C   0  0  0  0  0  0  0  0  0  0  0  0
    1.6982   -1.3350   -0.1821 O   0  0  0  0  0  0  0  0  0  0  0  0
    1.4659    1.6147   -0.5308 C   0  0  0  0  0  0  0  0  0  0  0  0
    1.1907    2.8574   -1.3418 C   0  0  0  0  0  0  0  0  0  0  0  0
    1.3773    2.8444   -2.7241 C   0  0  0  0  0  0  0  0  0  0  0  0
    0.7493    4.0193   -0.7085 C   0  0  0  0  0  0  0  0  0  0  0  0
    1.1226    3.9932   -3.4731 C   0  0  0  0  0  0  0  0  0  0  0  0
    0.4946    5.1681   -1.4576 C   0  0  0  0  0  0  0  0  0  0  0  0
    0.6812    5.1550   -2.8399 C   0  0  0  0  0  0  0  0  0  0  0  0
   -1.6531    1.4091   -0.4852 H   0  0  0  0  0  0  0  0  0  0  0  0
    0.0124    0.3865   -1.6033 H   0  0  0  0  0  0  0  0  0  0  0  0
    2.3919    1.1409   -0.8836 H   0  0  0  0  0  0  0  0  0  0  0  0
    1.6740    1.9185    0.5037 H   0  0  0  0  0  0  0  0  0  0  0  0
    1.7207    1.9437   -3.2260 H   0  0  0  0  0  0  0  0  0  0  0  0
    0.6010    4.0387    0.3679 H   0  0  0  0  0  0  0  0  0  0  0  0
    1.2690    3.9832   -4.5492 H   0  0  0  0  0  0  0  0  0  0  0  0
    0.1520    6.0728   -0.9641 H   0  0  0  0  0  0  0  0  0  0  0  0
    0.4842    6.0498   -3.4231 H   0  0  0  0  0  0  0  0  0  0  0  0
   -0.1593   -0.9956    1.1702 N   0  0  0  0  0  0  0  0  0  0  0  0
    0.0015   -2.1594    2.0120 C   0  0  2  0  0  0  0  0  0  0  0  0
    0.1843   -3.3717    1.1086 C   0  0  0  0  0  0  0  0  0  0  0  0
   -0.1988   -3.4020   -0.0590 O   0  0  0  0  0  0  0  0  0  0  0  0
   -1.1932   -2.3442    2.9347 C   0  0  0  0  0  0  0  0  0  0  0  0
   -0.9429   -0.3748    1.3501 H   0  0  0  0  0  0  0  0  0  0  0  0
    0.9120   -2.0008    2.6002 H   0  0  0  0  0  0  0  0  0  0  0  0
   -2.1148   -2.5044    2.3634 H   0  0  0  0  0  0  0  0  0  0  0  0
   -1.0570   -3.2097    3.5916 H   0  0  0  0  0  0  0  0  0  0  0  0
   -1.3411   -1.4592    3.5629 H   0  0  0  0  0  0  0  0  0  0  0  0
    0.7869   -4.4312    1.7724 N   0  0  0  0  0  0  0  0  0  0  0  0
    1.0577   -5.6983    1.1344 C   0  0  0  0  0  0  0  0  0  0  0  0
    1.0888   -4.3110    2.7348 H   0  0  0  0  0  0  0  0  0  0  0  0
    0.2134   -6.3827    1.3039 H   0  0  0  0  0  0  0  0  0  0  0  0
    1.1925   -5.5431    0.0537 H   0  0  0  0  0  0  0  0  0  0  0  0
    1.9739   -6.1342    1.5592 H   0  0  0  0  0  0  0  0  0  0  0  0
 25 27  1  0  0  0  0
 26 27  2  0  0  0  0
 23 25  2  0  0  0  0
 24 26  1  0  0  0  0
 22 23  1  0  0  0  0
 22 24  2  0  0  0  0
 21 22  1  0  0  0  0
  1  3  1  0  0  0  0
  1  7  1  0  0  0  0
  1  2  2  0  0  0  0
 38 39  1  0  0  0  0
 39 47  1  0  0  0  0
 39 40  2  0  0  0  0
  8  9  1  0  0  0  0
  9 17  1  0  0  0  0
  9 10  2  0  0  0  0
 18 19  1  0  0  0  0
 19 37  1  0  0  0  0
 19 20  2  0  0  0  0
 38 41  1  0  0  0  0
  8 11  1  0  0  0  0
 47 48  1  0  0  0  0
 18 21  1  0  0  0  0
 37 38  1  0  0  0  0
  7  8  1  0  0  0  0
 17 18  1  0  0  0  0
 27 36  1  0  0  0  0
 25 34  1  0  0  0  0
 26 35  1  0  0  0  0
 23 32  1  0  0  0  0
 24 33  1  0  0  0  0
  3  4  1  0  0  0  0
  3  5  1  0  0  0  0
  3  6  1  0  0  0  0
 41 44  1  0  0  0  0
 41 45  1  0  0  0  0
 41 46  1  0  0  0  0
 11 14  1  0  0  0  0
 11 15  1  0  0  0  0
 11 16  1  0  0  0  0
 48 50  1  0  0  0  0
 48 51  1  0  0  0  0
 48 52  1  0  0  0  0
 21 30  1  0  0  0  0
 21 31  1  0  0  0  0
 38 43  1  0  0  0  0
  8 13  1  0  0  0  0
 18 29  1  0  0  0  0
 47 49  1  0  0  0  0
  7 12  1  0  0  0  0
 37 42  1  0  0  0  0
 17 28  1  0  0  0  0
M  END
$$$$

  -OEChem-05262214473D

 52 52  0     1  0  0  0  0  0999 V2000
   -1.8248    0.3424    3.9102 C   0  0  0  0  0  0  0  0  0  0  0  0
   -0.8774   -0.2723    3.4345 O   0  0  0  0  0  0  0  0  0  0  0  0
   -2.2566    0.0600    5.3109 C   0  0  0  0  0  0  0  0  0  0  0  0
   -3.0163   -0.7363    5.3643 H   0  0  0  0  0  0  0  0  0  0  0  0
   -1.4254   -0.2876    5.9452 H   0  0  0  0  0  0  0  0  0  0  0  0
   -2.6947    0.9149    5.8505 H   0  0  0  0  0  0  0  0  0  0  0  0
   -2.5745    1.3149    3.2691 N   0  0  0  0  0  0  0  0  0  0  0  0
   -2.3276    1.7409    1.9167 C   0  0  2  0  0  0  0  0  0  0  0  0
   -0.9926    1.1555    1.4755 C   0  0  0  0  0  0  0  0  0  0  0  0
   -0.1206    0.8028    2.2668 O   0  0  0  0  0  0  0  0  0  0  0  0
   -2.3188    3.2577    1.8072 C   0  0  0  0  0  0  0  0  0  0  0  0
   -3.3395    1.7507    3.7809 H   0  0  0  0  0  0  0  0  0  0  0  0
   -3.1317    1.3224    1.3015 H   0  0  0  0  0  0  0  0  0  0  0  0
   -1.5198    3.6949    2.4169 H   0  0  0  0  0  0  0  0  0  0  0  0
   -2.1594    3.5799    0.7729 H   0  0  0  0  0  0  0  0  0  0  0  0
   -3.2690    3.6789    2.1530 H   0  0  0  0  0  0  0  0  0  0  0  0
   -0.8700    1.1124    0.0921 N   0  0  0  0  0  0  0  0  0  0  0  0
    0.3073    0.6116   -0.5716 C   0  0  2  0  0  0  0  0  0  0  0  0
    0.7030   -0.6837    0.1283 C   0  0  0  0  0  0  0  0  0  0  0  0
    1.8158   -1.1930    0.0140 O   0  0  0  0  0  0  0  0  0  0  0  0
    1.4659    1.6147   -0.5308 C   0  0  0  0  0  0  0  0  0  0  0  0
    1.1907    2.8574   -1.3418 C   0  0  0  0  0  0  0  0  0  0  0  0
    1.3773    2.8444   -2.7241 C   0  0  0  0  0  0  0  0  0  0  0  0
    0.7493    4.0193   -0.7085 C   0  0  0  0  0  0  0  0  0  0  0  0
    1.1226    3.9932   -3.4731 C   0  0  0  0  0  0  0  0  0  0  0  0
    0.4946    5.1681   -1.4576 C   0  0  0  0  0  0  0  0  0  0  0  0
    0.6812    5.1550   -2.8399 C   0  0  0  0  0  0  0  0  0  0  0  0
   -1.6531    1.4091   -0.4852 H   0  0  0  0  0  0  0  0  0  0  0  0
    0.0124    0.3865   -1.6033 H   0  0  0  0  0  0  0  0  0  0  0  0
    2.3919    1.1409   -0.8836 H   0  0  0  0  0  0  0  0  0  0  0  0
    1.6740    1.9185    0.5037 H   0  0  0  0  0  0  0  0  0  0  0  0
    1.7207    1.9437   -3.2260 H   0  0  0  0  0  0  0  0  0  0  0  0
    0.6010    4.0387    0.3679 H   0  0  0  0  0  0  0  0  0  0  0  0
    1.2690    3.9832   -4.5492 H   0  0  0  0  0  0  0  0  0  0  0  0
    0.1520    6.0728   -0.9641 H   0  0  0  0  0  0  0  0  0  0  0  0
    0.4842    6.0498   -3.4231 H   0  0  0  0  0  0  0  0  0  0  0  0
   -0.3174   -1.1725    0.9323 N   0  0  0  0  0  0  0  0  0  0  0  0
   -0.1964   -2.3750    1.7248 C   0  0  2  0  0  0  0  0  0  0  0  0
    0.3288   -3.4829    0.8212 C   0  0  0  0  0  0  0  0  0  0  0  0
    0.2137   -3.4615   -0.4024 O   0  0  0  0  0  0  0  0  0  0  0  0
   -1.5289   -2.7654    2.3451 C   0  0  0  0  0  0  0  0  0  0  0  0
   -1.1933   -0.6592    0.9653 H   0  0  0  0  0  0  0  0  0  0  0  0
    0.5382   -2.1640    2.5096 H   0  0  0  0  0  0  0  0  0  0  0  0
   -2.2777   -2.9806    1.5741 H   0  0  0  0  0  0  0  0  0  0  0  0
   -1.4295   -3.6603    2.9682 H   0  0  0  0  0  0  0  0  0  0  0  0
   -1.9195   -1.9557    2.9709 H   0  0  0  0  0  0  0  0  0  0  0  0
    0.9028   -4.5186    1.5451 N   0  0  0  0  0  0  0  0  0  0  0  0
    1.4628   -5.6922    0.9166 C   0  0  0  0  0  0  0  0  0  0  0  0
    0.9722   -4.4434    2.5557 H   0  0  0  0  0  0  0  0  0  0  0  0
    0.6952   -6.4777    0.8556 H   0  0  0  0  0  0  0  0  0  0  0  0
    1.8069   -5.4366   -0.0965 H   0  0  0  0  0  0  0  0  0  0  0  0
    2.3133   -6.0562    1.5117 H   0  0  0  0  0  0  0  0  0  0  0  0
 25 27  1  0  0  0  0
 26 27  2  0  0  0  0
 23 25  2  0  0  0  0
 24 26  1  0  0  0  0
 22 23  1  0  0  0  0
 22 24  2  0  0  0  0
 21 22  1  0  0  0  0
  1  3  1  0  0  0  0
  1  7  1  0  0  0  0
  1  2  2  0  0  0  0
 38 39  1  0  0  0  0
 39 47  1  0  0  0  0
 39 40  2  0  0  0  0
  8  9  1  0  0  0  0
  9 17  1  0  0  0  0
  9 10  2  0  0  0  0
 18 19  1  0  0  0  0
 19 37  1  0  0  0  0
 19 20  2  0  0  0  0
 38 41  1  0  0  0  0
  8 11  1  0  0  0  0
 47 48  1  0  0  0  0
 18 21  1  0  0  0  0
 37 38  1  0  0  0  0
  7  8  1  0  0  0  0
 17 18  1  0  0  0  0
 27 36  1  0  0  0  0
 25 34  1  0  0  0  0
 26 35  1  0  0  0  0
 23 32  1  0  0  0  0
 24 33  1  0  0  0  0
  3  4  1  0  0  0  0
  3  5  1  0  0  0  0
  3  6  1  0  0  0  0
 41 44  1  0  0  0  0
 41 45  1  0  0  0  0
 41 46  1  0  0  0  0
 11 14  1  0  0  0  0
 11 15  1  0  0  0  0
 11 16  1  0  0  0  0
 48 50  1  0  0  0  0
 48 51  1  0  0  0  0
 48 52  1  0  0  0  0
 21 30  1  0  0  0  0
 21 31  1  0  0  0  0
 38 43  1  0  0  0  0
  8 13  1  0  0  0  0
 18 29  1  0  0  0  0
 47 49  1  0  0  0  0
  7 12  1  0  0  0  0
 37 42  1  0  0  0  0
 17 28  1  0  0  0  0
M  END
$$$$

  -OEChem-05262214473D

 52 52  0     1  0  0  0  0  0999 V2000
   -1.8248    0.3424    3.9102 C   0  0  0  0  0  0  0  0  0  0  0  0
   -0.8774   -0.2723    3.4345 O   0  0  0  0  0  0  0  0  0  0  0  0
   -2.2566    0.0600    5.3109 C   0  0  0  0  0  0  0  0  0  0  0  0
   -3.0163   -0.7363    5.3643 H   0  0  0  0  0  0  0  0  0  0  0  0
   -1.4254   -0.2876    5.9452 H   0  0  0  0  0  0  0  0  0  0  0  0
   -2.6947    0.9149    5.8505 H   0  0  0  0  0  0  0  0  0  0  0  0
   -2.5745    1.3149    3.2691 N   0  0  0  0  0  0  0  0  0  0  0  0
   -2.3276    1.7409    1.9167 C   0  0  2  0  0  0  0  0  0  0  0  0
   -0.9926    1.1555    1.4755 C   0  0  0  0  0  0  0  0  0  0  0  0
   -0.1206    0.8028    2.2668 O   0  0  0  0  0  0  0  0  0  0  0  0
   -2.3188    3.2577    1.8072 C   0  0  0  0  0  0  0  0  0  0  0  0
   -3.3395    1.7507    3.7809 H   0  0  0  0  0  0  0  0  0  0  0  0
   -3.1317    1.3224    1.3015 H   0  0  0  0  0  0  0  0  0  0  0  0
   -1.5198    3.6949    2.4169 H   0  0  0  0  0  0  0  0  0  0  0  0
   -2.1594    3.5799    0.7729 H   0  0  0  0  0  0  0  0  0  0  0  0
   -3.2690    3.6789    2.1530 H   0  0  0  0  0  0  0  0  0  0  0  0
   -0.8700    1.1124    0.0921 N   0  0  0  0  0  0  0  0  0  0  0  0
    0.3073    0.6116   -0.5716 C   0  0  2  0  0  0  0  0  0  0  0  0
    0.7030   -0.6837    0.1283 C   0  0  0  0  0  0  0  0  0  0  0  0
    1.8695   -1.0552    0.2389 O   0  0  0  0  0  0  0  0  0  0  0  0
    1.4659    1.6147   -0.5308 C   0  0  0  0  0  0  0  0  0  0  0  0
    1.1907    2.8574   -1.3418 C   0  0  0  0  0  0  0  0  0  0  0  0
    1.3773    2.8444   -2.7241 C   0  0  0  0  0  0  0  0  0  0  0  0
    0.7493    4.0193   -0.7085 C   0  0  0  0  0  0  0  0  0  0  0  0
    1.1226    3.9932   -3.4731 C   0  0  0  0  0  0  0  0  0  0  0  0
    0.4946    5.1681   -1.4576 C   0  0  0  0  0  0  0  0  0  0  0  0
    0.6812    5.1550   -2.8399 C   0  0  0  0  0  0  0  0  0  0  0  0
   -1.6531    1.4091   -0.4852 H   0  0  0  0  0  0  0  0  0  0  0  0
    0.0124    0.3865   -1.6033 H   0  0  0  0  0  0  0  0  0  0  0  0
    2.3919    1.1409   -0.8836 H   0  0  0  0  0  0  0  0  0  0  0  0
    1.6740    1.9185    0.5037 H   0  0  0  0  0  0  0  0  0  0  0  0
    1.7207    1.9437   -3.2260 H   0  0  0  0  0  0  0  0  0  0  0  0
    0.6010    4.0387    0.3679 H   0  0  0  0  0  0  0  0  0  0  0  0
    1.2690    3.9832   -4.5492 H   0  0  0  0  0  0  0  0  0  0  0  0
    0.1520    6.0728   -0.9641 H   0  0  0  0  0  0  0  0  0  0  0  0
    0.4842    6.0498   -3.4231 H   0  0  0  0  0  0  0  0  0  0  0  0
   -0.3968   -1.3461    0.6558 N   0  0  0  0  0  0  0  0  0  0  0  0
   -0.2987   -2.5875    1.3893 C   0  0  2  0  0  0  0  0  0  0  0  0
    0.5448   -3.5537    0.5680 C   0  0  0  0  0  0  0  0  0  0  0  0
    0.6948   -3.4470   -0.6474 O   0  0  0  0  0  0  0  0  0  0  0  0
   -1.6734   -3.1724    1.6735 C   0  0  0  0  0  0  0  0  0  0  0  0
   -1.3168   -0.9379    0.5194 H   0  0  0  0  0  0  0  0  0  0  0  0
    0.2165   -2.3599    2.3289 H   0  0  0  0  0  0  0  0  0  0  0  0
   -2.2048   -3.4069    0.7439 H   0  0  0  0  0  0  0  0  0  0  0  0
   -1.5986   -4.0979    2.2539 H   0  0  0  0  0  0  0  0  0  0  0  0
   -2.2890   -2.4643    2.2386 H   0  0  0  0  0  0  0  0  0  0  0  0
    1.0751   -4.5740    1.3451 N   0  0  0  0  0  0  0  0  0  0  0  0
    1.9012   -5.6236    0.7957 C   0  0  0  0  0  0  0  0  0  0  0  0
    0.9147   -4.5731    2.3481 H   0  0  0  0  0  0  0  0  0  0  0  0
    1.2704   -6.4822    0.5221 H   0  0  0  0  0  0  0  0  0  0  0  0
    2.4208   -5.2506   -0.0993 H   0  0  0  0  0  0  0  0  0  0  0  0
    2.6422   -5.9373    1.5457 H   0  0  0  0  0  0  0  0  0  0  0  0
 25 27  1  0  0  0  0
 26 27  2  0  0  0  0
 23 25  2  0  0  0  0
 24 26  1  0  0  0  0
 22 23  1  0  0  0  0
 22 24  2  0  0  0  0
 21 22  1  0  0  0  0
  1  3  1  0  0  0  0
  1  7  1  0  0  0  0
  1  2  2  0  0  0  0
 38 39  1  0  0  0  0
 39 47  1  0  0  0  0
 39 40  2  0  0  0  0
  8  9  1  0  0  0  0
  9 17  1  0  0  0  0
  9 10  2  0  0  0  0
 18 19  1  0  0  0  0
 19 37  1  0  0  0  0
 19 20  2  0  0  0  0
 38 41  1  0  0  0  0
  8 11  1  0  0  0  0
 47 48  1  0  0  0  0
 18 21  1  0  0  0  0
 37 38  1  0  0  0  0
  7  8  1  0  0  0  0
 17 18  1  0  0  0  0
 27 36  1  0  0  0  0
 25 34  1  0  0  0  0
 26 35  1  0  0  0  0
 23 32  1  0  0  0  0
 24 33  1  0  0  0  0
  3  4  1  0  0  0  0
  3  5  1  0  0  0  0
  3  6  1  0  0  0  0
 41 44  1  0  0  0  0
 41 45  1  0  0  0  0
 41 46  1  0  0  0  0
 11 14  1  0  0  0  0
 11 15  1  0  0  0  0
 11 16  1  0  0  0  0
 48 50  1  0  0  0  0
 48 51  1  0  0  0  0
 48 52  1  0  0  0  0
 21 30  1  0  0  0  0
 21 31  1  0  0  0  0
 38 43  1  0  0  0  0
  8 13  1  0  0  0  0
 18 29  1  0  0  0  0
 47 49  1  0  0  0  0
  7 12  1  0  0  0  0
 37 42  1  0  0  0  0
 17 28  1  0  0  0  0
M  END
$$$$

  -OEChem-05262214473D

 52 52  0     1  0  0  0  0  0999 V2000
   -1.8248    0.3424    3.9102 C   0  0  0  0  0  0  0  0  0  0  0  0
   -0.8774   -0.2723    3.4345 O   0  0  0  0  0  0  0  0  0  0  0  0
   -2.2566    0.0600    5.3109 C   0  0  0  0  0  0  0  0  0  0  0  0
   -3.0163   -0.7363    5.3643 H   0  0  0  0  0  0  0  0  0  0  0  0
   -1.4254   -0.2876    5.9452 H   0  0  0  0  0  0  0  0  0  0  0  0
   -2.6947    0.9149    5.8505 H   0  0  0  0  0  0  0  0  0  0  0  0
   -2.5745    1.3149    3.2691 N   0  0  0  0  0  0  0  0  0  0  0  0
   -2.3276    1.7409    1.9167 C   0  0  2  0  0  0  0  0  0  0  0  0
   -0.9926    1.1555    1.4755 C   0  0  0  0  0  0  0  0  0  0  0  0
   -0.1206    0.8028    2.2668 O   0  0  0  0  0  0  0  0  0  0  0  0
   -2.3188    3.2577    1.8072 C   0  0  0  0  0  0  0  0  0  0  0  0
   -3.3395    1.7507    3.7809 H   0  0  0  0  0  0  0  0  0  0  0  0
   -3.1317    1.3224    1.3015 H   0  0  0  0  0  0  0  0  0  0  0  0
   -1.5198    3.6949    2.4169 H   0  0  0  0  0  0  0  0  0  0  0  0
   -2.1594    3.5799    0.7729 H   0  0  0  0  0  0  0  0  0  0  0  0
   -3.2690    3.6789    2.1530 H   0  0  0  0  0  0  0  0  0  0  0  0
   -0.8700    1.1124    0.0921 N   0  0  0  0  0  0  0  0  0  0  0  0
    0.3073    0.6116   -0.5716 C   0  0  2  0  0  0  0  0  0  0  0  0
    0.7030   -0.6837    0.1283 C   0  0  0  0  0  0  0  0  0  0  0  0
    1.8554   -0.9307    0.4772 O   0  0  0  0  0  0  0  0  0  0  0  0
    1.4659    1.6147   -0.5308 C   0  0  0  0  0  0  0  0  0  0  0  0
    1.1907    2.8574   -1.3418 C   0  0  0  0  0  0  0  0  0  0  0  0
    1.3773    2.8444   -2.7241 C   0  0  0  0  0  0  0  0  0  0  0  0
    0.7493    4.0193   -0.7085 C   0  0  0  0  0  0  0  0  0  0  0  0
    1.1226    3.9932   -3.4731 C   0  0  0  0  0  0  0  0  0  0  0  0
    0.4946    5.1681   -1.4576 C   0  0  0  0  0  0  0  0  0  0  0  0
    0.6812    5.1550   -2.8399 C   0  0  0  0  0  0  0  0  0  0  0  0
   -1.6531    1.4091   -0.4852 H   0  0  0  0  0  0  0  0  0  0  0  0
    0.0124    0.3865   -1.6033 H   0  0  0  0  0  0  0  0  0  0  0  0
    2.3919    1.1409   -0.8836 H   0  0  0  0  0  0  0  0  0  0  0  0
    1.6740    1.9185    0.5037 H   0  0  0  0  0  0  0  0  0  0  0  0
    1.7207    1.9437   -3.2260 H   0  0  0  0  0  0  0  0  0  0  0  0
    0.6010    4.0387    0.3679 H   0  0  0  0  0  0  0  0  0  0  0  0
    1.2690    3.9832   -4.5492 H   0  0  0  0  0  0  0  0  0  0  0  0
    0.1520    6.0728   -0.9641 H   0  0  0  0  0  0  0  0  0  0  0  0
    0.4842    6.0498   -3.4231 H   0  0  0  0  0  0  0  0  0  0  0  0
   -0.3920   -1.5047    0.3596 N   0  0  0  0  0  0  0  0  0  0  0  0
   -0.2985   -2.7825    1.0285 C   0  0  2  0  0  0  0  0  0  0  0  0
    0.8175   -3.5795    0.3661 C   0  0  0  0  0  0  0  0  0  0  0  0
    1.2115   -3.3593   -0.7773 O   0  0  0  0  0  0  0  0  0  0  0  0
   -1.6170   -3.5377    0.9656 C   0  0  0  0  0  0  0  0  0  0  0  0
   -1.3049   -1.1917    0.0429 H   0  0  0  0  0  0  0  0  0  0  0  0
   -0.0313   -2.5752    2.0704 H   0  0  0  0  0  0  0  0  0  0  0  0
   -1.9013   -3.7543   -0.0706 H   0  0  0  0  0  0  0  0  0  0  0  0
   -1.5530   -4.4928    1.4973 H   0  0  0  0  0  0  0  0  0  0  0  0
   -2.4245   -2.9502    1.4158 H   0  0  0  0  0  0  0  0  0  0  0  0
    1.2921   -4.5936    1.1861 N   0  0  0  0  0  0  0  0  0  0  0  0
    2.3432   -5.4971    0.7800 C   0  0  0  0  0  0  0  0  0  0  0  0
    0.9202   -4.6913    2.1263 H   0  0  0  0  0  0  0  0  0  0  0  0
    1.8999   -6.3958    0.3262 H   0  0  0  0  0  0  0  0  0  0  0  0
    2.9922   -4.9978    0.0455 H   0  0  0  0  0  0  0  0  0  0  0  0
    2.9383   -5.7858    1.6589 H   0  0  0  0  0  0  0  0  0  0  0  0
 25 27  1  0  0  0  0
 26 27  2  0  0  0  0
 23 25  2  0  0  0  0
 24 26  1  0  0  0  0
 22 23  1  0  0  0  0
 22 24  2  0  0  0  0
 21 22  1  0  0  0  0
  1  3  1  0  0  0  0
  1  7  1  0  0  0  0
  1  2  2  0  0  0  0
 38 39  1  0  0  0  0
 39 47  1  0  0  0  0
 39 40  2  0  0  0  0
  8  9  1  0  0  0  0
  9 17  1  0  0  0  0
  9 10  2  0  0  0  0
 18 19  1  0  0  0  0
 19 37  1  0  0  0  0
 19 20  2  0  0  0  0
 38 41  1  0  0  0  0
  8 11  1  0  0  0  0
 47 48  1  0  0  0  0
 18 21  1  0  0  0  0
 37 38  1  0  0  0  0
  7  8  1  0  0  0  0
 17 18  1  0  0  0  0
 27 36  1  0  0  0  0
 25 34  1  0  0  0  0
 26 35  1  0  0  0  0
 23 32  1  0  0  0  0
 24 33  1  0  0  0  0
  3  4  1  0  0  0  0
  3  5  1  0  0  0  0
  3  6  1  0  0  0  0
 41 44  1  0  0  0  0
 41 45  1  0  0  0  0
 41 46  1  0  0  0  0
 11 14  1  0  0  0  0
 11 15  1  0  0  0  0
 11 16  1  0  0  0  0
 48 50  1  0  0  0  0
 48 51  1  0  0  0  0
 48 52  1  0  0  0  0
 21 30  1  0  0  0  0
 21 31  1  0  0  0  0
 38 43  1  0  0  0  0
  8 13  1  0  0  0  0
 18 29  1  0  0  0  0
 47 49  1  0  0  0  0
  7 12  1  0  0  0  0
 37 42  1  0  0  0  0
 17 28  1  0  0  0  0
M  END
$$$$

  -OEChem-05262214473D

 52 52  0     1  0  0  0  0  0999 V2000
   -1.8248    0.3424    3.9102 C   0  0  0  0  0  0  0  0  0  0  0  0
   -0.8774   -0.2723    3.4345 O   0  0  0  0  0  0  0  0  0  0  0  0
   -2.2566    0.0600    5.3109 C   0  0  0  0  0  0  0  0  0  0  0  0
   -3.0163   -0.7363    5.3643 H   0  0  0  0  0  0  0  0  0  0  0  0
   -1.4254   -0.2876    5.9452 H   0  0  0  0  0  0  0  0  0  0  0  0
   -2.6947    0.9149    5.8505 H   0  0  0  0  0  0  0  0  0  0  0  0
   -2.5745    1.3149    3.2691 N   0  0  0  0  0  0  0  0  0  0  0  0
   -2.3276    1.7409    1.9167 C   0  0  2  0  0  0  0  0  0  0  0  0
   -0.9926    1.1555    1.4755 C   0  0  0  0  0  0  0  0  0  0  0  0
   -0.1206    0.8028    2.2668 O   0  0  0  0  0  0  0  0  0  0  0  0
   -2.3188    3.2577    1.8072 C   0  0  0  0  0  0  0  0  0  0  0  0
   -3.3395    1.7507    3.7809 H   0  0  0  0  0  0  0  0  0  0  0  0
   -3.1317    1.3224    1.3015 H   0  0  0  0  0  0  0  0  0  0  0  0
   -1.5198    3.6949    2.4169 H   0  0  0  0  0  0  0  0  0  0  0  0
   -2.1594    3.5799    0.7729 H   0  0  0  0  0  0  0  0  0  0  0  0
   -3.2690    3.6789    2.1530 H   0  0  0  0  0  0  0  0  0  0  0  0
   -0.8700    1.1124    0.0921 N   0  0  0  0  0  0  0  0  0  0  0  0
    0.3073    0.6116   -0.5716 C   0  0  2  0  0  0  0  0  0  0  0  0
    0.7030   -0.6837    0.1283 C   0  0  0  0  0  0  0  0  0  0  0  0
    1.7747   -0.8282    0.7126 O   0  0  0  0  0  0  0  0  0  0  0  0
    1.4659    1.6147   -0.5308 C   0  0  0  0  0  0  0  0  0  0  0  0
    1.1907    2.8574   -1.3418 C   0  0  0  0  0  0  0  0  0  0  0  0
    1.3773    2.8444   -2.7241 C   0  0  0  0  0  0  0  0  0  0  0  0
    0.7493    4.0193   -0.7085 C   0  0  0  0  0  0  0  0  0  0  0  0
    1.1226    3.9932   -3.4731 C   0  0  0  0  0  0  0  0  0  0  0  0
    0.4946    5.1681   -1.4576 C   0  0  0  0  0  0  0  0  0  0  0  0
    0.6812    5.1550   -2.8399 C   0  0  0  0  0  0  0  0  0  0  0  0
   -1.6531    1.4091   -0.4852 H   0  0  0  0  0  0  0  0  0  0  0  0
    0.0124    0.3865   -1.6033 H   0  0  0  0  0  0  0  0  0  0  0  0
    2.3919    1.1409   -0.8836 H   0  0  0  0  0  0  0  0  0  0  0  0
    1.6740    1.9185    0.5037 H   0  0  0  0  0  0  0  0  0  0  0  0
    1.7207    1.9437   -3.2260 H   0  0  0  0  0  0  0  0  0  0  0  0
    0.6010    4.0387    0.3679 H   0  0  0  0  0  0  0  0  0  0  0  0
    1.2690    3.9832   -4.5492 H   0  0  0  0  0  0  0  0  0  0  0  0
    0.1520    6.0728   -0.9641 H   0  0  0  0  0  0  0  0  0  0  0  0
    0.4842    6.0498   -3.4231 H   0  0  0  0  0  0  0  0  0  0  0  0
   -0.3034   -1.6374    0.0639 N   0  0  0  0  0  0  0  0  0  0  0  0
   -0.1959   -2.9465    0.6669 C   0  0  2  0  0  0  0  0  0  0  0  0
    1.1283   -3.5585    0.2293 C   0  0  0  0  0  0  0  0  0  0  0  0
    1.7288   -3.2045   -0.7832 O   0  0  0  0  0  0  0  0  0  0  0  0
   -1.3635   -3.8362    0.2697 C   0  0  0  0  0  0  0  0  0  0  0  0
   -1.1585   -1.4035   -0.4319 H   0  0  0  0  0  0  0  0  0  0  0  0
   -0.1882   -2.7953    1.7518 H   0  0  0  0  0  0  0  0  0  0  0  0
   -1.3877   -3.9990   -0.8140 H   0  0  0  0  0  0  0  0  0  0  0  0
   -1.2955   -4.8179    0.7500 H   0  0  0  0  0  0  0  0  0  0  0  0
   -2.3167   -3.3804    0.5586 H   0  0  0  0  0  0  0  0  0  0  0  0
    1.5390   -4.5761    1.0789 N   0  0  0  0  0  0  0  0  0  0  0  0
    2.7585   -5.3214    0.8704 C   0  0  0  0  0  0  0  0  0  0  0  0
    0.9883   -4.7899    1.9053 H   0  0  0  0  0  0  0  0  0  0  0  0
    2.5408   -6.2244    0.2812 H   0  0  0  0  0  0  0  0  0  0  0  0
    3.4823   -4.6954    0.3280 H   0  0  0  0  0  0  0  0  0  0  0  0
    3.1815   -5.6118    1.8434 H   0  0  0  0  0  0  0  0  0  0  0  0
 25 27  1  0  0  0  0
 26 27  2  0  0  0  0
 23 25  2  0  0  0  0
 24 26  1  0  0  0  0
 22 23  1  0  0  0  0
 22 24  2  0  0  0  0
 21 22  1  0  0  0  0
  1  3  1  0  0  0  0
  1  7  1  0  0  0  0
  1  2  2  0  0  0  0
 38 39  1  0  0  0  0
 39 47  1  0  0  0  0
 39 40  2  0  0  0  0
  8  9  1  0  0  0  0
  9 17  1  0  0  0  0
  9 10  2  0  0  0  0
 18 19  1  0  0  0  0
 19 37  1  0  0  0  0
 19 20  2  0  0  0  0
 38 41  1  0  0  0  0
  8 11  1  0  0  0  0
 47 48  1  0  0  0  0
 18 21  1  0  0  0  0
 37 38  1  0  0  0  0
  7  8  1  0  0  0  0
 17 18  1  0  0  0  0
 27 36  1  0  0  0  0
 25 34  1  0  0  0  0
 26 35  1  0  0  0  0
 23 32  1  0  0  0  0
 24 33  1  0  0  0  0
  3  4  1  0  0  0  0
  3  5  1  0  0  0  0
  3  6  1  0  0  0  0
 41 44  1  0  0  0  0
 41 45  1  0  0  0  0
 41 46  1  0  0  0  0
 11 14  1  0  0  0  0
 11 15  1  0  0  0  0
 11 16  1  0  0  0  0
 48 50  1  0  0  0  0
 48 51  1  0  0  0  0
 48 52  1  0  0  0  0
 21 30  1  0  0  0  0
 21 31  1  0  0  0  0
 38 43  1  0  0  0  0
  8 13  1  0  0  0  0
 18 29  1  0  0  0  0
 47 49  1  0  0  0  0
  7 12  1  0  0  0  0
 37 42  1  0  0  0  0
 17 28  1  0  0  0  0
M  END
$$$$

  -OEChem-05262214473D

 52 52  0     1  0  0  0  0  0999 V2000
   -1.8248    0.3424    3.9102 C   0  0  0  0  0  0  0  0  0  0  0  0
   -0.8774   -0.2723    3.4345 O   0  0  0  0  0  0  0  0  0  0  0  0
   -2.2566    0.0600    5.3109 C   0  0  0  0  0  0  0  0  0  0  0  0
   -3.0163   -0.7363    5.3643 H   0  0  0  0  0  0  0  0  0  0  0  0
   -1.4254   -0.2876    5.9452 H   0  0  0  0  0  0  0  0  0  0  0  0
   -2.6947    0.9149    5.8505 H   0  0  0  0  0  0  0  0  0  0  0  0
   -2.5745    1.3149    3.2691 N   0  0  0  0  0  0  0  0  0  0  0  0
   -2.3276    1.7409    1.9167 C   0  0  2  0  0  0  0  0  0  0  0  0
   -0.9926    1.1555    1.4755 C   0  0  0  0  0  0  0  0  0  0  0  0
   -0.1206    0.8028    2.2668 O   0  0  0  0  0  0  0  0  0  0  0  0
   -2.3188    3.2577    1.8072 C   0  0  0  0  0  0  0  0  0  0  0  0
   -3.3395    1.7507    3.7809 H   0  0  0  0  0  0  0  0  0  0  0  0
   -3.1317    1.3224    1.3015 H   0  0  0  0  0  0  0  0  0  0  0  0
   -1.5198    3.6949    2.4169 H   0  0  0  0  0  0  0  0  0  0  0  0
   -2.1594    3.5799    0.7729 H   0  0  0  0  0  0  0  0  0  0  0  0
   -3.2690    3.6789    2.1530 H   0  0  0  0  0  0  0  0  0  0  0  0
   -0.8700    1.1124    0.0921 N   0  0  0  0  0  0  0  0  0  0  0  0
    0.3073    0.6116   -0.5716 C   0  0  2  0  0  0  0  0  0  0  0  0
    0.7030   -0.6837    0.1283 C   0  0  0  0  0  0  0  0  0  0  0  0
    1.6328   -0.7545    0.9291 O   0  0  0  0  0  0  0  0  0  0  0  0
    1.4659    1.6147   -0.5308 C   0  0  0  0  0  0  0  0  0  0  0  0
    1.1907    2.8574   -1.3418 C   0  0  0  0  0  0  0  0  0  0  0  0
    1.3773    2.8444   -2.7241 C   0  0  0  0  0  0  0  0  0  0  0  0
    0.7493    4.0193   -0.7085 C   0  0  0  0  0  0  0  0  0  0  0  0
    1.1226    3.9932   -3.4731 C   0  0  0  0  0  0  0  0  0  0  0  0
    0.4946    5.1681   -1.4576 C   0  0  0  0  0  0  0  0  0  0  0  0
    0.6812    5.1550   -2.8399 C   0  0  0  0  0  0  0  0  0  0  0  0
   -1.6531    1.4091   -0.4852 H   0  0  0  0  0  0  0  0  0  0  0  0
    0.0124    0.3865   -1.6033 H   0  0  0  0  0  0  0  0  0  0  0  0
    2.3919    1.1409   -0.8836 H   0  0  0  0  0  0  0  0  0  0  0  0
    1.6740    1.9185    0.5037 H   0  0  0  0  0  0  0  0  0  0  0  0
    1.7207    1.9437   -3.2260 H   0  0  0  0  0  0  0  0  0  0  0  0
    0.6010    4.0387    0.3679 H   0  0  0  0  0  0  0  0  0  0  0  0
    1.2690    3.9832   -4.5492 H   0  0  0  0  0  0  0  0  0  0  0  0
    0.1520    6.0728   -0.9641 H   0  0  0  0  0  0  0  0  0  0  0  0
    0.4842    6.0498   -3.4231 H   0  0  0  0  0  0  0  0  0  0  0  0
   -0.1370   -1.7352   -0.2111 N   0  0  0  0  0  0  0  0  0  0  0  0
    0.0023   -3.0684    0.3292 C   0  0  2  0  0  0  0  0  0  0  0  0
    1.4562   -3.4920    0.1670 C   0  0  0  0  0  0  0  0  0  0  0  0
    2.2114   -2.9931   -0.6647 O   0  0  0  0  0  0  0  0  0  0  0  0
   -0.9301   -4.0477   -0.3668 C   0  0  0  0  0  0  0  0  0  0  0  0
   -0.8875   -1.5588   -0.8725 H   0  0  0  0  0  0  0  0  0  0  0  0
   -0.2435   -3.0051    1.3948 H   0  0  0  0  0  0  0  0  0  0  0  0
   -0.6990   -4.1245   -1.4355 H   0  0  0  0  0  0  0  0  0  0  0  0
   -0.8439   -5.0512    0.0629 H   0  0  0  0  0  0  0  0  0  0  0  0
   -1.9729   -3.7256   -0.2745 H   0  0  0  0  0  0  0  0  0  0  0  0
    1.7990   -4.5227    1.0309 N   0  0  0  0  0  0  0  0  0  0  0  0
    3.1188   -5.1083    1.0609 C   0  0  0  0  0  0  0  0  0  0  0  0
    1.1144   -4.8622    1.7002 H   0  0  0  0  0  0  0  0  0  0  0  0
    3.1493   -5.9796    0.3901 H   0  0  0  0  0  0  0  0  0  0  0  0
    3.8577   -4.3641    0.7290 H   0  0  0  0  0  0  0  0  0  0  0  0
    3.3551   -5.4272    2.0869 H   0  0  0  0  0  0  0  0  0  0  0  0
 25 27  1  0  0  0  0
 26 27  2  0  0  0  0
 23 25  2  0  0  0  0
 24 26  1  0  0  0  0
 22 23  1  0  0  0  0
 22 24  2  0  0  0  0
 21 22  1  0  0  0  0
  1  3  1  0  0  0  0
  1  7  1  0  0  0  0
  1  2  2  0  0  0  0
 38 39  1  0  0  0  0
 39 47  1  0  0  0  0
 39 40  2  0  0  0  0
  8  9  1  0  0  0  0
  9 17  1  0  0  0  0
  9 10  2  0  0  0  0
 18 19  1  0  0  0  0
 19 37  1  0  0  0  0
 19 20  2  0  0  0  0
 38 41  1  0  0  0  0
  8 11  1  0  0  0  0
 47 48  1  0  0  0  0
 18 21  1  0  0  0  0
 37 38  1  0  0  0  0
  7  8  1  0  0  0  0
 17 18  1  0  0  0  0
 27 36  1  0  0  0  0
 25 34  1  0  0  0  0
 26 35  1  0  0  0  0
 23 32  1  0  0  0  0
 24 33  1  0  0  0  0
  3  4  1  0  0  0  0
  3  5  1  0  0  0  0
  3  6  1  0  0  0  0
 41 44  1  0  0  0  0
 41 45  1  0  0  0  0
 41 46  1  0  0  0  0
 11 14  1  0  0  0  0
 11 15  1  0  0  0  0
 11 16  1  0  0  0  0
 48 50  1  0  0  0  0
 48 51  1  0  0  0  0
 48 52  1  0  0  0  0
 21 30  1  0  0  0  0
 21 31  1  0  0  0  0
 38 43  1  0  0  0  0
  8 13  1  0  0  0  0
 18 29  1  0  0  0  0
 47 49  1  0  0  0  0
  7 12  1  0  0  0  0
 37 42  1  0  0  0  0
 17 28  1  0  0  0  0
M  END
$$$$

  -OEChem-05262214473D

 52 52  0     1  0  0  0  0  0999 V2000
   -1.8248    0.3424    3.9102 C   0  0  0  0  0  0  0  0  0  0  0  0
   -0.8774   -0.2723    3.4345 O   0  0  0  0  0  0  0  0  0  0  0  0
   -2.2566    0.0600    5.3109 C   0  0  0  0  0  0  0  0  0  0  0  0
   -3.0163   -0.7363    5.3643 H   0  0  0  0  0  0  0  0  0  0  0  0
   -1.4254   -0.2876    5.9452 H   0  0  0  0  0  0  0  0  0  0  0  0
   -2.6947    0.9149    5.8505 H   0  0  0  0  0  0  0  0  0  0  0  0
   -2.5745    1.3149    3.2691 N   0  0  0  0  0  0  0  0  0  0  0  0
   -2.3276    1.7409    1.9167 C   0  0  2  0  0  0  0  0  0  0  0  0
   -0.9926    1.1555    1.4755 C   0  0  0  0  0  0  0  0  0  0  0  0
   -0.1206    0.8028    2.2668 O   0  0  0  0  0  0  0  0  0  0  0  0
   -2.3188    3.2577    1.8072 C   0  0  0  0  0  0  0  0  0  0  0  0
   -3.3395    1.7507    3.7809 H   0  0  0  0  0  0  0  0  0  0  0  0
   -3.1317    1.3224    1.3015 H   0  0  0  0  0  0  0  0  0  0  0  0
   -1.5198    3.6949    2.4169 H   0  0  0  0  0  0  0  0  0  0  0  0
   -2.1594    3.5799    0.7729 H   0  0  0  0  0  0  0  0  0  0  0  0
   -3.2690    3.6789    2.1530 H   0  0  0  0  0  0  0  0  0  0  0  0
   -0.8700    1.1124    0.0921 N   0  0  0  0  0  0  0  0  0  0  0  0
    0.3073    0.6116   -0.5716 C   0  0  2  0  0  0  0  0  0  0  0  0
    0.7030   -0.6837    0.1283 C   0  0  0  0  0  0  0  0  0  0  0  0
    1.4393   -0.7148    1.1120 O   0  0  0  0  0  0  0  0  0  0  0  0
    1.4659    1.6147   -0.5308 C   0  0  0  0  0  0  0  0  0  0  0  0
    1.1907    2.8574   -1.3418 C   0  0  0  0  0  0  0  0  0  0  0  0
    1.3773    2.8444   -2.7241 C   0  0  0  0  0  0  0  0  0  0  0  0
    0.7493    4.0193   -0.7085 C   0  0  0  0  0  0  0  0  0  0  0  0
    1.1226    3.9932   -3.4731 C   0  0  0  0  0  0  0  0  0  0  0  0
    0.4946    5.1681   -1.4576 C   0  0  0  0  0  0  0  0  0  0  0  0
    0.6812    5.1550   -2.8399 C   0  0  0  0  0  0  0  0  0  0  0  0
   -1.6531    1.4091   -0.4852 H   0  0  0  0  0  0  0  0  0  0  0  0
    0.0124    0.3865   -1.6033 H   0  0  0  0  0  0  0  0  0  0  0  0
    2.3919    1.1409   -0.8836 H   0  0  0  0  0  0  0  0  0  0  0  0
    1.6740    1.9185    0.5037 H   0  0  0  0  0  0  0  0  0  0  0  0
    1.7207    1.9437   -3.2260 H   0  0  0  0  0  0  0  0  0  0  0  0
    0.6010    4.0387    0.3679 H   0  0  0  0  0  0  0  0  0  0  0  0
    1.2690    3.9832   -4.5492 H   0  0  0  0  0  0  0  0  0  0  0  0
    0.1520    6.0728   -0.9641 H   0  0  0  0  0  0  0  0  0  0  0  0
    0.4842    6.0498   -3.4231 H   0  0  0  0  0  0  0  0  0  0  0  0
    0.0958   -1.7914   -0.4468 N   0  0  0  0  0  0  0  0  0  0  0  0
    0.2825   -3.1400    0.0384 C   0  0  2  0  0  0  0  0  0  0  0  0
    1.7787   -3.3847    0.1833 C   0  0  0  0  0  0  0  0  0  0  0  0
    2.6264   -2.7395   -0.4300 O   0  0  0  0  0  0  0  0  0  0  0  0
   -0.3463   -4.1578   -0.9004 C   0  0  0  0  0  0  0  0  0  0  0  0
   -0.5104   -1.6470   -1.2490 H   0  0  0  0  0  0  0  0  0  0  0  0
   -0.1936   -3.1903    1.0237 H   0  0  0  0  0  0  0  0  0  0  0  0
    0.1178   -4.1221   -1.8928 H   0  0  0  0  0  0  0  0  0  0  0  0
   -0.2289   -5.1767   -0.5171 H   0  0  0  0  0  0  0  0  0  0  0  0
   -1.4166   -3.9622   -1.0269 H   0  0  0  0  0  0  0  0  0  0  0  0
    2.0543   -4.4369    1.0452 N   0  0  0  0  0  0  0  0  0  0  0  0
    3.3997   -4.8726    1.3385 C   0  0  0  0  0  0  0  0  0  0  0  0
    1.2900   -4.9033    1.5249 H   0  0  0  0  0  0  0  0  0  0  0  0
    3.6841   -5.6782    0.6457 H   0  0  0  0  0  0  0  0  0  0  0  0
    4.0928   -4.0264    1.2211 H   0  0  0  0  0  0  0  0  0  0  0  0
    3.4473   -5.2446    2.3726 H   0  0  0  0  0  0  0  0  0  0  0  0
 25 27  1  0  0  0  0
 26 27  2  0  0  0  0
 23 25  2  0  0  0  0
 24 26  1  0  0  0  0
 22 23  1  0  0  0  0
 22 24  2  0  0  0  0
 21 22  1  0  0  0  0
  1  3  1  0  0  0  0
  1  7  1  0  0  0  0
  1  2  2  0  0  0  0
 38 39  1  0  0  0  0
 39 47  1  0  0  0  0
 39 40  2  0  0  0  0
  8  9  1  0  0  0  0
  9 17  1  0  0  0  0
  9 10  2  0  0  0  0
 18 19  1  0  0  0  0
 19 37  1  0  0  0  0
 19 20  2  0  0  0  0
 38 41  1  0  0  0  0
  8 11  1  0  0  0  0
 47 48  1  0  0  0  0
 18 21  1  0  0  0  0
 37 38  1  0  0  0  0
  7  8  1  0  0  0  0
 17 18  1  0  0  0  0
 27 36  1  0  0  0  0
 25 34  1  0  0  0  0
 26 35  1  0  0  0  0
 23 32  1  0  0  0  0
 24 33  1  0  0  0  0
  3  4  1  0  0  0  0
  3  5  1  0  0  0  0
  3  6  1  0  0  0  0
 41 44  1  0  0  0  0
 41 45  1  0  0  0  0
 41 46  1  0  0  0  0
 11 14  1  0  0  0  0
 11 15  1  0  0  0  0
 11 16  1  0  0  0  0
 48 50  1  0  0  0  0
 48 51  1  0  0  0  0
 48 52  1  0  0  0  0
 21 30  1  0  0  0  0
 21 31  1  0  0  0  0
 38 43  1  0  0  0  0
  8 13  1  0  0  0  0
 18 29  1  0  0  0  0
 47 49  1  0  0  0  0
  7 12  1  0  0  0  0
 37 42  1  0  0  0  0
 17 28  1  0  0  0  0
M  END
$$$$

  -OEChem-05262214473D

 52 52  0     1  0  0  0  0  0999 V2000
   -1.8248    0.3424    3.9102 C   0  0  0  0  0  0  0  0  0  0  0  0
   -0.8774   -0.2723    3.4345 O   0  0  0  0  0  0  0  0  0  0  0  0
   -2.2566    0.0600    5.3109 C   0  0  0  0  0  0  0  0  0  0  0  0
   -3.0163   -0.7363    5.3643 H   0  0  0  0  0  0  0  0  0  0  0  0
   -1.4254   -0.2876    5.9452 H   0  0  0  0  0  0  0  0  0  0  0  0
   -2.6947    0.9149    5.8505 H   0  0  0  0  0  0  0  0  0  0  0  0
   -2.5745    1.3149    3.2691 N   0  0  0  0  0  0  0  0  0  0  0  0
   -2.3276    1.7409    1.9167 C   0  0  2  0  0  0  0  0  0  0  0  0
   -0.9926    1.1555    1.4755 C   0  0  0  0  0  0  0  0  0  0  0  0
   -0.1206    0.8028    2.2668 O   0  0  0  0  0  0  0  0  0  0  0  0
   -2.3188    3.2577    1.8072 C   0  0  0  0  0  0  0  0  0  0  0  0
   -3.3395    1.7507    3.7809 H   0  0  0  0  0  0  0  0  0  0  0  0
   -3.1317    1.3224    1.3015 H   0  0  0  0  0  0  0  0  0  0  0  0
   -1.5198    3.6949    2.4169 H   0  0  0  0  0  0  0  0  0  0  0  0
   -2.1594    3.5799    0.7729 H   0  0  0  0  0  0  0  0  0  0  0  0
   -3.2690    3.6789    2.1530 H   0  0  0  0  0  0  0  0  0  0  0  0
   -0.8700    1.1124    0.0921 N   0  0  0  0  0  0  0  0  0  0  0  0
    0.3073    0.6116   -0.5716 C   0  0  2  0  0  0  0  0  0  0  0  0
    0.7030   -0.6837    0.1283 C   0  0  0  0  0  0  0  0  0  0  0  0
    1.2075   -0.7117    1.2488 O   0  0  0  0  0  0  0  0  0  0  0  0
    1.4659    1.6147   -0.5308 C   0  0  0  0  0  0  0  0  0  0  0  0
    1.1907    2.8574   -1.3418 C   0  0  0  0  0  0  0  0  0  0  0  0
    1.3773    2.8444   -2.7241 C   0  0  0  0  0  0  0  0  0  0  0  0
    0.7493    4.0193   -0.7085 C   0  0  0  0  0  0  0  0  0  0  0  0
    1.1226    3.9932   -3.4731 C   0  0  0  0  0  0  0  0  0  0  0  0
    0.4946    5.1681   -1.4576 C   0  0  0  0  0  0  0  0  0  0  0  0
    0.6812    5.1550   -2.8399 C   0  0  0  0  0  0  0  0  0  0  0  0
   -1.6531    1.4091   -0.4852 H   0  0  0  0  0  0  0  0  0  0  0  0
    0.0124    0.3865   -1.6033 H   0  0  0  0  0  0  0  0  0  0  0  0
    2.3919    1.1409   -0.8836 H   0  0  0  0  0  0  0  0  0  0  0  0
    1.6740    1.9185    0.5037 H   0  0  0  0  0  0  0  0  0  0  0  0
    1.7207    1.9437   -3.2260 H   0  0  0  0  0  0  0  0  0  0  0  0
    0.6010    4.0387    0.3679 H   0  0  0  0  0  0  0  0  0  0  0  0
    1.2690    3.9832   -4.5492 H   0  0  0  0  0  0  0  0  0  0  0  0
    0.1520    6.0728   -0.9641 H   0  0  0  0  0  0  0  0  0  0  0  0
    0.4842    6.0498   -3.4231 H   0  0  0  0  0  0  0  0  0  0  0  0
    0.3791   -1.8022   -0.6270 N   0  0  0  0  0  0  0  0  0  0  0  0
    0.6256   -3.1562   -0.1857 C   0  0  2  0  0  0  0  0  0  0  0  0
    2.0738   -3.2438    0.2772 C   0  0  0  0  0  0  0  0  0  0  0  0
    2.9455   -2.4610   -0.0950 O   0  0  0  0  0  0  0  0  0  0  0  0
    0.3479   -4.1589   -1.2950 C   0  0  0  0  0  0  0  0  0  0  0  0
   -0.0528   -1.6621   -1.5356 H   0  0  0  0  0  0  0  0  0  0  0  0
   -0.0417   -3.3384    0.6638 H   0  0  0  0  0  0  0  0  0  0  0  0
    1.0070   -3.9920   -2.1548 H   0  0  0  0  0  0  0  0  0  0  0  0
    0.5076   -5.1859   -0.9505 H   0  0  0  0  0  0  0  0  0  0  0  0
   -0.6858   -4.0741   -1.6472 H   0  0  0  0  0  0  0  0  0  0  0  0
    2.2876   -4.3248    1.1210 N   0  0  0  0  0  0  0  0  0  0  0  0
    3.5820   -4.6301    1.6843 C   0  0  0  0  0  0  0  0  0  0  0  0
    1.5029   -4.9103    1.3915 H   0  0  0  0  0  0  0  0  0  0  0  0
    4.1087   -5.3407    1.0303 H   0  0  0  0  0  0  0  0  0  0  0  0
    4.1715   -3.7054    1.7708 H   0  0  0  0  0  0  0  0  0  0  0  0
    3.4519   -5.0765    2.6811 H   0  0  0  0  0  0  0  0  0  0  0  0
 25 27  1  0  0  0  0
 26 27  2  0  0  0  0
 23 25  2  0  0  0  0
 24 26  1  0  0  0  0
 22 23  1  0  0  0  0
 22 24  2  0  0  0  0
 21 22  1  0  0  0  0
  1  3  1  0  0  0  0
  1  7  1  0  0  0  0
  1  2  2  0  0  0  0
 38 39  1  0  0  0  0
 39 47  1  0  0  0  0
 39 40  2  0  0  0  0
  8  9  1  0  0  0  0
  9 17  1  0  0  0  0
  9 10  2  0  0  0  0
 18 19  1  0  0  0  0
 19 37  1  0  0  0  0
 19 20  2  0  0  0  0
 38 41  1  0  0  0  0
  8 11  1  0  0  0  0
 47 48  1  0  0  0  0
 18 21  1  0  0  0  0
 37 38  1  0  0  0  0
  7  8  1  0  0  0  0
 17 18  1  0  0  0  0
 27 36  1  0  0  0  0
 25 34  1  0  0  0  0
 26 35  1  0  0  0  0
 23 32  1  0  0  0  0
 24 33  1  0  0  0  0
  3  4  1  0  0  0  0
  3  5  1  0  0  0  0
  3  6  1  0  0  0  0
 41 44  1  0  0  0  0
 41 45  1  0  0  0  0
 41 46  1  0  0  0  0
 11 14  1  0  0  0  0
 11 15  1  0  0  0  0
 11 16  1  0  0  0  0
 48 50  1  0  0  0  0
 48 51  1  0  0  0  0
 48 52  1  0  0  0  0
 21 30  1  0  0  0  0
 21 31  1  0  0  0  0
 38 43  1  0  0  0  0
  8 13  1  0  0  0  0
 18 29  1  0  0  0  0
 47 49  1  0  0  0  0
  7 12  1  0  0  0  0
 37 42  1  0  0  0  0
 17 28  1  0  0  0  0
M  END
$$$$

  -OEChem-05262214473D

 52 52  0     1  0  0  0  0  0999 V2000
   -1.8248    0.3424    3.9102 C   0  0  0  0  0  0  0  0  0  0  0  0
   -0.8774   -0.2723    3.4345 O   0  0  0  0  0  0  0  0  0  0  0  0
   -2.2566    0.0600    5.3109 C   0  0  0  0  0  0  0  0  0  0  0  0
   -3.0163   -0.7363    5.3643 H   0  0  0  0  0  0  0  0  0  0  0  0
   -1.4254   -0.2876    5.9452 H   0  0  0  0  0  0  0  0  0  0  0  0
   -2.6947    0.9149    5.8505 H   0  0  0  0  0  0  0  0  0  0  0  0
   -2.5745    1.3149    3.2691 N   0  0  0  0  0  0  0  0  0  0  0  0
   -2.3276    1.7409    1.9167 C   0  0  2  0  0  0  0  0  0  0  0  0
   -0.9926    1.1555    1.4755 C   0  0  0  0  0  0  0  0  0  0  0  0
   -0.1206    0.8028    2.2668 O   0  0  0  0  0  0  0  0  0  0  0  0
   -2.3188    3.2577    1.8072 C   0  0  0  0  0  0  0  0  0  0  0  0
   -3.3395    1.7507    3.7809 H   0  0  0  0  0  0  0  0  0  0  0  0
   -3.1317    1.3224    1.3015 H   0  0  0  0  0  0  0  0  0  0  0  0
   -1.5198    3.6949    2.4169 H   0  0  0  0  0  0  0  0  0  0  0  0
   -2.1594    3.5799    0.7729 H   0  0  0  0  0  0  0  0  0  0  0  0
   -3.2690    3.6789    2.1530 H   0  0  0  0  0  0  0  0  0  0  0  0
   -0.8700    1.1124    0.0921 N   0  0  0  0  0  0  0  0  0  0  0  0
    0.3073    0.6116   -0.5716 C   0  0  2  0  0  0  0  0  0  0  0  0
    0.7030   -0.6837    0.1283 C   0  0  0  0  0  0  0  0  0  0  0  0
    0.9532   -0.7454    1.3302 O   0  0  0  0  0  0  0  0  0  0  0  0
    1.4659    1.6147   -0.5308 C   0  0  0  0  0  0  0  0  0  0  0  0
    1.1907    2.8574   -1.3418 C   0  0  0  0  0  0  0  0  0  0  0  0
    1.3773    2.8444   -2.7241 C   0  0  0  0  0  0  0  0  0  0  0  0
    0.7493    4.0193   -0.7085 C   0  0  0  0  0  0  0  0  0  0  0  0
    1.1226    3.9932   -3.4731 C   0  0  0  0  0  0  0  0  0  0  0  0
    0.4946    5.1681   -1.4576 C   0  0  0  0  0  0  0  0  0  0  0  0
    0.6812    5.1550   -2.8399 C   0  0  0  0  0  0  0  0  0  0  0  0
   -1.6531    1.4091   -0.4852 H   0  0  0  0  0  0  0  0  0  0  0  0
    0.0124    0.3865   -1.6033 H   0  0  0  0  0  0  0  0  0  0  0  0
    2.3919    1.1409   -0.8836 H   0  0  0  0  0  0  0  0  0  0  0  0
    1.6740    1.9185    0.5037 H   0  0  0  0  0  0  0  0  0  0  0  0
    1.7207    1.9437   -3.2260 H   0  0  0  0  0  0  0  0  0  0  0  0
    0.6010    4.0387    0.3679 H   0  0  0  0  0  0  0  0  0  0  0  0
    1.2690    3.9832   -4.5492 H   0  0  0  0  0  0  0  0  0  0  0  0
    0.1520    6.0728   -0.9641 H   0  0  0  0  0  0  0  0  0  0  0  0
    0.4842    6.0498   -3.4231 H   0  0  0  0  0  0  0  0  0  0  0  0
    0.6937   -1.7669   -0.7395 N   0  0  0  0  0  0  0  0  0  0  0  0
    1.0082   -3.1162   -0.3278 C   0  0  2  0  0  0  0  0  0  0  0  0
    2.3215   -3.0789    0.4423 C   0  0  0  0  0  0  0  0  0  0  0  0
    3.1469   -2.1766    0.3175 O   0  0  0  0  0  0  0  0  0  0  0  0
    1.1055   -4.0509   -1.5234 C   0  0  0  0  0  0  0  0  0  0  0  0
    0.4539   -1.6031   -1.7128 H   0  0  0  0  0  0  0  0  0  0  0  0
    0.2018   -3.4392    0.3396 H   0  0  0  0  0  0  0  0  0  0  0  0
    1.9081   -3.7432   -2.2036 H   0  0  0  0  0  0  0  0  0  0  0  0
    1.3155   -5.0782   -1.2079 H   0  0  0  0  0  0  0  0  0  0  0  0
    0.1699   -4.0537   -2.0931 H   0  0  0  0  0  0  0  0  0  0  0  0
    2.4829   -4.1937    1.2530 N   0  0  0  0  0  0  0  0  0  0  0  0
    3.6532   -4.3974    2.0746 C   0  0  0  0  0  0  0  0  0  0  0  0
    1.7388   -4.8829    1.3089 H   0  0  0  0  0  0  0  0  0  0  0  0
    4.3941   -4.9901    1.5179 H   0  0  0  0  0  0  0  0  0  0  0  0
    4.0885   -3.4229    2.3406 H   0  0  0  0  0  0  0  0  0  0  0  0
    3.3684   -4.9344    2.9914 H   0  0  0  0  0  0  0  0  0  0  0  0
 25 27  1  0  0  0  0
 26 27  2  0  0  0  0
 23 25  2  0  0  0  0
 24 26  1  0  0  0  0
 22 23  1  0  0  0  0
 22 24  2  0  0  0  0
 21 22  1  0  0  0  0
  1  3  1  0  0  0  0
  1  7  1  0  0  0  0
  1  2  2  0  0  0  0
 38 39  1  0  0  0  0
 39 47  1  0  0  0  0
 39 40  2  0  0  0  0
  8  9  1  0  0  0  0
  9 17  1  0  0  0  0
  9 10  2  0  0  0  0
 18 19  1  0  0  0  0
 19 37  1  0  0  0  0
 19 20  2  0  0  0  0
 38 41  1  0  0  0  0
  8 11  1  0  0  0  0
 47 48  1  0  0  0  0
 18 21  1  0  0  0  0
 37 38  1  0  0  0  0
  7  8  1  0  0  0  0
 17 18  1  0  0  0  0
 27 36  1  0  0  0  0
 25 34  1  0  0  0  0
 26 35  1  0  0  0  0
 23 32  1  0  0  0  0
 24 33  1  0  0  0  0
  3  4  1  0  0  0  0
  3  5  1  0  0  0  0
  3  6  1  0  0  0  0
 41 44  1  0  0  0  0
 41 45  1  0  0  0  0
 41 46  1  0  0  0  0
 11 14  1  0  0  0  0
 11 15  1  0  0  0  0
 11 16  1  0  0  0  0
 48 50  1  0  0  0  0
 48 51  1  0  0  0  0
 48 52  1  0  0  0  0
 21 30  1  0  0  0  0
 21 31  1  0  0  0  0
 38 43  1  0  0  0  0
  8 13  1  0  0  0  0
 18 29  1  0  0  0  0
 47 49  1  0  0  0  0
  7 12  1  0  0  0  0
 37 42  1  0  0  0  0
 17 28  1  0  0  0  0
M  END
$$$$

  -OEChem-05262214473D

 52 52  0     1  0  0  0  0  0999 V2000
   -1.8248    0.3424    3.9102 C   0  0  0  0  0  0  0  0  0  0  0  0
   -0.8774   -0.2723    3.4345 O   0  0  0  0  0  0  0  0  0  0  0  0
   -2.2566    0.0600    5.3109 C   0  0  0  0  0  0  0  0  0  0  0  0
   -3.0163   -0.7363    5.3643 H   0  0  0  0  0  0  0  0  0  0  0  0
   -1.4254   -0.2876    5.9452 H   0  0  0  0  0  0  0  0  0  0  0  0
   -2.6947    0.9149    5.8505 H   0  0  0  0  0  0  0  0  0  0  0  0
   -2.5745    1.3149    3.2691 N   0  0  0  0  0  0  0  0  0  0  0  0
   -2.3276    1.7409    1.9167 C   0  0  2  0  0  0  0  0  0  0  0  0
   -0.9926    1.1555    1.4755 C   0  0  0  0  0  0  0  0  0  0  0  0
   -0.1206    0.8028    2.2668 O   0  0  0  0  0  0  0  0  0  0  0  0
   -2.3188    3.2577    1.8072 C   0  0  0  0  0  0  0  0  0  0  0  0
   -3.3395    1.7507    3.7809 H   0  0  0  0  0  0  0  0  0  0  0  0
   -3.1317    1.3224    1.3015 H   0  0  0  0  0  0  0  0  0  0  0  0
   -1.5198    3.6949    2.4169 H   0  0  0  0  0  0  0  0  0  0  0  0
   -2.1594    3.5799    0.7729 H   0  0  0  0  0  0  0  0  0  0  0  0
   -3.2690    3.6789    2.1530 H   0  0  0  0  0  0  0  0  0  0  0  0
   -0.8700    1.1124    0.0921 N   0  0  0  0  0  0  0  0  0  0  0  0
    0.3073    0.6116   -0.5716 C   0  0  2  0  0  0  0  0  0  0  0  0
    0.7030   -0.6837    0.1283 C   0  0  0  0  0  0  0  0  0  0  0  0
    0.6936   -0.8137    1.3506 O   0  0  0  0  0  0  0  0  0  0  0  0
    1.4659    1.6147   -0.5308 C   0  0  0  0  0  0  0  0  0  0  0  0
    1.1907    2.8574   -1.3418 C   0  0  0  0  0  0  0  0  0  0  0  0
    1.3773    2.8444   -2.7241 C   0  0  0  0  0  0  0  0  0  0  0  0
    0.7493    4.0193   -0.7085 C   0  0  0  0  0  0  0  0  0  0  0  0
    1.1226    3.9932   -3.4731 C   0  0  0  0  0  0  0  0  0  0  0  0
    0.4946    5.1681   -1.4576 C   0  0  0  0  0  0  0  0  0  0  0  0
    0.6812    5.1550   -2.8399 C   0  0  0  0  0  0  0  0  0  0  0  0
   -1.6531    1.4091   -0.4852 H   0  0  0  0  0  0  0  0  0  0  0  0
    0.0124    0.3865   -1.6033 H   0  0  0  0  0  0  0  0  0  0  0  0
    2.3919    1.1409   -0.8836 H   0  0  0  0  0  0  0  0  0  0  0  0
    1.6740    1.9185    0.5037 H   0  0  0  0  0  0  0  0  0  0  0  0
    1.7207    1.9437   -3.2260 H   0  0  0  0  0  0  0  0  0  0  0  0
    0.6010    4.0387    0.3679 H   0  0  0  0  0  0  0  0  0  0  0  0
    1.2690    3.9832   -4.5492 H   0  0  0  0  0  0  0  0  0  0  0  0
    0.1520    6.0728   -0.9641 H   0  0  0  0  0  0  0  0  0  0  0  0
    0.4842    6.0498   -3.4231 H   0  0  0  0  0  0  0  0  0  0  0  0
    1.0182   -1.6878   -0.7766 N   0  0  0  0  0  0  0  0  0  0  0  0
    1.4042   -3.0224   -0.3783 C   0  0  2  0  0  0  0  0  0  0  0  0
    2.5049   -2.9013    0.6673 C   0  0  0  0  0  0  0  0  0  0  0  0
    3.2170   -1.9056    0.7794 O   0  0  0  0  0  0  0  0  0  0  0  0
    1.8746   -3.8413   -1.5703 C   0  0  0  0  0  0  0  0  0  0  0  0
    0.9754   -1.4740   -1.7686 H   0  0  0  0  0  0  0  0  0  0  0  0
    0.5202   -3.4859    0.0732 H   0  0  0  0  0  0  0  0  0  0  0  0
    2.7596   -3.3924   -2.0358 H   0  0  0  0  0  0  0  0  0  0  0  0
    2.1396   -4.8609   -1.2715 H   0  0  0  0  0  0  0  0  0  0  0  0
    1.0921   -3.9024   -2.3344 H   0  0  0  0  0  0  0  0  0  0  0  0
    2.6270   -4.0529    1.4323 N   0  0  0  0  0  0  0  0  0  0  0  0
    3.6085   -4.1905    2.4829 C   0  0  0  0  0  0  0  0  0  0  0  0
    1.9816   -4.8228    1.2829 H   0  0  0  0  0  0  0  0  0  0  0  0
    4.5209   -4.6502    2.0752 H   0  0  0  0  0  0  0  0  0  0  0  0
    3.8494   -3.1981    2.8917 H   0  0  0  0  0  0  0  0  0  0  0  0
    3.2027   -4.8278    3.2824 H   0  0  0  0  0  0  0  0  0  0  0  0
 25 27  1  0  0  0  0
 26 27  2  0  0  0  0
 23 25  2  0  0  0  0
 24 26  1  0  0  0  0
 22 23  1  0  0  0  0
 22 24  2  0  0  0  0
 21 22  1  0  0  0  0
  1  3  1  0  0  0  0
  1  7  1  0  0  0  0
  1  2  2  0  0  0  0
 38 39  1  0  0  0  0
 39 47  1  0  0  0  0
 39 40  2  0  0  0  0
  8  9  1  0  0  0  0
  9 17  1  0  0  0  0
  9 10  2  0  0  0  0
 18 19  1  0  0  0  0
 19 37  1  0  0  0  0
 19 20  2  0  0  0  0
 38 41  1  0  0  0  0
  8 11  1  0  0  0  0
 47 48  1  0  0  0  0
 18 21  1  0  0  0  0
 37 38  1  0  0  0  0
  7  8  1  0  0  0  0
 17 18  1  0  0  0  0
 27 36  1  0  0  0  0
 25 34  1  0  0  0  0
 26 35  1  0  0  0  0
 23 32  1  0  0  0  0
 24 33  1  0  0  0  0
  3  4  1  0  0  0  0
  3  5  1  0  0  0  0
  3  6  1  0  0  0  0
 41 44  1  0  0  0  0
 41 45  1  0  0  0  0
 41 46  1  0  0  0  0
 11 14  1  0  0  0  0
 11 15  1  0  0  0  0
 11 16  1  0  0  0  0
 48 50  1  0  0  0  0
 48 51  1  0  0  0  0
 48 52  1  0  0  0  0
 21 30  1  0  0  0  0
 21 31  1  0  0  0  0
 38 43  1  0  0  0  0
  8 13  1  0  0  0  0
 18 29  1  0  0  0  0
 47 49  1  0  0  0  0
  7 12  1  0  0  0  0
 37 42  1  0  0  0  0
 17 28  1  0  0  0  0
M  END
$$$$

  -OEChem-05262214473D

 52 52  0     1  0  0  0  0  0999 V2000
   -1.8248    0.3424    3.9102 C   0  0  0  0  0  0  0  0  0  0  0  0
   -0.8774   -0.2723    3.4345 O   0  0  0  0  0  0  0  0  0  0  0  0
   -2.2566    0.0600    5.3109 C   0  0  0  0  0  0  0  0  0  0  0  0
   -3.0163   -0.7363    5.3643 H   0  0  0  0  0  0  0  0  0  0  0  0
   -1.4254   -0.2876    5.9452 H   0  0  0  0  0  0  0  0  0  0  0  0
   -2.6947    0.9149    5.8505 H   0  0  0  0  0  0  0  0  0  0  0  0
   -2.5745    1.3149    3.2691 N   0  0  0  0  0  0  0  0  0  0  0  0
   -2.3276    1.7409    1.9167 C   0  0  2  0  0  0  0  0  0  0  0  0
   -0.9926    1.1555    1.4755 C   0  0  0  0  0  0  0  0  0  0  0  0
   -0.1206    0.8028    2.2668 O   0  0  0  0  0  0  0  0  0  0  0  0
   -2.3188    3.2577    1.8072 C   0  0  0  0  0  0  0  0  0  0  0  0
   -3.3395    1.7507    3.7809 H   0  0  0  0  0  0  0  0  0  0  0  0
   -3.1317    1.3224    1.3015 H   0  0  0  0  0  0  0  0  0  0  0  0
   -1.5198    3.6949    2.4169 H   0  0  0  0  0  0  0  0  0  0  0  0
   -2.1594    3.5799    0.7729 H   0  0  0  0  0  0  0  0  0  0  0  0
   -3.2690    3.6789    2.1530 H   0  0  0  0  0  0  0  0  0  0  0  0
   -0.8700    1.1124    0.0921 N   0  0  0  0  0  0  0  0  0  0  0  0
    0.3073    0.6116   -0.5716 C   0  0  2  0  0  0  0  0  0  0  0  0
    0.7030   -0.6837    0.1283 C   0  0  0  0  0  0  0  0  0  0  0  0
    0.4465   -0.9118    1.3086 O   0  0  0  0  0  0  0  0  0  0  0  0
    1.4659    1.6147   -0.5308 C   0  0  0  0  0  0  0  0  0  0  0  0
    1.1907    2.8574   -1.3418 C   0  0  0  0  0  0  0  0  0  0  0  0
    1.3773    2.8444   -2.7241 C   0  0  0  0  0  0  0  0  0  0  0  0
    0.7493    4.0193   -0.7085 C   0  0  0  0  0  0  0  0  0  0  0  0
    1.1226    3.9932   -3.4731 C   0  0  0  0  0  0  0  0  0  0  0  0
    0.4946    5.1681   -1.4576 C   0  0  0  0  0  0  0  0  0  0  0  0
    0.6812    5.1550   -2.8399 C   0  0  0  0  0  0  0  0  0  0  0  0
   -1.6531    1.4091   -0.4852 H   0  0  0  0  0  0  0  0  0  0  0  0
    0.0124    0.3865   -1.6033 H   0  0  0  0  0  0  0  0  0  0  0  0
    2.3919    1.1409   -0.8836 H   0  0  0  0  0  0  0  0  0  0  0  0
    1.6740    1.9185    0.5037 H   0  0  0  0  0  0  0  0  0  0  0  0
    1.7207    1.9437   -3.2260 H   0  0  0  0  0  0  0  0  0  0  0  0
    0.6010    4.0387    0.3679 H   0  0  0  0  0  0  0  0  0  0  0  0
    1.2690    3.9832   -4.5492 H   0  0  0  0  0  0  0  0  0  0  0  0
    0.1520    6.0728   -0.9641 H   0  0  0  0  0  0  0  0  0  0  0  0
    0.4842    6.0498   -3.4231 H   0  0  0  0  0  0  0  0  0  0  0  0
    1.3303   -1.5704   -0.7357 N   0  0  0  0  0  0  0  0  0  0  0  0
    1.7867   -2.8815   -0.3336 C   0  0  2  0  0  0  0  0  0  0  0  0
    2.6115   -2.7231    0.9369 C   0  0  0  0  0  0  0  0  0  0  0  0
    3.1510   -1.6666    1.2591 O   0  0  0  0  0  0  0  0  0  0  0  0
    2.6029   -3.5443   -1.4324 C   0  0  0  0  0  0  0  0  0  0  0  0
    1.4760   -1.2835   -1.6992 H   0  0  0  0  0  0  0  0  0  0  0  0
    0.8920   -3.4752   -0.1173 H   0  0  0  0  0  0  0  0  0  0  0  0
    3.5035   -2.9637   -1.6629 H   0  0  0  0  0  0  0  0  0  0  0  0
    2.9238   -4.5488   -1.1372 H   0  0  0  0  0  0  0  0  0  0  0  0
    2.0179   -3.6304   -2.3544 H   0  0  0  0  0  0  0  0  0  0  0  0
    2.7101   -3.9117    1.6466 N   0  0  0  0  0  0  0  0  0  0  0  0
    3.4510   -4.0233    2.8814 C   0  0  0  0  0  0  0  0  0  0  0  0
    2.2146   -4.7341    1.3152 H   0  0  0  0  0  0  0  0  0  0  0  0
    4.4804   -4.3443    2.6642 H   0  0  0  0  0  0  0  0  0  0  0  0
    3.4706   -3.0464    3.3866 H   0  0  0  0  0  0  0  0  0  0  0  0
    2.9660   -4.7640    3.5341 H   0  0  0  0  0  0  0  0  0  0  0  0
 25 27  1  0  0  0  0
 26 27  2  0  0  0  0
 23 25  2  0  0  0  0
 24 26  1  0  0  0  0
 22 23  1  0  0  0  0
 22 24  2  0  0  0  0
 21 22  1  0  0  0  0
  1  3  1  0  0  0  0
  1  7  1  0  0  0  0
  1  2  2  0  0  0  0
 38 39  1  0  0  0  0
 39 47  1  0  0  0  0
 39 40  2  0  0  0  0
  8  9  1  0  0  0  0
  9 17  1  0  0  0  0
  9 10  2  0  0  0  0
 18 19  1  0  0  0  0
 19 37  1  0  0  0  0
 19 20  2  0  0  0  0
 38 41  1  0  0  0  0
  8 11  1  0  0  0  0
 47 48  1  0  0  0  0
 18 21  1  0  0  0  0
 37 38  1  0  0  0  0
  7  8  1  0  0  0  0
 17 18  1  0  0  0  0
 27 36  1  0  0  0  0
 25 34  1  0  0  0  0
 26 35  1  0  0  0  0
 23 32  1  0  0  0  0
 24 33  1  0  0  0  0
  3  4  1  0  0  0  0
  3  5  1  0  0  0  0
  3  6  1  0  0  0  0
 41 44  1  0  0  0  0
 41 45  1  0  0  0  0
 41 46  1  0  0  0  0
 11 14  1  0  0  0  0
 11 15  1  0  0  0  0
 11 16  1  0  0  0  0
 48 50  1  0  0  0  0
 48 51  1  0  0  0  0
 48 52  1  0  0  0  0
 21 30  1  0  0  0  0
 21 31  1  0  0  0  0
 38 43  1  0  0  0  0
  8 13  1  0  0  0  0
 18 29  1  0  0  0  0
 47 49  1  0  0  0  0
  7 12  1  0  0  0  0
 37 42  1  0  0  0  0
 17 28  1  0  0  0  0
M  END
$$$$

  -OEChem-05262214473D

 52 52  0     1  0  0  0  0  0999 V2000
   -1.8248    0.3424    3.9102 C   0  0  0  0  0  0  0  0  0  0  0  0
   -0.8774   -0.2723    3.4345 O   0  0  0  0  0  0  0  0  0  0  0  0
   -2.2566    0.0600    5.3109 C   0  0  0  0  0  0  0  0  0  0  0  0
   -3.0163   -0.7363    5.3643 H   0  0  0  0  0  0  0  0  0  0  0  0
   -1.4254   -0.2876    5.9452 H   0  0  0  0  0  0  0  0  0  0  0  0
   -2.6947    0.9149    5.8505 H   0  0  0  0  0  0  0  0  0  0  0  0
   -2.5745    1.3149    3.2691 N   0  0  0  0  0  0  0  0  0  0  0  0
   -2.3276    1.7409    1.9167 C   0  0  2  0  0  0  0  0  0  0  0  0
   -0.9926    1.1555    1.4755 C   0  0  0  0  0  0  0  0  0  0  0  0
   -0.1206    0.8028    2.2668 O   0  0  0  0  0  0  0  0  0  0  0  0
   -2.3188    3.2577    1.8072 C   0  0  0  0  0  0  0  0  0  0  0  0
   -3.3395    1.7507    3.7809 H   0  0  0  0  0  0  0  0  0  0  0  0
   -3.1317    1.3224    1.3015 H   0  0  0  0  0  0  0  0  0  0  0  0
   -1.5198    3.6949    2.4169 H   0  0  0  0  0  0  0  0  0  0  0  0
   -2.1594    3.5799    0.7729 H   0  0  0  0  0  0  0  0  0  0  0  0
   -3.2690    3.6789    2.1530 H   0  0  0  0  0  0  0  0  0  0  0  0
   -0.8700    1.1124    0.0921 N   0  0  0  0  0  0  0  0  0  0  0  0
    0.3073    0.6116   -0.5716 C   0  0  2  0  0  0  0  0  0  0  0  0
    0.7030   -0.6837    0.1283 C   0  0  0  0  0  0  0  0  0  0  0  0
    0.2287   -1.0332    1.2071 O   0  0  0  0  0  0  0  0  0  0  0  0
    1.4659    1.6147   -0.5308 C   0  0  0  0  0  0  0  0  0  0  0  0
    1.1907    2.8574   -1.3418 C   0  0  0  0  0  0  0  0  0  0  0  0
    1.3773    2.8444   -2.7241 C   0  0  0  0  0  0  0  0  0  0  0  0
    0.7493    4.0193   -0.7085 C   0  0  0  0  0  0  0  0  0  0  0  0
    1.1226    3.9932   -3.4731 C   0  0  0  0  0  0  0  0  0  0  0  0
    0.4946    5.1681   -1.4576 C   0  0  0  0  0  0  0  0  0  0  0  0
    0.6812    5.1550   -2.8399 C   0  0  0  0  0  0  0  0  0  0  0  0
   -1.6531    1.4091   -0.4852 H   0  0  0  0  0  0  0  0  0  0  0  0
    0.0124    0.3865   -1.6033 H   0  0  0  0  0  0  0  0  0  0  0  0
    2.3919    1.1409   -0.8836 H   0  0  0  0  0  0  0  0  0  0  0  0
    1.6740    1.9185    0.5037 H   0  0  0  0  0  0  0  0  0  0  0  0
    1.7207    1.9437   -3.2260 H   0  0  0  0  0  0  0  0  0  0  0  0
    0.6010    4.0387    0.3679 H   0  0  0  0  0  0  0  0  0  0  0  0
    1.2690    3.9832   -4.5492 H   0  0  0  0  0  0  0  0  0  0  0  0
    0.1520    6.0728   -0.9641 H   0  0  0  0  0  0  0  0  0  0  0  0
    0.4842    6.0498   -3.4231 H   0  0  0  0  0  0  0  0  0  0  0  0
    1.6089   -1.4227   -0.6198 N   0  0  0  0  0  0  0  0  0  0  0  0
    2.1296   -2.7028   -0.1969 C   0  0  2  0  0  0  0  0  0  0  0  0
    2.6339   -2.5564    1.2327 C   0  0  0  0  0  0  0  0  0  0  0  0
    2.9533   -1.4758    1.7240 O   0  0  0  0  0  0  0  0  0  0  0  0
    3.2408   -3.1802   -1.1190 C   0  0  0  0  0  0  0  0  0  0  0  0
    1.9217   -1.0448   -1.5092 H   0  0  0  0  0  0  0  0  0  0  0  0
    1.2916   -3.4080   -0.2187 H   0  0  0  0  0  0  0  0  0  0  0  0
    4.0892   -2.4863   -1.1104 H   0  0  0  0  0  0  0  0  0  0  0  0
    3.6146   -4.1631   -0.8140 H   0  0  0  0  0  0  0  0  0  0  0  0
    2.8842   -3.2564   -2.1519 H   0  0  0  0  0  0  0  0  0  0  0  0
    2.7264   -3.7799    1.8814 N   0  0  0  0  0  0  0  0  0  0  0  0
    3.1913   -3.9073    3.2429 C   0  0  0  0  0  0  0  0  0  0  0  0
    2.4221   -4.6230    1.4036 H   0  0  0  0  0  0  0  0  0  0  0  0
    4.2755   -4.0932    3.2447 H   0  0  0  0  0  0  0  0  0  0  0  0
    2.9778   -2.9781    3.7916 H   0  0  0  0  0  0  0  0  0  0  0  0
    2.6745   -4.7475    3.7295 H   0  0  0  0  0  0  0  0  0  0  0  0
 25 27  1  0  0  0  0
 26 27  2  0  0  0  0
 23 25  2  0  0  0  0
 24 26  1  0  0  0  0
 22 23  1  0  0  0  0
 22 24  2  0  0  0  0
 21 22  1  0  0  0  0
  1  3  1  0  0  0  0
  1  7  1  0  0  0  0
  1  2  2  0  0  0  0
 38 39  1  0  0  0  0
 39 47  1  0  0  0  0
 39 40  2  0  0  0  0
  8  9  1  0  0  0  0
  9 17  1  0  0  0  0
  9 10  2  0  0  0  0
 18 19  1  0  0  0  0
 19 37  1  0  0  0  0
 19 20  2  0  0  0  0
 38 41  1  0  0  0  0
  8 11  1  0  0  0  0
 47 48  1  0  0  0  0
 18 21  1  0  0  0  0
 37 38  1  0  0  0  0
  7  8  1  0  0  0  0
 17 18  1  0  0  0  0
 27 36  1  0  0  0  0
 25 34  1  0  0  0  0
 26 35  1  0  0  0  0
 23 32  1  0  0  0  0
 24 33  1  0  0  0  0
  3  4  1  0  0  0  0
  3  5  1  0  0  0  0
  3  6  1  0  0  0  0
 41 44  1  0  0  0  0
 41 45  1  0  0  0  0
 41 46  1  0  0  0  0
 11 14  1  0  0  0  0
 11 15  1  0  0  0  0
 11 16  1  0  0  0  0
 48 50  1  0  0  0  0
 48 51  1  0  0  0  0
 48 52  1  0  0  0  0
 21 30  1  0  0  0  0
 21 31  1  0  0  0  0
 38 43  1  0  0  0  0
  8 13  1  0  0  0  0
 18 29  1  0  0  0  0
 47 49  1  0  0  0  0
  7 12  1  0  0  0  0
 37 42  1  0  0  0  0
 17 28  1  0  0  0  0
M  END
$$$$

  -OEChem-05262214473D

 52 52  0     1  0  0  0  0  0999 V2000
   -1.8248    0.3424    3.9102 C   0  0  0  0  0  0  0  0  0  0  0  0
   -0.8774   -0.2723    3.4345 O   0  0  0  0  0  0  0  0  0  0  0  0
   -2.2566    0.0600    5.3109 C   0  0  0  0  0  0  0  0  0  0  0  0
   -3.0163   -0.7363    5.3643 H   0  0  0  0  0  0  0  0  0  0  0  0
   -1.4254   -0.2876    5.9452 H   0  0  0  0  0  0  0  0  0  0  0  0
   -2.6947    0.9149    5.8505 H   0  0  0  0  0  0  0  0  0  0  0  0
   -2.5745    1.3149    3.2691 N   0  0  0  0  0  0  0  0  0  0  0  0
   -2.3276    1.7409    1.9167 C   0  0  2  0  0  0  0  0  0  0  0  0
   -0.9926    1.1555    1.4755 C   0  0  0  0  0  0  0  0  0  0  0  0
   -0.1206    0.8028    2.2668 O   0  0  0  0  0  0  0  0  0  0  0  0
   -2.3188    3.2577    1.8072 C   0  0  0  0  0  0  0  0  0  0  0  0
   -3.3395    1.7507    3.7809 H   0  0  0  0  0  0  0  0  0  0  0  0
   -3.1317    1.3224    1.3015 H   0  0  0  0  0  0  0  0  0  0  0  0
   -1.5198    3.6949    2.4169 H   0  0  0  0  0  0  0  0  0  0  0  0
   -2.1594    3.5799    0.7729 H   0  0  0  0  0  0  0  0  0  0  0  0
   -3.2690    3.6789    2.1530 H   0  0  0  0  0  0  0  0  0  0  0  0
   -0.8700    1.1124    0.0921 N   0  0  0  0  0  0  0  0  0  0  0  0
    0.3073    0.6116   -0.5716 C   0  0  2  0  0  0  0  0  0  0  0  0
    0.4847   -0.8400   -0.1409 C   0  0  0  0  0  0  0  0  0  0  0  0
   -0.3040   -1.4182    0.6037 O   0  0  0  0  0  0  0  0  0  0  0  0
    1.5584    1.4270   -0.2250 C   0  0  0  0  0  0  0  0  0  0  0  0
    1.5057    2.8350   -0.7659 C   0  0  0  0  0  0  0  0  0  0  0  0
    1.8308    3.0830   -2.0996 C   0  0  0  0  0  0  0  0  0  0  0  0
    1.1316    3.8884    0.0682 C   0  0  0  0  0  0  0  0  0  0  0  0
    1.7818    4.3845   -2.5990 C   0  0  0  0  0  0  0  0  0  0  0  0
    1.0825    5.1899   -0.4312 C   0  0  0  0  0  0  0  0  0  0  0  0
    1.4075    5.4379   -1.7648 C   0  0  0  0  0  0  0  0  0  0  0  0
   -1.6531    1.4091   -0.4852 H   0  0  0  0  0  0  0  0  0  0  0  0
    0.0971    0.6437   -1.6471 H   0  0  0  0  0  0  0  0  0  0  0  0
    2.4583    0.9207   -0.5997 H   0  0  0  0  0  0  0  0  0  0  0  0
    1.6911    1.4817    0.8636 H   0  0  0  0  0  0  0  0  0  0  0  0
    2.1233    2.2684   -2.7569 H   0  0  0  0  0  0  0  0  0  0  0  0
    0.8765    3.7047    1.1086 H   0  0  0  0  0  0  0  0  0  0  0  0
    2.0360    4.5775   -3.6371 H   0  0  0  0  0  0  0  0  0  0  0  0
    0.7922    6.0100    0.2188 H   0  0  0  0  0  0  0  0  0  0  0  0
    1.3707    6.4514   -2.1535 H   0  0  0  0  0  0  0  0  0  0  0  0
    1.5994   -1.4234   -0.7271 N   0  0  0  0  0  0  0  0  0  0  0  0
    1.9841   -2.7988   -0.5058 C   0  0  2  0  0  0  0  0  0  0  0  0
    1.9975   -3.0474    0.9967 C   0  0  0  0  0  0  0  0  0  0  0  0
    2.1177   -2.1468    1.8246 O   0  0  0  0  0  0  0  0  0  0  0  0
    3.3432   -3.0987   -1.1185 C   0  0  0  0  0  0  0  0  0  0  0  0
    2.1737   -0.8550   -1.3427 H   0  0  0  0  0  0  0  0  0  0  0  0
    1.2135   -3.4218   -0.9728 H   0  0  0  0  0  0  0  0  0  0  0  0
    4.1282   -2.4839   -0.6632 H   0  0  0  0  0  0  0  0  0  0  0  0
    3.6204   -4.1482   -0.9748 H   0  0  0  0  0  0  0  0  0  0  0  0
    3.3403   -2.8909   -2.1940 H   0  0  0  0  0  0  0  0  0  0  0  0
    1.9029   -4.3977    1.3031 N   0  0  0  0  0  0  0  0  0  0  0  0
    1.9071   -4.8914    2.6604 C   0  0  0  0  0  0  0  0  0  0  0  0
    1.7874   -5.0733    0.5535 H   0  0  0  0  0  0  0  0  0  0  0  0
    2.9366   -5.1397    2.9577 H   0  0  0  0  0  0  0  0  0  0  0  0
    1.5078   -4.1179    3.3330 H   0  0  0  0  0  0  0  0  0  0  0  0
    1.2795   -5.7925    2.7247 H   0  0  0  0  0  0  0  0  0  0  0  0
 25 27  1  0  0  0  0
 26 27  2  0  0  0  0
 23 25  2  0  0  0  0
 24 26  1  0  0  0  0
 22 23  1  0  0  0  0
 22 24  2  0  0  0  0
 21 22  1  0  0  0  0
  1  3  1  0  0  0  0
  1  7  1  0  0  0  0
  1  2  2  0  0  0  0
 38 39  1  0  0  0  0
 39 47  1  0  0  0  0
 39 40  2  0  0  0  0
  8  9  1  0  0  0  0
  9 17  1  0  0  0  0
  9 10  2  0  0  0  0
 18 19  1  0  0  0  0
 19 37  1  0  0  0  0
 19 20  2  0  0  0  0
 38 41  1  0  0  0  0
  8 11  1  0  0  0  0
 47 48  1  0  0  0  0
 18 21  1  0  0  0  0
 37 38  1  0  0  0  0
  7  8  1  0  0  0  0
 17 18  1  0  0  0  0
 27 36  1  0  0  0  0
 25 34  1  0  0  0  0
 26 35  1  0  0  0  0
 23 32  1  0  0  0  0
 24 33  1  0  0  0  0
  3  4  1  0  0  0  0
  3  5  1  0  0  0  0
  3  6  1  0  0  0  0
 41 44  1  0  0  0  0
 41 45  1  0  0  0  0
 41 46  1  0  0  0  0
 11 14  1  0  0  0  0
 11 15  1  0  0  0  0
 11 16  1  0  0  0  0
 48 50  1  0  0  0  0
 48 51  1  0  0  0  0
 48 52  1  0  0  0  0
 21 30  1  0  0  0  0
 21 31  1  0  0  0  0
 38 43  1  0  0  0  0
  8 13  1  0  0  0  0
 18 29  1  0  0  0  0
 47 49  1  0  0  0  0
  7 12  1  0  0  0  0
 37 42  1  0  0  0  0
 17 28  1  0  0  0  0
M  END
$$$$

  -OEChem-05262214473D

 52 52  0     1  0  0  0  0  0999 V2000
   -1.8248    0.3424    3.9102 C   0  0  0  0  0  0  0  0  0  0  0  0
   -0.8774   -0.2723    3.4345 O   0  0  0  0  0  0  0  0  0  0  0  0
   -2.2566    0.0600    5.3109 C   0  0  0  0  0  0  0  0  0  0  0  0
   -3.0163   -0.7363    5.3643 H   0  0  0  0  0  0  0  0  0  0  0  0
   -1.4254   -0.2876    5.9452 H   0  0  0  0  0  0  0  0  0  0  0  0
   -2.6947    0.9149    5.8505 H   0  0  0  0  0  0  0  0  0  0  0  0
   -2.5745    1.3149    3.2691 N   0  0  0  0  0  0  0  0  0  0  0  0
   -2.3276    1.7409    1.9167 C   0  0  2  0  0  0  0  0  0  0  0  0
   -0.9926    1.1555    1.4755 C   0  0  0  0  0  0  0  0  0  0  0  0
   -0.1206    0.8028    2.2668 O   0  0  0  0  0  0  0  0  0  0  0  0
   -2.3188    3.2577    1.8072 C   0  0  0  0  0  0  0  0  0  0  0  0
   -3.3395    1.7507    3.7809 H   0  0  0  0  0  0  0  0  0  0  0  0
   -3.1317    1.3224    1.3015 H   0  0  0  0  0  0  0  0  0  0  0  0
   -1.5198    3.6949    2.4169 H   0  0  0  0  0  0  0  0  0  0  0  0
   -2.1594    3.5799    0.7729 H   0  0  0  0  0  0  0  0  0  0  0  0
   -3.2690    3.6789    2.1530 H   0  0  0  0  0  0  0  0  0  0  0  0
   -0.8700    1.1124    0.0921 N   0  0  0  0  0  0  0  0  0  0  0  0
    0.3073    0.6116   -0.5716 C   0  0  2  0  0  0  0  0  0  0  0  0
    0.4847   -0.8400   -0.1409 C   0  0  0  0  0  0  0  0  0  0  0  0
   -0.4157   -1.5003    0.3730 O   0  0  0  0  0  0  0  0  0  0  0  0
    1.5584    1.4270   -0.2250 C   0  0  0  0  0  0  0  0  0  0  0  0
    1.5057    2.8350   -0.7659 C   0  0  0  0  0  0  0  0  0  0  0  0
    1.8308    3.0830   -2.0996 C   0  0  0  0  0  0  0  0  0  0  0  0
    1.1316    3.8884    0.0682 C   0  0  0  0  0  0  0  0  0  0  0  0
    1.7818    4.3845   -2.5990 C   0  0  0  0  0  0  0  0  0  0  0  0
    1.0825    5.1899   -0.4312 C   0  0  0  0  0  0  0  0  0  0  0  0
    1.4075    5.4379   -1.7648 C   0  0  0  0  0  0  0  0  0  0  0  0
   -1.6531    1.4091   -0.4852 H   0  0  0  0  0  0  0  0  0  0  0  0
    0.0971    0.6437   -1.6471 H   0  0  0  0  0  0  0  0  0  0  0  0
    2.4583    0.9207   -0.5997 H   0  0  0  0  0  0  0  0  0  0  0  0
    1.6911    1.4817    0.8636 H   0  0  0  0  0  0  0  0  0  0  0  0
    2.1233    2.2684   -2.7569 H   0  0  0  0  0  0  0  0  0  0  0  0
    0.8765    3.7047    1.1086 H   0  0  0  0  0  0  0  0  0  0  0  0
    2.0360    4.5775   -3.6371 H   0  0  0  0  0  0  0  0  0  0  0  0
    0.7922    6.0100    0.2188 H   0  0  0  0  0  0  0  0  0  0  0  0
    1.3707    6.4514   -2.1535 H   0  0  0  0  0  0  0  0  0  0  0  0
    1.7506   -1.3212   -0.4450 N   0  0  0  0  0  0  0  0  0  0  0  0
    2.1738   -2.6743   -0.1642 C   0  0  2  0  0  0  0  0  0  0  0  0
    1.8374   -2.9802    1.2893 C   0  0  0  0  0  0  0  0  0  0  0  0
    1.6812   -2.1066    2.1399 O   0  0  0  0  0  0  0  0  0  0  0  0
    3.6607   -2.8549   -0.4276 C   0  0  0  0  0  0  0  0  0  0  0  0
    2.4129   -0.6907   -0.8872 H   0  0  0  0  0  0  0  0  0  0  0  0
    1.5916   -3.3304   -0.8204 H   0  0  0  0  0  0  0  0  0  0  0  0
    4.2603   -2.2055    0.2207 H   0  0  0  0  0  0  0  0  0  0  0  0
    3.9740   -3.8875   -0.2417 H   0  0  0  0  0  0  0  0  0  0  0  0
    3.9057   -2.6058   -1.4657 H   0  0  0  0  0  0  0  0  0  0  0  0
    1.7745   -4.3448    1.5344 N   0  0  0  0  0  0  0  0  0  0  0  0
    1.4835   -4.8899    2.8398 C   0  0  0  0  0  0  0  0  0  0  0  0
    1.8987   -4.9968    0.7655 H   0  0  0  0  0  0  0  0  0  0  0  0
    2.4247   -5.0777    3.3774 H   0  0  0  0  0  0  0  0  0  0  0  0
    0.8733   -4.1730    3.4087 H   0  0  0  0  0  0  0  0  0  0  0  0
    0.9307   -5.8342    2.7278 H   0  0  0  0  0  0  0  0  0  0  0  0
 25 27  1  0  0  0  0
 26 27  2  0  0  0  0
 23 25  2  0  0  0  0
 24 26  1  0  0  0  0
 22 23  1  0  0  0  0
 22 24  2  0  0  0  0
 21 22  1  0  0  0  0
  1  3  1  0  0  0  0
  1  7  1  0  0  0  0
  1  2  2  0  0  0  0
 38 39  1  0  0  0  0
 39 47  1  0  0  0  0
 39 40  2  0  0  0  0
  8  9  1  0  0  0  0
  9 17  1  0  0  0  0
  9 10  2  0  0  0  0
 18 19  1  0  0  0  0
 19 37  1  0  0  0  0
 19 20  2  0  0  0  0
 38 41  1  0  0  0  0
  8 11  1  0  0  0  0
 47 48  1  0  0  0  0
 18 21  1  0  0  0  0
 37 38  1  0  0  0  0
  7  8  1  0  0  0  0
 17 18  1  0  0  0  0
 27 36  1  0  0  0  0
 25 34  1  0  0  0  0
 26 35  1  0  0  0  0
 23 32  1  0  0  0  0
 24 33  1  0  0  0  0
  3  4  1  0  0  0  0
  3  5  1  0  0  0  0
  3  6  1  0  0  0  0
 41 44  1  0  0  0  0
 41 45  1  0  0  0  0
 41 46  1  0  0  0  0
 11 14  1  0  0  0  0
 11 15  1  0  0  0  0
 11 16  1  0  0  0  0
 48 50  1  0  0  0  0
 48 51  1  0  0  0  0
 48 52  1  0  0  0  0
 21 30  1  0  0  0  0
 21 31  1  0  0  0  0
 38 43  1  0  0  0  0
  8 13  1  0  0  0  0
 18 29  1  0  0  0  0
 47 49  1  0  0  0  0
  7 12  1  0  0  0  0
 37 42  1  0  0  0  0
 17 28  1  0  0  0  0
M  END
$$$$

  -OEChem-05262214473D

 52 52  0     1  0  0  0  0  0999 V2000
   -1.8248    0.3424    3.9102 C   0  0  0  0  0  0  0  0  0  0  0  0
   -0.8774   -0.2723    3.4345 O   0  0  0  0  0  0  0  0  0  0  0  0
   -2.2566    0.0600    5.3109 C   0  0  0  0  0  0  0  0  0  0  0  0
   -3.0163   -0.7363    5.3643 H   0  0  0  0  0  0  0  0  0  0  0  0
   -1.4254   -0.2876    5.9452 H   0  0  0  0  0  0  0  0  0  0  0  0
   -2.6947    0.9149    5.8505 H   0  0  0  0  0  0  0  0  0  0  0  0
   -2.5745    1.3149    3.2691 N   0  0  0  0  0  0  0  0  0  0  0  0
   -2.3276    1.7409    1.9167 C   0  0  2  0  0  0  0  0  0  0  0  0
   -0.9926    1.1555    1.4755 C   0  0  0  0  0  0  0  0  0  0  0  0
   -0.1206    0.8028    2.2668 O   0  0  0  0  0  0  0  0  0  0  0  0
   -2.3188    3.2577    1.8072 C   0  0  0  0  0  0  0  0  0  0  0  0
   -3.3395    1.7507    3.7809 H   0  0  0  0  0  0  0  0  0  0  0  0
   -3.1317    1.3224    1.3015 H   0  0  0  0  0  0  0  0  0  0  0  0
   -1.5198    3.6949    2.4169 H   0  0  0  0  0  0  0  0  0  0  0  0
   -2.1594    3.5799    0.7729 H   0  0  0  0  0  0  0  0  0  0  0  0
   -3.2690    3.6789    2.1530 H   0  0  0  0  0  0  0  0  0  0  0  0
   -0.8700    1.1124    0.0921 N   0  0  0  0  0  0  0  0  0  0  0  0
    0.3073    0.6116   -0.5716 C   0  0  2  0  0  0  0  0  0  0  0  0
    0.4847   -0.8400   -0.1409 C   0  0  0  0  0  0  0  0  0  0  0  0
   -0.4607   -1.5808    0.1201 O   0  0  0  0  0  0  0  0  0  0  0  0
    1.5584    1.4270   -0.2250 C   0  0  0  0  0  0  0  0  0  0  0  0
    1.5057    2.8350   -0.7659 C   0  0  0  0  0  0  0  0  0  0  0  0
    1.8308    3.0830   -2.0996 C   0  0  0  0  0  0  0  0  0  0  0  0
    1.1316    3.8884    0.0682 C   0  0  0  0  0  0  0  0  0  0  0  0
    1.7818    4.3845   -2.5990 C   0  0  0  0  0  0  0  0  0  0  0  0
    1.0825    5.1899   -0.4312 C   0  0  0  0  0  0  0  0  0  0  0  0
    1.4075    5.4379   -1.7648 C   0  0  0  0  0  0  0  0  0  0  0  0
   -1.6531    1.4091   -0.4852 H   0  0  0  0  0  0  0  0  0  0  0  0
    0.0971    0.6437   -1.6471 H   0  0  0  0  0  0  0  0  0  0  0  0
    2.4583    0.9207   -0.5997 H   0  0  0  0  0  0  0  0  0  0  0  0
    1.6911    1.4817    0.8636 H   0  0  0  0  0  0  0  0  0  0  0  0
    2.1233    2.2684   -2.7569 H   0  0  0  0  0  0  0  0  0  0  0  0
    0.8765    3.7047    1.1086 H   0  0  0  0  0  0  0  0  0  0  0  0
    2.0360    4.5775   -3.6371 H   0  0  0  0  0  0  0  0  0  0  0  0
    0.7922    6.0100    0.2188 H   0  0  0  0  0  0  0  0  0  0  0  0
    1.3707    6.4514   -2.1535 H   0  0  0  0  0  0  0  0  0  0  0  0
    1.8197   -1.2200   -0.1322 N   0  0  0  0  0  0  0  0  0  0  0  0
    2.2638   -2.5504    0.2162 C   0  0  2  0  0  0  0  0  0  0  0  0
    1.6056   -2.9358    1.5345 C   0  0  0  0  0  0  0  0  0  0  0  0
    1.1788   -2.1092    2.3380 O   0  0  0  0  0  0  0  0  0  0  0  0
    3.7792   -2.6170    0.3255 C   0  0  0  0  0  0  0  0  0  0  0  0
    2.5197   -0.5281   -0.3833 H   0  0  0  0  0  0  0  0  0  0  0  0
    1.9126   -3.2190   -0.5772 H   0  0  0  0  0  0  0  0  0  0  0  0
    4.1497   -1.9536    1.1154 H   0  0  0  0  0  0  0  0  0  0  0  0
    4.1158   -3.6319    0.5614 H   0  0  0  0  0  0  0  0  0  0  0  0
    4.2515   -2.3109   -0.6142 H   0  0  0  0  0  0  0  0  0  0  0  0
    1.5897   -4.3100    1.7277 N   0  0  0  0  0  0  0  0  0  0  0  0
    1.0301   -4.9248    2.9088 C   0  0  0  0  0  0  0  0  0  0  0  0
    1.9485   -4.9212    1.0000 H   0  0  0  0  0  0  0  0  0  0  0  0
    1.8222   -5.0679    3.6586 H   0  0  0  0  0  0  0  0  0  0  0  0
    0.2457   -4.2749    3.3237 H   0  0  0  0  0  0  0  0  0  0  0  0
    0.5959   -5.9001    2.6436 H   0  0  0  0  0  0  0  0  0  0  0  0
 25 27  1  0  0  0  0
 26 27  2  0  0  0  0
 23 25  2  0  0  0  0
 24 26  1  0  0  0  0
 22 23  1  0  0  0  0
 22 24  2  0  0  0  0
 21 22  1  0  0  0  0
  1  3  1  0  0  0  0
  1  7  1  0  0  0  0
  1  2  2  0  0  0  0
 38 39  1  0  0  0  0
 39 47  1  0  0  0  0
 39 40  2  0  0  0  0
  8  9  1  0  0  0  0
  9 17  1  0  0  0  0
  9 10  2  0  0  0  0
 18 19  1  0  0  0  0
 19 37  1  0  0  0  0
 19 20  2  0  0  0  0
 38 41  1  0  0  0  0
  8 11  1  0  0  0  0
 47 48  1  0  0  0  0
 18 21  1  0  0  0  0
 37 38  1  0  0  0  0
  7  8  1  0  0  0  0
 17 18  1  0  0  0  0
 27 36  1  0  0  0  0
 25 34  1  0  0  0  0
 26 35  1  0  0  0  0
 23 32  1  0  0  0  0
 24 33  1  0  0  0  0
  3  4  1  0  0  0  0
  3  5  1  0  0  0  0
  3  6  1  0  0  0  0
 41 44  1  0  0  0  0
 41 45  1  0  0  0  0
 41 46  1  0  0  0  0
 11 14  1  0  0  0  0
 11 15  1  0  0  0  0
 11 16  1  0  0  0  0
 48 50  1  0  0  0  0
 48 51  1  0  0  0  0
 48 52  1  0  0  0  0
 21 30  1  0  0  0  0
 21 31  1  0  0  0  0
 38 43  1  0  0  0  0
  8 13  1  0  0  0  0
 18 29  1  0  0  0  0
 47 49  1  0  0  0  0
  7 12  1  0  0  0  0
 37 42  1  0  0  0  0
 17 28  1  0  0  0  0
M  END
$$$$

  -OEChem-05262214473D

 52 52  0     1  0  0  0  0  0999 V2000
   -1.8248    0.3424    3.9102 C   0  0  0  0  0  0  0  0  0  0  0  0
   -0.8774   -0.2723    3.4345 O   0  0  0  0  0  0  0  0  0  0  0  0
   -2.2566    0.0600    5.3109 C   0  0  0  0  0  0  0  0  0  0  0  0
   -3.0163   -0.7363    5.3643 H   0  0  0  0  0  0  0  0  0  0  0  0
   -1.4254   -0.2876    5.9452 H   0  0  0  0  0  0  0  0  0  0  0  0
   -2.6947    0.9149    5.8505 H   0  0  0  0  0  0  0  0  0  0  0  0
   -2.5745    1.3149    3.2691 N   0  0  0  0  0  0  0  0  0  0  0  0
   -2.3276    1.7409    1.9167 C   0  0  2  0  0  0  0  0  0  0  0  0
   -0.9926    1.1555    1.4755 C   0  0  0  0  0  0  0  0  0  0  0  0
   -0.1206    0.8028    2.2668 O   0  0  0  0  0  0  0  0  0  0  0  0
   -2.3188    3.2577    1.8072 C   0  0  0  0  0  0  0  0  0  0  0  0
   -3.3395    1.7507    3.7809 H   0  0  0  0  0  0  0  0  0  0  0  0
   -3.1317    1.3224    1.3015 H   0  0  0  0  0  0  0  0  0  0  0  0
   -1.5198    3.6949    2.4169 H   0  0  0  0  0  0  0  0  0  0  0  0
   -2.1594    3.5799    0.7729 H   0  0  0  0  0  0  0  0  0  0  0  0
   -3.2690    3.6789    2.1530 H   0  0  0  0  0  0  0  0  0  0  0  0
   -0.8700    1.1124    0.0921 N   0  0  0  0  0  0  0  0  0  0  0  0
    0.3073    0.6116   -0.5716 C   0  0  2  0  0  0  0  0  0  0  0  0
    0.4847   -0.8400   -0.1409 C   0  0  0  0  0  0  0  0  0  0  0  0
   -0.4360   -1.6543   -0.1376 O   0  0  0  0  0  0  0  0  0  0  0  0
    1.5584    1.4270   -0.2250 C   0  0  0  0  0  0  0  0  0  0  0  0
    1.5057    2.8350   -0.7659 C   0  0  0  0  0  0  0  0  0  0  0  0
    1.8308    3.0830   -2.0996 C   0  0  0  0  0  0  0  0  0  0  0  0
    1.1316    3.8884    0.0682 C   0  0  0  0  0  0  0  0  0  0  0  0
    1.7818    4.3845   -2.5990 C   0  0  0  0  0  0  0  0  0  0  0  0
    1.0825    5.1899   -0.4312 C   0  0  0  0  0  0  0  0  0  0  0  0
    1.4075    5.4379   -1.7648 C   0  0  0  0  0  0  0  0  0  0  0  0
   -1.6531    1.4091   -0.4852 H   0  0  0  0  0  0  0  0  0  0  0  0
    0.0971    0.6437   -1.6471 H   0  0  0  0  0  0  0  0  0  0  0  0
    2.4583    0.9207   -0.5997 H   0  0  0  0  0  0  0  0  0  0  0  0
    1.6911    1.4817    0.8636 H   0  0  0  0  0  0  0  0  0  0  0  0
    2.1233    2.2684   -2.7569 H   0  0  0  0  0  0  0  0  0  0  0  0
    0.8765    3.7047    1.1086 H   0  0  0  0  0  0  0  0  0  0  0  0
    2.0360    4.5775   -3.6371 H   0  0  0  0  0  0  0  0  0  0  0  0
    0.7922    6.0100    0.2188 H   0  0  0  0  0  0  0  0  0  0  0  0
    1.3707    6.4514   -2.1535 H   0  0  0  0  0  0  0  0  0  0  0  0
    1.8019   -1.1265    0.1901 N   0  0  0  0  0  0  0  0  0  0  0  0
    2.2479   -2.4356    0.6096 C   0  0  2  0  0  0  0  0  0  0  0  0
    1.3181   -2.9172    1.7155 C   0  0  0  0  0  0  0  0  0  0  0  0
    0.6449   -2.1544    2.4055 O   0  0  0  0  0  0  0  0  0  0  0  0
    3.6907   -2.4012    1.0892 C   0  0  0  0  0  0  0  0  0  0  0  0
    2.4868   -0.3785    0.1346 H   0  0  0  0  0  0  0  0  0  0  0  0
    2.1545   -3.0953   -0.2599 H   0  0  0  0  0  0  0  0  0  0  0  0
    3.8039   -1.7452    1.9600 H   0  0  0  0  0  0  0  0  0  0  0  0
    4.0361   -3.3988    1.3798 H   0  0  0  0  0  0  0  0  0  0  0  0
    4.3541   -2.0264    0.3023 H   0  0  0  0  0  0  0  0  0  0  0  0
    1.3610   -4.2958    1.8700 N   0  0  0  0  0  0  0  0  0  0  0  0
    0.5778   -4.9938    2.8626 C   0  0  0  0  0  0  0  0  0  0  0  0
    1.9332   -4.8515    1.2411 H   0  0  0  0  0  0  0  0  0  0  0  0
    1.1702   -5.1110    3.7820 H   0  0  0  0  0  0  0  0  0  0  0  0
   -0.3321   -4.4166    3.0839 H   0  0  0  0  0  0  0  0  0  0  0  0
    0.2982   -5.9857    2.4778 H   0  0  0  0  0  0  0  0  0  0  0  0
 25 27  1  0  0  0  0
 26 27  2  0  0  0  0
 23 25  2  0  0  0  0
 24 26  1  0  0  0  0
 22 23  1  0  0  0  0
 22 24  2  0  0  0  0
 21 22  1  0  0  0  0
  1  3  1  0  0  0  0
  1  7  1  0  0  0  0
  1  2  2  0  0  0  0
 38 39  1  0  0  0  0
 39 47  1  0  0  0  0
 39 40  2  0  0  0  0
  8  9  1  0  0  0  0
  9 17  1  0  0  0  0
  9 10  2  0  0  0  0
 18 19  1  0  0  0  0
 19 37  1  0  0  0  0
 19 20  2  0  0  0  0
 38 41  1  0  0  0  0
  8 11  1  0  0  0  0
 47 48  1  0  0  0  0
 18 21  1  0  0  0  0
 37 38  1  0  0  0  0
  7  8  1  0  0  0  0
 17 18  1  0  0  0  0
 27 36  1  0  0  0  0
 25 34  1  0  0  0  0
 26 35  1  0  0  0  0
 23 32  1  0  0  0  0
 24 33  1  0  0  0  0
  3  4  1  0  0  0  0
  3  5  1  0  0  0  0
  3  6  1  0  0  0  0
 41 44  1  0  0  0  0
 41 45  1  0  0  0  0
 41 46  1  0  0  0  0
 11 14  1  0  0  0  0
 11 15  1  0  0  0  0
 11 16  1  0  0  0  0
 48 50  1  0  0  0  0
 48 51  1  0  0  0  0
 48 52  1  0  0  0  0
 21 30  1  0  0  0  0
 21 31  1  0  0  0  0
 38 43  1  0  0  0  0
  8 13  1  0  0  0  0
 18 29  1  0  0  0  0
 47 49  1  0  0  0  0
  7 12  1  0  0  0  0
 37 42  1  0  0  0  0
 17 28  1  0  0  0  0
M  END
$$$$

  -OEChem-05262214473D

 52 52  0     1  0  0  0  0  0999 V2000
   -1.8248    0.3424    3.9102 C   0  0  0  0  0  0  0  0  0  0  0  0
   -0.8774   -0.2723    3.4345 O   0  0  0  0  0  0  0  0  0  0  0  0
   -2.2566    0.0600    5.3109 C   0  0  0  0  0  0  0  0  0  0  0  0
   -3.0163   -0.7363    5.3643 H   0  0  0  0  0  0  0  0  0  0  0  0
   -1.4254   -0.2876    5.9452 H   0  0  0  0  0  0  0  0  0  0  0  0
   -2.6947    0.9149    5.8505 H   0  0  0  0  0  0  0  0  0  0  0  0
   -2.5745    1.3149    3.2691 N   0  0  0  0  0  0  0  0  0  0  0  0
   -2.3276    1.7409    1.9167 C   0  0  2  0  0  0  0  0  0  0  0  0
   -0.9926    1.1555    1.4755 C   0  0  0  0  0  0  0  0  0  0  0  0
   -0.1206    0.8028    2.2668 O   0  0  0  0  0  0  0  0  0  0  0  0
   -2.3188    3.2577    1.8072 C   0  0  0  0  0  0  0  0  0  0  0  0
   -3.3395    1.7507    3.7809 H   0  0  0  0  0  0  0  0  0  0  0  0
   -3.1317    1.3224    1.3015 H   0  0  0  0  0  0  0  0  0  0  0  0
   -1.5198    3.6949    2.4169 H   0  0  0  0  0  0  0  0  0  0  0  0
   -2.1594    3.5799    0.7729 H   0  0  0  0  0  0  0  0  0  0  0  0
   -3.2690    3.6789    2.1530 H   0  0  0  0  0  0  0  0  0  0  0  0
   -0.8700    1.1124    0.0921 N   0  0  0  0  0  0  0  0  0  0  0  0
    0.3073    0.6116   -0.5716 C   0  0  2  0  0  0  0  0  0  0  0  0
    0.4847   -0.8400   -0.1409 C   0  0  0  0  0  0  0  0  0  0  0  0
   -0.3433   -1.7157   -0.3827 O   0  0  0  0  0  0  0  0  0  0  0  0
    1.5584    1.4270   -0.2250 C   0  0  0  0  0  0  0  0  0  0  0  0
    1.5057    2.8350   -0.7659 C   0  0  0  0  0  0  0  0  0  0  0  0
    1.8308    3.0830   -2.0996 C   0  0  0  0  0  0  0  0  0  0  0  0
    1.1316    3.8884    0.0682 C   0  0  0  0  0  0  0  0  0  0  0  0
    1.7818    4.3845   -2.5990 C   0  0  0  0  0  0  0  0  0  0  0  0
    1.0825    5.1899   -0.4312 C   0  0  0  0  0  0  0  0  0  0  0  0
    1.4075    5.4379   -1.7648 C   0  0  0  0  0  0  0  0  0  0  0  0
   -1.6531    1.4091   -0.4852 H   0  0  0  0  0  0  0  0  0  0  0  0
    0.0971    0.6437   -1.6471 H   0  0  0  0  0  0  0  0  0  0  0  0
    2.4583    0.9207   -0.5997 H   0  0  0  0  0  0  0  0  0  0  0  0
    1.6911    1.4817    0.8636 H   0  0  0  0  0  0  0  0  0  0  0  0
    2.1233    2.2684   -2.7569 H   0  0  0  0  0  0  0  0  0  0  0  0
    0.8765    3.7047    1.1086 H   0  0  0  0  0  0  0  0  0  0  0  0
    2.0360    4.5775   -3.6371 H   0  0  0  0  0  0  0  0  0  0  0  0
    0.7922    6.0100    0.2188 H   0  0  0  0  0  0  0  0  0  0  0  0
    1.3707    6.4514   -2.1535 H   0  0  0  0  0  0  0  0  0  0  0  0
    1.6984   -1.0473    0.4998 N   0  0  0  0  0  0  0  0  0  0  0  0
    2.1272   -2.3378    0.9892 C   0  0  2  0  0  0  0  0  0  0  0  0
    0.9944   -2.9258    1.8201 C   0  0  0  0  0  0  0  0  0  0  0  0
    0.1159   -2.2392    2.3378 O   0  0  0  0  0  0  0  0  0  0  0  0
    3.4012   -2.2223    1.8116 C   0  0  0  0  0  0  0  0  0  0  0  0
    2.3164   -0.2519    0.6312 H   0  0  0  0  0  0  0  0  0  0  0  0
    2.3010   -2.9677    0.1099 H   0  0  0  0  0  0  0  0  0  0  0  0
    3.2465   -1.5947    2.6969 H   0  0  0  0  0  0  0  0  0  0  0  0
    3.7404   -3.2042    2.1577 H   0  0  0  0  0  0  0  0  0  0  0  0
    4.2065   -1.7717    1.2214 H   0  0  0  0  0  0  0  0  0  0  0  0
    1.1039   -4.3030    1.9514 N   0  0  0  0  0  0  0  0  0  0  0  0
    0.1572   -5.0922    2.7044 C   0  0  0  0  0  0  0  0  0  0  0  0
    1.8540   -4.7926    1.4723 H   0  0  0  0  0  0  0  0  0  0  0  0
    0.5132   -5.2040    3.7392 H   0  0  0  0  0  0  0  0  0  0  0  0
   -0.8207   -4.5886    2.7057 H   0  0  0  0  0  0  0  0  0  0  0  0
    0.0577   -6.0851    2.2417 H   0  0  0  0  0  0  0  0  0  0  0  0
 25 27  1  0  0  0  0
 26 27  2  0  0  0  0
 23 25  2  0  0  0  0
 24 26  1  0  0  0  0
 22 23  1  0  0  0  0
 22 24  2  0  0  0  0
 21 22  1  0  0  0  0
  1  3  1  0  0  0  0
  1  7  1  0  0  0  0
  1  2  2  0  0  0  0
 38 39  1  0  0  0  0
 39 47  1  0  0  0  0
 39 40  2  0  0  0  0
  8  9  1  0  0  0  0
  9 17  1  0  0  0  0
  9 10  2  0  0  0  0
 18 19  1  0  0  0  0
 19 37  1  0  0  0  0
 19 20  2  0  0  0  0
 38 41  1  0  0  0  0
  8 11  1  0  0  0  0
 47 48  1  0  0  0  0
 18 21  1  0  0  0  0
 37 38  1  0  0  0  0
  7  8  1  0  0  0  0
 17 18  1  0  0  0  0
 27 36  1  0  0  0  0
 25 34  1  0  0  0  0
 26 35  1  0  0  0  0
 23 32  1  0  0  0  0
 24 33  1  0  0  0  0
  3  4  1  0  0  0  0
  3  5  1  0  0  0  0
  3  6  1  0  0  0  0
 41 44  1  0  0  0  0
 41 45  1  0  0  0  0
 41 46  1  0  0  0  0
 11 14  1  0  0  0  0
 11 15  1  0  0  0  0
 11 16  1  0  0  0  0
 48 50  1  0  0  0  0
 48 51  1  0  0  0  0
 48 52  1  0  0  0  0
 21 30  1  0  0  0  0
 21 31  1  0  0  0  0
 38 43  1  0  0  0  0
  8 13  1  0  0  0  0
 18 29  1  0  0  0  0
 47 49  1  0  0  0  0
  7 12  1  0  0  0  0
 37 42  1  0  0  0  0
 17 28  1  0  0  0  0
M  END
$$$$

  -OEChem-05262214473D

 52 52  0     1  0  0  0  0  0999 V2000
   -1.8248    0.3424    3.9102 C   0  0  0  0  0  0  0  0  0  0  0  0
   -0.8774   -0.2723    3.4345 O   0  0  0  0  0  0  0  0  0  0  0  0
   -2.2566    0.0600    5.3109 C   0  0  0  0  0  0  0  0  0  0  0  0
   -3.0163   -0.7363    5.3643 H   0  0  0  0  0  0  0  0  0  0  0  0
   -1.4254   -0.2876    5.9452 H   0  0  0  0  0  0  0  0  0  0  0  0
   -2.6947    0.9149    5.8505 H   0  0  0  0  0  0  0  0  0  0  0  0
   -2.5745    1.3149    3.2691 N   0  0  0  0  0  0  0  0  0  0  0  0
   -2.3276    1.7409    1.9167 C   0  0  2  0  0  0  0  0  0  0  0  0
   -0.9926    1.1555    1.4755 C   0  0  0  0  0  0  0  0  0  0  0  0
   -0.1206    0.8028    2.2668 O   0  0  0  0  0  0  0  0  0  0  0  0
   -2.3188    3.2577    1.8072 C   0  0  0  0  0  0  0  0  0  0  0  0
   -3.3395    1.7507    3.7809 H   0  0  0  0  0  0  0  0  0  0  0  0
   -3.1317    1.3224    1.3015 H   0  0  0  0  0  0  0  0  0  0  0  0
   -1.5198    3.6949    2.4169 H   0  0  0  0  0  0  0  0  0  0  0  0
   -2.1594    3.5799    0.7729 H   0  0  0  0  0  0  0  0  0  0  0  0
   -3.2690    3.6789    2.1530 H   0  0  0  0  0  0  0  0  0  0  0  0
   -0.8700    1.1124    0.0921 N   0  0  0  0  0  0  0  0  0  0  0  0
    0.3073    0.6116   -0.5716 C   0  0  2  0  0  0  0  0  0  0  0  0
    0.4847   -0.8400   -0.1409 C   0  0  0  0  0  0  0  0  0  0  0  0
   -0.1888   -1.7608   -0.5985 O   0  0  0  0  0  0  0  0  0  0  0  0
    1.5584    1.4270   -0.2250 C   0  0  0  0  0  0  0  0  0  0  0  0
    1.5057    2.8350   -0.7659 C   0  0  0  0  0  0  0  0  0  0  0  0
    1.8308    3.0830   -2.0996 C   0  0  0  0  0  0  0  0  0  0  0  0
    1.1316    3.8884    0.0682 C   0  0  0  0  0  0  0  0  0  0  0  0
    1.7818    4.3845   -2.5990 C   0  0  0  0  0  0  0  0  0  0  0  0
    1.0825    5.1899   -0.4312 C   0  0  0  0  0  0  0  0  0  0  0  0
    1.4075    5.4379   -1.7648 C   0  0  0  0  0  0  0  0  0  0  0  0
   -1.6531    1.4091   -0.4852 H   0  0  0  0  0  0  0  0  0  0  0  0
    0.0971    0.6437   -1.6471 H   0  0  0  0  0  0  0  0  0  0  0  0
    2.4583    0.9207   -0.5997 H   0  0  0  0  0  0  0  0  0  0  0  0
    1.6911    1.4817    0.8636 H   0  0  0  0  0  0  0  0  0  0  0  0
    2.1233    2.2684   -2.7569 H   0  0  0  0  0  0  0  0  0  0  0  0
    0.8765    3.7047    1.1086 H   0  0  0  0  0  0  0  0  0  0  0  0
    2.0360    4.5775   -3.6371 H   0  0  0  0  0  0  0  0  0  0  0  0
    0.7922    6.0100    0.2188 H   0  0  0  0  0  0  0  0  0  0  0  0
    1.3707    6.4514   -2.1535 H   0  0  0  0  0  0  0  0  0  0  0  0
    1.5164   -0.9876    0.7758 N   0  0  0  0  0  0  0  0  0  0  0  0
    1.9099   -2.2635    1.3290 C   0  0  2  0  0  0  0  0  0  0  0  0
    0.6565   -2.9608    1.8411 C   0  0  0  0  0  0  0  0  0  0  0  0
   -0.3722   -2.3577    2.1395 O   0  0  0  0  0  0  0  0  0  0  0  0
    2.9305   -2.0923    2.4434 C   0  0  0  0  0  0  0  0  0  0  0  0
    2.0202   -0.1571    1.0728 H   0  0  0  0  0  0  0  0  0  0  0  0
    2.3420   -2.8448    0.5071 H   0  0  0  0  0  0  0  0  0  0  0  0
    2.5156   -1.5123    3.2758 H   0  0  0  0  0  0  0  0  0  0  0  0
    3.2489   -3.0612    2.8421 H   0  0  0  0  0  0  0  0  0  0  0  0
    3.8189   -1.5642    2.0806 H   0  0  0  0  0  0  0  0  0  0  0  0
    0.8361   -4.3313    1.9666 N   0  0  0  0  0  0  0  0  0  0  0  0
   -0.2028   -5.2131    2.4450 C   0  0  0  0  0  0  0  0  0  0  0  0
    1.7161   -4.7484    1.6779 H   0  0  0  0  0  0  0  0  0  0  0  0
   -0.1040   -5.3406    3.5331 H   0  0  0  0  0  0  0  0  0  0  0  0
   -1.1869   -4.7790    2.2147 H   0  0  0  0  0  0  0  0  0  0  0  0
   -0.1091   -6.1917    1.9514 H   0  0  0  0  0  0  0  0  0  0  0  0
 25 27  1  0  0  0  0
 26 27  2  0  0  0  0
 23 25  2  0  0  0  0
 24 26  1  0  0  0  0
 22 23  1  0  0  0  0
 22 24  2  0  0  0  0
 21 22  1  0  0  0  0
  1  3  1  0  0  0  0
  1  7  1  0  0  0  0
  1  2  2  0  0  0  0
 38 39  1  0  0  0  0
 39 47  1  0  0  0  0
 39 40  2  0  0  0  0
  8  9  1  0  0  0  0
  9 17  1  0  0  0  0
  9 10  2  0  0  0  0
 18 19  1  0  0  0  0
 19 37  1  0  0  0  0
 19 20  2  0  0  0  0
 38 41  1  0  0  0  0
  8 11  1  0  0  0  0
 47 48  1  0  0  0  0
 18 21  1  0  0  0  0
 37 38  1  0  0  0  0
  7  8  1  0  0  0  0
 17 18  1  0  0  0  0
 27 36  1  0  0  0  0
 25 34  1  0  0  0  0
 26 35  1  0  0  0  0
 23 32  1  0  0  0  0
 24 33  1  0  0  0  0
  3  4  1  0  0  0  0
  3  5  1  0  0  0  0
  3  6  1  0  0  0  0
 41 44  1  0  0  0  0
 41 45  1  0  0  0  0
 41 46  1  0  0  0  0
 11 14  1  0  0  0  0
 11 15  1  0  0  0  0
 11 16  1  0  0  0  0
 48 50  1  0  0  0  0
 48 51  1  0  0  0  0
 48 52  1  0  0  0  0
 21 30  1  0  0  0  0
 21 31  1  0  0  0  0
 38 43  1  0  0  0  0
  8 13  1  0  0  0  0
 18 29  1  0  0  0  0
 47 49  1  0  0  0  0
  7 12  1  0  0  0  0
 37 42  1  0  0  0  0
 17 28  1  0  0  0  0
M  END
$$$$

  -OEChem-05262214473D

 52 52  0     1  0  0  0  0  0999 V2000
   -1.8248    0.3424    3.9102 C   0  0  0  0  0  0  0  0  0  0  0  0
   -0.8774   -0.2723    3.4345 O   0  0  0  0  0  0  0  0  0  0  0  0
   -2.2566    0.0600    5.3109 C   0  0  0  0  0  0  0  0  0  0  0  0
   -3.0163   -0.7363    5.3643 H   0  0  0  0  0  0  0  0  0  0  0  0
   -1.4254   -0.2876    5.9452 H   0  0  0  0  0  0  0  0  0  0  0  0
   -2.6947    0.9149    5.8505 H   0  0  0  0  0  0  0  0  0  0  0  0
   -2.5745    1.3149    3.2691 N   0  0  0  0  0  0  0  0  0  0  0  0
   -2.3276    1.7409    1.9167 C   0  0  2  0  0  0  0  0  0  0  0  0
   -0.9926    1.1555    1.4755 C   0  0  0  0  0  0  0  0  0  0  0  0
   -0.1206    0.8028    2.2668 O   0  0  0  0  0  0  0  0  0  0  0  0
   -2.3188    3.2577    1.8072 C   0  0  0  0  0  0  0  0  0  0  0  0
   -3.3395    1.7507    3.7809 H   0  0  0  0  0  0  0  0  0  0  0  0
   -3.1317    1.3224    1.3015 H   0  0  0  0  0  0  0  0  0  0  0  0
   -1.5198    3.6949    2.4169 H   0  0  0  0  0  0  0  0  0  0  0  0
   -2.1594    3.5799    0.7729 H   0  0  0  0  0  0  0  0  0  0  0  0
   -3.2690    3.6789    2.1530 H   0  0  0  0  0  0  0  0  0  0  0  0
   -0.8700    1.1124    0.0921 N   0  0  0  0  0  0  0  0  0  0  0  0
    0.3073    0.6116   -0.5716 C   0  0  2  0  0  0  0  0  0  0  0  0
    0.4847   -0.8400   -0.1409 C   0  0  0  0  0  0  0  0  0  0  0  0
    0.0169   -1.7866   -0.7702 O   0  0  0  0  0  0  0  0  0  0  0  0
    1.5584    1.4270   -0.2250 C   0  0  0  0  0  0  0  0  0  0  0  0
    1.5057    2.8350   -0.7659 C   0  0  0  0  0  0  0  0  0  0  0  0
    1.8308    3.0830   -2.0996 C   0  0  0  0  0  0  0  0  0  0  0  0
    1.1316    3.8884    0.0682 C   0  0  0  0  0  0  0  0  0  0  0  0
    1.7818    4.3845   -2.5990 C   0  0  0  0  0  0  0  0  0  0  0  0
    1.0825    5.1899   -0.4312 C   0  0  0  0  0  0  0  0  0  0  0  0
    1.4075    5.4379   -1.7648 C   0  0  0  0  0  0  0  0  0  0  0  0
   -1.6531    1.4091   -0.4852 H   0  0  0  0  0  0  0  0  0  0  0  0
    0.0971    0.6437   -1.6471 H   0  0  0  0  0  0  0  0  0  0  0  0
    2.4583    0.9207   -0.5997 H   0  0  0  0  0  0  0  0  0  0  0  0
    1.6911    1.4817    0.8636 H   0  0  0  0  0  0  0  0  0  0  0  0
    2.1233    2.2684   -2.7569 H   0  0  0  0  0  0  0  0  0  0  0  0
    0.8765    3.7047    1.1086 H   0  0  0  0  0  0  0  0  0  0  0  0
    2.0360    4.5775   -3.6371 H   0  0  0  0  0  0  0  0  0  0  0  0
    0.7922    6.0100    0.2188 H   0  0  0  0  0  0  0  0  0  0  0  0
    1.3707    6.4514   -2.1535 H   0  0  0  0  0  0  0  0  0  0  0  0
    1.2682   -0.9516    0.9994 N   0  0  0  0  0  0  0  0  0  0  0  0
    1.6109   -2.2179    1.6059 C   0  0  2  0  0  0  0  0  0  0  0  0
    0.3276   -3.0200    1.7770 C   0  0  0  0  0  0  0  0  0  0  0  0
   -0.7861   -2.5018    1.8240 O   0  0  0  0  0  0  0  0  0  0  0  0
    2.3106   -2.0203    2.9416 C   0  0  0  0  0  0  0  0  0  0  0  0
    1.6183   -0.1005    1.4292 H   0  0  0  0  0  0  0  0  0  0  0  0
    2.2748   -2.7351    0.9046 H   0  0  0  0  0  0  0  0  0  0  0  0
    1.6608   -1.5036    3.6574 H   0  0  0  0  0  0  0  0  0  0  0  0
    2.5950   -2.9797    3.3863 H   0  0  0  0  0  0  0  0  0  0  0  0
    3.2175   -1.4180    2.8212 H   0  0  0  0  0  0  0  0  0  0  0  0
    0.5757   -4.3786    1.9143 N   0  0  0  0  0  0  0  0  0  0  0  0
   -0.4778   -5.3485    2.1021 C   0  0  0  0  0  0  0  0  0  0  0  0
    1.5291   -4.7221    1.8438 H   0  0  0  0  0  0  0  0  0  0  0  0
   -0.6395   -5.5114    3.1779 H   0  0  0  0  0  0  0  0  0  0  0  0
   -1.4057   -4.9749    1.6444 H   0  0  0  0  0  0  0  0  0  0  0  0
   -0.1909   -6.2980    1.6266 H   0  0  0  0  0  0  0  0  0  0  0  0
 25 27  1  0  0  0  0
 26 27  2  0  0  0  0
 23 25  2  0  0  0  0
 24 26  1  0  0  0  0
 22 23  1  0  0  0  0
 22 24  2  0  0  0  0
 21 22  1  0  0  0  0
  1  3  1  0  0  0  0
  1  7  1  0  0  0  0
  1  2  2  0  0  0  0
 38 39  1  0  0  0  0
 39 47  1  0  0  0  0
 39 40  2  0  0  0  0
  8  9  1  0  0  0  0
  9 17  1  0  0  0  0
  9 10  2  0  0  0  0
 18 19  1  0  0  0  0
 19 37  1  0  0  0  0
 19 20  2  0  0  0  0
 38 41  1  0  0  0  0
  8 11  1  0  0  0  0
 47 48  1  0  0  0  0
 18 21  1  0  0  0  0
 37 38  1  0  0  0  0
  7  8  1  0  0  0  0
 17 18  1  0  0  0  0
 27 36  1  0  0  0  0
 25 34  1  0  0  0  0
 26 35  1  0  0  0  0
 23 32  1  0  0  0  0
 24 33  1  0  0  0  0
  3  4  1  0  0  0  0
  3  5  1  0  0  0  0
  3  6  1  0  0  0  0
 41 44  1  0  0  0  0
 41 45  1  0  0  0  0
 41 46  1  0  0  0  0
 11 14  1  0  0  0  0
 11 15  1  0  0  0  0
 11 16  1  0  0  0  0
 48 50  1  0  0  0  0
 48 51  1  0  0  0  0
 48 52  1  0  0  0  0
 21 30  1  0  0  0  0
 21 31  1  0  0  0  0
 38 43  1  0  0  0  0
  8 13  1  0  0  0  0
 18 29  1  0  0  0  0
 47 49  1  0  0  0  0
  7 12  1  0  0  0  0
 37 42  1  0  0  0  0
 17 28  1  0  0  0  0
M  END
$$$$

  -OEChem-05262214473D

 52 52  0     1  0  0  0  0  0999 V2000
   -1.8248    0.3424    3.9102 C   0  0  0  0  0  0  0  0  0  0  0  0
   -0.8774   -0.2723    3.4345 O   0  0  0  0  0  0  0  0  0  0  0  0
   -2.2566    0.0600    5.3109 C   0  0  0  0  0  0  0  0  0  0  0  0
   -3.0163   -0.7363    5.3643 H   0  0  0  0  0  0  0  0  0  0  0  0
   -1.4254   -0.2876    5.9452 H   0  0  0  0  0  0  0  0  0  0  0  0
   -2.6947    0.9149    5.8505 H   0  0  0  0  0  0  0  0  0  0  0  0
   -2.5745    1.3149    3.2691 N   0  0  0  0  0  0  0  0  0  0  0  0
   -2.3276    1.7409    1.9167 C   0  0  2  0  0  0  0  0  0  0  0  0
   -0.9926    1.1555    1.4755 C   0  0  0  0  0  0  0  0  0  0  0  0
   -0.1206    0.8028    2.2668 O   0  0  0  0  0  0  0  0  0  0  0  0
   -2.3188    3.2577    1.8072 C   0  0  0  0  0  0  0  0  0  0  0  0
   -3.3395    1.7507    3.7809 H   0  0  0  0  0  0  0  0  0  0  0  0
   -3.1317    1.3224    1.3015 H   0  0  0  0  0  0  0  0  0  0  0  0
   -1.5198    3.6949    2.4169 H   0  0  0  0  0  0  0  0  0  0  0  0
   -2.1594    3.5799    0.7729 H   0  0  0  0  0  0  0  0  0  0  0  0
   -3.2690    3.6789    2.1530 H   0  0  0  0  0  0  0  0  0  0  0  0
   -0.8700    1.1124    0.0921 N   0  0  0  0  0  0  0  0  0  0  0  0
    0.3073    0.6116   -0.5716 C   0  0  2  0  0  0  0  0  0  0  0  0
    0.4847   -0.8400   -0.1409 C   0  0  0  0  0  0  0  0  0  0  0  0
    0.2598   -1.7913   -0.8861 O   0  0  0  0  0  0  0  0  0  0  0  0
    1.5584    1.4270   -0.2250 C   0  0  0  0  0  0  0  0  0  0  0  0
    1.5057    2.8350   -0.7659 C   0  0  0  0  0  0  0  0  0  0  0  0
    1.8308    3.0830   -2.0996 C   0  0  0  0  0  0  0  0  0  0  0  0
    1.1316    3.8884    0.0682 C   0  0  0  0  0  0  0  0  0  0  0  0
    1.7818    4.3845   -2.5990 C   0  0  0  0  0  0  0  0  0  0  0  0
    1.0825    5.1899   -0.4312 C   0  0  0  0  0  0  0  0  0  0  0  0
    1.4075    5.4379   -1.7648 C   0  0  0  0  0  0  0  0  0  0  0  0
   -1.6531    1.4091   -0.4852 H   0  0  0  0  0  0  0  0  0  0  0  0
    0.0971    0.6437   -1.6471 H   0  0  0  0  0  0  0  0  0  0  0  0
    2.4583    0.9207   -0.5997 H   0  0  0  0  0  0  0  0  0  0  0  0
    1.6911    1.4817    0.8636 H   0  0  0  0  0  0  0  0  0  0  0  0
    2.1233    2.2684   -2.7569 H   0  0  0  0  0  0  0  0  0  0  0  0
    0.8765    3.7047    1.1086 H   0  0  0  0  0  0  0  0  0  0  0  0
    2.0360    4.5775   -3.6371 H   0  0  0  0  0  0  0  0  0  0  0  0
    0.7922    6.0100    0.2188 H   0  0  0  0  0  0  0  0  0  0  0  0
    1.3707    6.4514   -2.1535 H   0  0  0  0  0  0  0  0  0  0  0  0
    0.9707   -0.9417    1.1552 N   0  0  0  0  0  0  0  0  0  0  0  0
    1.2505   -2.2041    1.8011 C   0  0  2  0  0  0  0  0  0  0  0  0
    0.0300   -3.0993    1.6323 C   0  0  0  0  0  0  0  0  0  0  0  0
   -1.0976   -2.6619    1.4130 O   0  0  0  0  0  0  0  0  0  0  0  0
    1.5837   -2.0110    3.2722 C   0  0  0  0  0  0  0  0  0  0  0  0
    1.1382   -0.0859    1.6761 H   0  0  0  0  0  0  0  0  0  0  0  0
    2.1039   -2.6460    1.2753 H   0  0  0  0  0  0  0  0  0  0  0  0
    0.7405   -1.5691    3.8155 H   0  0  0  0  0  0  0  0  0  0  0  0
    1.8233   -2.9651    3.7533 H   0  0  0  0  0  0  0  0  0  0  0  0
    2.4434   -1.3430    3.3927 H   0  0  0  0  0  0  0  0  0  0  0  0
    0.3406   -4.4418    1.7983 N   0  0  0  0  0  0  0  0  0  0  0  0
   -0.6491   -5.4890    1.6990 C   0  0  0  0  0  0  0  0  0  0  0  0
    1.3056   -4.7153    1.9588 H   0  0  0  0  0  0  0  0  0  0  0  0
   -1.0567   -5.7049    2.6976 H   0  0  0  0  0  0  0  0  0  0  0  0
   -1.4622   -5.1630    1.0338 H   0  0  0  0  0  0  0  0  0  0  0  0
   -0.1822   -6.3970    1.2896 H   0  0  0  0  0  0  0  0  0  0  0  0
 25 27  1  0  0  0  0
 26 27  2  0  0  0  0
 23 25  2  0  0  0  0
 24 26  1  0  0  0  0
 22 23  1  0  0  0  0
 22 24  2  0  0  0  0
 21 22  1  0  0  0  0
  1  3  1  0  0  0  0
  1  7  1  0  0  0  0
  1  2  2  0  0  0  0
 38 39  1  0  0  0  0
 39 47  1  0  0  0  0
 39 40  2  0  0  0  0
  8  9  1  0  0  0  0
  9 17  1  0  0  0  0
  9 10  2  0  0  0  0
 18 19  1  0  0  0  0
 19 37  1  0  0  0  0
 19 20  2  0  0  0  0
 38 41  1  0  0  0  0
  8 11  1  0  0  0  0
 47 48  1  0  0  0  0
 18 21  1  0  0  0  0
 37 38  1  0  0  0  0
  7  8  1  0  0  0  0
 17 18  1  0  0  0  0
 27 36  1  0  0  0  0
 25 34  1  0  0  0  0
 26 35  1  0  0  0  0
 23 32  1  0  0  0  0
 24 33  1  0  0  0  0
  3  4  1  0  0  0  0
  3  5  1  0  0  0  0
  3  6  1  0  0  0  0
 41 44  1  0  0  0  0
 41 45  1  0  0  0  0
 41 46  1  0  0  0  0
 11 14  1  0  0  0  0
 11 15  1  0  0  0  0
 11 16  1  0  0  0  0
 48 50  1  0  0  0  0
 48 51  1  0  0  0  0
 48 52  1  0  0  0  0
 21 30  1  0  0  0  0
 21 31  1  0  0  0  0
 38 43  1  0  0  0  0
  8 13  1  0  0  0  0
 18 29  1  0  0  0  0
 47 49  1  0  0  0  0
  7 12  1  0  0  0  0
 37 42  1  0  0  0  0
 17 28  1  0  0  0  0
M  END
$$$$

  -OEChem-05262214473D

 52 52  0     1  0  0  0  0  0999 V2000
   -1.8248    0.3424    3.9102 C   0  0  0  0  0  0  0  0  0  0  0  0
   -0.8774   -0.2723    3.4345 O   0  0  0  0  0  0  0  0  0  0  0  0
   -2.2566    0.0600    5.3109 C   0  0  0  0  0  0  0  0  0  0  0  0
   -3.0163   -0.7363    5.3643 H   0  0  0  0  0  0  0  0  0  0  0  0
   -1.4254   -0.2876    5.9452 H   0  0  0  0  0  0  0  0  0  0  0  0
   -2.6947    0.9149    5.8505 H   0  0  0  0  0  0  0  0  0  0  0  0
   -2.5745    1.3149    3.2691 N   0  0  0  0  0  0  0  0  0  0  0  0
   -2.3276    1.7409    1.9167 C   0  0  2  0  0  0  0  0  0  0  0  0
   -0.9926    1.1555    1.4755 C   0  0  0  0  0  0  0  0  0  0  0  0
   -0.1206    0.8028    2.2668 O   0  0  0  0  0  0  0  0  0  0  0  0
   -2.3188    3.2577    1.8072 C   0  0  0  0  0  0  0  0  0  0  0  0
   -3.3395    1.7507    3.7809 H   0  0  0  0  0  0  0  0  0  0  0  0
   -3.1317    1.3224    1.3015 H   0  0  0  0  0  0  0  0  0  0  0  0
   -1.5198    3.6949    2.4169 H   0  0  0  0  0  0  0  0  0  0  0  0
   -2.1594    3.5799    0.7729 H   0  0  0  0  0  0  0  0  0  0  0  0
   -3.2690    3.6789    2.1530 H   0  0  0  0  0  0  0  0  0  0  0  0
   -0.8700    1.1124    0.0921 N   0  0  0  0  0  0  0  0  0  0  0  0
    0.3073    0.6116   -0.5716 C   0  0  2  0  0  0  0  0  0  0  0  0
    0.4847   -0.8400   -0.1409 C   0  0  0  0  0  0  0  0  0  0  0  0
    0.5233   -1.7746   -0.9383 O   0  0  0  0  0  0  0  0  0  0  0  0
    1.5584    1.4270   -0.2250 C   0  0  0  0  0  0  0  0  0  0  0  0
    1.5057    2.8350   -0.7659 C   0  0  0  0  0  0  0  0  0  0  0  0
    1.8308    3.0830   -2.0996 C   0  0  0  0  0  0  0  0  0  0  0  0
    1.1316    3.8884    0.0682 C   0  0  0  0  0  0  0  0  0  0  0  0
    1.7818    4.3845   -2.5990 C   0  0  0  0  0  0  0  0  0  0  0  0
    1.0825    5.1899   -0.4312 C   0  0  0  0  0  0  0  0  0  0  0  0
    1.4075    5.4379   -1.7648 C   0  0  0  0  0  0  0  0  0  0  0  0
   -1.6531    1.4091   -0.4852 H   0  0  0  0  0  0  0  0  0  0  0  0
    0.0971    0.6437   -1.6471 H   0  0  0  0  0  0  0  0  0  0  0  0
    2.4583    0.9207   -0.5997 H   0  0  0  0  0  0  0  0  0  0  0  0
    1.6911    1.4817    0.8636 H   0  0  0  0  0  0  0  0  0  0  0  0
    2.1233    2.2684   -2.7569 H   0  0  0  0  0  0  0  0  0  0  0  0
    0.8765    3.7047    1.1086 H   0  0  0  0  0  0  0  0  0  0  0  0
    2.0360    4.5775   -3.6371 H   0  0  0  0  0  0  0  0  0  0  0  0
    0.7922    6.0100    0.2188 H   0  0  0  0  0  0  0  0  0  0  0  0
    1.3707    6.4514   -2.1535 H   0  0  0  0  0  0  0  0  0  0  0  0
    0.6442   -0.9586    1.2328 N   0  0  0  0  0  0  0  0  0  0  0  0
    0.8532   -2.2229    1.9012 C   0  0  2  0  0  0  0  0  0  0  0  0
   -0.2160   -3.1933    1.4168 C   0  0  0  0  0  0  0  0  0  0  0  0
   -1.2855   -2.8268    0.9344 O   0  0  0  0  0  0  0  0  0  0  0  0
    0.7995   -2.0652    3.4128 C   0  0  0  0  0  0  0  0  0  0  0  0
    0.6125   -0.1144    1.7967 H   0  0  0  0  0  0  0  0  0  0  0  0
    1.8409   -2.5836    1.5939 H   0  0  0  0  0  0  0  0  0  0  0  0
   -0.1826   -1.7045    3.7395 H   0  0  0  0  0  0  0  0  0  0  0  0
    0.9864   -3.0185    3.9180 H   0  0  0  0  0  0  0  0  0  0  0  0
    1.5494   -1.3444    3.7563 H   0  0  0  0  0  0  0  0  0  0  0  0
    0.1467   -4.5165    1.6263 N   0  0  0  0  0  0  0  0  0  0  0  0
   -0.7048   -5.6251    1.2632 C   0  0  0  0  0  0  0  0  0  0  0  0
    1.0609   -4.7285    2.0149 H   0  0  0  0  0  0  0  0  0  0  0  0
   -1.3271   -5.9078    2.1251 H   0  0  0  0  0  0  0  0  0  0  0  0
   -1.3526   -5.3304    0.4244 H   0  0  0  0  0  0  0  0  0  0  0  0
   -0.0834   -6.4817    0.9632 H   0  0  0  0  0  0  0  0  0  0  0  0
 25 27  1  0  0  0  0
 26 27  2  0  0  0  0
 23 25  2  0  0  0  0
 24 26  1  0  0  0  0
 22 23  1  0  0  0  0
 22 24  2  0  0  0  0
 21 22  1  0  0  0  0
  1  3  1  0  0  0  0
  1  7  1  0  0  0  0
  1  2  2  0  0  0  0
 38 39  1  0  0  0  0
 39 47  1  0  0  0  0
 39 40  2  0  0  0  0
  8  9  1  0  0  0  0
  9 17  1  0  0  0  0
  9 10  2  0  0  0  0
 18 19  1  0  0  0  0
 19 37  1  0  0  0  0
 19 20  2  0  0  0  0
 38 41  1  0  0  0  0
  8 11  1  0  0  0  0
 47 48  1  0  0  0  0
 18 21  1  0  0  0  0
 37 38  1  0  0  0  0
  7  8  1  0  0  0  0
 17 18  1  0  0  0  0
 27 36  1  0  0  0  0
 25 34  1  0  0  0  0
 26 35  1  0  0  0  0
 23 32  1  0  0  0  0
 24 33  1  0  0  0  0
  3  4  1  0  0  0  0
  3  5  1  0  0  0  0
  3  6  1  0  0  0  0
 41 44  1  0  0  0  0
 41 45  1  0  0  0  0
 41 46  1  0  0  0  0
 11 14  1  0  0  0  0
 11 15  1  0  0  0  0
 11 16  1  0  0  0  0
 48 50  1  0  0  0  0
 48 51  1  0  0  0  0
 48 52  1  0  0  0  0
 21 30  1  0  0  0  0
 21 31  1  0  0  0  0
 38 43  1  0  0  0  0
  8 13  1  0  0  0  0
 18 29  1  0  0  0  0
 47 49  1  0  0  0  0
  7 12  1  0  0  0  0
 37 42  1  0  0  0  0
 17 28  1  0  0  0  0
M  END
$$$$

  -OEChem-05262214473D

 52 52  0     1  0  0  0  0  0999 V2000
   -1.8248    0.3424    3.9102 C   0  0  0  0  0  0  0  0  0  0  0  0
   -0.8774   -0.2723    3.4345 O   0  0  0  0  0  0  0  0  0  0  0  0
   -2.2566    0.0600    5.3109 C   0  0  0  0  0  0  0  0  0  0  0  0
   -3.0163   -0.7363    5.3643 H   0  0  0  0  0  0  0  0  0  0  0  0
   -1.4254   -0.2876    5.9452 H   0  0  0  0  0  0  0  0  0  0  0  0
   -2.6947    0.9149    5.8505 H   0  0  0  0  0  0  0  0  0  0  0  0
   -2.5745    1.3149    3.2691 N   0  0  0  0  0  0  0  0  0  0  0  0
   -2.3276    1.7409    1.9167 C   0  0  2  0  0  0  0  0  0  0  0  0
   -0.9926    1.1555    1.4755 C   0  0  0  0  0  0  0  0  0  0  0  0
   -0.1206    0.8028    2.2668 O   0  0  0  0  0  0  0  0  0  0  0  0
   -2.3188    3.2577    1.8072 C   0  0  0  0  0  0  0  0  0  0  0  0
   -3.3395    1.7507    3.7809 H   0  0  0  0  0  0  0  0  0  0  0  0
   -3.1317    1.3224    1.3015 H   0  0  0  0  0  0  0  0  0  0  0  0
   -1.5198    3.6949    2.4169 H   0  0  0  0  0  0  0  0  0  0  0  0
   -2.1594    3.5799    0.7729 H   0  0  0  0  0  0  0  0  0  0  0  0
   -3.2690    3.6789    2.1530 H   0  0  0  0  0  0  0  0  0  0  0  0
   -0.8700    1.1124    0.0921 N   0  0  0  0  0  0  0  0  0  0  0  0
    0.3073    0.6116   -0.5716 C   0  0  2  0  0  0  0  0  0  0  0  0
    0.4847   -0.8400   -0.1409 C   0  0  0  0  0  0  0  0  0  0  0  0
    0.7895   -1.7376   -0.9234 O   0  0  0  0  0  0  0  0  0  0  0  0
    1.5584    1.4270   -0.2250 C   0  0  0  0  0  0  0  0  0  0  0  0
    1.5057    2.8350   -0.7659 C   0  0  0  0  0  0  0  0  0  0  0  0
    1.8308    3.0830   -2.0996 C   0  0  0  0  0  0  0  0  0  0  0  0
    1.1316    3.8884    0.0682 C   0  0  0  0  0  0  0  0  0  0  0  0
    1.7818    4.3845   -2.5990 C   0  0  0  0  0  0  0  0  0  0  0  0
    1.0825    5.1899   -0.4312 C   0  0  0  0  0  0  0  0  0  0  0  0
    1.4075    5.4379   -1.7648 C   0  0  0  0  0  0  0  0  0  0  0  0
   -1.6531    1.4091   -0.4852 H   0  0  0  0  0  0  0  0  0  0  0  0
    0.0971    0.6437   -1.6471 H   0  0  0  0  0  0  0  0  0  0  0  0
    2.4583    0.9207   -0.5997 H   0  0  0  0  0  0  0  0  0  0  0  0
    1.6911    1.4817    0.8636 H   0  0  0  0  0  0  0  0  0  0  0  0
    2.1233    2.2684   -2.7569 H   0  0  0  0  0  0  0  0  0  0  0  0
    0.8765    3.7047    1.1086 H   0  0  0  0  0  0  0  0  0  0  0  0
    2.0360    4.5775   -3.6371 H   0  0  0  0  0  0  0  0  0  0  0  0
    0.7922    6.0100    0.2188 H   0  0  0  0  0  0  0  0  0  0  0  0
    1.3707    6.4514   -2.1535 H   0  0  0  0  0  0  0  0  0  0  0  0
    0.3110   -1.0012    1.2267 N   0  0  0  0  0  0  0  0  0  0  0  0
    0.4462   -2.2732    1.8994 C   0  0  2  0  0  0  0  0  0  0  0  0
   -0.3936   -3.2956    1.1452 C   0  0  0  0  0  0  0  0  0  0  0  0
   -1.3371   -2.9855    0.4208 O   0  0  0  0  0  0  0  0  0  0  0  0
    0.0114   -2.1791    3.3536 C   0  0  0  0  0  0  0  0  0  0  0  0
    0.0771   -0.1840    1.7828 H   0  0  0  0  0  0  0  0  0  0  0  0
    1.5038   -2.5522    1.8387 H   0  0  0  0  0  0  0  0  0  0  0  0
   -1.0457   -1.9005    3.4345 H   0  0  0  0  0  0  0  0  0  0  0  0
    0.1413   -3.1362    3.8693 H   0  0  0  0  0  0  0  0  0  0  0  0
    0.5963   -1.4221    3.8871 H   0  0  0  0  0  0  0  0  0  0  0  0
    0.0072   -4.5977    1.4102 N   0  0  0  0  0  0  0  0  0  0  0  0
   -0.6414   -5.7475    0.8244 C   0  0  0  0  0  0  0  0  0  0  0  0
    0.8116   -4.7609    2.0085 H   0  0  0  0  0  0  0  0  0  0  0  0
   -1.4325   -6.1063    1.4993 H   0  0  0  0  0  0  0  0  0  0  0  0
   -1.0842   -5.4657   -0.1423 H   0  0  0  0  0  0  0  0  0  0  0  0
    0.0987   -6.5465    0.6697 H   0  0  0  0  0  0  0  0  0  0  0  0
 25 27  1  0  0  0  0
 26 27  2  0  0  0  0
 23 25  2  0  0  0  0
 24 26  1  0  0  0  0
 22 23  1  0  0  0  0
 22 24  2  0  0  0  0
 21 22  1  0  0  0  0
  1  3  1  0  0  0  0
  1  7  1  0  0  0  0
  1  2  2  0  0  0  0
 38 39  1  0  0  0  0
 39 47  1  0  0  0  0
 39 40  2  0  0  0  0
  8  9  1  0  0  0  0
  9 17  1  0  0  0  0
  9 10  2  0  0  0  0
 18 19  1  0  0  0  0
 19 37  1  0  0  0  0
 19 20  2  0  0  0  0
 38 41  1  0  0  0  0
  8 11  1  0  0  0  0
 47 48  1  0  0  0  0
 18 21  1  0  0  0  0
 37 38  1  0  0  0  0
  7  8  1  0  0  0  0
 17 18  1  0  0  0  0
 27 36  1  0  0  0  0
 25 34  1  0  0  0  0
 26 35  1  0  0  0  0
 23 32  1  0  0  0  0
 24 33  1  0  0  0  0
  3  4  1  0  0  0  0
  3  5  1  0  0  0  0
  3  6  1  0  0  0  0
 41 44  1  0  0  0  0
 41 45  1  0  0  0  0
 41 46  1  0  0  0  0
 11 14  1  0  0  0  0
 11 15  1  0  0  0  0
 11 16  1  0  0  0  0
 48 50  1  0  0  0  0
 48 51  1  0  0  0  0
 48 52  1  0  0  0  0
 21 30  1  0  0  0  0
 21 31  1  0  0  0  0
 38 43  1  0  0  0  0
  8 13  1  0  0  0  0
 18 29  1  0  0  0  0
 47 49  1  0  0  0  0
  7 12  1  0  0  0  0
 37 42  1  0  0  0  0
 17 28  1  0  0  0  0
M  END
$$$$

  -OEChem-05262214473D

 52 52  0     1  0  0  0  0  0999 V2000
   -1.8248    0.3424    3.9102 C   0  0  0  0  0  0  0  0  0  0  0  0
   -0.8774   -0.2723    3.4345 O   0  0  0  0  0  0  0  0  0  0  0  0
   -2.2566    0.0600    5.3109 C   0  0  0  0  0  0  0  0  0  0  0  0
   -3.0163   -0.7363    5.3643 H   0  0  0  0  0  0  0  0  0  0  0  0
   -1.4254   -0.2876    5.9452 H   0  0  0  0  0  0  0  0  0  0  0  0
   -2.6947    0.9149    5.8505 H   0  0  0  0  0  0  0  0  0  0  0  0
   -2.5745    1.3149    3.2691 N   0  0  0  0  0  0  0  0  0  0  0  0
   -2.3276    1.7409    1.9167 C   0  0  2  0  0  0  0  0  0  0  0  0
   -0.9926    1.1555    1.4755 C   0  0  0  0  0  0  0  0  0  0  0  0
   -0.1206    0.8028    2.2668 O   0  0  0  0  0  0  0  0  0  0  0  0
   -2.3188    3.2577    1.8072 C   0  0  0  0  0  0  0  0  0  0  0  0
   -3.3395    1.7507    3.7809 H   0  0  0  0  0  0  0  0  0  0  0  0
   -3.1317    1.3224    1.3015 H   0  0  0  0  0  0  0  0  0  0  0  0
   -1.5198    3.6949    2.4169 H   0  0  0  0  0  0  0  0  0  0  0  0
   -2.1594    3.5799    0.7729 H   0  0  0  0  0  0  0  0  0  0  0  0
   -3.2690    3.6789    2.1530 H   0  0  0  0  0  0  0  0  0  0  0  0
   -0.8700    1.1124    0.0921 N   0  0  0  0  0  0  0  0  0  0  0  0
    0.3073    0.6116   -0.5716 C   0  0  2  0  0  0  0  0  0  0  0  0
    0.4847   -0.8400   -0.1409 C   0  0  0  0  0  0  0  0  0  0  0  0
    1.0403   -1.6829   -0.8422 O   0  0  0  0  0  0  0  0  0  0  0  0
    1.5584    1.4270   -0.2250 C   0  0  0  0  0  0  0  0  0  0  0  0
    1.5057    2.8350   -0.7659 C   0  0  0  0  0  0  0  0  0  0  0  0
    1.8308    3.0830   -2.0996 C   0  0  0  0  0  0  0  0  0  0  0  0
    1.1316    3.8884    0.0682 C   0  0  0  0  0  0  0  0  0  0  0  0
    1.7818    4.3845   -2.5990 C   0  0  0  0  0  0  0  0  0  0  0  0
    1.0825    5.1899   -0.4312 C   0  0  0  0  0  0  0  0  0  0  0  0
    1.4075    5.4379   -1.7648 C   0  0  0  0  0  0  0  0  0  0  0  0
   -1.6531    1.4091   -0.4852 H   0  0  0  0  0  0  0  0  0  0  0  0
    0.0971    0.6437   -1.6471 H   0  0  0  0  0  0  0  0  0  0  0  0
    2.4583    0.9207   -0.5997 H   0  0  0  0  0  0  0  0  0  0  0  0
    1.6911    1.4817    0.8636 H   0  0  0  0  0  0  0  0  0  0  0  0
    2.1233    2.2684   -2.7569 H   0  0  0  0  0  0  0  0  0  0  0  0
    0.8765    3.7047    1.1086 H   0  0  0  0  0  0  0  0  0  0  0  0
    2.0360    4.5775   -3.6371 H   0  0  0  0  0  0  0  0  0  0  0  0
    0.7922    6.0100    0.2188 H   0  0  0  0  0  0  0  0  0  0  0  0
    1.3707    6.4514   -2.1535 H   0  0  0  0  0  0  0  0  0  0  0  0
   -0.0063   -1.0664    1.1374 N   0  0  0  0  0  0  0  0  0  0  0  0
    0.0572   -2.3514    1.7958 C   0  0  2  0  0  0  0  0  0  0  0  0
   -0.4908   -3.3992    0.8360 C   0  0  0  0  0  0  0  0  0  0  0  0
   -1.2486   -3.1271   -0.0928 O   0  0  0  0  0  0  0  0  0  0  0  0
   -0.7270   -2.3449    3.0988 C   0  0  0  0  0  0  0  0  0  0  0  0
   -0.4316   -0.2899    1.6353 H   0  0  0  0  0  0  0  0  0  0  0  0
    1.1156   -2.5539    1.9930 H   0  0  0  0  0  0  0  0  0  0  0  0
   -1.7898   -2.1437    2.9213 H   0  0  0  0  0  0  0  0  0  0  0  0
   -0.6544   -3.3103    3.6104 H   0  0  0  0  0  0  0  0  0  0  0  0
   -0.3508   -1.5707    3.7762 H   0  0  0  0  0  0  0  0  0  0  0  0
   -0.0683   -4.6798    1.1646 N   0  0  0  0  0  0  0  0  0  0  0  0
   -0.4630   -5.8479    0.4125 C   0  0  0  0  0  0  0  0  0  0  0  0
    0.5748   -4.8102    1.9399 H   0  0  0  0  0  0  0  0  0  0  0  0
   -1.3654   -6.2870    0.8629 H   0  0  0  0  0  0  0  0  0  0  0  0
   -0.6754   -5.5598   -0.6276 H   0  0  0  0  0  0  0  0  0  0  0  0
    0.3516   -6.5870    0.4291 H   0  0  0  0  0  0  0  0  0  0  0  0
 25 27  1  0  0  0  0
 26 27  2  0  0  0  0
 23 25  2  0  0  0  0
 24 26  1  0  0  0  0
 22 23  1  0  0  0  0
 22 24  2  0  0  0  0
 21 22  1  0  0  0  0
  1  3  1  0  0  0  0
  1  7  1  0  0  0  0
  1  2  2  0  0  0  0
 38 39  1  0  0  0  0
 39 47  1  0  0  0  0
 39 40  2  0  0  0  0
  8  9  1  0  0  0  0
  9 17  1  0  0  0  0
  9 10  2  0  0  0  0
 18 19  1  0  0  0  0
 19 37  1  0  0  0  0
 19 20  2  0  0  0  0
 38 41  1  0  0  0  0
  8 11  1  0  0  0  0
 47 48  1  0  0  0  0
 18 21  1  0  0  0  0
 37 38  1  0  0  0  0
  7  8  1  0  0  0  0
 17 18  1  0  0  0  0
 27 36  1  0  0  0  0
 25 34  1  0  0  0  0
 26 35  1  0  0  0  0
 23 32  1  0  0  0  0
 24 33  1  0  0  0  0
  3  4  1  0  0  0  0
  3  5  1  0  0  0  0
  3  6  1  0  0  0  0
 41 44  1  0  0  0  0
 41 45  1  0  0  0  0
 41 46  1  0  0  0  0
 11 14  1  0  0  0  0
 11 15  1  0  0  0  0
 11 16  1  0  0  0  0
 48 50  1  0  0  0  0
 48 51  1  0  0  0  0
 48 52  1  0  0  0  0
 21 30  1  0  0  0  0
 21 31  1  0  0  0  0
 38 43  1  0  0  0  0
  8 13  1  0  0  0  0
 18 29  1  0  0  0  0
 47 49  1  0  0  0  0
  7 12  1  0  0  0  0
 37 42  1  0  0  0  0
 17 28  1  0  0  0  0
M  END
$$$$

  -OEChem-05262214473D

 52 52  0     1  0  0  0  0  0999 V2000
   -1.8248    0.3424    3.9102 C   0  0  0  0  0  0  0  0  0  0  0  0
   -0.8774   -0.2723    3.4345 O   0  0  0  0  0  0  0  0  0  0  0  0
   -2.2566    0.0600    5.3109 C   0  0  0  0  0  0  0  0  0  0  0  0
   -3.0163   -0.7363    5.3643 H   0  0  0  0  0  0  0  0  0  0  0  0
   -1.4254   -0.2876    5.9452 H   0  0  0  0  0  0  0  0  0  0  0  0
   -2.6947    0.9149    5.8505 H   0  0  0  0  0  0  0  0  0  0  0  0
   -2.5745    1.3149    3.2691 N   0  0  0  0  0  0  0  0  0  0  0  0
   -2.3276    1.7409    1.9167 C   0  0  2  0  0  0  0  0  0  0  0  0
   -0.9926    1.1555    1.4755 C   0  0  0  0  0  0  0  0  0  0  0  0
   -0.1206    0.8028    2.2668 O   0  0  0  0  0  0  0  0  0  0  0  0
   -2.3188    3.2577    1.8072 C   0  0  0  0  0  0  0  0  0  0  0  0
   -3.3395    1.7507    3.7809 H   0  0  0  0  0  0  0  0  0  0  0  0
   -3.1317    1.3224    1.3015 H   0  0  0  0  0  0  0  0  0  0  0  0
   -1.5198    3.6949    2.4169 H   0  0  0  0  0  0  0  0  0  0  0  0
   -2.1594    3.5799    0.7729 H   0  0  0  0  0  0  0  0  0  0  0  0
   -3.2690    3.6789    2.1530 H   0  0  0  0  0  0  0  0  0  0  0  0
   -0.8700    1.1124    0.0921 N   0  0  0  0  0  0  0  0  0  0  0  0
    0.3073    0.6116   -0.5716 C   0  0  2  0  0  0  0  0  0  0  0  0
    0.4847   -0.8400   -0.1409 C   0  0  0  0  0  0  0  0  0  0  0  0
    1.2584   -1.6142   -0.7003 O   0  0  0  0  0  0  0  0  0  0  0  0
    1.5584    1.4270   -0.2250 C   0  0  0  0  0  0  0  0  0  0  0  0
    1.5057    2.8350   -0.7659 C   0  0  0  0  0  0  0  0  0  0  0  0
    1.8308    3.0830   -2.0996 C   0  0  0  0  0  0  0  0  0  0  0  0
    1.1316    3.8884    0.0682 C   0  0  0  0  0  0  0  0  0  0  0  0
    1.7818    4.3845   -2.5990 C   0  0  0  0  0  0  0  0  0  0  0  0
    1.0825    5.1899   -0.4312 C   0  0  0  0  0  0  0  0  0  0  0  0
    1.4075    5.4379   -1.7648 C   0  0  0  0  0  0  0  0  0  0  0  0
   -1.6531    1.4091   -0.4852 H   0  0  0  0  0  0  0  0  0  0  0  0
    0.0971    0.6437   -1.6471 H   0  0  0  0  0  0  0  0  0  0  0  0
    2.4583    0.9207   -0.5997 H   0  0  0  0  0  0  0  0  0  0  0  0
    1.6911    1.4817    0.8636 H   0  0  0  0  0  0  0  0  0  0  0  0
    2.1233    2.2684   -2.7569 H   0  0  0  0  0  0  0  0  0  0  0  0
    0.8765    3.7047    1.1086 H   0  0  0  0  0  0  0  0  0  0  0  0
    2.0360    4.5775   -3.6371 H   0  0  0  0  0  0  0  0  0  0  0  0
    0.7922    6.0100    0.2188 H   0  0  0  0  0  0  0  0  0  0  0  0
    1.3707    6.4514   -2.1535 H   0  0  0  0  0  0  0  0  0  0  0  0
   -0.2860   -1.1500    0.9711 N   0  0  0  0  0  0  0  0  0  0  0  0
   -0.2874   -2.4524    1.5976 C   0  0  2  0  0  0  0  0  0  0  0  0
   -0.5008   -3.4971    0.5102 C   0  0  0  0  0  0  0  0  0  0  0  0
   -1.0263   -3.2419   -0.5714 O   0  0  0  0  0  0  0  0  0  0  0  0
   -1.3654   -2.5514    2.6657 C   0  0  0  0  0  0  0  0  0  0  0  0
   -0.8788   -0.4250    1.3643 H   0  0  0  0  0  0  0  0  0  0  0  0
    0.7027   -2.5885    2.0464 H   0  0  0  0  0  0  0  0  0  0  0  0
   -2.3643   -2.4175    2.2349 H   0  0  0  0  0  0  0  0  0  0  0  0
   -1.3465   -3.5288    3.1590 H   0  0  0  0  0  0  0  0  0  0  0  0
   -1.2275   -1.7802    3.4312 H   0  0  0  0  0  0  0  0  0  0  0  0
   -0.0747   -4.7572    0.9063 N   0  0  0  0  0  0  0  0  0  0  0  0
   -0.1818   -5.9195    0.0556 C   0  0  0  0  0  0  0  0  0  0  0  0
    0.3666   -4.8730    1.8138 H   0  0  0  0  0  0  0  0  0  0  0  0
   -1.1307   -6.4374    0.2592 H   0  0  0  0  0  0  0  0  0  0  0  0
   -0.1541   -5.6061   -0.9984 H   0  0  0  0  0  0  0  0  0  0  0  0
    0.6581   -6.6003    0.2579 H   0  0  0  0  0  0  0  0  0  0  0  0
 25 27  1  0  0  0  0
 26 27  2  0  0  0  0
 23 25  2  0  0  0  0
 24 26  1  0  0  0  0
 22 23  1  0  0  0  0
 22 24  2  0  0  0  0
 21 22  1  0  0  0  0
  1  3  1  0  0  0  0
  1  7  1  0  0  0  0
  1  2  2  0  0  0  0
 38 39  1  0  0  0  0
 39 47  1  0  0  0  0
 39 40  2  0  0  0  0
  8  9  1  0  0  0  0
  9 17  1  0  0  0  0
  9 10  2  0  0  0  0
 18 19  1  0  0  0  0
 19 37  1  0  0  0  0
 19 20  2  0  0  0  0
 38 41  1  0  0  0  0
  8 11  1  0  0  0  0
 47 48  1  0  0  0  0
 18 21  1  0  0  0  0
 37 38  1  0  0  0  0
  7  8  1  0  0  0  0
 17 18  1  0  0  0  0
 27 36  1  0  0  0  0
 25 34  1  0  0  0  0
 26 35  1  0  0  0  0
 23 32  1  0  0  0  0
 24 33  1  0  0  0  0
  3  4  1  0  0  0  0
  3  5  1  0  0  0  0
  3  6  1  0  0  0  0
 41 44  1  0  0  0  0
 41 45  1  0  0  0  0
 41 46  1  0  0  0  0
 11 14  1  0  0  0  0
 11 15  1  0  0  0  0
 11 16  1  0  0  0  0
 48 50  1  0  0  0  0
 48 51  1  0  0  0  0
 48 52  1  0  0  0  0
 21 30  1  0  0  0  0
 21 31  1  0  0  0  0
 38 43  1  0  0  0  0
  8 13  1  0  0  0  0
 18 29  1  0  0  0  0
 47 49  1  0  0  0  0
  7 12  1  0  0  0  0
 37 42  1  0  0  0  0
 17 28  1  0  0  0  0
M  END
$$$$

  -OEChem-05262214473D

 52 52  0     1  0  0  0  0  0999 V2000
   -1.8248    0.3424    3.9102 C   0  0  0  0  0  0  0  0  0  0  0  0
   -0.8774   -0.2723    3.4345 O   0  0  0  0  0  0  0  0  0  0  0  0
   -2.2566    0.0600    5.3109 C   0  0  0  0  0  0  0  0  0  0  0  0
   -3.0163   -0.7363    5.3643 H   0  0  0  0  0  0  0  0  0  0  0  0
   -1.4254   -0.2876    5.9452 H   0  0  0  0  0  0  0  0  0  0  0  0
   -2.6947    0.9149    5.8505 H   0  0  0  0  0  0  0  0  0  0  0  0
   -2.5745    1.3149    3.2691 N   0  0  0  0  0  0  0  0  0  0  0  0
   -2.3276    1.7409    1.9167 C   0  0  2  0  0  0  0  0  0  0  0  0
   -0.9926    1.1555    1.4755 C   0  0  0  0  0  0  0  0  0  0  0  0
   -0.1206    0.8028    2.2668 O   0  0  0  0  0  0  0  0  0  0  0  0
   -2.3188    3.2577    1.8072 C   0  0  0  0  0  0  0  0  0  0  0  0
   -3.3395    1.7507    3.7809 H   0  0  0  0  0  0  0  0  0  0  0  0
   -3.1317    1.3224    1.3015 H   0  0  0  0  0  0  0  0  0  0  0  0
   -1.5198    3.6949    2.4169 H   0  0  0  0  0  0  0  0  0  0  0  0
   -2.1594    3.5799    0.7729 H   0  0  0  0  0  0  0  0  0  0  0  0
   -3.2690    3.6789    2.1530 H   0  0  0  0  0  0  0  0  0  0  0  0
   -0.8700    1.1124    0.0921 N   0  0  0  0  0  0  0  0  0  0  0  0
    0.3073    0.6116   -0.5716 C   0  0  2  0  0  0  0  0  0  0  0  0
    0.4847   -0.8400   -0.1409 C   0  0  0  0  0  0  0  0  0  0  0  0
    1.4292   -1.5361   -0.5075 O   0  0  0  0  0  0  0  0  0  0  0  0
    1.5584    1.4270   -0.2250 C   0  0  0  0  0  0  0  0  0  0  0  0
    1.5057    2.8350   -0.7659 C   0  0  0  0  0  0  0  0  0  0  0  0
    1.8308    3.0830   -2.0996 C   0  0  0  0  0  0  0  0  0  0  0  0
    1.1316    3.8884    0.0682 C   0  0  0  0  0  0  0  0  0  0  0  0
    1.7818    4.3845   -2.5990 C   0  0  0  0  0  0  0  0  0  0  0  0
    1.0825    5.1899   -0.4312 C   0  0  0  0  0  0  0  0  0  0  0  0
    1.4075    5.4379   -1.7648 C   0  0  0  0  0  0  0  0  0  0  0  0
   -1.6531    1.4091   -0.4852 H   0  0  0  0  0  0  0  0  0  0  0  0
    0.0971    0.6437   -1.6471 H   0  0  0  0  0  0  0  0  0  0  0  0
    2.4583    0.9207   -0.5997 H   0  0  0  0  0  0  0  0  0  0  0  0
    1.6911    1.4817    0.8636 H   0  0  0  0  0  0  0  0  0  0  0  0
    2.1233    2.2684   -2.7569 H   0  0  0  0  0  0  0  0  0  0  0  0
    0.8765    3.7047    1.1086 H   0  0  0  0  0  0  0  0  0  0  0  0
    2.0360    4.5775   -3.6371 H   0  0  0  0  0  0  0  0  0  0  0  0
    0.7922    6.0100    0.2188 H   0  0  0  0  0  0  0  0  0  0  0  0
    1.3707    6.4514   -2.1535 H   0  0  0  0  0  0  0  0  0  0  0  0
   -0.5090   -1.2461    0.7389 N   0  0  0  0  0  0  0  0  0  0  0  0
   -0.5639   -2.5691    1.3182 C   0  0  2  0  0  0  0  0  0  0  0  0
   -0.4231   -3.5826    0.1901 C   0  0  0  0  0  0  0  0  0  0  0  0
   -0.6852   -3.3221   -0.9823 O   0  0  0  0  0  0  0  0  0  0  0  0
   -1.8601   -2.7845    2.0838 C   0  0  0  0  0  0  0  0  0  0  0  0
   -1.2342   -0.5800    0.9882 H   0  0  0  0  0  0  0  0  0  0  0  0
    0.2932   -2.6537    1.9951 H   0  0  0  0  0  0  0  0  0  0  0  0
   -2.7301   -2.7034    1.4220 H   0  0  0  0  0  0  0  0  0  0  0  0
   -1.8877   -3.7768    2.5459 H   0  0  0  0  0  0  0  0  0  0  0  0
   -1.9740   -2.0363    2.8757 H   0  0  0  0  0  0  0  0  0  0  0  0
   -0.0116   -4.8247    0.6529 N   0  0  0  0  0  0  0  0  0  0  0  0
    0.1830   -5.9573   -0.2220 C   0  0  0  0  0  0  0  0  0  0  0  0
    0.2012   -4.9452    1.6387 H   0  0  0  0  0  0  0  0  0  0  0  0
   -0.7441   -6.5473   -0.2705 H   0  0  0  0  0  0  0  0  0  0  0  0
    0.4442   -5.6015   -1.2295 H   0  0  0  0  0  0  0  0  0  0  0  0
    0.9974   -6.5857    0.1676 H   0  0  0  0  0  0  0  0  0  0  0  0
 25 27  1  0  0  0  0
 26 27  2  0  0  0  0
 23 25  2  0  0  0  0
 24 26  1  0  0  0  0
 22 23  1  0  0  0  0
 22 24  2  0  0  0  0
 21 22  1  0  0  0  0
  1  3  1  0  0  0  0
  1  7  1  0  0  0  0
  1  2  2  0  0  0  0
 38 39  1  0  0  0  0
 39 47  1  0  0  0  0
 39 40  2  0  0  0  0
  8  9  1  0  0  0  0
  9 17  1  0  0  0  0
  9 10  2  0  0  0  0
 18 19  1  0  0  0  0
 19 37  1  0  0  0  0
 19 20  2  0  0  0  0
 38 41  1  0  0  0  0
  8 11  1  0  0  0  0
 47 48  1  0  0  0  0
 18 21  1  0  0  0  0
 37 38  1  0  0  0  0
  7  8  1  0  0  0  0
 17 18  1  0  0  0  0
 27 36  1  0  0  0  0
 25 34  1  0  0  0  0
 26 35  1  0  0  0  0
 23 32  1  0  0  0  0
 24 33  1  0  0  0  0
  3  4  1  0  0  0  0
  3  5  1  0  0  0  0
  3  6  1  0  0  0  0
 41 44  1  0  0  0  0
 41 45  1  0  0  0  0
 41 46  1  0  0  0  0
 11 14  1  0  0  0  0
 11 15  1  0  0  0  0
 11 16  1  0  0  0  0
 48 50  1  0  0  0  0
 48 51  1  0  0  0  0
 48 52  1  0  0  0  0
 21 30  1  0  0  0  0
 21 31  1  0  0  0  0
 38 43  1  0  0  0  0
  8 13  1  0  0  0  0
 18 29  1  0  0  0  0
 47 49  1  0  0  0  0
  7 12  1  0  0  0  0
 37 42  1  0  0  0  0
 17 28  1  0  0  0  0
M  END
$$$$

  -OEChem-05262214473D

 52 52  0     1  0  0  0  0  0999 V2000
   -1.8248    0.3424    3.9102 C   0  0  0  0  0  0  0  0  0  0  0  0
   -0.8774   -0.2723    3.4345 O   0  0  0  0  0  0  0  0  0  0  0  0
   -2.2566    0.0600    5.3109 C   0  0  0  0  0  0  0  0  0  0  0  0
   -3.0163   -0.7363    5.3643 H   0  0  0  0  0  0  0  0  0  0  0  0
   -1.4254   -0.2876    5.9452 H   0  0  0  0  0  0  0  0  0  0  0  0
   -2.6947    0.9149    5.8505 H   0  0  0  0  0  0  0  0  0  0  0  0
   -2.5745    1.3149    3.2691 N   0  0  0  0  0  0  0  0  0  0  0  0
   -2.3276    1.7409    1.9167 C   0  0  2  0  0  0  0  0  0  0  0  0
   -0.9926    1.1555    1.4755 C   0  0  0  0  0  0  0  0  0  0  0  0
   -0.1206    0.8028    2.2668 O   0  0  0  0  0  0  0  0  0  0  0  0
   -2.3188    3.2577    1.8072 C   0  0  0  0  0  0  0  0  0  0  0  0
   -3.3395    1.7507    3.7809 H   0  0  0  0  0  0  0  0  0  0  0  0
   -3.1317    1.3224    1.3015 H   0  0  0  0  0  0  0  0  0  0  0  0
   -1.5198    3.6949    2.4169 H   0  0  0  0  0  0  0  0  0  0  0  0
   -2.1594    3.5799    0.7729 H   0  0  0  0  0  0  0  0  0  0  0  0
   -3.2690    3.6789    2.1530 H   0  0  0  0  0  0  0  0  0  0  0  0
   -0.8700    1.1124    0.0921 N   0  0  0  0  0  0  0  0  0  0  0  0
    0.3073    0.6116   -0.5716 C   0  0  2  0  0  0  0  0  0  0  0  0
    0.4847   -0.8400   -0.1409 C   0  0  0  0  0  0  0  0  0  0  0  0
    1.5409   -1.4540   -0.2767 O   0  0  0  0  0  0  0  0  0  0  0  0
    1.5584    1.4270   -0.2250 C   0  0  0  0  0  0  0  0  0  0  0  0
    1.5057    2.8350   -0.7659 C   0  0  0  0  0  0  0  0  0  0  0  0
    1.8308    3.0830   -2.0996 C   0  0  0  0  0  0  0  0  0  0  0  0
    1.1316    3.8884    0.0682 C   0  0  0  0  0  0  0  0  0  0  0  0
    1.7818    4.3845   -2.5990 C   0  0  0  0  0  0  0  0  0  0  0  0
    1.0825    5.1899   -0.4312 C   0  0  0  0  0  0  0  0  0  0  0  0
    1.4075    5.4379   -1.7648 C   0  0  0  0  0  0  0  0  0  0  0  0
   -1.6531    1.4091   -0.4852 H   0  0  0  0  0  0  0  0  0  0  0  0
    0.0971    0.6437   -1.6471 H   0  0  0  0  0  0  0  0  0  0  0  0
    2.4583    0.9207   -0.5997 H   0  0  0  0  0  0  0  0  0  0  0  0
    1.6911    1.4817    0.8636 H   0  0  0  0  0  0  0  0  0  0  0  0
    2.1233    2.2684   -2.7569 H   0  0  0  0  0  0  0  0  0  0  0  0
    0.8765    3.7047    1.1086 H   0  0  0  0  0  0  0  0  0  0  0  0
    2.0360    4.5775   -3.6371 H   0  0  0  0  0  0  0  0  0  0  0  0
    0.7922    6.0100    0.2188 H   0  0  0  0  0  0  0  0  0  0  0  0
    1.3707    6.4514   -2.1535 H   0  0  0  0  0  0  0  0  0  0  0  0
   -0.6602   -1.3483    0.4568 N   0  0  0  0  0  0  0  0  0  0  0  0
   -0.7536   -2.6936    0.9766 C   0  0  2  0  0  0  0  0  0  0  0  0
   -0.2629   -3.6498   -0.1025 C   0  0  0  0  0  0  0  0  0  0  0  0
   -0.2486   -3.3623   -1.2975 O   0  0  0  0  0  0  0  0  0  0  0  0
   -2.1775   -3.0283    1.3928 C   0  0  0  0  0  0  0  0  0  0  0  0
   -1.4734   -0.7443    0.5327 H   0  0  0  0  0  0  0  0  0  0  0  0
   -0.0849   -2.7452    1.8427 H   0  0  0  0  0  0  0  0  0  0  0  0
   -2.8622   -2.9818    0.5381 H   0  0  0  0  0  0  0  0  0  0  0  0
   -2.2413   -4.0376    1.8128 H   0  0  0  0  0  0  0  0  0  0  0  0
   -2.5394   -2.3215    2.1473 H   0  0  0  0  0  0  0  0  0  0  0  0
    0.1167   -4.8776    0.4216 N   0  0  0  0  0  0  0  0  0  0  0  0
    0.6065   -5.9587   -0.4014 C   0  0  0  0  0  0  0  0  0  0  0  0
    0.0898   -5.0217    1.4267 H   0  0  0  0  0  0  0  0  0  0  0  0
   -0.2322   -6.6093   -0.6902 H   0  0  0  0  0  0  0  0  0  0  0  0
    1.0787   -5.5464   -1.3052 H   0  0  0  0  0  0  0  0  0  0  0  0
    1.3463   -6.5440    0.1645 H   0  0  0  0  0  0  0  0  0  0  0  0
 25 27  1  0  0  0  0
 26 27  2  0  0  0  0
 23 25  2  0  0  0  0
 24 26  1  0  0  0  0
 22 23  1  0  0  0  0
 22 24  2  0  0  0  0
 21 22  1  0  0  0  0
  1  3  1  0  0  0  0
  1  7  1  0  0  0  0
  1  2  2  0  0  0  0
 38 39  1  0  0  0  0
 39 47  1  0  0  0  0
 39 40  2  0  0  0  0
  8  9  1  0  0  0  0
  9 17  1  0  0  0  0
  9 10  2  0  0  0  0
 18 19  1  0  0  0  0
 19 37  1  0  0  0  0
 19 20  2  0  0  0  0
 38 41  1  0  0  0  0
  8 11  1  0  0  0  0
 47 48  1  0  0  0  0
 18 21  1  0  0  0  0
 37 38  1  0  0  0  0
  7  8  1  0  0  0  0
 17 18  1  0  0  0  0
 27 36  1  0  0  0  0
 25 34  1  0  0  0  0
 26 35  1  0  0  0  0
 23 32  1  0  0  0  0
 24 33  1  0  0  0  0
  3  4  1  0  0  0  0
  3  5  1  0  0  0  0
  3  6  1  0  0  0  0
 41 44  1  0  0  0  0
 41 45  1  0  0  0  0
 41 46  1  0  0  0  0
 11 14  1  0  0  0  0
 11 15  1  0  0  0  0
 11 16  1  0  0  0  0
 48 50  1  0  0  0  0
 48 51  1  0  0  0  0
 48 52  1  0  0  0  0
 21 30  1  0  0  0  0
 21 31  1  0  0  0  0
 38 43  1  0  0  0  0
  8 13  1  0  0  0  0
 18 29  1  0  0  0  0
 47 49  1  0  0  0  0
  7 12  1  0  0  0  0
 37 42  1  0  0  0  0
 17 28  1  0  0  0  0
M  END
$$$$

  -OEChem-05262214473D

 52 52  0     1  0  0  0  0  0999 V2000
   -1.8248    0.3424    3.9102 C   0  0  0  0  0  0  0  0  0  0  0  0
   -0.8774   -0.2723    3.4345 O   0  0  0  0  0  0  0  0  0  0  0  0
   -2.2566    0.0600    5.3109 C   0  0  0  0  0  0  0  0  0  0  0  0
   -3.0163   -0.7363    5.3643 H   0  0  0  0  0  0  0  0  0  0  0  0
   -1.4254   -0.2876    5.9452 H   0  0  0  0  0  0  0  0  0  0  0  0
   -2.6947    0.9149    5.8505 H   0  0  0  0  0  0  0  0  0  0  0  0
   -2.5745    1.3149    3.2691 N   0  0  0  0  0  0  0  0  0  0  0  0
   -2.3276    1.7409    1.9167 C   0  0  2  0  0  0  0  0  0  0  0  0
   -0.9926    1.1555    1.4755 C   0  0  0  0  0  0  0  0  0  0  0  0
   -0.1206    0.8028    2.2668 O   0  0  0  0  0  0  0  0  0  0  0  0
   -2.3188    3.2577    1.8072 C   0  0  0  0  0  0  0  0  0  0  0  0
   -3.3395    1.7507    3.7809 H   0  0  0  0  0  0  0  0  0  0  0  0
   -3.1317    1.3224    1.3015 H   0  0  0  0  0  0  0  0  0  0  0  0
   -1.5198    3.6949    2.4169 H   0  0  0  0  0  0  0  0  0  0  0  0
   -2.1594    3.5799    0.7729 H   0  0  0  0  0  0  0  0  0  0  0  0
   -3.2690    3.6789    2.1530 H   0  0  0  0  0  0  0  0  0  0  0  0
   -0.8700    1.1124    0.0921 N   0  0  0  0  0  0  0  0  0  0  0  0
    0.3073    0.6116   -0.5716 C   0  0  2  0  0  0  0  0  0  0  0  0
    0.4847   -0.8400   -0.1409 C   0  0  0  0  0  0  0  0  0  0  0  0
    1.5859   -1.3734   -0.0239 O   0  0  0  0  0  0  0  0  0  0  0  0
    1.5584    1.4270   -0.2250 C   0  0  0  0  0  0  0  0  0  0  0  0
    1.5057    2.8350   -0.7659 C   0  0  0  0  0  0  0  0  0  0  0  0
    1.8308    3.0830   -2.0996 C   0  0  0  0  0  0  0  0  0  0  0  0
    1.1316    3.8884    0.0682 C   0  0  0  0  0  0  0  0  0  0  0  0
    1.7818    4.3845   -2.5990 C   0  0  0  0  0  0  0  0  0  0  0  0
    1.0825    5.1899   -0.4312 C   0  0  0  0  0  0  0  0  0  0  0  0
    1.4075    5.4379   -1.7648 C   0  0  0  0  0  0  0  0  0  0  0  0
   -1.6531    1.4091   -0.4852 H   0  0  0  0  0  0  0  0  0  0  0  0
    0.0971    0.6437   -1.6471 H   0  0  0  0  0  0  0  0  0  0  0  0
    2.4583    0.9207   -0.5997 H   0  0  0  0  0  0  0  0  0  0  0  0
    1.6911    1.4817    0.8636 H   0  0  0  0  0  0  0  0  0  0  0  0
    2.1233    2.2684   -2.7569 H   0  0  0  0  0  0  0  0  0  0  0  0
    0.8765    3.7047    1.1086 H   0  0  0  0  0  0  0  0  0  0  0  0
    2.0360    4.5775   -3.6371 H   0  0  0  0  0  0  0  0  0  0  0  0
    0.7922    6.0100    0.2188 H   0  0  0  0  0  0  0  0  0  0  0  0
    1.3707    6.4514   -2.1535 H   0  0  0  0  0  0  0  0  0  0  0  0
   -0.7293   -1.4495    0.1440 N   0  0  0  0  0  0  0  0  0  0  0  0
   -0.8436   -2.8175    0.5961 C   0  0  2  0  0  0  0  0  0  0  0  0
   -0.0312   -3.6942   -0.3476 C   0  0  0  0  0  0  0  0  0  0  0  0
    0.2537   -3.3597   -1.4957 O   0  0  0  0  0  0  0  0  0  0  0  0
   -2.2960   -3.2662    0.6398 C   0  0  0  0  0  0  0  0  0  0  0  0
   -1.5802   -0.9069    0.0289 H   0  0  0  0  0  0  0  0  0  0  0  0
   -0.4059   -2.8565    1.5996 H   0  0  0  0  0  0  0  0  0  0  0  0
   -2.7516   -3.2338   -0.3566 H   0  0  0  0  0  0  0  0  0  0  0  0
   -2.3831   -4.2932    1.0097 H   0  0  0  0  0  0  0  0  0  0  0  0
   -2.8851   -2.6164    1.2959 H   0  0  0  0  0  0  0  0  0  0  0  0
    0.3016   -4.9124    0.2283 N   0  0  0  0  0  0  0  0  0  0  0  0
    1.0599   -5.9238   -0.4703 C   0  0  0  0  0  0  0  0  0  0  0  0
    0.0401   -5.0974    1.1922 H   0  0  0  0  0  0  0  0  0  0  0  0
    0.3703   -6.6190   -0.9714 H   0  0  0  0  0  0  0  0  0  0  0  0
    1.7063   -5.4445   -1.2203 H   0  0  0  0  0  0  0  0  0  0  0  0
    1.6810   -6.4781    0.2487 H   0  0  0  0  0  0  0  0  0  0  0  0
 25 27  1  0  0  0  0
 26 27  2  0  0  0  0
 23 25  2  0  0  0  0
 24 26  1  0  0  0  0
 22 23  1  0  0  0  0
 22 24  2  0  0  0  0
 21 22  1  0  0  0  0
  1  3  1  0  0  0  0
  1  7  1  0  0  0  0
  1  2  2  0  0  0  0
 38 39  1  0  0  0  0
 39 47  1  0  0  0  0
 39 40  2  0  0  0  0
  8  9  1  0  0  0  0
  9 17  1  0  0  0  0
  9 10  2  0  0  0  0
 18 19  1  0  0  0  0
 19 37  1  0  0  0  0
 19 20  2  0  0  0  0
 38 41  1  0  0  0  0
  8 11  1  0  0  0  0
 47 48  1  0  0  0  0
 18 21  1  0  0  0  0
 37 38  1  0  0  0  0
  7  8  1  0  0  0  0
 17 18  1  0  0  0  0
 27 36  1  0  0  0  0
 25 34  1  0  0  0  0
 26 35  1  0  0  0  0
 23 32  1  0  0  0  0
 24 33  1  0  0  0  0
  3  4  1  0  0  0  0
  3  5  1  0  0  0  0
  3  6  1  0  0  0  0
 41 44  1  0  0  0  0
 41 45  1  0  0  0  0
 41 46  1  0  0  0  0
 11 14  1  0  0  0  0
 11 15  1  0  0  0  0
 11 16  1  0  0  0  0
 48 50  1  0  0  0  0
 48 51  1  0  0  0  0
 48 52  1  0  0  0  0
 21 30  1  0  0  0  0
 21 31  1  0  0  0  0
 38 43  1  0  0  0  0
  8 13  1  0  0  0  0
 18 29  1  0  0  0  0
 47 49  1  0  0  0  0
  7 12  1  0  0  0  0
 37 42  1  0  0  0  0
 17 28  1  0  0  0  0
M  END
$$$$

  -OEChem-05262214473D

 52 52  0     1  0  0  0  0  0999 V2000
   -1.8248    0.3424    3.9102 C   0  0  0  0  0  0  0  0  0  0  0  0
   -0.8774   -0.2723    3.4345 O   0  0  0  0  0  0  0  0  0  0  0  0
   -2.2566    0.0600    5.3109 C   0  0  0  0  0  0  0  0  0  0  0  0
   -3.0163   -0.7363    5.3643 H   0  0  0  0  0  0  0  0  0  0  0  0
   -1.4254   -0.2876    5.9452 H   0  0  0  0  0  0  0  0  0  0  0  0
   -2.6947    0.9149    5.8505 H   0  0  0  0  0  0  0  0  0  0  0  0
   -2.5745    1.3149    3.2691 N   0  0  0  0  0  0  0  0  0  0  0  0
   -2.3276    1.7409    1.9167 C   0  0  2  0  0  0  0  0  0  0  0  0
   -0.9926    1.1555    1.4755 C   0  0  0  0  0  0  0  0  0  0  0  0
   -0.1206    0.8028    2.2668 O   0  0  0  0  0  0  0  0  0  0  0  0
   -2.3188    3.2577    1.8072 C   0  0  0  0  0  0  0  0  0  0  0  0
   -3.3395    1.7507    3.7809 H   0  0  0  0  0  0  0  0  0  0  0  0
   -3.1317    1.3224    1.3015 H   0  0  0  0  0  0  0  0  0  0  0  0
   -1.5198    3.6949    2.4169 H   0  0  0  0  0  0  0  0  0  0  0  0
   -2.1594    3.5799    0.7729 H   0  0  0  0  0  0  0  0  0  0  0  0
   -3.2690    3.6789    2.1530 H   0  0  0  0  0  0  0  0  0  0  0  0
   -0.8700    1.1124    0.0921 N   0  0  0  0  0  0  0  0  0  0  0  0
    0.3073    0.6116   -0.5716 C   0  0  2  0  0  0  0  0  0  0  0  0
    0.4847   -0.8400   -0.1409 C   0  0  0  0  0  0  0  0  0  0  0  0
    1.5612   -1.3000    0.2339 O   0  0  0  0  0  0  0  0  0  0  0  0
    1.5584    1.4270   -0.2250 C   0  0  0  0  0  0  0  0  0  0  0  0
    1.5057    2.8350   -0.7659 C   0  0  0  0  0  0  0  0  0  0  0  0
    1.8308    3.0830   -2.0996 C   0  0  0  0  0  0  0  0  0  0  0  0
    1.1316    3.8884    0.0682 C   0  0  0  0  0  0  0  0  0  0  0  0
    1.7818    4.3845   -2.5990 C   0  0  0  0  0  0  0  0  0  0  0  0
    1.0825    5.1899   -0.4312 C   0  0  0  0  0  0  0  0  0  0  0  0
    1.4075    5.4379   -1.7648 C   0  0  0  0  0  0  0  0  0  0  0  0
   -1.6531    1.4091   -0.4852 H   0  0  0  0  0  0  0  0  0  0  0  0
    0.0971    0.6437   -1.6471 H   0  0  0  0  0  0  0  0  0  0  0  0
    2.4583    0.9207   -0.5997 H   0  0  0  0  0  0  0  0  0  0  0  0
    1.6911    1.4817    0.8636 H   0  0  0  0  0  0  0  0  0  0  0  0
    2.1233    2.2684   -2.7569 H   0  0  0  0  0  0  0  0  0  0  0  0
    0.8765    3.7047    1.1086 H   0  0  0  0  0  0  0  0  0  0  0  0
    2.0360    4.5775   -3.6371 H   0  0  0  0  0  0  0  0  0  0  0  0
    0.7922    6.0100    0.2188 H   0  0  0  0  0  0  0  0  0  0  0  0
    1.3707    6.4514   -2.1535 H   0  0  0  0  0  0  0  0  0  0  0  0
   -0.7115   -1.5430   -0.1783 N   0  0  0  0  0  0  0  0  0  0  0  0
   -0.8277   -2.9323    0.2027 C   0  0  2  0  0  0  0  0  0  0  0  0
    0.2564   -3.7128   -0.5287 C   0  0  0  0  0  0  0  0  0  0  0  0
    0.7876   -3.3145   -1.5632 O   0  0  0  0  0  0  0  0  0  0  0  0
   -2.2075   -3.4820   -0.1239 C   0  0  0  0  0  0  0  0  0  0  0  0
   -1.5473   -1.0565   -0.4891 H   0  0  0  0  0  0  0  0  0  0  0  0
   -0.6479   -2.9803    1.2823 H   0  0  0  0  0  0  0  0  0  0  0  0
   -2.4058   -3.4421   -1.2012 H   0  0  0  0  0  0  0  0  0  0  0  0
   -2.3034   -4.5262    0.1913 H   0  0  0  0  0  0  0  0  0  0  0  0
   -2.9878   -2.9008    0.3794 H   0  0  0  0  0  0  0  0  0  0  0  0
    0.5303   -4.9266    0.0860 N   0  0  0  0  0  0  0  0  0  0  0  0
    1.5123   -5.8548   -0.4241 C   0  0  0  0  0  0  0  0  0  0  0  0
    0.0553   -5.1670    0.9511 H   0  0  0  0  0  0  0  0  0  0  0  0
    1.0222   -6.5760   -1.0948 H   0  0  0  0  0  0  0  0  0  0  0  0
    2.2841   -5.3028   -0.9805 H   0  0  0  0  0  0  0  0  0  0  0  0
    1.9788   -6.3925    0.4145 H   0  0  0  0  0  0  0  0  0  0  0  0
 25 27  1  0  0  0  0
 26 27  2  0  0  0  0
 23 25  2  0  0  0  0
 24 26  1  0  0  0  0
 22 23  1  0  0  0  0
 22 24  2  0  0  0  0
 21 22  1  0  0  0  0
  1  3  1  0  0  0  0
  1  7  1  0  0  0  0
  1  2  2  0  0  0  0
 38 39  1  0  0  0  0
 39 47  1  0  0  0  0
 39 40  2  0  0  0  0
  8  9  1  0  0  0  0
  9 17  1  0  0  0  0
  9 10  2  0  0  0  0
 18 19  1  0  0  0  0
 19 37  1  0  0  0  0
 19 20  2  0  0  0  0
 38 41  1  0  0  0  0
  8 11  1  0  0  0  0
 47 48  1  0  0  0  0
 18 21  1  0  0  0  0
 37 38  1  0  0  0  0
  7  8  1  0  0  0  0
 17 18  1  0  0  0  0
 27 36  1  0  0  0  0
 25 34  1  0  0  0  0
 26 35  1  0  0  0  0
 23 32  1  0  0  0  0
 24 33  1  0  0  0  0
  3  4  1  0  0  0  0
  3  5  1  0  0  0  0
  3  6  1  0  0  0  0
 41 44  1  0  0  0  0
 41 45  1  0  0  0  0
 41 46  1  0  0  0  0
 11 14  1  0  0  0  0
 11 15  1  0  0  0  0
 11 16  1  0  0  0  0
 48 50  1  0  0  0  0
 48 51  1  0  0  0  0
 48 52  1  0  0  0  0
 21 30  1  0  0  0  0
 21 31  1  0  0  0  0
 38 43  1  0  0  0  0
  8 13  1  0  0  0  0
 18 29  1  0  0  0  0
 47 49  1  0  0  0  0
  7 12  1  0  0  0  0
 37 42  1  0  0  0  0
 17 28  1  0  0  0  0
M  END
$$$$

  -OEChem-05262214473D

 52 52  0     1  0  0  0  0  0999 V2000
   -1.8248    0.3424    3.9102 C   0  0  0  0  0  0  0  0  0  0  0  0
   -0.8774   -0.2723    3.4345 O   0  0  0  0  0  0  0  0  0  0  0  0
   -2.2566    0.0600    5.3109 C   0  0  0  0  0  0  0  0  0  0  0  0
   -3.0163   -0.7363    5.3643 H   0  0  0  0  0  0  0  0  0  0  0  0
   -1.4254   -0.2876    5.9452 H   0  0  0  0  0  0  0  0  0  0  0  0
   -2.6947    0.9149    5.8505 H   0  0  0  0  0  0  0  0  0  0  0  0
   -2.5745    1.3149    3.2691 N   0  0  0  0  0  0  0  0  0  0  0  0
   -2.3276    1.7409    1.9167 C   0  0  2  0  0  0  0  0  0  0  0  0
   -0.9926    1.1555    1.4755 C   0  0  0  0  0  0  0  0  0  0  0  0
   -0.1206    0.8028    2.2668 O   0  0  0  0  0  0  0  0  0  0  0  0
   -2.3188    3.2577    1.8072 C   0  0  0  0  0  0  0  0  0  0  0  0
   -3.3395    1.7507    3.7809 H   0  0  0  0  0  0  0  0  0  0  0  0
   -3.1317    1.3224    1.3015 H   0  0  0  0  0  0  0  0  0  0  0  0
   -1.5198    3.6949    2.4169 H   0  0  0  0  0  0  0  0  0  0  0  0
   -2.1594    3.5799    0.7729 H   0  0  0  0  0  0  0  0  0  0  0  0
   -3.2690    3.6789    2.1530 H   0  0  0  0  0  0  0  0  0  0  0  0
   -0.8700    1.1124    0.0921 N   0  0  0  0  0  0  0  0  0  0  0  0
    0.3073    0.6116   -0.5716 C   0  0  2  0  0  0  0  0  0  0  0  0
    0.4847   -0.8400   -0.1409 C   0  0  0  0  0  0  0  0  0  0  0  0
    1.4685   -1.2386    0.4790 O   0  0  0  0  0  0  0  0  0  0  0  0
    1.5584    1.4270   -0.2250 C   0  0  0  0  0  0  0  0  0  0  0  0
    1.5057    2.8350   -0.7659 C   0  0  0  0  0  0  0  0  0  0  0  0
    1.8308    3.0830   -2.0996 C   0  0  0  0  0  0  0  0  0  0  0  0
    1.1316    3.8884    0.0682 C   0  0  0  0  0  0  0  0  0  0  0  0
    1.7818    4.3845   -2.5990 C   0  0  0  0  0  0  0  0  0  0  0  0
    1.0825    5.1899   -0.4312 C   0  0  0  0  0  0  0  0  0  0  0  0
    1.4075    5.4379   -1.7648 C   0  0  0  0  0  0  0  0  0  0  0  0
   -1.6531    1.4091   -0.4852 H   0  0  0  0  0  0  0  0  0  0  0  0
    0.0971    0.6437   -1.6471 H   0  0  0  0  0  0  0  0  0  0  0  0
    2.4583    0.9207   -0.5997 H   0  0  0  0  0  0  0  0  0  0  0  0
    1.6911    1.4817    0.8636 H   0  0  0  0  0  0  0  0  0  0  0  0
    2.1233    2.2684   -2.7569 H   0  0  0  0  0  0  0  0  0  0  0  0
    0.8765    3.7047    1.1086 H   0  0  0  0  0  0  0  0  0  0  0  0
    2.0360    4.5775   -3.6371 H   0  0  0  0  0  0  0  0  0  0  0  0
    0.7922    6.0100    0.2188 H   0  0  0  0  0  0  0  0  0  0  0  0
    1.3707    6.4514   -2.1535 H   0  0  0  0  0  0  0  0  0  0  0  0
   -0.6080   -1.6222   -0.4880 N   0  0  0  0  0  0  0  0  0  0  0  0
   -0.7070   -3.0301   -0.1768 C   0  0  2  0  0  0  0  0  0  0  0  0
    0.5801   -3.7043   -0.6332 C   0  0  0  0  0  0  0  0  0  0  0  0
    1.3166   -3.2297   -1.4955 O   0  0  0  0  0  0  0  0  0  0  0  0
   -1.9180   -3.6609   -0.8463 C   0  0  0  0  0  0  0  0  0  0  0  0
   -1.3769   -1.1830   -0.9857 H   0  0  0  0  0  0  0  0  0  0  0  0
   -0.7944   -3.1079    0.9124 H   0  0  0  0  0  0  0  0  0  0  0  0
   -1.8484   -3.5926   -1.9381 H   0  0  0  0  0  0  0  0  0  0  0  0
   -2.0077   -4.7209   -0.5866 H   0  0  0  0  0  0  0  0  0  0  0  0
   -2.8402   -3.1555   -0.5398 H   0  0  0  0  0  0  0  0  0  0  0  0
    0.7873   -4.9194    0.0045 N   0  0  0  0  0  0  0  0  0  0  0  0
    1.9328   -5.7564   -0.2659 C   0  0  0  0  0  0  0  0  0  0  0  0
    0.1346   -5.2259    0.7199 H   0  0  0  0  0  0  0  0  0  0  0  0
    1.6792   -6.4830   -1.0520 H   0  0  0  0  0  0  0  0  0  0  0  0
    2.7727   -5.1308   -0.6022 H   0  0  0  0  0  0  0  0  0  0  0  0
    2.2192   -6.2930    0.6506 H   0  0  0  0  0  0  0  0  0  0  0  0
 25 27  1  0  0  0  0
 26 27  2  0  0  0  0
 23 25  2  0  0  0  0
 24 26  1  0  0  0  0
 22 23  1  0  0  0  0
 22 24  2  0  0  0  0
 21 22  1  0  0  0  0
  1  3  1  0  0  0  0
  1  7  1  0  0  0  0
  1  2  2  0  0  0  0
 38 39  1  0  0  0  0
 39 47  1  0  0  0  0
 39 40  2  0  0  0  0
  8  9  1  0  0  0  0
  9 17  1  0  0  0  0
  9 10  2  0  0  0  0
 18 19  1  0  0  0  0
 19 37  1  0  0  0  0
 19 20  2  0  0  0  0
 38 41  1  0  0  0  0
  8 11  1  0  0  0  0
 47 48  1  0  0  0  0
 18 21  1  0  0  0  0
 37 38  1  0  0  0  0
  7  8  1  0  0  0  0
 17 18  1  0  0  0  0
 27 36  1  0  0  0  0
 25 34  1  0  0  0  0
 26 35  1  0  0  0  0
 23 32  1  0  0  0  0
 24 33  1  0  0  0  0
  3  4  1  0  0  0  0
  3  5  1  0  0  0  0
  3  6  1  0  0  0  0
 41 44  1  0  0  0  0
 41 45  1  0  0  0  0
 41 46  1  0  0  0  0
 11 14  1  0  0  0  0
 11 15  1  0  0  0  0
 11 16  1  0  0  0  0
 48 50  1  0  0  0  0
 48 51  1  0  0  0  0
 48 52  1  0  0  0  0
 21 30  1  0  0  0  0
 21 31  1  0  0  0  0
 38 43  1  0  0  0  0
  8 13  1  0  0  0  0
 18 29  1  0  0  0  0
 47 49  1  0  0  0  0
  7 12  1  0  0  0  0
 37 42  1  0  0  0  0
 17 28  1  0  0  0  0
M  END
$$$$

  -OEChem-05262214473D

 52 52  0     1  0  0  0  0  0999 V2000
   -1.8248    0.3424    3.9102 C   0  0  0  0  0  0  0  0  0  0  0  0
   -0.8774   -0.2723    3.4345 O   0  0  0  0  0  0  0  0  0  0  0  0
   -2.2566    0.0600    5.3109 C   0  0  0  0  0  0  0  0  0  0  0  0
   -3.0163   -0.7363    5.3643 H   0  0  0  0  0  0  0  0  0  0  0  0
   -1.4254   -0.2876    5.9452 H   0  0  0  0  0  0  0  0  0  0  0  0
   -2.6947    0.9149    5.8505 H   0  0  0  0  0  0  0  0  0  0  0  0
   -2.5745    1.3149    3.2691 N   0  0  0  0  0  0  0  0  0  0  0  0
   -2.3276    1.7409    1.9167 C   0  0  2  0  0  0  0  0  0  0  0  0
   -0.9926    1.1555    1.4755 C   0  0  0  0  0  0  0  0  0  0  0  0
   -0.1206    0.8028    2.2668 O   0  0  0  0  0  0  0  0  0  0  0  0
   -2.3188    3.2577    1.8072 C   0  0  0  0  0  0  0  0  0  0  0  0
   -3.3395    1.7507    3.7809 H   0  0  0  0  0  0  0  0  0  0  0  0
   -3.1317    1.3224    1.3015 H   0  0  0  0  0  0  0  0  0  0  0  0
   -1.5198    3.6949    2.4169 H   0  0  0  0  0  0  0  0  0  0  0  0
   -2.1594    3.5799    0.7729 H   0  0  0  0  0  0  0  0  0  0  0  0
   -3.2690    3.6789    2.1530 H   0  0  0  0  0  0  0  0  0  0  0  0
   -0.8700    1.1124    0.0921 N   0  0  0  0  0  0  0  0  0  0  0  0
    0.3073    0.6116   -0.5716 C   0  0  2  0  0  0  0  0  0  0  0  0
    0.4847   -0.8400   -0.1409 C   0  0  0  0  0  0  0  0  0  0  0  0
    1.3140   -1.1935    0.6948 O   0  0  0  0  0  0  0  0  0  0  0  0
    1.5584    1.4270   -0.2250 C   0  0  0  0  0  0  0  0  0  0  0  0
    1.5057    2.8350   -0.7659 C   0  0  0  0  0  0  0  0  0  0  0  0
    1.8308    3.0830   -2.0996 C   0  0  0  0  0  0  0  0  0  0  0  0
    1.1316    3.8884    0.0682 C   0  0  0  0  0  0  0  0  0  0  0  0
    1.7818    4.3845   -2.5990 C   0  0  0  0  0  0  0  0  0  0  0  0
    1.0825    5.1899   -0.4312 C   0  0  0  0  0  0  0  0  0  0  0  0
    1.4075    5.4379   -1.7648 C   0  0  0  0  0  0  0  0  0  0  0  0
   -1.6531    1.4091   -0.4852 H   0  0  0  0  0  0  0  0  0  0  0  0
    0.0971    0.6437   -1.6471 H   0  0  0  0  0  0  0  0  0  0  0  0
    2.4583    0.9207   -0.5997 H   0  0  0  0  0  0  0  0  0  0  0  0
    1.6911    1.4817    0.8636 H   0  0  0  0  0  0  0  0  0  0  0  0
    2.1233    2.2684   -2.7569 H   0  0  0  0  0  0  0  0  0  0  0  0
    0.8765    3.7047    1.1086 H   0  0  0  0  0  0  0  0  0  0  0  0
    2.0360    4.5775   -3.6371 H   0  0  0  0  0  0  0  0  0  0  0  0
    0.7922    6.0100    0.2188 H   0  0  0  0  0  0  0  0  0  0  0  0
    1.3707    6.4514   -2.1535 H   0  0  0  0  0  0  0  0  0  0  0  0
   -0.4260   -1.6819   -0.7640 N   0  0  0  0  0  0  0  0  0  0  0  0
   -0.4898   -3.1044   -0.5166 C   0  0  2  0  0  0  0  0  0  0  0  0
    0.9179   -3.6692   -0.6542 C   0  0  0  0  0  0  0  0  0  0  0  0
    1.8047   -3.1112   -1.2971 O   0  0  0  0  0  0  0  0  0  0  0  0
   -1.4473   -3.7909   -1.4781 C   0  0  0  0  0  0  0  0  0  0  0  0
   -1.0807   -1.2779   -1.4273 H   0  0  0  0  0  0  0  0  0  0  0  0
   -0.8354   -3.2308    0.5152 H   0  0  0  0  0  0  0  0  0  0  0  0
   -1.1175   -3.6750   -2.5170 H   0  0  0  0  0  0  0  0  0  0  0  0
   -1.5162   -4.8639   -1.2710 H   0  0  0  0  0  0  0  0  0  0  0  0
   -2.4525   -3.3630   -1.3989 H   0  0  0  0  0  0  0  0  0  0  0  0
    1.0551   -4.8911   -0.0106 N   0  0  0  0  0  0  0  0  0  0  0  0
    2.2928   -5.6355   -0.0065 C   0  0  0  0  0  0  0  0  0  0  0  0
    0.2725   -5.2701    0.5143 H   0  0  0  0  0  0  0  0  0  0  0  0
    2.2965   -6.3464   -0.8459 H   0  0  0  0  0  0  0  0  0  0  0  0
    3.1389   -4.9404   -0.1112 H   0  0  0  0  0  0  0  0  0  0  0  0
    2.3861   -6.1865    0.9409 H   0  0  0  0  0  0  0  0  0  0  0  0
 25 27  1  0  0  0  0
 26 27  2  0  0  0  0
 23 25  2  0  0  0  0
 24 26  1  0  0  0  0
 22 23  1  0  0  0  0
 22 24  2  0  0  0  0
 21 22  1  0  0  0  0
  1  3  1  0  0  0  0
  1  7  1  0  0  0  0
  1  2  2  0  0  0  0
 38 39  1  0  0  0  0
 39 47  1  0  0  0  0
 39 40  2  0  0  0  0
  8  9  1  0  0  0  0
  9 17  1  0  0  0  0
  9 10  2  0  0  0  0
 18 19  1  0  0  0  0
 19 37  1  0  0  0  0
 19 20  2  0  0  0  0
 38 41  1  0  0  0  0
  8 11  1  0  0  0  0
 47 48  1  0  0  0  0
 18 21  1  0  0  0  0
 37 38  1  0  0  0  0
  7  8  1  0  0  0  0
 17 18  1  0  0  0  0
 27 36  1  0  0  0  0
 25 34  1  0  0  0  0
 26 35  1  0  0  0  0
 23 32  1  0  0  0  0
 24 33  1  0  0  0  0
  3  4  1  0  0  0  0
  3  5  1  0  0  0  0
  3  6  1  0  0  0  0
 41 44  1  0  0  0  0
 41 45  1  0  0  0  0
 41 46  1  0  0  0  0
 11 14  1  0  0  0  0
 11 15  1  0  0  0  0
 11 16  1  0  0  0  0
 48 50  1  0  0  0  0
 48 51  1  0  0  0  0
 48 52  1  0  0  0  0
 21 30  1  0  0  0  0
 21 31  1  0  0  0  0
 38 43  1  0  0  0  0
  8 13  1  0  0  0  0
 18 29  1  0  0  0  0
 47 49  1  0  0  0  0
  7 12  1  0  0  0  0
 37 42  1  0  0  0  0
 17 28  1  0  0  0  0
M  END
$$$$

  -OEChem-05262214473D

 52 52  0     1  0  0  0  0  0999 V2000
   -1.8248    0.3424    3.9102 C   0  0  0  0  0  0  0  0  0  0  0  0
   -0.8774   -0.2723    3.4345 O   0  0  0  0  0  0  0  0  0  0  0  0
   -2.2566    0.0600    5.3109 C   0  0  0  0  0  0  0  0  0  0  0  0
   -3.0163   -0.7363    5.3643 H   0  0  0  0  0  0  0  0  0  0  0  0
   -1.4254   -0.2876    5.9452 H   0  0  0  0  0  0  0  0  0  0  0  0
   -2.6947    0.9149    5.8505 H   0  0  0  0  0  0  0  0  0  0  0  0
   -2.5745    1.3149    3.2691 N   0  0  0  0  0  0  0  0  0  0  0  0
   -2.3276    1.7409    1.9167 C   0  0  2  0  0  0  0  0  0  0  0  0
   -0.9926    1.1555    1.4755 C   0  0  0  0  0  0  0  0  0  0  0  0
   -0.1206    0.8028    2.2668 O   0  0  0  0  0  0  0  0  0  0  0  0
   -2.3188    3.2577    1.8072 C   0  0  0  0  0  0  0  0  0  0  0  0
   -3.3395    1.7507    3.7809 H   0  0  0  0  0  0  0  0  0  0  0  0
   -3.1317    1.3224    1.3015 H   0  0  0  0  0  0  0  0  0  0  0  0
   -1.5198    3.6949    2.4169 H   0  0  0  0  0  0  0  0  0  0  0  0
   -2.1594    3.5799    0.7729 H   0  0  0  0  0  0  0  0  0  0  0  0
   -3.2690    3.6789    2.1530 H   0  0  0  0  0  0  0  0  0  0  0  0
   -0.8700    1.1124    0.0921 N   0  0  0  0  0  0  0  0  0  0  0  0
    0.3073    0.6116   -0.5716 C   0  0  2  0  0  0  0  0  0  0  0  0
    0.4847   -0.8400   -0.1409 C   0  0  0  0  0  0  0  0  0  0  0  0
    1.1083   -1.1677    0.8665 O   0  0  0  0  0  0  0  0  0  0  0  0
    1.5584    1.4270   -0.2250 C   0  0  0  0  0  0  0  0  0  0  0  0
    1.5057    2.8350   -0.7659 C   0  0  0  0  0  0  0  0  0  0  0  0
    1.8308    3.0830   -2.0996 C   0  0  0  0  0  0  0  0  0  0  0  0
    1.1316    3.8884    0.0682 C   0  0  0  0  0  0  0  0  0  0  0  0
    1.7818    4.3845   -2.5990 C   0  0  0  0  0  0  0  0  0  0  0  0
    1.0825    5.1899   -0.4312 C   0  0  0  0  0  0  0  0  0  0  0  0
    1.4075    5.4379   -1.7648 C   0  0  0  0  0  0  0  0  0  0  0  0
   -1.6531    1.4091   -0.4852 H   0  0  0  0  0  0  0  0  0  0  0  0
    0.0971    0.6437   -1.6471 H   0  0  0  0  0  0  0  0  0  0  0  0
    2.4583    0.9207   -0.5997 H   0  0  0  0  0  0  0  0  0  0  0  0
    1.6911    1.4817    0.8636 H   0  0  0  0  0  0  0  0  0  0  0  0
    2.1233    2.2684   -2.7569 H   0  0  0  0  0  0  0  0  0  0  0  0
    0.8765    3.7047    1.1086 H   0  0  0  0  0  0  0  0  0  0  0  0
    2.0360    4.5775   -3.6371 H   0  0  0  0  0  0  0  0  0  0  0  0
    0.7922    6.0100    0.2188 H   0  0  0  0  0  0  0  0  0  0  0  0
    1.3707    6.4514   -2.1535 H   0  0  0  0  0  0  0  0  0  0  0  0
   -0.1778   -1.7179   -0.9876 N   0  0  0  0  0  0  0  0  0  0  0  0
   -0.1907   -3.1500   -0.7935 C   0  0  2  0  0  0  0  0  0  0  0  0
    1.2468   -3.6100   -0.5902 C   0  0  0  0  0  0  0  0  0  0  0  0
    2.2186   -2.9670   -0.9817 O   0  0  0  0  0  0  0  0  0  0  0  0
   -0.8274   -3.8629   -1.9763 C   0  0  0  0  0  0  0  0  0  0  0  0
   -0.6788   -1.3345   -1.7837 H   0  0  0  0  0  0  0  0  0  0  0  0
   -0.7681   -3.3405    0.1177 H   0  0  0  0  0  0  0  0  0  0  0  0
   -0.2627   -3.6837   -2.8985 H   0  0  0  0  0  0  0  0  0  0  0  0
   -0.8623   -4.9454   -1.8152 H   0  0  0  0  0  0  0  0  0  0  0  0
   -1.8512   -3.5093   -2.1395 H   0  0  0  0  0  0  0  0  0  0  0  0
    1.3155   -4.8438    0.0417 N   0  0  0  0  0  0  0  0  0  0  0  0
    2.5679   -5.5001    0.3364 C   0  0  0  0  0  0  0  0  0  0  0  0
    0.4595   -5.2965    0.3484 H   0  0  0  0  0  0  0  0  0  0  0  0
    2.8320   -6.1756   -0.4907 H   0  0  0  0  0  0  0  0  0  0  0  0
    3.3577   -4.7445    0.4590 H   0  0  0  0  0  0  0  0  0  0  0  0
    2.4679   -6.0802    1.2657 H   0  0  0  0  0  0  0  0  0  0  0  0
 25 27  1  0  0  0  0
 26 27  2  0  0  0  0
 23 25  2  0  0  0  0
 24 26  1  0  0  0  0
 22 23  1  0  0  0  0
 22 24  2  0  0  0  0
 21 22  1  0  0  0  0
  1  3  1  0  0  0  0
  1  7  1  0  0  0  0
  1  2  2  0  0  0  0
 38 39  1  0  0  0  0
 39 47  1  0  0  0  0
 39 40  2  0  0  0  0
  8  9  1  0  0  0  0
  9 17  1  0  0  0  0
  9 10  2  0  0  0  0
 18 19  1  0  0  0  0
 19 37  1  0  0  0  0
 19 20  2  0  0  0  0
 38 41  1  0  0  0  0
  8 11  1  0  0  0  0
 47 48  1  0  0  0  0
 18 21  1  0  0  0  0
 37 38  1  0  0  0  0
  7  8  1  0  0  0  0
 17 18  1  0  0  0  0
 27 36  1  0  0  0  0
 25 34  1  0  0  0  0
 26 35  1  0  0  0  0
 23 32  1  0  0  0  0
 24 33  1  0  0  0  0
  3  4  1  0  0  0  0
  3  5  1  0  0  0  0
  3  6  1  0  0  0  0
 41 44  1  0  0  0  0
 41 45  1  0  0  0  0
 41 46  1  0  0  0  0
 11 14  1  0  0  0  0
 11 15  1  0  0  0  0
 11 16  1  0  0  0  0
 48 50  1  0  0  0  0
 48 51  1  0  0  0  0
 48 52  1  0  0  0  0
 21 30  1  0  0  0  0
 21 31  1  0  0  0  0
 38 43  1  0  0  0  0
  8 13  1  0  0  0  0
 18 29  1  0  0  0  0
 47 49  1  0  0  0  0
  7 12  1  0  0  0  0
 37 42  1  0  0  0  0
 17 28  1  0  0  0  0
M  END
$$$$

  -OEChem-05262214473D

 52 52  0     1  0  0  0  0  0999 V2000
   -1.8248    0.3424    3.9102 C   0  0  0  0  0  0  0  0  0  0  0  0
   -0.8774   -0.2723    3.4345 O   0  0  0  0  0  0  0  0  0  0  0  0
   -2.2566    0.0600    5.3109 C   0  0  0  0  0  0  0  0  0  0  0  0
   -3.0163   -0.7363    5.3643 H   0  0  0  0  0  0  0  0  0  0  0  0
   -1.4254   -0.2876    5.9452 H   0  0  0  0  0  0  0  0  0  0  0  0
   -2.6947    0.9149    5.8505 H   0  0  0  0  0  0  0  0  0  0  0  0
   -2.5745    1.3149    3.2691 N   0  0  0  0  0  0  0  0  0  0  0  0
   -2.3276    1.7409    1.9167 C   0  0  2  0  0  0  0  0  0  0  0  0
   -0.9926    1.1555    1.4755 C   0  0  0  0  0  0  0  0  0  0  0  0
   -0.1206    0.8028    2.2668 O   0  0  0  0  0  0  0  0  0  0  0  0
   -2.3188    3.2577    1.8072 C   0  0  0  0  0  0  0  0  0  0  0  0
   -3.3395    1.7507    3.7809 H   0  0  0  0  0  0  0  0  0  0  0  0
   -3.1317    1.3224    1.3015 H   0  0  0  0  0  0  0  0  0  0  0  0
   -1.5198    3.6949    2.4169 H   0  0  0  0  0  0  0  0  0  0  0  0
   -2.1594    3.5799    0.7729 H   0  0  0  0  0  0  0  0  0  0  0  0
   -3.2690    3.6789    2.1530 H   0  0  0  0  0  0  0  0  0  0  0  0
   -0.8700    1.1124    0.0921 N   0  0  0  0  0  0  0  0  0  0  0  0
    0.3073    0.6116   -0.5716 C   0  0  2  0  0  0  0  0  0  0  0  0
    0.4847   -0.8400   -0.1409 C   0  0  0  0  0  0  0  0  0  0  0  0
    0.8654   -1.1629    0.9824 O   0  0  0  0  0  0  0  0  0  0  0  0
    1.5584    1.4270   -0.2250 C   0  0  0  0  0  0  0  0  0  0  0  0
    1.5057    2.8350   -0.7659 C   0  0  0  0  0  0  0  0  0  0  0  0
    1.8308    3.0830   -2.0996 C   0  0  0  0  0  0  0  0  0  0  0  0
    1.1316    3.8884    0.0682 C   0  0  0  0  0  0  0  0  0  0  0  0
    1.7818    4.3845   -2.5990 C   0  0  0  0  0  0  0  0  0  0  0  0
    1.0825    5.1899   -0.4312 C   0  0  0  0  0  0  0  0  0  0  0  0
    1.4075    5.4379   -1.7648 C   0  0  0  0  0  0  0  0  0  0  0  0
   -1.6531    1.4091   -0.4852 H   0  0  0  0  0  0  0  0  0  0  0  0
    0.0971    0.6437   -1.6471 H   0  0  0  0  0  0  0  0  0  0  0  0
    2.4583    0.9207   -0.5997 H   0  0  0  0  0  0  0  0  0  0  0  0
    1.6911    1.4817    0.8636 H   0  0  0  0  0  0  0  0  0  0  0  0
    2.1233    2.2684   -2.7569 H   0  0  0  0  0  0  0  0  0  0  0  0
    0.8765    3.7047    1.1086 H   0  0  0  0  0  0  0  0  0  0  0  0
    2.0360    4.5775   -3.6371 H   0  0  0  0  0  0  0  0  0  0  0  0
    0.7922    6.0100    0.2188 H   0  0  0  0  0  0  0  0  0  0  0  0
    1.3707    6.4514   -2.1535 H   0  0  0  0  0  0  0  0  0  0  0  0
    0.1197   -1.7278   -1.1434 N   0  0  0  0  0  0  0  0  0  0  0  0
    0.1697   -3.1638   -0.9887 C   0  0  2  0  0  0  0  0  0  0  0  0
    1.5444   -3.5307   -0.4455 C   0  0  0  0  0  0  0  0  0  0  0  0
    2.5301   -2.8070   -0.5707 O   0  0  0  0  0  0  0  0  0  0  0  0
   -0.1006   -3.8722   -2.3070 C   0  0  0  0  0  0  0  0  0  0  0  0
   -0.1987   -1.3491   -2.0306 H   0  0  0  0  0  0  0  0  0  0  0  0
   -0.5972   -3.4295   -0.2529 H   0  0  0  0  0  0  0  0  0  0  0  0
    0.6576   -3.6182   -3.0567 H   0  0  0  0  0  0  0  0  0  0  0  0
   -0.0906   -4.9600   -2.1822 H   0  0  0  0  0  0  0  0  0  0  0  0
   -1.0771   -3.5842   -2.7111 H   0  0  0  0  0  0  0  0  0  0  0  0
    1.5507   -4.7806    0.1577 N   0  0  0  0  0  0  0  0  0  0  0  0
    2.7391   -5.3596    0.7395 C   0  0  0  0  0  0  0  0  0  0  0  0
    0.6830   -5.3033    0.2334 H   0  0  0  0  0  0  0  0  0  0  0  0
    3.2492   -5.9821   -0.0104 H   0  0  0  0  0  0  0  0  0  0  0  0
    3.4142   -4.5564    1.0696 H   0  0  0  0  0  0  0  0  0  0  0  0
    2.4591   -5.9812    1.6027 H   0  0  0  0  0  0  0  0  0  0  0  0
 25 27  1  0  0  0  0
 26 27  2  0  0  0  0
 23 25  2  0  0  0  0
 24 26  1  0  0  0  0
 22 23  1  0  0  0  0
 22 24  2  0  0  0  0
 21 22  1  0  0  0  0
  1  3  1  0  0  0  0
  1  7  1  0  0  0  0
  1  2  2  0  0  0  0
 38 39  1  0  0  0  0
 39 47  1  0  0  0  0
 39 40  2  0  0  0  0
  8  9  1  0  0  0  0
  9 17  1  0  0  0  0
  9 10  2  0  0  0  0
 18 19  1  0  0  0  0
 19 37  1  0  0  0  0
 19 20  2  0  0  0  0
 38 41  1  0  0  0  0
  8 11  1  0  0  0  0
 47 48  1  0  0  0  0
 18 21  1  0  0  0  0
 37 38  1  0  0  0  0
  7  8  1  0  0  0  0
 17 18  1  0  0  0  0
 27 36  1  0  0  0  0
 25 34  1  0  0  0  0
 26 35  1  0  0  0  0
 23 32  1  0  0  0  0
 24 33  1  0  0  0  0
  3  4  1  0  0  0  0
  3  5  1  0  0  0  0
  3  6  1  0  0  0  0
 41 44  1  0  0  0  0
 41 45  1  0  0  0  0
 41 46  1  0  0  0  0
 11 14  1  0  0  0  0
 11 15  1  0  0  0  0
 11 16  1  0  0  0  0
 48 50  1  0  0  0  0
 48 51  1  0  0  0  0
 48 52  1  0  0  0  0
 21 30  1  0  0  0  0
 21 31  1  0  0  0  0
 38 43  1  0  0  0  0
  8 13  1  0  0  0  0
 18 29  1  0  0  0  0
 47 49  1  0  0  0  0
  7 12  1  0  0  0  0
 37 42  1  0  0  0  0
 17 28  1  0  0  0  0
M  END
$$$$

  -OEChem-05262214473D

 52 52  0     1  0  0  0  0  0999 V2000
   -1.8248    0.3424    3.9102 C   0  0  0  0  0  0  0  0  0  0  0  0
   -0.8774   -0.2723    3.4345 O   0  0  0  0  0  0  0  0  0  0  0  0
   -2.2566    0.0600    5.3109 C   0  0  0  0  0  0  0  0  0  0  0  0
   -3.0163   -0.7363    5.3643 H   0  0  0  0  0  0  0  0  0  0  0  0
   -1.4254   -0.2876    5.9452 H   0  0  0  0  0  0  0  0  0  0  0  0
   -2.6947    0.9149    5.8505 H   0  0  0  0  0  0  0  0  0  0  0  0
   -2.5745    1.3149    3.2691 N   0  0  0  0  0  0  0  0  0  0  0  0
   -2.3276    1.7409    1.9167 C   0  0  2  0  0  0  0  0  0  0  0  0
   -0.9926    1.1555    1.4755 C   0  0  0  0  0  0  0  0  0  0  0  0
   -0.1206    0.8028    2.2668 O   0  0  0  0  0  0  0  0  0  0  0  0
   -2.3188    3.2577    1.8072 C   0  0  0  0  0  0  0  0  0  0  0  0
   -3.3395    1.7507    3.7809 H   0  0  0  0  0  0  0  0  0  0  0  0
   -3.1317    1.3224    1.3015 H   0  0  0  0  0  0  0  0  0  0  0  0
   -1.5198    3.6949    2.4169 H   0  0  0  0  0  0  0  0  0  0  0  0
   -2.1594    3.5799    0.7729 H   0  0  0  0  0  0  0  0  0  0  0  0
   -3.2690    3.6789    2.1530 H   0  0  0  0  0  0  0  0  0  0  0  0
   -0.8700    1.1124    0.0921 N   0  0  0  0  0  0  0  0  0  0  0  0
    0.3073    0.6116   -0.5716 C   0  0  2  0  0  0  0  0  0  0  0  0
    0.4847   -0.8400   -0.1409 C   0  0  0  0  0  0  0  0  0  0  0  0
    0.6019   -1.1797    1.0346 O   0  0  0  0  0  0  0  0  0  0  0  0
    1.5584    1.4270   -0.2250 C   0  0  0  0  0  0  0  0  0  0  0  0
    1.5057    2.8350   -0.7659 C   0  0  0  0  0  0  0  0  0  0  0  0
    1.8308    3.0830   -2.0996 C   0  0  0  0  0  0  0  0  0  0  0  0
    1.1316    3.8884    0.0682 C   0  0  0  0  0  0  0  0  0  0  0  0
    1.7818    4.3845   -2.5990 C   0  0  0  0  0  0  0  0  0  0  0  0
    1.0825    5.1899   -0.4312 C   0  0  0  0  0  0  0  0  0  0  0  0
    1.4075    5.4379   -1.7648 C   0  0  0  0  0  0  0  0  0  0  0  0
   -1.6531    1.4091   -0.4852 H   0  0  0  0  0  0  0  0  0  0  0  0
    0.0971    0.6437   -1.6471 H   0  0  0  0  0  0  0  0  0  0  0  0
    2.4583    0.9207   -0.5997 H   0  0  0  0  0  0  0  0  0  0  0  0
    1.6911    1.4817    0.8636 H   0  0  0  0  0  0  0  0  0  0  0  0
    2.1233    2.2684   -2.7569 H   0  0  0  0  0  0  0  0  0  0  0  0
    0.8765    3.7047    1.1086 H   0  0  0  0  0  0  0  0  0  0  0  0
    2.0360    4.5775   -3.6371 H   0  0  0  0  0  0  0  0  0  0  0  0
    0.7922    6.0100    0.2188 H   0  0  0  0  0  0  0  0  0  0  0  0
    1.3707    6.4514   -2.1535 H   0  0  0  0  0  0  0  0  0  0  0  0
    0.4462   -1.7109   -1.2210 N   0  0  0  0  0  0  0  0  0  0  0  0
    0.5670   -3.1450   -1.0888 C   0  0  2  0  0  0  0  0  0  0  0  0
    1.7904   -3.4367   -0.2300 C   0  0  0  0  0  0  0  0  0  0  0  0
    2.7181   -2.6420   -0.0920 O   0  0  0  0  0  0  0  0  0  0  0  0
    0.6836   -3.8180   -2.4475 C   0  0  0  0  0  0  0  0  0  0  0  0
    0.3270   -1.3206   -2.1512 H   0  0  0  0  0  0  0  0  0  0  0  0
   -0.3342   -3.4919   -0.5715 H   0  0  0  0  0  0  0  0  0  0  0  0
    1.5807   -3.4828   -2.9807 H   0  0  0  0  0  0  0  0  0  0  0  0
    0.7463   -4.9066   -2.3470 H   0  0  0  0  0  0  0  0  0  0  0  0
   -0.1831   -3.5828   -3.0746 H   0  0  0  0  0  0  0  0  0  0  0  0
    1.7446   -4.7059    0.3297 N   0  0  0  0  0  0  0  0  0  0  0  0
    2.7949   -5.2235    1.1753 C   0  0  0  0  0  0  0  0  0  0  0  0
    0.9277   -5.2900    0.1773 H   0  0  0  0  0  0  0  0  0  0  0  0
    3.5196   -5.7792    0.5621 H   0  0  0  0  0  0  0  0  0  0  0  0
    3.3046   -4.3890    1.6790 H   0  0  0  0  0  0  0  0  0  0  0  0
    2.3603   -5.8965    1.9291 H   0  0  0  0  0  0  0  0  0  0  0  0
 25 27  1  0  0  0  0
 26 27  2  0  0  0  0
 23 25  2  0  0  0  0
 24 26  1  0  0  0  0
 22 23  1  0  0  0  0
 22 24  2  0  0  0  0
 21 22  1  0  0  0  0
  1  3  1  0  0  0  0
  1  7  1  0  0  0  0
  1  2  2  0  0  0  0
 38 39  1  0  0  0  0
 39 47  1  0  0  0  0
 39 40  2  0  0  0  0
  8  9  1  0  0  0  0
  9 17  1  0  0  0  0
  9 10  2  0  0  0  0
 18 19  1  0  0  0  0
 19 37  1  0  0  0  0
 19 20  2  0  0  0  0
 38 41  1  0  0  0  0
  8 11  1  0  0  0  0
 47 48  1  0  0  0  0
 18 21  1  0  0  0  0
 37 38  1  0  0  0  0
  7  8  1  0  0  0  0
 17 18  1  0  0  0  0
 27 36  1  0  0  0  0
 25 34  1  0  0  0  0
 26 35  1  0  0  0  0
 23 32  1  0  0  0  0
 24 33  1  0  0  0  0
  3  4  1  0  0  0  0
  3  5  1  0  0  0  0
  3  6  1  0  0  0  0
 41 44  1  0  0  0  0
 41 45  1  0  0  0  0
 41 46  1  0  0  0  0
 11 14  1  0  0  0  0
 11 15  1  0  0  0  0
 11 16  1  0  0  0  0
 48 50  1  0  0  0  0
 48 51  1  0  0  0  0
 48 52  1  0  0  0  0
 21 30  1  0  0  0  0
 21 31  1  0  0  0  0
 38 43  1  0  0  0  0
  8 13  1  0  0  0  0
 18 29  1  0  0  0  0
 47 49  1  0  0  0  0
  7 12  1  0  0  0  0
 37 42  1  0  0  0  0
 17 28  1  0  0  0  0
M  END
$$$$

  -OEChem-05262214473D

 52 52  0     1  0  0  0  0  0999 V2000
   -1.8248    0.3424    3.9102 C   0  0  0  0  0  0  0  0  0  0  0  0
   -0.8774   -0.2723    3.4345 O   0  0  0  0  0  0  0  0  0  0  0  0
   -2.2566    0.0600    5.3109 C   0  0  0  0  0  0  0  0  0  0  0  0
   -3.0163   -0.7363    5.3643 H   0  0  0  0  0  0  0  0  0  0  0  0
   -1.4254   -0.2876    5.9452 H   0  0  0  0  0  0  0  0  0  0  0  0
   -2.6947    0.9149    5.8505 H   0  0  0  0  0  0  0  0  0  0  0  0
   -2.5745    1.3149    3.2691 N   0  0  0  0  0  0  0  0  0  0  0  0
   -2.3276    1.7409    1.9167 C   0  0  2  0  0  0  0  0  0  0  0  0
   -0.9926    1.1555    1.4755 C   0  0  0  0  0  0  0  0  0  0  0  0
   -0.1206    0.8028    2.2668 O   0  0  0  0  0  0  0  0  0  0  0  0
   -2.3188    3.2577    1.8072 C   0  0  0  0  0  0  0  0  0  0  0  0
   -3.3395    1.7507    3.7809 H   0  0  0  0  0  0  0  0  0  0  0  0
   -3.1317    1.3224    1.3015 H   0  0  0  0  0  0  0  0  0  0  0  0
   -1.5198    3.6949    2.4169 H   0  0  0  0  0  0  0  0  0  0  0  0
   -2.1594    3.5799    0.7729 H   0  0  0  0  0  0  0  0  0  0  0  0
   -3.2690    3.6789    2.1530 H   0  0  0  0  0  0  0  0  0  0  0  0
   -0.8700    1.1124    0.0921 N   0  0  0  0  0  0  0  0  0  0  0  0
    0.3073    0.6116   -0.5716 C   0  0  2  0  0  0  0  0  0  0  0  0
    0.4847   -0.8400   -0.1409 C   0  0  0  0  0  0  0  0  0  0  0  0
    0.3357   -1.2166    1.0196 O   0  0  0  0  0  0  0  0  0  0  0  0
    1.5584    1.4270   -0.2250 C   0  0  0  0  0  0  0  0  0  0  0  0
    1.5057    2.8350   -0.7659 C   0  0  0  0  0  0  0  0  0  0  0  0
    1.8308    3.0830   -2.0996 C   0  0  0  0  0  0  0  0  0  0  0  0
    1.1316    3.8884    0.0682 C   0  0  0  0  0  0  0  0  0  0  0  0
    1.7818    4.3845   -2.5990 C   0  0  0  0  0  0  0  0  0  0  0  0
    1.0825    5.1899   -0.4312 C   0  0  0  0  0  0  0  0  0  0  0  0
    1.4075    5.4379   -1.7648 C   0  0  0  0  0  0  0  0  0  0  0  0
   -1.6531    1.4091   -0.4852 H   0  0  0  0  0  0  0  0  0  0  0  0
    0.0971    0.6437   -1.6471 H   0  0  0  0  0  0  0  0  0  0  0  0
    2.4583    0.9207   -0.5997 H   0  0  0  0  0  0  0  0  0  0  0  0
    1.6911    1.4817    0.8636 H   0  0  0  0  0  0  0  0  0  0  0  0
    2.1233    2.2684   -2.7569 H   0  0  0  0  0  0  0  0  0  0  0  0
    0.8765    3.7047    1.1086 H   0  0  0  0  0  0  0  0  0  0  0  0
    2.0360    4.5775   -3.6371 H   0  0  0  0  0  0  0  0  0  0  0  0
    0.7922    6.0100    0.2188 H   0  0  0  0  0  0  0  0  0  0  0  0
    1.3707    6.4514   -2.1535 H   0  0  0  0  0  0  0  0  0  0  0  0
    0.7794   -1.6683   -1.2149 N   0  0  0  0  0  0  0  0  0  0  0  0
    0.9740   -3.0947   -1.0870 C   0  0  2  0  0  0  0  0  0  0  0  0
    1.9680   -3.3344    0.0417 C   0  0  0  0  0  0  0  0  0  0  0  0
    2.7696   -2.4834    0.4216 O   0  0  0  0  0  0  0  0  0  0  0  0
    1.4718   -3.7041   -2.3883 C   0  0  0  0  0  0  0  0  0  0  0  0
    0.8624   -1.2510   -2.1373 H   0  0  0  0  0  0  0  0  0  0  0  0
    0.0029   -3.5234   -0.8163 H   0  0  0  0  0  0  0  0  0  0  0  0
    2.4438   -3.2868   -2.6757 H   0  0  0  0  0  0  0  0  0  0  0  0
    1.5914   -4.7889   -2.2982 H   0  0  0  0  0  0  0  0  0  0  0  0
    0.7700   -3.5052   -3.2054 H   0  0  0  0  0  0  0  0  0  0  0  0
    1.8841   -4.6247    0.5458 N   0  0  0  0  0  0  0  0  0  0  0  0
    2.7314   -5.1011    1.6140 C   0  0  0  0  0  0  0  0  0  0  0  0
    1.1769   -5.2576    0.1837 H   0  0  0  0  0  0  0  0  0  0  0  0
    3.6249   -5.5806    1.1879 H   0  0  0  0  0  0  0  0  0  0  0  0
    3.0362   -4.2537    2.2457 H   0  0  0  0  0  0  0  0  0  0  0  0
    2.1783   -5.8317    2.2226 H   0  0  0  0  0  0  0  0  0  0  0  0
 25 27  1  0  0  0  0
 26 27  2  0  0  0  0
 23 25  2  0  0  0  0
 24 26  1  0  0  0  0
 22 23  1  0  0  0  0
 22 24  2  0  0  0  0
 21 22  1  0  0  0  0
  1  3  1  0  0  0  0
  1  7  1  0  0  0  0
  1  2  2  0  0  0  0
 38 39  1  0  0  0  0
 39 47  1  0  0  0  0
 39 40  2  0  0  0  0
  8  9  1  0  0  0  0
  9 17  1  0  0  0  0
  9 10  2  0  0  0  0
 18 19  1  0  0  0  0
 19 37  1  0  0  0  0
 19 20  2  0  0  0  0
 38 41  1  0  0  0  0
  8 11  1  0  0  0  0
 47 48  1  0  0  0  0
 18 21  1  0  0  0  0
 37 38  1  0  0  0  0
  7  8  1  0  0  0  0
 17 18  1  0  0  0  0
 27 36  1  0  0  0  0
 25 34  1  0  0  0  0
 26 35  1  0  0  0  0
 23 32  1  0  0  0  0
 24 33  1  0  0  0  0
  3  4  1  0  0  0  0
  3  5  1  0  0  0  0
  3  6  1  0  0  0  0
 41 44  1  0  0  0  0
 41 45  1  0  0  0  0
 41 46  1  0  0  0  0
 11 14  1  0  0  0  0
 11 15  1  0  0  0  0
 11 16  1  0  0  0  0
 48 50  1  0  0  0  0
 48 51  1  0  0  0  0
 48 52  1  0  0  0  0
 21 30  1  0  0  0  0
 21 31  1  0  0  0  0
 38 43  1  0  0  0  0
  8 13  1  0  0  0  0
 18 29  1  0  0  0  0
 47 49  1  0  0  0  0
  7 12  1  0  0  0  0
 37 42  1  0  0  0  0
 17 28  1  0  0  0  0
M  END
$$$$

  -OEChem-05262214473D

 52 52  0     1  0  0  0  0  0999 V2000
   -1.8248    0.3424    3.9102 C   0  0  0  0  0  0  0  0  0  0  0  0
   -0.8774   -0.2723    3.4345 O   0  0  0  0  0  0  0  0  0  0  0  0
   -2.2566    0.0600    5.3109 C   0  0  0  0  0  0  0  0  0  0  0  0
   -3.0163   -0.7363    5.3643 H   0  0  0  0  0  0  0  0  0  0  0  0
   -1.4254   -0.2876    5.9452 H   0  0  0  0  0  0  0  0  0  0  0  0
   -2.6947    0.9149    5.8505 H   0  0  0  0  0  0  0  0  0  0  0  0
   -2.5745    1.3149    3.2691 N   0  0  0  0  0  0  0  0  0  0  0  0
   -2.3276    1.7409    1.9167 C   0  0  2  0  0  0  0  0  0  0  0  0
   -0.9926    1.1555    1.4755 C   0  0  0  0  0  0  0  0  0  0  0  0
   -0.1206    0.8028    2.2668 O   0  0  0  0  0  0  0  0  0  0  0  0
   -2.3188    3.2577    1.8072 C   0  0  0  0  0  0  0  0  0  0  0  0
   -3.3395    1.7507    3.7809 H   0  0  0  0  0  0  0  0  0  0  0  0
   -3.1317    1.3224    1.3015 H   0  0  0  0  0  0  0  0  0  0  0  0
   -1.5198    3.6949    2.4169 H   0  0  0  0  0  0  0  0  0  0  0  0
   -2.1594    3.5799    0.7729 H   0  0  0  0  0  0  0  0  0  0  0  0
   -3.2690    3.6789    2.1530 H   0  0  0  0  0  0  0  0  0  0  0  0
   -0.8700    1.1124    0.0921 N   0  0  0  0  0  0  0  0  0  0  0  0
    0.3073    0.6116   -0.5716 C   0  0  2  0  0  0  0  0  0  0  0  0
    0.4847   -0.8400   -0.1409 C   0  0  0  0  0  0  0  0  0  0  0  0
    0.0849   -1.2714    0.9385 O   0  0  0  0  0  0  0  0  0  0  0  0
    1.5584    1.4270   -0.2250 C   0  0  0  0  0  0  0  0  0  0  0  0
    1.5057    2.8350   -0.7659 C   0  0  0  0  0  0  0  0  0  0  0  0
    1.8308    3.0830   -2.0996 C   0  0  0  0  0  0  0  0  0  0  0  0
    1.1316    3.8884    0.0682 C   0  0  0  0  0  0  0  0  0  0  0  0
    1.7818    4.3845   -2.5990 C   0  0  0  0  0  0  0  0  0  0  0  0
    1.0825    5.1899   -0.4312 C   0  0  0  0  0  0  0  0  0  0  0  0
    1.4075    5.4379   -1.7648 C   0  0  0  0  0  0  0  0  0  0  0  0
   -1.6531    1.4091   -0.4852 H   0  0  0  0  0  0  0  0  0  0  0  0
    0.0971    0.6437   -1.6471 H   0  0  0  0  0  0  0  0  0  0  0  0
    2.4583    0.9207   -0.5997 H   0  0  0  0  0  0  0  0  0  0  0  0
    1.6911    1.4817    0.8636 H   0  0  0  0  0  0  0  0  0  0  0  0
    2.1233    2.2684   -2.7569 H   0  0  0  0  0  0  0  0  0  0  0  0
    0.8765    3.7047    1.1086 H   0  0  0  0  0  0  0  0  0  0  0  0
    2.0360    4.5775   -3.6371 H   0  0  0  0  0  0  0  0  0  0  0  0
    0.7922    6.0100    0.2188 H   0  0  0  0  0  0  0  0  0  0  0  0
    1.3707    6.4514   -2.1535 H   0  0  0  0  0  0  0  0  0  0  0  0
    1.0967   -1.6031   -1.1256 N   0  0  0  0  0  0  0  0  0  0  0  0
    1.3630   -3.0164   -0.9835 C   0  0  2  0  0  0  0  0  0  0  0  0
    2.0652   -3.2308    0.3509 C   0  0  0  0  0  0  0  0  0  0  0  0
    2.6812   -2.3418    0.9351 O   0  0  0  0  0  0  0  0  0  0  0  0
    2.2102   -3.5383   -2.1335 C   0  0  0  0  0  0  0  0  0  0  0  0
    1.3711   -1.1451   -1.9898 H   0  0  0  0  0  0  0  0  0  0  0  0
    0.3911   -3.5217   -0.9707 H   0  0  0  0  0  0  0  0  0  0  0  0
    3.1879   -3.0436   -2.1625 H   0  0  0  0  0  0  0  0  0  0  0  0
    2.3871   -4.6148   -2.0394 H   0  0  0  0  0  0  0  0  0  0  0  0
    1.7171   -3.3565   -3.0946 H   0  0  0  0  0  0  0  0  0  0  0  0
    1.9596   -4.5426    0.7914 N   0  0  0  0  0  0  0  0  0  0  0  0
    2.5530   -5.0007    2.0259 C   0  0  0  0  0  0  0  0  0  0  0  0
    1.4137   -5.2083    0.2523 H   0  0  0  0  0  0  0  0  0  0  0  0
    3.5579   -5.4000    1.8243 H   0  0  0  0  0  0  0  0  0  0  0  0
    2.6274   -4.1596    2.7310 H   0  0  0  0  0  0  0  0  0  0  0  0
    1.9254   -5.7912    2.4631 H   0  0  0  0  0  0  0  0  0  0  0  0
 25 27  1  0  0  0  0
 26 27  2  0  0  0  0
 23 25  2  0  0  0  0
 24 26  1  0  0  0  0
 22 23  1  0  0  0  0
 22 24  2  0  0  0  0
 21 22  1  0  0  0  0
  1  3  1  0  0  0  0
  1  7  1  0  0  0  0
  1  2  2  0  0  0  0
 38 39  1  0  0  0  0
 39 47  1  0  0  0  0
 39 40  2  0  0  0  0
  8  9  1  0  0  0  0
  9 17  1  0  0  0  0
  9 10  2  0  0  0  0
 18 19  1  0  0  0  0
 19 37  1  0  0  0  0
 19 20  2  0  0  0  0
 38 41  1  0  0  0  0
  8 11  1  0  0  0  0
 47 48  1  0  0  0  0
 18 21  1  0  0  0  0
 37 38  1  0  0  0  0
  7  8  1  0  0  0  0
 17 18  1  0  0  0  0
 27 36  1  0  0  0  0
 25 34  1  0  0  0  0
 26 35  1  0  0  0  0
 23 32  1  0  0  0  0
 24 33  1  0  0  0  0
  3  4  1  0  0  0  0
  3  5  1  0  0  0  0
  3  6  1  0  0  0  0
 41 44  1  0  0  0  0
 41 45  1  0  0  0  0
 41 46  1  0  0  0  0
 11 14  1  0  0  0  0
 11 15  1  0  0  0  0
 11 16  1  0  0  0  0
 48 50  1  0  0  0  0
 48 51  1  0  0  0  0
 48 52  1  0  0  0  0
 21 30  1  0  0  0  0
 21 31  1  0  0  0  0
 38 43  1  0  0  0  0
  8 13  1  0  0  0  0
 18 29  1  0  0  0  0
 47 49  1  0  0  0  0
  7 12  1  0  0  0  0
 37 42  1  0  0  0  0
 17 28  1  0  0  0  0
M  END
$$$$

  -OEChem-05262214473D

 52 52  0     1  0  0  0  0  0999 V2000
   -1.8248    0.3424    3.9102 C   0  0  0  0  0  0  0  0  0  0  0  0
   -0.8774   -0.2723    3.4345 O   0  0  0  0  0  0  0  0  0  0  0  0
   -2.2566    0.0600    5.3109 C   0  0  0  0  0  0  0  0  0  0  0  0
   -3.0163   -0.7363    5.3643 H   0  0  0  0  0  0  0  0  0  0  0  0
   -1.4254   -0.2876    5.9452 H   0  0  0  0  0  0  0  0  0  0  0  0
   -2.6947    0.9149    5.8505 H   0  0  0  0  0  0  0  0  0  0  0  0
   -2.5745    1.3149    3.2691 N   0  0  0  0  0  0  0  0  0  0  0  0
   -2.3276    1.7409    1.9167 C   0  0  2  0  0  0  0  0  0  0  0  0
   -0.9926    1.1555    1.4755 C   0  0  0  0  0  0  0  0  0  0  0  0
   -0.1206    0.8028    2.2668 O   0  0  0  0  0  0  0  0  0  0  0  0
   -2.3188    3.2577    1.8072 C   0  0  0  0  0  0  0  0  0  0  0  0
   -3.3395    1.7507    3.7809 H   0  0  0  0  0  0  0  0  0  0  0  0
   -3.1317    1.3224    1.3015 H   0  0  0  0  0  0  0  0  0  0  0  0
   -1.5198    3.6949    2.4169 H   0  0  0  0  0  0  0  0  0  0  0  0
   -2.1594    3.5799    0.7729 H   0  0  0  0  0  0  0  0  0  0  0  0
   -3.2690    3.6789    2.1530 H   0  0  0  0  0  0  0  0  0  0  0  0
   -0.8700    1.1124    0.0921 N   0  0  0  0  0  0  0  0  0  0  0  0
    0.3073    0.6116   -0.5716 C   0  0  2  0  0  0  0  0  0  0  0  0
    0.4847   -0.8400   -0.1409 C   0  0  0  0  0  0  0  0  0  0  0  0
   -0.1333   -1.3401    0.7966 O   0  0  0  0  0  0  0  0  0  0  0  0
    1.5584    1.4270   -0.2250 C   0  0  0  0  0  0  0  0  0  0  0  0
    1.5057    2.8350   -0.7659 C   0  0  0  0  0  0  0  0  0  0  0  0
    1.8308    3.0830   -2.0996 C   0  0  0  0  0  0  0  0  0  0  0  0
    1.1316    3.8884    0.0682 C   0  0  0  0  0  0  0  0  0  0  0  0
    1.7818    4.3845   -2.5990 C   0  0  0  0  0  0  0  0  0  0  0  0
    1.0825    5.1899   -0.4312 C   0  0  0  0  0  0  0  0  0  0  0  0
    1.4075    5.4379   -1.7648 C   0  0  0  0  0  0  0  0  0  0  0  0
   -1.6531    1.4091   -0.4852 H   0  0  0  0  0  0  0  0  0  0  0  0
    0.0971    0.6437   -1.6471 H   0  0  0  0  0  0  0  0  0  0  0  0
    2.4583    0.9207   -0.5997 H   0  0  0  0  0  0  0  0  0  0  0  0
    1.6911    1.4817    0.8636 H   0  0  0  0  0  0  0  0  0  0  0  0
    2.1233    2.2684   -2.7569 H   0  0  0  0  0  0  0  0  0  0  0  0
    0.8765    3.7047    1.1086 H   0  0  0  0  0  0  0  0  0  0  0  0
    2.0360    4.5775   -3.6371 H   0  0  0  0  0  0  0  0  0  0  0  0
    0.7922    6.0100    0.2188 H   0  0  0  0  0  0  0  0  0  0  0  0
    1.3707    6.4514   -2.1535 H   0  0  0  0  0  0  0  0  0  0  0  0
    1.3763   -1.5195   -0.9593 N   0  0  0  0  0  0  0  0  0  0  0  0
    1.7075   -2.9155   -0.7852 C   0  0  2  0  0  0  0  0  0  0  0  0
    2.0753   -3.1329    0.6766 C   0  0  0  0  0  0  0  0  0  0  0  0
    2.4588   -2.2270    1.4137 O   0  0  0  0  0  0  0  0  0  0  0  0
    2.8485   -3.3318   -1.7004 C   0  0  0  0  0  0  0  0  0  0  0  0
    1.8183   -1.0100   -1.7188 H   0  0  0  0  0  0  0  0  0  0  0  0
    0.8040   -3.4871   -1.0240 H   0  0  0  0  0  0  0  0  0  0  0  0
    3.7624   -2.7698   -1.4761 H   0  0  0  0  0  0  0  0  0  0  0  0
    3.0792   -4.3963   -1.5880 H   0  0  0  0  0  0  0  0  0  0  0  0
    2.5938   -3.1470   -2.7496 H   0  0  0  0  0  0  0  0  0  0  0  0
    1.9660   -4.4652    1.0497 N   0  0  0  0  0  0  0  0  0  0  0  0
    2.2718   -4.9291    2.3828 C   0  0  0  0  0  0  0  0  0  0  0  0
    1.6219   -5.1455    0.3784 H   0  0  0  0  0  0  0  0  0  0  0  0
    3.3231   -5.2496    2.4279 H   0  0  0  0  0  0  0  0  0  0  0  0
    2.1061   -4.1133    3.1018 H   0  0  0  0  0  0  0  0  0  0  0  0
    1.6188   -5.7778    2.6344 H   0  0  0  0  0  0  0  0  0  0  0  0
 25 27  1  0  0  0  0
 26 27  2  0  0  0  0
 23 25  2  0  0  0  0
 24 26  1  0  0  0  0
 22 23  1  0  0  0  0
 22 24  2  0  0  0  0
 21 22  1  0  0  0  0
  1  3  1  0  0  0  0
  1  7  1  0  0  0  0
  1  2  2  0  0  0  0
 38 39  1  0  0  0  0
 39 47  1  0  0  0  0
 39 40  2  0  0  0  0
  8  9  1  0  0  0  0
  9 17  1  0  0  0  0
  9 10  2  0  0  0  0
 18 19  1  0  0  0  0
 19 37  1  0  0  0  0
 19 20  2  0  0  0  0
 38 41  1  0  0  0  0
  8 11  1  0  0  0  0
 47 48  1  0  0  0  0
 18 21  1  0  0  0  0
 37 38  1  0  0  0  0
  7  8  1  0  0  0  0
 17 18  1  0  0  0  0
 27 36  1  0  0  0  0
 25 34  1  0  0  0  0
 26 35  1  0  0  0  0
 23 32  1  0  0  0  0
 24 33  1  0  0  0  0
  3  4  1  0  0  0  0
  3  5  1  0  0  0  0
  3  6  1  0  0  0  0
 41 44  1  0  0  0  0
 41 45  1  0  0  0  0
 41 46  1  0  0  0  0
 11 14  1  0  0  0  0
 11 15  1  0  0  0  0
 11 16  1  0  0  0  0
 48 50  1  0  0  0  0
 48 51  1  0  0  0  0
 48 52  1  0  0  0  0
 21 30  1  0  0  0  0
 21 31  1  0  0  0  0
 38 43  1  0  0  0  0
  8 13  1  0  0  0  0
 18 29  1  0  0  0  0
 47 49  1  0  0  0  0
  7 12  1  0  0  0  0
 37 42  1  0  0  0  0
 17 28  1  0  0  0  0
M  END
$$$$

  -OEChem-05262214473D

 52 52  0     1  0  0  0  0  0999 V2000
   -1.8248    0.3424    3.9102 C   0  0  0  0  0  0  0  0  0  0  0  0
   -0.8774   -0.2723    3.4345 O   0  0  0  0  0  0  0  0  0  0  0  0
   -2.2566    0.0600    5.3109 C   0  0  0  0  0  0  0  0  0  0  0  0
   -3.0163   -0.7363    5.3643 H   0  0  0  0  0  0  0  0  0  0  0  0
   -1.4254   -0.2876    5.9452 H   0  0  0  0  0  0  0  0  0  0  0  0
   -2.6947    0.9149    5.8505 H   0  0  0  0  0  0  0  0  0  0  0  0
   -2.5745    1.3149    3.2691 N   0  0  0  0  0  0  0  0  0  0  0  0
   -2.3276    1.7409    1.9167 C   0  0  2  0  0  0  0  0  0  0  0  0
   -0.9926    1.1555    1.4755 C   0  0  0  0  0  0  0  0  0  0  0  0
   -0.1206    0.8028    2.2668 O   0  0  0  0  0  0  0  0  0  0  0  0
   -2.3188    3.2577    1.8072 C   0  0  0  0  0  0  0  0  0  0  0  0
   -3.3395    1.7507    3.7809 H   0  0  0  0  0  0  0  0  0  0  0  0
   -3.1317    1.3224    1.3015 H   0  0  0  0  0  0  0  0  0  0  0  0
   -1.5198    3.6949    2.4169 H   0  0  0  0  0  0  0  0  0  0  0  0
   -2.1594    3.5799    0.7729 H   0  0  0  0  0  0  0  0  0  0  0  0
   -3.2690    3.6789    2.1530 H   0  0  0  0  0  0  0  0  0  0  0  0
   -0.8700    1.1124    0.0921 N   0  0  0  0  0  0  0  0  0  0  0  0
    0.3073    0.6116   -0.5716 C   0  0  2  0  0  0  0  0  0  0  0  0
    0.2795   -0.9081   -0.4536 C   0  0  0  0  0  0  0  0  0  0  0  0
   -0.6401   -1.5207    0.0848 O   0  0  0  0  0  0  0  0  0  0  0  0
    1.5979    1.1700    0.0390 C   0  0  0  0  0  0  0  0  0  0  0  0
    1.7556    2.6540   -0.1861 C   0  0  0  0  0  0  0  0  0  0  0  0
    2.2412    3.1274   -1.4051 C   0  0  0  0  0  0  0  0  0  0  0  0
    1.4153    3.5523    0.8253 C   0  0  0  0  0  0  0  0  0  0  0  0
    2.3865    4.4990   -1.6126 C   0  0  0  0  0  0  0  0  0  0  0  0
    1.5606    4.9239    0.6177 C   0  0  0  0  0  0  0  0  0  0  0  0
    2.0462    5.3973   -0.6013 C   0  0  0  0  0  0  0  0  0  0  0  0
   -1.6531    1.4091   -0.4852 H   0  0  0  0  0  0  0  0  0  0  0  0
    0.2135    0.8914   -1.6275 H   0  0  0  0  0  0  0  0  0  0  0  0
    2.4707    0.6401   -0.3660 H   0  0  0  0  0  0  0  0  0  0  0  0
    1.6232    0.9818    1.1205 H   0  0  0  0  0  0  0  0  0  0  0  0
    2.5087    2.4348   -2.1989 H   0  0  0  0  0  0  0  0  0  0  0  0
    1.0361    3.1926    1.7781 H   0  0  0  0  0  0  0  0  0  0  0  0
    2.7656    4.8673   -2.5614 H   0  0  0  0  0  0  0  0  0  0  0  0
    1.2966    5.6230    1.4057 H   0  0  0  0  0  0  0  0  0  0  0  0
    2.1607    6.4652   -0.7626 H   0  0  0  0  0  0  0  0  0  0  0  0
    1.3779   -1.4969   -1.0646 N   0  0  0  0  0  0  0  0  0  0  0  0
    1.5848   -2.9262   -1.1179 C   0  0  2  0  0  0  0  0  0  0  0  0
    1.4165   -3.4786    0.2914 C   0  0  0  0  0  0  0  0  0  0  0  0
    1.5490   -2.7909    1.3017 O   0  0  0  0  0  0  0  0  0  0  0  0
    2.9587   -3.2661   -1.6744 C   0  0  0  0  0  0  0  0  0  0  0  0
    2.0711   -0.8927   -1.4961 H   0  0  0  0  0  0  0  0  0  0  0  0
    0.8027   -3.3351   -1.7668 H   0  0  0  0  0  0  0  0  0  0  0  0
    3.7553   -2.8646   -1.0374 H   0  0  0  0  0  0  0  0  0  0  0  0
    3.1030   -4.3495   -1.7408 H   0  0  0  0  0  0  0  0  0  0  0  0
    3.0890   -2.8426   -2.6762 H   0  0  0  0  0  0  0  0  0  0  0  0
    1.1436   -4.8394    0.2895 N   0  0  0  0  0  0  0  0  0  0  0  0
    0.9542   -5.5983    1.5036 C   0  0  0  0  0  0  0  0  0  0  0  0
    1.0324   -5.3254   -0.5955 H   0  0  0  0  0  0  0  0  0  0  0  0
    1.9144   -6.0330    1.8184 H   0  0  0  0  0  0  0  0  0  0  0  0
    0.5751   -4.9350    2.2951 H   0  0  0  0  0  0  0  0  0  0  0  0
    0.2285   -6.4048    1.3223 H   0  0  0  0  0  0  0  0  0  0  0  0
 25 27  1  0  0  0  0
 26 27  2  0  0  0  0
 23 25  2  0  0  0  0
 24 26  1  0  0  0  0
 22 23  1  0  0  0  0
 22 24  2  0  0  0  0
 21 22  1  0  0  0  0
  1  3  1  0  0  0  0
  1  7  1  0  0  0  0
  1  2  2  0  0  0  0
 38 39  1  0  0  0  0
 39 47  1  0  0  0  0
 39 40  2  0  0  0  0
  8  9  1  0  0  0  0
  9 17  1  0  0  0  0
  9 10  2  0  0  0  0
 18 19  1  0  0  0  0
 19 37  1  0  0  0  0
 19 20  2  0  0  0  0
 38 41  1  0  0  0  0
  8 11  1  0  0  0  0
 47 48  1  0  0  0  0
 18 21  1  0  0  0  0
 37 38  1  0  0  0  0
  7  8  1  0  0  0  0
 17 18  1  0  0  0  0
 27 36  1  0  0  0  0
 25 34  1  0  0  0  0
 26 35  1  0  0  0  0
 23 32  1  0  0  0  0
 24 33  1  0  0  0  0
  3  4  1  0  0  0  0
  3  5  1  0  0  0  0
  3  6  1  0  0  0  0
 41 44  1  0  0  0  0
 41 45  1  0  0  0  0
 41 46  1  0  0  0  0
 11 14  1  0  0  0  0
 11 15  1  0  0  0  0
 11 16  1  0  0  0  0
 48 50  1  0  0  0  0
 48 51  1  0  0  0  0
 48 52  1  0  0  0  0
 21 30  1  0  0  0  0
 21 31  1  0  0  0  0
 38 43  1  0  0  0  0
  8 13  1  0  0  0  0
 18 29  1  0  0  0  0
 47 49  1  0  0  0  0
  7 12  1  0  0  0  0
 37 42  1  0  0  0  0
 17 28  1  0  0  0  0
M  END
$$$$

  -OEChem-05262214473D

 52 52  0     1  0  0  0  0  0999 V2000
   -1.8248    0.3424    3.9102 C   0  0  0  0  0  0  0  0  0  0  0  0
   -0.8774   -0.2723    3.4345 O   0  0  0  0  0  0  0  0  0  0  0  0
   -2.2566    0.0600    5.3109 C   0  0  0  0  0  0  0  0  0  0  0  0
   -3.0163   -0.7363    5.3643 H   0  0  0  0  0  0  0  0  0  0  0  0
   -1.4254   -0.2876    5.9452 H   0  0  0  0  0  0  0  0  0  0  0  0
   -2.6947    0.9149    5.8505 H   0  0  0  0  0  0  0  0  0  0  0  0
   -2.5745    1.3149    3.2691 N   0  0  0  0  0  0  0  0  0  0  0  0
   -2.3276    1.7409    1.9167 C   0  0  2  0  0  0  0  0  0  0  0  0
   -0.9926    1.1555    1.4755 C   0  0  0  0  0  0  0  0  0  0  0  0
   -0.1206    0.8028    2.2668 O   0  0  0  0  0  0  0  0  0  0  0  0
   -2.3188    3.2577    1.8072 C   0  0  0  0  0  0  0  0  0  0  0  0
   -3.3395    1.7507    3.7809 H   0  0  0  0  0  0  0  0  0  0  0  0
   -3.1317    1.3224    1.3015 H   0  0  0  0  0  0  0  0  0  0  0  0
   -1.5198    3.6949    2.4169 H   0  0  0  0  0  0  0  0  0  0  0  0
   -2.1594    3.5799    0.7729 H   0  0  0  0  0  0  0  0  0  0  0  0
   -3.2690    3.6789    2.1530 H   0  0  0  0  0  0  0  0  0  0  0  0
   -0.8700    1.1124    0.0921 N   0  0  0  0  0  0  0  0  0  0  0  0
    0.3073    0.6116   -0.5716 C   0  0  2  0  0  0  0  0  0  0  0  0
    0.2795   -0.9081   -0.4536 C   0  0  0  0  0  0  0  0  0  0  0  0
   -0.7358   -1.5384   -0.1661 O   0  0  0  0  0  0  0  0  0  0  0  0
    1.5979    1.1700    0.0390 C   0  0  0  0  0  0  0  0  0  0  0  0
    1.7556    2.6540   -0.1861 C   0  0  0  0  0  0  0  0  0  0  0  0
    2.2412    3.1274   -1.4051 C   0  0  0  0  0  0  0  0  0  0  0  0
    1.4153    3.5523    0.8253 C   0  0  0  0  0  0  0  0  0  0  0  0
    2.3865    4.4990   -1.6126 C   0  0  0  0  0  0  0  0  0  0  0  0
    1.5606    4.9239    0.6177 C   0  0  0  0  0  0  0  0  0  0  0  0
    2.0462    5.3973   -0.6013 C   0  0  0  0  0  0  0  0  0  0  0  0
   -1.6531    1.4091   -0.4852 H   0  0  0  0  0  0  0  0  0  0  0  0
    0.2135    0.8914   -1.6275 H   0  0  0  0  0  0  0  0  0  0  0  0
    2.4707    0.6401   -0.3660 H   0  0  0  0  0  0  0  0  0  0  0  0
    1.6232    0.9818    1.1205 H   0  0  0  0  0  0  0  0  0  0  0  0
    2.5087    2.4348   -2.1989 H   0  0  0  0  0  0  0  0  0  0  0  0
    1.0361    3.1926    1.7781 H   0  0  0  0  0  0  0  0  0  0  0  0
    2.7656    4.8673   -2.5614 H   0  0  0  0  0  0  0  0  0  0  0  0
    1.2966    5.6230    1.4057 H   0  0  0  0  0  0  0  0  0  0  0  0
    2.1607    6.4652   -0.7626 H   0  0  0  0  0  0  0  0  0  0  0  0
    1.5096   -1.4753   -0.7563 N   0  0  0  0  0  0  0  0  0  0  0  0
    1.7510   -2.9002   -0.7438 C   0  0  2  0  0  0  0  0  0  0  0  0
    1.2355   -3.4530    0.5784 C   0  0  0  0  0  0  0  0  0  0  0  0
    1.0893   -2.7606    1.5835 O   0  0  0  0  0  0  0  0  0  0  0  0
    3.2283   -3.2128   -0.9246 C   0  0  0  0  0  0  0  0  0  0  0  0
    2.2788   -0.8579   -0.9988 H   0  0  0  0  0  0  0  0  0  0  0  0
    1.1709   -3.3265   -1.5695 H   0  0  0  0  0  0  0  0  0  0  0  0
    3.8256   -2.7936   -0.1067 H   0  0  0  0  0  0  0  0  0  0  0  0
    3.4058   -4.2931   -0.9435 H   0  0  0  0  0  0  0  0  0  0  0  0
    3.6044   -2.7889   -1.8619 H   0  0  0  0  0  0  0  0  0  0  0  0
    0.9988   -4.8191    0.5161 N   0  0  0  0  0  0  0  0  0  0  0  0
    0.5172   -5.5792    1.6458 C   0  0  0  0  0  0  0  0  0  0  0  0
    1.1292   -5.3092   -0.3640 H   0  0  0  0  0  0  0  0  0  0  0  0
    1.3719   -5.9934    2.2009 H   0  0  0  0  0  0  0  0  0  0  0  0
   -0.0661   -4.9223    2.3078 H   0  0  0  0  0  0  0  0  0  0  0  0
   -0.1213   -6.4010    1.2894 H   0  0  0  0  0  0  0  0  0  0  0  0
 25 27  1  0  0  0  0
 26 27  2  0  0  0  0
 23 25  2  0  0  0  0
 24 26  1  0  0  0  0
 22 23  1  0  0  0  0
 22 24  2  0  0  0  0
 21 22  1  0  0  0  0
  1  3  1  0  0  0  0
  1  7  1  0  0  0  0
  1  2  2  0  0  0  0
 38 39  1  0  0  0  0
 39 47  1  0  0  0  0
 39 40  2  0  0  0  0
  8  9  1  0  0  0  0
  9 17  1  0  0  0  0
  9 10  2  0  0  0  0
 18 19  1  0  0  0  0
 19 37  1  0  0  0  0
 19 20  2  0  0  0  0
 38 41  1  0  0  0  0
  8 11  1  0  0  0  0
 47 48  1  0  0  0  0
 18 21  1  0  0  0  0
 37 38  1  0  0  0  0
  7  8  1  0  0  0  0
 17 18  1  0  0  0  0
 27 36  1  0  0  0  0
 25 34  1  0  0  0  0
 26 35  1  0  0  0  0
 23 32  1  0  0  0  0
 24 33  1  0  0  0  0
  3  4  1  0  0  0  0
  3  5  1  0  0  0  0
  3  6  1  0  0  0  0
 41 44  1  0  0  0  0
 41 45  1  0  0  0  0
 41 46  1  0  0  0  0
 11 14  1  0  0  0  0
 11 15  1  0  0  0  0
 11 16  1  0  0  0  0
 48 50  1  0  0  0  0
 48 51  1  0  0  0  0
 48 52  1  0  0  0  0
 21 30  1  0  0  0  0
 21 31  1  0  0  0  0
 38 43  1  0  0  0  0
  8 13  1  0  0  0  0
 18 29  1  0  0  0  0
 47 49  1  0  0  0  0
  7 12  1  0  0  0  0
 37 42  1  0  0  0  0
 17 28  1  0  0  0  0
M  END
$$$$

  -OEChem-05262214473D

 52 52  0     1  0  0  0  0  0999 V2000
   -1.8248    0.3424    3.9102 C   0  0  0  0  0  0  0  0  0  0  0  0
   -0.8774   -0.2723    3.4345 O   0  0  0  0  0  0  0  0  0  0  0  0
   -2.2566    0.0600    5.3109 C   0  0  0  0  0  0  0  0  0  0  0  0
   -3.0163   -0.7363    5.3643 H   0  0  0  0  0  0  0  0  0  0  0  0
   -1.4254   -0.2876    5.9452 H   0  0  0  0  0  0  0  0  0  0  0  0
   -2.6947    0.9149    5.8505 H   0  0  0  0  0  0  0  0  0  0  0  0
   -2.5745    1.3149    3.2691 N   0  0  0  0  0  0  0  0  0  0  0  0
   -2.3276    1.7409    1.9167 C   0  0  2  0  0  0  0  0  0  0  0  0
   -0.9926    1.1555    1.4755 C   0  0  0  0  0  0  0  0  0  0  0  0
   -0.1206    0.8028    2.2668 O   0  0  0  0  0  0  0  0  0  0  0  0
   -2.3188    3.2577    1.8072 C   0  0  0  0  0  0  0  0  0  0  0  0
   -3.3395    1.7507    3.7809 H   0  0  0  0  0  0  0  0  0  0  0  0
   -3.1317    1.3224    1.3015 H   0  0  0  0  0  0  0  0  0  0  0  0
   -1.5198    3.6949    2.4169 H   0  0  0  0  0  0  0  0  0  0  0  0
   -2.1594    3.5799    0.7729 H   0  0  0  0  0  0  0  0  0  0  0  0
   -3.2690    3.6789    2.1530 H   0  0  0  0  0  0  0  0  0  0  0  0
   -0.8700    1.1124    0.0921 N   0  0  0  0  0  0  0  0  0  0  0  0
    0.3073    0.6116   -0.5716 C   0  0  2  0  0  0  0  0  0  0  0  0
    0.2795   -0.9081   -0.4536 C   0  0  0  0  0  0  0  0  0  0  0  0
   -0.7632   -1.5587   -0.4331 O   0  0  0  0  0  0  0  0  0  0  0  0
    1.5979    1.1700    0.0390 C   0  0  0  0  0  0  0  0  0  0  0  0
    1.7556    2.6540   -0.1861 C   0  0  0  0  0  0  0  0  0  0  0  0
    2.2412    3.1274   -1.4051 C   0  0  0  0  0  0  0  0  0  0  0  0
    1.4153    3.5523    0.8253 C   0  0  0  0  0  0  0  0  0  0  0  0
    2.3865    4.4990   -1.6126 C   0  0  0  0  0  0  0  0  0  0  0  0
    1.5606    4.9239    0.6177 C   0  0  0  0  0  0  0  0  0  0  0  0
    2.0462    5.3973   -0.6013 C   0  0  0  0  0  0  0  0  0  0  0  0
   -1.6531    1.4091   -0.4852 H   0  0  0  0  0  0  0  0  0  0  0  0
    0.2135    0.8914   -1.6275 H   0  0  0  0  0  0  0  0  0  0  0  0
    2.4707    0.6401   -0.3660 H   0  0  0  0  0  0  0  0  0  0  0  0
    1.6232    0.9818    1.1205 H   0  0  0  0  0  0  0  0  0  0  0  0
    2.5087    2.4348   -2.1989 H   0  0  0  0  0  0  0  0  0  0  0  0
    1.0361    3.1926    1.7781 H   0  0  0  0  0  0  0  0  0  0  0  0
    2.7656    4.8673   -2.5614 H   0  0  0  0  0  0  0  0  0  0  0  0
    1.2966    5.6230    1.4057 H   0  0  0  0  0  0  0  0  0  0  0  0
    2.1607    6.4652   -0.7626 H   0  0  0  0  0  0  0  0  0  0  0  0
    1.5568   -1.4504   -0.4246 N   0  0  0  0  0  0  0  0  0  0  0  0
    1.8144   -2.8700   -0.3398 C   0  0  2  0  0  0  0  0  0  0  0  0
    0.9860   -3.4306    0.8087 C   0  0  0  0  0  0  0  0  0  0  0  0
    0.5720   -2.7392    1.7370 O   0  0  0  0  0  0  0  0  0  0  0  0
    3.2941   -3.1524   -0.1311 C   0  0  0  0  0  0  0  0  0  0  0  0
    2.3504   -0.8178   -0.4650 H   0  0  0  0  0  0  0  0  0  0  0  0
    1.4755   -3.3099   -1.2840 H   0  0  0  0  0  0  0  0  0  0  0  0
    3.6519   -2.7193    0.8101 H   0  0  0  0  0  0  0  0  0  0  0  0
    3.4915   -4.2288   -0.0956 H   0  0  0  0  0  0  0  0  0  0  0  0
    3.8911   -2.7227   -0.9427 H   0  0  0  0  0  0  0  0  0  0  0  0
    0.8000   -4.8014    0.6975 N   0  0  0  0  0  0  0  0  0  0  0  0
    0.0581   -5.5689    1.6704 C   0  0  0  0  0  0  0  0  0  0  0  0
    1.1625   -5.2905   -0.1155 H   0  0  0  0  0  0  0  0  0  0  0  0
    0.7484   -5.9642    2.4301 H   0  0  0  0  0  0  0  0  0  0  0  0
   -0.6889   -4.9228    2.1547 H   0  0  0  0  0  0  0  0  0  0  0  0
   -0.4508   -6.4044    1.1674 H   0  0  0  0  0  0  0  0  0  0  0  0
 25 27  1  0  0  0  0
 26 27  2  0  0  0  0
 23 25  2  0  0  0  0
 24 26  1  0  0  0  0
 22 23  1  0  0  0  0
 22 24  2  0  0  0  0
 21 22  1  0  0  0  0
  1  3  1  0  0  0  0
  1  7  1  0  0  0  0
  1  2  2  0  0  0  0
 38 39  1  0  0  0  0
 39 47  1  0  0  0  0
 39 40  2  0  0  0  0
  8  9  1  0  0  0  0
  9 17  1  0  0  0  0
  9 10  2  0  0  0  0
 18 19  1  0  0  0  0
 19 37  1  0  0  0  0
 19 20  2  0  0  0  0
 38 41  1  0  0  0  0
  8 11  1  0  0  0  0
 47 48  1  0  0  0  0
 18 21  1  0  0  0  0
 37 38  1  0  0  0  0
  7  8  1  0  0  0  0
 17 18  1  0  0  0  0
 27 36  1  0  0  0  0
 25 34  1  0  0  0  0
 26 35  1  0  0  0  0
 23 32  1  0  0  0  0
 24 33  1  0  0  0  0
  3  4  1  0  0  0  0
  3  5  1  0  0  0  0
  3  6  1  0  0  0  0
 41 44  1  0  0  0  0
 41 45  1  0  0  0  0
 41 46  1  0  0  0  0
 11 14  1  0  0  0  0
 11 15  1  0  0  0  0
 11 16  1  0  0  0  0
 48 50  1  0  0  0  0
 48 51  1  0  0  0  0
 48 52  1  0  0  0  0
 21 30  1  0  0  0  0
 21 31  1  0  0  0  0
 38 43  1  0  0  0  0
  8 13  1  0  0  0  0
 18 29  1  0  0  0  0
 47 49  1  0  0  0  0
  7 12  1  0  0  0  0
 37 42  1  0  0  0  0
 17 28  1  0  0  0  0
M  END
$$$$

  -OEChem-05262214473D

 52 52  0     1  0  0  0  0  0999 V2000
   -1.8248    0.3424    3.9102 C   0  0  0  0  0  0  0  0  0  0  0  0
   -0.8774   -0.2723    3.4345 O   0  0  0  0  0  0  0  0  0  0  0  0
   -2.2566    0.0600    5.3109 C   0  0  0  0  0  0  0  0  0  0  0  0
   -3.0163   -0.7363    5.3643 H   0  0  0  0  0  0  0  0  0  0  0  0
   -1.4254   -0.2876    5.9452 H   0  0  0  0  0  0  0  0  0  0  0  0
   -2.6947    0.9149    5.8505 H   0  0  0  0  0  0  0  0  0  0  0  0
   -2.5745    1.3149    3.2691 N   0  0  0  0  0  0  0  0  0  0  0  0
   -2.3276    1.7409    1.9167 C   0  0  2  0  0  0  0  0  0  0  0  0
   -0.9926    1.1555    1.4755 C   0  0  0  0  0  0  0  0  0  0  0  0
   -0.1206    0.8028    2.2668 O   0  0  0  0  0  0  0  0  0  0  0  0
   -2.3188    3.2577    1.8072 C   0  0  0  0  0  0  0  0  0  0  0  0
   -3.3395    1.7507    3.7809 H   0  0  0  0  0  0  0  0  0  0  0  0
   -3.1317    1.3224    1.3015 H   0  0  0  0  0  0  0  0  0  0  0  0
   -1.5198    3.6949    2.4169 H   0  0  0  0  0  0  0  0  0  0  0  0
   -2.1594    3.5799    0.7729 H   0  0  0  0  0  0  0  0  0  0  0  0
   -3.2690    3.6789    2.1530 H   0  0  0  0  0  0  0  0  0  0  0  0
   -0.8700    1.1124    0.0921 N   0  0  0  0  0  0  0  0  0  0  0  0
    0.3073    0.6116   -0.5716 C   0  0  2  0  0  0  0  0  0  0  0  0
    0.2795   -0.9081   -0.4536 C   0  0  0  0  0  0  0  0  0  0  0  0
   -0.7203   -1.5800   -0.6980 O   0  0  0  0  0  0  0  0  0  0  0  0
    1.5979    1.1700    0.0390 C   0  0  0  0  0  0  0  0  0  0  0  0
    1.7556    2.6540   -0.1861 C   0  0  0  0  0  0  0  0  0  0  0  0
    2.2412    3.1274   -1.4051 C   0  0  0  0  0  0  0  0  0  0  0  0
    1.4153    3.5523    0.8253 C   0  0  0  0  0  0  0  0  0  0  0  0
    2.3865    4.4990   -1.6126 C   0  0  0  0  0  0  0  0  0  0  0  0
    1.5606    4.9239    0.6177 C   0  0  0  0  0  0  0  0  0  0  0  0
    2.0462    5.3973   -0.6013 C   0  0  0  0  0  0  0  0  0  0  0  0
   -1.6531    1.4091   -0.4852 H   0  0  0  0  0  0  0  0  0  0  0  0
    0.2135    0.8914   -1.6275 H   0  0  0  0  0  0  0  0  0  0  0  0
    2.4707    0.6401   -0.3660 H   0  0  0  0  0  0  0  0  0  0  0  0
    1.6232    0.9818    1.1205 H   0  0  0  0  0  0  0  0  0  0  0  0
    2.5087    2.4348   -2.1989 H   0  0  0  0  0  0  0  0  0  0  0  0
    1.0361    3.1926    1.7781 H   0  0  0  0  0  0  0  0  0  0  0  0
    2.7656    4.8673   -2.5614 H   0  0  0  0  0  0  0  0  0  0  0  0
    1.2966    5.6230    1.4057 H   0  0  0  0  0  0  0  0  0  0  0  0
    2.1607    6.4652   -0.7626 H   0  0  0  0  0  0  0  0  0  0  0  0
    1.5163   -1.4239   -0.0921 N   0  0  0  0  0  0  0  0  0  0  0  0
    1.7708   -2.8377    0.0667 C   0  0  2  0  0  0  0  0  0  0  0  0
    0.6852   -3.4128    0.9668 C   0  0  0  0  0  0  0  0  0  0  0  0
    0.0323   -2.7282    1.7518 O   0  0  0  0  0  0  0  0  0  0  0  0
    3.1518   -3.0889    0.6521 C   0  0  0  0  0  0  0  0  0  0  0  0
    2.2811   -0.7751    0.0690 H   0  0  0  0  0  0  0  0  0  0  0  0
    1.6956   -3.2865   -0.9297 H   0  0  0  0  0  0  0  0  0  0  0  0
    3.2460   -2.6466    1.6506 H   0  0  0  0  0  0  0  0  0  0  0  0
    3.3542   -4.1611    0.7452 H   0  0  0  0  0  0  0  0  0  0  0  0
    3.9295   -2.6488    0.0188 H   0  0  0  0  0  0  0  0  0  0  0  0
    0.5608   -4.7874    0.8214 N   0  0  0  0  0  0  0  0  0  0  0  0
   -0.3920   -5.5681    1.5756 C   0  0  0  0  0  0  0  0  0  0  0  0
    1.1303   -5.2707    0.1330 H   0  0  0  0  0  0  0  0  0  0  0  0
    0.0865   -5.9474    2.4906 H   0  0  0  0  0  0  0  0  0  0  0  0
   -1.2511   -4.9365    1.8460 H   0  0  0  0  0  0  0  0  0  0  0  0
   -0.7375   -6.4149    0.9645 H   0  0  0  0  0  0  0  0  0  0  0  0
 25 27  1  0  0  0  0
 26 27  2  0  0  0  0
 23 25  2  0  0  0  0
 24 26  1  0  0  0  0
 22 23  1  0  0  0  0
 22 24  2  0  0  0  0
 21 22  1  0  0  0  0
  1  3  1  0  0  0  0
  1  7  1  0  0  0  0
  1  2  2  0  0  0  0
 38 39  1  0  0  0  0
 39 47  1  0  0  0  0
 39 40  2  0  0  0  0
  8  9  1  0  0  0  0
  9 17  1  0  0  0  0
  9 10  2  0  0  0  0
 18 19  1  0  0  0  0
 19 37  1  0  0  0  0
 19 20  2  0  0  0  0
 38 41  1  0  0  0  0
  8 11  1  0  0  0  0
 47 48  1  0  0  0  0
 18 21  1  0  0  0  0
 37 38  1  0  0  0  0
  7  8  1  0  0  0  0
 17 18  1  0  0  0  0
 27 36  1  0  0  0  0
 25 34  1  0  0  0  0
 26 35  1  0  0  0  0
 23 32  1  0  0  0  0
 24 33  1  0  0  0  0
  3  4  1  0  0  0  0
  3  5  1  0  0  0  0
  3  6  1  0  0  0  0
 41 44  1  0  0  0  0
 41 45  1  0  0  0  0
 41 46  1  0  0  0  0
 11 14  1  0  0  0  0
 11 15  1  0  0  0  0
 11 16  1  0  0  0  0
 48 50  1  0  0  0  0
 48 51  1  0  0  0  0
 48 52  1  0  0  0  0
 21 30  1  0  0  0  0
 21 31  1  0  0  0  0
 38 43  1  0  0  0  0
  8 13  1  0  0  0  0
 18 29  1  0  0  0  0
 47 49  1  0  0  0  0
  7 12  1  0  0  0  0
 37 42  1  0  0  0  0
 17 28  1  0  0  0  0
M  END
$$$$

  -OEChem-05262214473D

 52 52  0     1  0  0  0  0  0999 V2000
   -1.8248    0.3424    3.9102 C   0  0  0  0  0  0  0  0  0  0  0  0
   -0.8774   -0.2723    3.4345 O   0  0  0  0  0  0  0  0  0  0  0  0
   -2.2566    0.0600    5.3109 C   0  0  0  0  0  0  0  0  0  0  0  0
   -3.0163   -0.7363    5.3643 H   0  0  0  0  0  0  0  0  0  0  0  0
   -1.4254   -0.2876    5.9452 H   0  0  0  0  0  0  0  0  0  0  0  0
   -2.6947    0.9149    5.8505 H   0  0  0  0  0  0  0  0  0  0  0  0
   -2.5745    1.3149    3.2691 N   0  0  0  0  0  0  0  0  0  0  0  0
   -2.3276    1.7409    1.9167 C   0  0  2  0  0  0  0  0  0  0  0  0
   -0.9926    1.1555    1.4755 C   0  0  0  0  0  0  0  0  0  0  0  0
   -0.1206    0.8028    2.2668 O   0  0  0  0  0  0  0  0  0  0  0  0
   -2.3188    3.2577    1.8072 C   0  0  0  0  0  0  0  0  0  0  0  0
   -3.3395    1.7507    3.7809 H   0  0  0  0  0  0  0  0  0  0  0  0
   -3.1317    1.3224    1.3015 H   0  0  0  0  0  0  0  0  0  0  0  0
   -1.5198    3.6949    2.4169 H   0  0  0  0  0  0  0  0  0  0  0  0
   -2.1594    3.5799    0.7729 H   0  0  0  0  0  0  0  0  0  0  0  0
   -3.2690    3.6789    2.1530 H   0  0  0  0  0  0  0  0  0  0  0  0
   -0.8700    1.1124    0.0921 N   0  0  0  0  0  0  0  0  0  0  0  0
    0.3073    0.6116   -0.5716 C   0  0  2  0  0  0  0  0  0  0  0  0
    0.2795   -0.9081   -0.4536 C   0  0  0  0  0  0  0  0  0  0  0  0
   -0.6102   -1.6010   -0.9427 O   0  0  0  0  0  0  0  0  0  0  0  0
    1.5979    1.1700    0.0390 C   0  0  0  0  0  0  0  0  0  0  0  0
    1.7556    2.6540   -0.1861 C   0  0  0  0  0  0  0  0  0  0  0  0
    2.2412    3.1274   -1.4051 C   0  0  0  0  0  0  0  0  0  0  0  0
    1.4153    3.5523    0.8253 C   0  0  0  0  0  0  0  0  0  0  0  0
    2.3865    4.4990   -1.6126 C   0  0  0  0  0  0  0  0  0  0  0  0
    1.5606    4.9239    0.6177 C   0  0  0  0  0  0  0  0  0  0  0  0
    2.0462    5.3973   -0.6013 C   0  0  0  0  0  0  0  0  0  0  0  0
   -1.6531    1.4091   -0.4852 H   0  0  0  0  0  0  0  0  0  0  0  0
    0.2135    0.8914   -1.6275 H   0  0  0  0  0  0  0  0  0  0  0  0
    2.4707    0.6401   -0.3660 H   0  0  0  0  0  0  0  0  0  0  0  0
    1.6232    0.9818    1.1205 H   0  0  0  0  0  0  0  0  0  0  0  0
    2.5087    2.4348   -2.1989 H   0  0  0  0  0  0  0  0  0  0  0  0
    1.0361    3.1926    1.7781 H   0  0  0  0  0  0  0  0  0  0  0  0
    2.7656    4.8673   -2.5614 H   0  0  0  0  0  0  0  0  0  0  0  0
    1.2966    5.6230    1.4057 H   0  0  0  0  0  0  0  0  0  0  0  0
    2.1607    6.4652   -0.7626 H   0  0  0  0  0  0  0  0  0  0  0  0
    1.3909   -1.3975    0.2185 N   0  0  0  0  0  0  0  0  0  0  0  0
    1.6232   -2.8054    0.4480 C   0  0  2  0  0  0  0  0  0  0  0  0
    0.3535   -3.4009    1.0417 C   0  0  0  0  0  0  0  0  0  0  0  0
   -0.4930   -2.7283    1.6267 O   0  0  0  0  0  0  0  0  0  0  0  0
    2.8109   -3.0268    1.3716 C   0  0  0  0  0  0  0  0  0  0  0  0
    2.0755   -0.7327    0.5666 H   0  0  0  0  0  0  0  0  0  0  0  0
    1.8164   -3.2577   -0.5308 H   0  0  0  0  0  0  0  0  0  0  0  0
    2.6358   -2.5805    2.3573 H   0  0  0  0  0  0  0  0  0  0  0  0
    3.0032   -4.0943    1.5216 H   0  0  0  0  0  0  0  0  0  0  0  0
    3.7171   -2.5720    0.9571 H   0  0  0  0  0  0  0  0  0  0  0  0
    0.2975   -4.7781    0.8793 N   0  0  0  0  0  0  0  0  0  0  0  0
   -0.8023   -5.5767    1.3679 C   0  0  0  0  0  0  0  0  0  0  0  0
    1.0346   -5.2509    0.3647 H   0  0  0  0  0  0  0  0  0  0  0  0
   -0.5689   -5.9441    2.3781 H   0  0  0  0  0  0  0  0  0  0  0  0
   -1.7141   -4.9624    1.4029 H   0  0  0  0  0  0  0  0  0  0  0  0
   -0.9619   -6.4318    0.6946 H   0  0  0  0  0  0  0  0  0  0  0  0
 25 27  1  0  0  0  0
 26 27  2  0  0  0  0
 23 25  2  0  0  0  0
 24 26  1  0  0  0  0
 22 23  1  0  0  0  0
 22 24  2  0  0  0  0
 21 22  1  0  0  0  0
  1  3  1  0  0  0  0
  1  7  1  0  0  0  0
  1  2  2  0  0  0  0
 38 39  1  0  0  0  0
 39 47  1  0  0  0  0
 39 40  2  0  0  0  0
  8  9  1  0  0  0  0
  9 17  1  0  0  0  0
  9 10  2  0  0  0  0
 18 19  1  0  0  0  0
 19 37  1  0  0  0  0
 19 20  2  0  0  0  0
 38 41  1  0  0  0  0
  8 11  1  0  0  0  0
 47 48  1  0  0  0  0
 18 21  1  0  0  0  0
 37 38  1  0  0  0  0
  7  8  1  0  0  0  0
 17 18  1  0  0  0  0
 27 36  1  0  0  0  0
 25 34  1  0  0  0  0
 26 35  1  0  0  0  0
 23 32  1  0  0  0  0
 24 33  1  0  0  0  0
  3  4  1  0  0  0  0
  3  5  1  0  0  0  0
  3  6  1  0  0  0  0
 41 44  1  0  0  0  0
 41 45  1  0  0  0  0
 41 46  1  0  0  0  0
 11 14  1  0  0  0  0
 11 15  1  0  0  0  0
 11 16  1  0  0  0  0
 48 50  1  0  0  0  0
 48 51  1  0  0  0  0
 48 52  1  0  0  0  0
 21 30  1  0  0  0  0
 21 31  1  0  0  0  0
 38 43  1  0  0  0  0
  8 13  1  0  0  0  0
 18 29  1  0  0  0  0
 47 49  1  0  0  0  0
  7 12  1  0  0  0  0
 37 42  1  0  0  0  0
 17 28  1  0  0  0  0
M  END
$$$$

  -OEChem-05262214473D

 52 52  0     1  0  0  0  0  0999 V2000
   -1.8248    0.3424    3.9102 C   0  0  0  0  0  0  0  0  0  0  0  0
   -0.8774   -0.2723    3.4345 O   0  0  0  0  0  0  0  0  0  0  0  0
   -2.2566    0.0600    5.3109 C   0  0  0  0  0  0  0  0  0  0  0  0
   -3.0163   -0.7363    5.3643 H   0  0  0  0  0  0  0  0  0  0  0  0
   -1.4254   -0.2876    5.9452 H   0  0  0  0  0  0  0  0  0  0  0  0
   -2.6947    0.9149    5.8505 H   0  0  0  0  0  0  0  0  0  0  0  0
   -2.5745    1.3149    3.2691 N   0  0  0  0  0  0  0  0  0  0  0  0
   -2.3276    1.7409    1.9167 C   0  0  2  0  0  0  0  0  0  0  0  0
   -0.9926    1.1555    1.4755 C   0  0  0  0  0  0  0  0  0  0  0  0
   -0.1206    0.8028    2.2668 O   0  0  0  0  0  0  0  0  0  0  0  0
   -2.3188    3.2577    1.8072 C   0  0  0  0  0  0  0  0  0  0  0  0
   -3.3395    1.7507    3.7809 H   0  0  0  0  0  0  0  0  0  0  0  0
   -3.1317    1.3224    1.3015 H   0  0  0  0  0  0  0  0  0  0  0  0
   -1.5198    3.6949    2.4169 H   0  0  0  0  0  0  0  0  0  0  0  0
   -2.1594    3.5799    0.7729 H   0  0  0  0  0  0  0  0  0  0  0  0
   -3.2690    3.6789    2.1530 H   0  0  0  0  0  0  0  0  0  0  0  0
   -0.8700    1.1124    0.0921 N   0  0  0  0  0  0  0  0  0  0  0  0
    0.3073    0.6116   -0.5716 C   0  0  2  0  0  0  0  0  0  0  0  0
    0.2795   -0.9081   -0.4536 C   0  0  0  0  0  0  0  0  0  0  0  0
   -0.4402   -1.6203   -1.1505 O   0  0  0  0  0  0  0  0  0  0  0  0
    1.5979    1.1700    0.0390 C   0  0  0  0  0  0  0  0  0  0  0  0
    1.7556    2.6540   -0.1861 C   0  0  0  0  0  0  0  0  0  0  0  0
    2.2412    3.1274   -1.4051 C   0  0  0  0  0  0  0  0  0  0  0  0
    1.4153    3.5523    0.8253 C   0  0  0  0  0  0  0  0  0  0  0  0
    2.3865    4.4990   -1.6126 C   0  0  0  0  0  0  0  0  0  0  0  0
    1.5606    4.9239    0.6177 C   0  0  0  0  0  0  0  0  0  0  0  0
    2.0462    5.3973   -0.6013 C   0  0  0  0  0  0  0  0  0  0  0  0
   -1.6531    1.4091   -0.4852 H   0  0  0  0  0  0  0  0  0  0  0  0
    0.2135    0.8914   -1.6275 H   0  0  0  0  0  0  0  0  0  0  0  0
    2.4707    0.6401   -0.3660 H   0  0  0  0  0  0  0  0  0  0  0  0
    1.6232    0.9818    1.1205 H   0  0  0  0  0  0  0  0  0  0  0  0
    2.5087    2.4348   -2.1989 H   0  0  0  0  0  0  0  0  0  0  0  0
    1.0361    3.1926    1.7781 H   0  0  0  0  0  0  0  0  0  0  0  0
    2.7656    4.8673   -2.5614 H   0  0  0  0  0  0  0  0  0  0  0  0
    1.2966    5.6230    1.4057 H   0  0  0  0  0  0  0  0  0  0  0  0
    2.1607    6.4652   -0.7626 H   0  0  0  0  0  0  0  0  0  0  0  0
    1.1891   -1.3730    0.4860 N   0  0  0  0  0  0  0  0  0  0  0  0
    1.3817   -2.7753    0.7780 C   0  0  2  0  0  0  0  0  0  0  0  0
    0.0135   -3.3957    1.0285 C   0  0  0  0  0  0  0  0  0  0  0  0
   -0.9682   -2.7395    1.3703 O   0  0  0  0  0  0  0  0  0  0  0  0
    2.2948   -2.9703    1.9783 C   0  0  0  0  0  0  0  0  0  0  0  0
    1.7476   -0.6935    0.9940 H   0  0  0  0  0  0  0  0  0  0  0  0
    1.8296   -3.2256   -0.1145 H   0  0  0  0  0  0  0  0  0  0  0  0
    1.8626   -2.5256    2.8822 H   0  0  0  0  0  0  0  0  0  0  0  0
    2.4626   -4.0333    2.1807 H   0  0  0  0  0  0  0  0  0  0  0  0
    3.2683   -2.4977    1.8083 H   0  0  0  0  0  0  0  0  0  0  0  0
    0.0280   -4.7741    0.8672 N   0  0  0  0  0  0  0  0  0  0  0  0
   -1.1449   -5.5942    1.0615 C   0  0  0  0  0  0  0  0  0  0  0  0
    0.8820   -5.2327    0.5637 H   0  0  0  0  0  0  0  0  0  0  0  0
   -1.1729   -5.9546    2.1004 H   0  0  0  0  0  0  0  0  0  0  0  0
   -2.0466   -4.9988    0.8556 H   0  0  0  0  0  0  0  0  0  0  0  0
   -1.1086   -6.4538    0.3761 H   0  0  0  0  0  0  0  0  0  0  0  0
 25 27  1  0  0  0  0
 26 27  2  0  0  0  0
 23 25  2  0  0  0  0
 24 26  1  0  0  0  0
 22 23  1  0  0  0  0
 22 24  2  0  0  0  0
 21 22  1  0  0  0  0
  1  3  1  0  0  0  0
  1  7  1  0  0  0  0
  1  2  2  0  0  0  0
 38 39  1  0  0  0  0
 39 47  1  0  0  0  0
 39 40  2  0  0  0  0
  8  9  1  0  0  0  0
  9 17  1  0  0  0  0
  9 10  2  0  0  0  0
 18 19  1  0  0  0  0
 19 37  1  0  0  0  0
 19 20  2  0  0  0  0
 38 41  1  0  0  0  0
  8 11  1  0  0  0  0
 47 48  1  0  0  0  0
 18 21  1  0  0  0  0
 37 38  1  0  0  0  0
  7  8  1  0  0  0  0
 17 18  1  0  0  0  0
 27 36  1  0  0  0  0
 25 34  1  0  0  0  0
 26 35  1  0  0  0  0
 23 32  1  0  0  0  0
 24 33  1  0  0  0  0
  3  4  1  0  0  0  0
  3  5  1  0  0  0  0
  3  6  1  0  0  0  0
 41 44  1  0  0  0  0
 41 45  1  0  0  0  0
 41 46  1  0  0  0  0
 11 14  1  0  0  0  0
 11 15  1  0  0  0  0
 11 16  1  0  0  0  0
 48 50  1  0  0  0  0
 48 51  1  0  0  0  0
 48 52  1  0  0  0  0
 21 30  1  0  0  0  0
 21 31  1  0  0  0  0
 38 43  1  0  0  0  0
  8 13  1  0  0  0  0
 18 29  1  0  0  0  0
 47 49  1  0  0  0  0
  7 12  1  0  0  0  0
 37 42  1  0  0  0  0
 17 28  1  0  0  0  0
M  END
$$$$

  -OEChem-05262214473D

 52 52  0     1  0  0  0  0  0999 V2000
   -1.8248    0.3424    3.9102 C   0  0  0  0  0  0  0  0  0  0  0  0
   -0.8774   -0.2723    3.4345 O   0  0  0  0  0  0  0  0  0  0  0  0
   -2.2566    0.0600    5.3109 C   0  0  0  0  0  0  0  0  0  0  0  0
   -3.0163   -0.7363    5.3643 H   0  0  0  0  0  0  0  0  0  0  0  0
   -1.4254   -0.2876    5.9452 H   0  0  0  0  0  0  0  0  0  0  0  0
   -2.6947    0.9149    5.8505 H   0  0  0  0  0  0  0  0  0  0  0  0
   -2.5745    1.3149    3.2691 N   0  0  0  0  0  0  0  0  0  0  0  0
   -2.3276    1.7409    1.9167 C   0  0  2  0  0  0  0  0  0  0  0  0
   -0.9926    1.1555    1.4755 C   0  0  0  0  0  0  0  0  0  0  0  0
   -0.1206    0.8028    2.2668 O   0  0  0  0  0  0  0  0  0  0  0  0
   -2.3188    3.2577    1.8072 C   0  0  0  0  0  0  0  0  0  0  0  0
   -3.3395    1.7507    3.7809 H   0  0  0  0  0  0  0  0  0  0  0  0
   -3.1317    1.3224    1.3015 H   0  0  0  0  0  0  0  0  0  0  0  0
   -1.5198    3.6949    2.4169 H   0  0  0  0  0  0  0  0  0  0  0  0
   -2.1594    3.5799    0.7729 H   0  0  0  0  0  0  0  0  0  0  0  0
   -3.2690    3.6789    2.1530 H   0  0  0  0  0  0  0  0  0  0  0  0
   -0.8700    1.1124    0.0921 N   0  0  0  0  0  0  0  0  0  0  0  0
    0.3073    0.6116   -0.5716 C   0  0  2  0  0  0  0  0  0  0  0  0
    0.2795   -0.9081   -0.4536 C   0  0  0  0  0  0  0  0  0  0  0  0
   -0.2220   -1.6364   -1.3073 O   0  0  0  0  0  0  0  0  0  0  0  0
    1.5979    1.1700    0.0390 C   0  0  0  0  0  0  0  0  0  0  0  0
    1.7556    2.6540   -0.1861 C   0  0  0  0  0  0  0  0  0  0  0  0
    2.2412    3.1274   -1.4051 C   0  0  0  0  0  0  0  0  0  0  0  0
    1.4153    3.5523    0.8253 C   0  0  0  0  0  0  0  0  0  0  0  0
    2.3865    4.4990   -1.6126 C   0  0  0  0  0  0  0  0  0  0  0  0
    1.5606    4.9239    0.6177 C   0  0  0  0  0  0  0  0  0  0  0  0
    2.0462    5.3973   -0.6013 C   0  0  0  0  0  0  0  0  0  0  0  0
   -1.6531    1.4091   -0.4852 H   0  0  0  0  0  0  0  0  0  0  0  0
    0.2135    0.8914   -1.6275 H   0  0  0  0  0  0  0  0  0  0  0  0
    2.4707    0.6401   -0.3660 H   0  0  0  0  0  0  0  0  0  0  0  0
    1.6232    0.9818    1.1205 H   0  0  0  0  0  0  0  0  0  0  0  0
    2.5087    2.4348   -2.1989 H   0  0  0  0  0  0  0  0  0  0  0  0
    1.0361    3.1926    1.7781 H   0  0  0  0  0  0  0  0  0  0  0  0
    2.7656    4.8673   -2.5614 H   0  0  0  0  0  0  0  0  0  0  0  0
    1.2966    5.6230    1.4057 H   0  0  0  0  0  0  0  0  0  0  0  0
    2.1607    6.4652   -0.7626 H   0  0  0  0  0  0  0  0  0  0  0  0
    0.9247   -1.3522    0.6923 N   0  0  0  0  0  0  0  0  0  0  0  0
    1.0625   -2.7496    1.0343 C   0  0  2  0  0  0  0  0  0  0  0  0
   -0.3116   -3.3976    0.9279 C   0  0  0  0  0  0  0  0  0  0  0  0
   -1.3608   -2.7611    1.0002 O   0  0  0  0  0  0  0  0  0  0  0  0
    1.6387   -2.9231    2.4310 C   0  0  0  0  0  0  0  0  0  0  0  0
    1.3199   -0.6602    1.3221 H   0  0  0  0  0  0  0  0  0  0  0  0
    1.7343   -3.1924    0.2909 H   0  0  0  0  0  0  0  0  0  0  0  0
    0.9793   -2.4856    3.1895 H   0  0  0  0  0  0  0  0  0  0  0  0
    1.7691   -3.9820    2.6776 H   0  0  0  0  0  0  0  0  0  0  0  0
    2.6137   -2.4309    2.5143 H   0  0  0  0  0  0  0  0  0  0  0  0
   -0.2292   -4.7757    0.7861 N   0  0  0  0  0  0  0  0  0  0  0  0
   -1.3963   -5.6194    0.6772 C   0  0  0  0  0  0  0  0  0  0  0  0
    0.6830   -5.2172    0.7165 H   0  0  0  0  0  0  0  0  0  0  0  0
   -1.6845   -5.9782    1.6763 H   0  0  0  0  0  0  0  0  0  0  0  0
   -2.2258   -5.0432    0.2413 H   0  0  0  0  0  0  0  0  0  0  0  0
   -1.1678   -6.4796    0.0307 H   0  0  0  0  0  0  0  0  0  0  0  0
 25 27  1  0  0  0  0
 26 27  2  0  0  0  0
 23 25  2  0  0  0  0
 24 26  1  0  0  0  0
 22 23  1  0  0  0  0
 22 24  2  0  0  0  0
 21 22  1  0  0  0  0
  1  3  1  0  0  0  0
  1  7  1  0  0  0  0
  1  2  2  0  0  0  0
 38 39  1  0  0  0  0
 39 47  1  0  0  0  0
 39 40  2  0  0  0  0
  8  9  1  0  0  0  0
  9 17  1  0  0  0  0
  9 10  2  0  0  0  0
 18 19  1  0  0  0  0
 19 37  1  0  0  0  0
 19 20  2  0  0  0  0
 38 41  1  0  0  0  0
  8 11  1  0  0  0  0
 47 48  1  0  0  0  0
 18 21  1  0  0  0  0
 37 38  1  0  0  0  0
  7  8  1  0  0  0  0
 17 18  1  0  0  0  0
 27 36  1  0  0  0  0
 25 34  1  0  0  0  0
 26 35  1  0  0  0  0
 23 32  1  0  0  0  0
 24 33  1  0  0  0  0
  3  4  1  0  0  0  0
  3  5  1  0  0  0  0
  3  6  1  0  0  0  0
 41 44  1  0  0  0  0
 41 45  1  0  0  0  0
 41 46  1  0  0  0  0
 11 14  1  0  0  0  0
 11 15  1  0  0  0  0
 11 16  1  0  0  0  0
 48 50  1  0  0  0  0
 48 51  1  0  0  0  0
 48 52  1  0  0  0  0
 21 30  1  0  0  0  0
 21 31  1  0  0  0  0
 38 43  1  0  0  0  0
  8 13  1  0  0  0  0
 18 29  1  0  0  0  0
 47 49  1  0  0  0  0
  7 12  1  0  0  0  0
 37 42  1  0  0  0  0
 17 28  1  0  0  0  0
M  END
$$$$

  -OEChem-05262214473D

 52 52  0     1  0  0  0  0  0999 V2000
   -1.8248    0.3424    3.9102 C   0  0  0  0  0  0  0  0  0  0  0  0
   -0.8774   -0.2723    3.4345 O   0  0  0  0  0  0  0  0  0  0  0  0
   -2.2566    0.0600    5.3109 C   0  0  0  0  0  0  0  0  0  0  0  0
   -3.0163   -0.7363    5.3643 H   0  0  0  0  0  0  0  0  0  0  0  0
   -1.4254   -0.2876    5.9452 H   0  0  0  0  0  0  0  0  0  0  0  0
   -2.6947    0.9149    5.8505 H   0  0  0  0  0  0  0  0  0  0  0  0
   -2.5745    1.3149    3.2691 N   0  0  0  0  0  0  0  0  0  0  0  0
   -2.3276    1.7409    1.9167 C   0  0  2  0  0  0  0  0  0  0  0  0
   -0.9926    1.1555    1.4755 C   0  0  0  0  0  0  0  0  0  0  0  0
   -0.1206    0.8028    2.2668 O   0  0  0  0  0  0  0  0  0  0  0  0
   -2.3188    3.2577    1.8072 C   0  0  0  0  0  0  0  0  0  0  0  0
   -3.3395    1.7507    3.7809 H   0  0  0  0  0  0  0  0  0  0  0  0
   -3.1317    1.3224    1.3015 H   0  0  0  0  0  0  0  0  0  0  0  0
   -1.5198    3.6949    2.4169 H   0  0  0  0  0  0  0  0  0  0  0  0
   -2.1594    3.5799    0.7729 H   0  0  0  0  0  0  0  0  0  0  0  0
   -3.2690    3.6789    2.1530 H   0  0  0  0  0  0  0  0  0  0  0  0
   -0.8700    1.1124    0.0921 N   0  0  0  0  0  0  0  0  0  0  0  0
    0.3073    0.6116   -0.5716 C   0  0  2  0  0  0  0  0  0  0  0  0
    0.2795   -0.9081   -0.4536 C   0  0  0  0  0  0  0  0  0  0  0  0
    0.0295   -1.6484   -1.4024 O   0  0  0  0  0  0  0  0  0  0  0  0
    1.5979    1.1700    0.0390 C   0  0  0  0  0  0  0  0  0  0  0  0
    1.7556    2.6540   -0.1861 C   0  0  0  0  0  0  0  0  0  0  0  0
    2.2412    3.1274   -1.4051 C   0  0  0  0  0  0  0  0  0  0  0  0
    1.4153    3.5523    0.8253 C   0  0  0  0  0  0  0  0  0  0  0  0
    2.3865    4.4990   -1.6126 C   0  0  0  0  0  0  0  0  0  0  0  0
    1.5606    4.9239    0.6177 C   0  0  0  0  0  0  0  0  0  0  0  0
    2.0462    5.3973   -0.6013 C   0  0  0  0  0  0  0  0  0  0  0  0
   -1.6531    1.4091   -0.4852 H   0  0  0  0  0  0  0  0  0  0  0  0
    0.2135    0.8914   -1.6275 H   0  0  0  0  0  0  0  0  0  0  0  0
    2.4707    0.6401   -0.3660 H   0  0  0  0  0  0  0  0  0  0  0  0
    1.6232    0.9818    1.1205 H   0  0  0  0  0  0  0  0  0  0  0  0
    2.5087    2.4348   -2.1989 H   0  0  0  0  0  0  0  0  0  0  0  0
    1.0361    3.1926    1.7781 H   0  0  0  0  0  0  0  0  0  0  0  0
    2.7656    4.8673   -2.5614 H   0  0  0  0  0  0  0  0  0  0  0  0
    1.2966    5.6230    1.4057 H   0  0  0  0  0  0  0  0  0  0  0  0
    2.1607    6.4652   -0.7626 H   0  0  0  0  0  0  0  0  0  0  0  0
    0.6157   -1.3363    0.8232 N   0  0  0  0  0  0  0  0  0  0  0  0
    0.6877   -2.7299    1.1995 C   0  0  2  0  0  0  0  0  0  0  0  0
   -0.5996   -3.4063    0.7470 C   0  0  0  0  0  0  0  0  0  0  0  0
   -1.6441   -2.7915    0.5415 O   0  0  0  0  0  0  0  0  0  0  0  0
    0.8871   -2.8886    2.6987 C   0  0  0  0  0  0  0  0  0  0  0  0
    0.8214   -0.6350    1.5285 H   0  0  0  0  0  0  0  0  0  0  0  0
    1.5370   -3.1603    0.6578 H   0  0  0  0  0  0  0  0  0  0  0  0
    0.0460   -2.4632    3.2582 H   0  0  0  0  0  0  0  0  0  0  0  0
    0.9701   -3.9440    2.9784 H   0  0  0  0  0  0  0  0  0  0  0  0
    1.7978   -2.3762    3.0271 H   0  0  0  0  0  0  0  0  0  0  0  0
   -0.4567   -4.7828    0.6413 N   0  0  0  0  0  0  0  0  0  0  0  0
   -1.5396   -5.6507    0.2413 C   0  0  0  0  0  0  0  0  0  0  0  0
    0.4509   -5.2055    0.8126 H   0  0  0  0  0  0  0  0  0  0  0  0
   -2.0688   -6.0132    1.1348 H   0  0  0  0  0  0  0  0  0  0  0  0
   -2.2395   -5.0926   -0.3981 H   0  0  0  0  0  0  0  0  0  0  0  0
   -1.1353   -6.5072   -0.3181 H   0  0  0  0  0  0  0  0  0  0  0  0
 25 27  1  0  0  0  0
 26 27  2  0  0  0  0
 23 25  2  0  0  0  0
 24 26  1  0  0  0  0
 22 23  1  0  0  0  0
 22 24  2  0  0  0  0
 21 22  1  0  0  0  0
  1  3  1  0  0  0  0
  1  7  1  0  0  0  0
  1  2  2  0  0  0  0
 38 39  1  0  0  0  0
 39 47  1  0  0  0  0
 39 40  2  0  0  0  0
  8  9  1  0  0  0  0
  9 17  1  0  0  0  0
  9 10  2  0  0  0  0
 18 19  1  0  0  0  0
 19 37  1  0  0  0  0
 19 20  2  0  0  0  0
 38 41  1  0  0  0  0
  8 11  1  0  0  0  0
 47 48  1  0  0  0  0
 18 21  1  0  0  0  0
 37 38  1  0  0  0  0
  7  8  1  0  0  0  0
 17 18  1  0  0  0  0
 27 36  1  0  0  0  0
 25 34  1  0  0  0  0
 26 35  1  0  0  0  0
 23 32  1  0  0  0  0
 24 33  1  0  0  0  0
  3  4  1  0  0  0  0
  3  5  1  0  0  0  0
  3  6  1  0  0  0  0
 41 44  1  0  0  0  0
 41 45  1  0  0  0  0
 41 46  1  0  0  0  0
 11 14  1  0  0  0  0
 11 15  1  0  0  0  0
 11 16  1  0  0  0  0
 48 50  1  0  0  0  0
 48 51  1  0  0  0  0
 48 52  1  0  0  0  0
 21 30  1  0  0  0  0
 21 31  1  0  0  0  0
 38 43  1  0  0  0  0
  8 13  1  0  0  0  0
 18 29  1  0  0  0  0
 47 49  1  0  0  0  0
  7 12  1  0  0  0  0
 37 42  1  0  0  0  0
 17 28  1  0  0  0  0
M  END
$$$$

  -OEChem-05262214473D

 52 52  0     1  0  0  0  0  0999 V2000
   -1.8248    0.3424    3.9102 C   0  0  0  0  0  0  0  0  0  0  0  0
   -0.8774   -0.2723    3.4345 O   0  0  0  0  0  0  0  0  0  0  0  0
   -2.2566    0.0600    5.3109 C   0  0  0  0  0  0  0  0  0  0  0  0
   -3.0163   -0.7363    5.3643 H   0  0  0  0  0  0  0  0  0  0  0  0
   -1.4254   -0.2876    5.9452 H   0  0  0  0  0  0  0  0  0  0  0  0
   -2.6947    0.9149    5.8505 H   0  0  0  0  0  0  0  0  0  0  0  0
   -2.5745    1.3149    3.2691 N   0  0  0  0  0  0  0  0  0  0  0  0
   -2.3276    1.7409    1.9167 C   0  0  2  0  0  0  0  0  0  0  0  0
   -0.9926    1.1555    1.4755 C   0  0  0  0  0  0  0  0  0  0  0  0
   -0.1206    0.8028    2.2668 O   0  0  0  0  0  0  0  0  0  0  0  0
   -2.3188    3.2577    1.8072 C   0  0  0  0  0  0  0  0  0  0  0  0
   -3.3395    1.7507    3.7809 H   0  0  0  0  0  0  0  0  0  0  0  0
   -3.1317    1.3224    1.3015 H   0  0  0  0  0  0  0  0  0  0  0  0
   -1.5198    3.6949    2.4169 H   0  0  0  0  0  0  0  0  0  0  0  0
   -2.1594    3.5799    0.7729 H   0  0  0  0  0  0  0  0  0  0  0  0
   -3.2690    3.6789    2.1530 H   0  0  0  0  0  0  0  0  0  0  0  0
   -0.8700    1.1124    0.0921 N   0  0  0  0  0  0  0  0  0  0  0  0
    0.3073    0.6116   -0.5716 C   0  0  2  0  0  0  0  0  0  0  0  0
    0.2795   -0.9081   -0.4536 C   0  0  0  0  0  0  0  0  0  0  0  0
    0.2973   -1.6554   -1.4293 O   0  0  0  0  0  0  0  0  0  0  0  0
    1.5979    1.1700    0.0390 C   0  0  0  0  0  0  0  0  0  0  0  0
    1.7556    2.6540   -0.1861 C   0  0  0  0  0  0  0  0  0  0  0  0
    2.2412    3.1274   -1.4051 C   0  0  0  0  0  0  0  0  0  0  0  0
    1.4153    3.5523    0.8253 C   0  0  0  0  0  0  0  0  0  0  0  0
    2.3865    4.4990   -1.6126 C   0  0  0  0  0  0  0  0  0  0  0  0
    1.5606    4.9239    0.6177 C   0  0  0  0  0  0  0  0  0  0  0  0
    2.0462    5.3973   -0.6013 C   0  0  0  0  0  0  0  0  0  0  0  0
   -1.6531    1.4091   -0.4852 H   0  0  0  0  0  0  0  0  0  0  0  0
    0.2135    0.8914   -1.6275 H   0  0  0  0  0  0  0  0  0  0  0  0
    2.4707    0.6401   -0.3660 H   0  0  0  0  0  0  0  0  0  0  0  0
    1.6232    0.9818    1.1205 H   0  0  0  0  0  0  0  0  0  0  0  0
    2.5087    2.4348   -2.1989 H   0  0  0  0  0  0  0  0  0  0  0  0
    1.0361    3.1926    1.7781 H   0  0  0  0  0  0  0  0  0  0  0  0
    2.7656    4.8673   -2.5614 H   0  0  0  0  0  0  0  0  0  0  0  0
    1.2966    5.6230    1.4057 H   0  0  0  0  0  0  0  0  0  0  0  0
    2.1607    6.4652   -0.7626 H   0  0  0  0  0  0  0  0  0  0  0  0
    0.2831   -1.3266    0.8698 N   0  0  0  0  0  0  0  0  0  0  0  0
    0.2826   -2.7176    1.2621 C   0  0  2  0  0  0  0  0  0  0  0  0
   -0.8310   -3.4214    0.4979 C   0  0  0  0  0  0  0  0  0  0  0  0
   -1.7988   -2.8287    0.0254 O   0  0  0  0  0  0  0  0  0  0  0  0
    0.0914   -2.8690    2.7632 C   0  0  0  0  0  0  0  0  0  0  0  0
    0.2862   -0.6197    1.5992 H   0  0  0  0  0  0  0  0  0  0  0  0
    1.2511   -3.1315    0.9610 H   0  0  0  0  0  0  0  0  0  0  0  0
   -0.8736   -2.4599    3.0837 H   0  0  0  0  0  0  0  0  0  0  0  0
    0.1199   -3.9219    3.0626 H   0  0  0  0  0  0  0  0  0  0  0  0
    0.8764   -2.3372    3.3117 H   0  0  0  0  0  0  0  0  0  0  0  0
   -0.6389   -4.7948    0.4428 N   0  0  0  0  0  0  0  0  0  0  0  0
   -1.5649   -5.6857   -0.2167 C   0  0  0  0  0  0  0  0  0  0  0  0
    0.2018   -5.1983    0.8455 H   0  0  0  0  0  0  0  0  0  0  0  0
   -2.2996   -6.0573    0.5128 H   0  0  0  0  0  0  0  0  0  0  0  0
   -2.0868   -5.1436   -1.0190 H   0  0  0  0  0  0  0  0  0  0  0  0
   -1.0134   -6.5350   -0.6465 H   0  0  0  0  0  0  0  0  0  0  0  0
 25 27  1  0  0  0  0
 26 27  2  0  0  0  0
 23 25  2  0  0  0  0
 24 26  1  0  0  0  0
 22 23  1  0  0  0  0
 22 24  2  0  0  0  0
 21 22  1  0  0  0  0
  1  3  1  0  0  0  0
  1  7  1  0  0  0  0
  1  2  2  0  0  0  0
 38 39  1  0  0  0  0
 39 47  1  0  0  0  0
 39 40  2  0  0  0  0
  8  9  1  0  0  0  0
  9 17  1  0  0  0  0
  9 10  2  0  0  0  0
 18 19  1  0  0  0  0
 19 37  1  0  0  0  0
 19 20  2  0  0  0  0
 38 41  1  0  0  0  0
  8 11  1  0  0  0  0
 47 48  1  0  0  0  0
 18 21  1  0  0  0  0
 37 38  1  0  0  0  0
  7  8  1  0  0  0  0
 17 18  1  0  0  0  0
 27 36  1  0  0  0  0
 25 34  1  0  0  0  0
 26 35  1  0  0  0  0
 23 32  1  0  0  0  0
 24 33  1  0  0  0  0
  3  4  1  0  0  0  0
  3  5  1  0  0  0  0
  3  6  1  0  0  0  0
 41 44  1  0  0  0  0
 41 45  1  0  0  0  0
 41 46  1  0  0  0  0
 11 14  1  0  0  0  0
 11 15  1  0  0  0  0
 11 16  1  0  0  0  0
 48 50  1  0  0  0  0
 48 51  1  0  0  0  0
 48 52  1  0  0  0  0
 21 30  1  0  0  0  0
 21 31  1  0  0  0  0
 38 43  1  0  0  0  0
  8 13  1  0  0  0  0
 18 29  1  0  0  0  0
 47 49  1  0  0  0  0
  7 12  1  0  0  0  0
 37 42  1  0  0  0  0
 17 28  1  0  0  0  0
M  END
$$$$

  -OEChem-05262214473D

 52 52  0     1  0  0  0  0  0999 V2000
   -1.8248    0.3424    3.9102 C   0  0  0  0  0  0  0  0  0  0  0  0
   -0.8774   -0.2723    3.4345 O   0  0  0  0  0  0  0  0  0  0  0  0
   -2.2566    0.0600    5.3109 C   0  0  0  0  0  0  0  0  0  0  0  0
   -3.0163   -0.7363    5.3643 H   0  0  0  0  0  0  0  0  0  0  0  0
   -1.4254   -0.2876    5.9452 H   0  0  0  0  0  0  0  0  0  0  0  0
   -2.6947    0.9149    5.8505 H   0  0  0  0  0  0  0  0  0  0  0  0
   -2.5745    1.3149    3.2691 N   0  0  0  0  0  0  0  0  0  0  0  0
   -2.3276    1.7409    1.9167 C   0  0  2  0  0  0  0  0  0  0  0  0
   -0.9926    1.1555    1.4755 C   0  0  0  0  0  0  0  0  0  0  0  0
   -0.1206    0.8028    2.2668 O   0  0  0  0  0  0  0  0  0  0  0  0
   -2.3188    3.2577    1.8072 C   0  0  0  0  0  0  0  0  0  0  0  0
   -3.3395    1.7507    3.7809 H   0  0  0  0  0  0  0  0  0  0  0  0
   -3.1317    1.3224    1.3015 H   0  0  0  0  0  0  0  0  0  0  0  0
   -1.5198    3.6949    2.4169 H   0  0  0  0  0  0  0  0  0  0  0  0
   -2.1594    3.5799    0.7729 H   0  0  0  0  0  0  0  0  0  0  0  0
   -3.2690    3.6789    2.1530 H   0  0  0  0  0  0  0  0  0  0  0  0
   -0.8700    1.1124    0.0921 N   0  0  0  0  0  0  0  0  0  0  0  0
    0.3073    0.6116   -0.5716 C   0  0  2  0  0  0  0  0  0  0  0  0
    0.2795   -0.9081   -0.4536 C   0  0  0  0  0  0  0  0  0  0  0  0
    0.5629   -1.6569   -1.3862 O   0  0  0  0  0  0  0  0  0  0  0  0
    1.5979    1.1700    0.0390 C   0  0  0  0  0  0  0  0  0  0  0  0
    1.7556    2.6540   -0.1861 C   0  0  0  0  0  0  0  0  0  0  0  0
    2.2412    3.1274   -1.4051 C   0  0  0  0  0  0  0  0  0  0  0  0
    1.4153    3.5523    0.8253 C   0  0  0  0  0  0  0  0  0  0  0  0
    2.3865    4.4990   -1.6126 C   0  0  0  0  0  0  0  0  0  0  0  0
    1.5606    4.9239    0.6177 C   0  0  0  0  0  0  0  0  0  0  0  0
    2.0462    5.3973   -0.6013 C   0  0  0  0  0  0  0  0  0  0  0  0
   -1.6531    1.4091   -0.4852 H   0  0  0  0  0  0  0  0  0  0  0  0
    0.2135    0.8914   -1.6275 H   0  0  0  0  0  0  0  0  0  0  0  0
    2.4707    0.6401   -0.3660 H   0  0  0  0  0  0  0  0  0  0  0  0
    1.6232    0.9818    1.1205 H   0  0  0  0  0  0  0  0  0  0  0  0
    2.5087    2.4348   -2.1989 H   0  0  0  0  0  0  0  0  0  0  0  0
    1.0361    3.1926    1.7781 H   0  0  0  0  0  0  0  0  0  0  0  0
    2.7656    4.8673   -2.5614 H   0  0  0  0  0  0  0  0  0  0  0  0
    1.2966    5.6230    1.4057 H   0  0  0  0  0  0  0  0  0  0  0  0
    2.1607    6.4652   -0.7626 H   0  0  0  0  0  0  0  0  0  0  0  0
   -0.0504   -1.3237    0.8289 N   0  0  0  0  0  0  0  0  0  0  0  0
   -0.1252   -2.7136    1.2181 C   0  0  2  0  0  0  0  0  0  0  0  0
   -0.9899   -3.4418    0.1977 C   0  0  0  0  0  0  0  0  0  0  0  0
   -1.8143   -2.8702   -0.5128 O   0  0  0  0  0  0  0  0  0  0  0  0
   -0.6942   -2.8657    2.6202 C   0  0  0  0  0  0  0  0  0  0  0  0
   -0.2493   -0.6154    1.5293 H   0  0  0  0  0  0  0  0  0  0  0  0
    0.8961   -3.1080    1.1801 H   0  0  0  0  0  0  0  0  0  0  0  0
   -1.7170   -2.4760    2.6778 H   0  0  0  0  0  0  0  0  0  0  0  0
   -0.7235   -3.9172    2.9245 H   0  0  0  0  0  0  0  0  0  0  0  0
   -0.0878   -2.3167    3.3486 H   0  0  0  0  0  0  0  0  0  0  0  0
   -0.7635   -4.8111    0.2041 N   0  0  0  0  0  0  0  0  0  0  0  0
   -1.4704   -5.7223   -0.6653 C   0  0  0  0  0  0  0  0  0  0  0  0
   -0.0475   -5.1963    0.8130 H   0  0  0  0  0  0  0  0  0  0  0  0
   -2.3612   -6.1074   -0.1474 H   0  0  0  0  0  0  0  0  0  0  0  0
   -1.7780   -5.1928   -1.5791 H   0  0  0  0  0  0  0  0  0  0  0  0
   -0.8104   -6.5609   -0.9321 H   0  0  0  0  0  0  0  0  0  0  0  0
 25 27  1  0  0  0  0
 26 27  2  0  0  0  0
 23 25  2  0  0  0  0
 24 26  1  0  0  0  0
 22 23  1  0  0  0  0
 22 24  2  0  0  0  0
 21 22  1  0  0  0  0
  1  3  1  0  0  0  0
  1  7  1  0  0  0  0
  1  2  2  0  0  0  0
 38 39  1  0  0  0  0
 39 47  1  0  0  0  0
 39 40  2  0  0  0  0
  8  9  1  0  0  0  0
  9 17  1  0  0  0  0
  9 10  2  0  0  0  0
 18 19  1  0  0  0  0
 19 37  1  0  0  0  0
 19 20  2  0  0  0  0
 38 41  1  0  0  0  0
  8 11  1  0  0  0  0
 47 48  1  0  0  0  0
 18 21  1  0  0  0  0
 37 38  1  0  0  0  0
  7  8  1  0  0  0  0
 17 18  1  0  0  0  0
 27 36  1  0  0  0  0
 25 34  1  0  0  0  0
 26 35  1  0  0  0  0
 23 32  1  0  0  0  0
 24 33  1  0  0  0  0
  3  4  1  0  0  0  0
  3  5  1  0  0  0  0
  3  6  1  0  0  0  0
 41 44  1  0  0  0  0
 41 45  1  0  0  0  0
 41 46  1  0  0  0  0
 11 14  1  0  0  0  0
 11 15  1  0  0  0  0
 11 16  1  0  0  0  0
 48 50  1  0  0  0  0
 48 51  1  0  0  0  0
 48 52  1  0  0  0  0
 21 30  1  0  0  0  0
 21 31  1  0  0  0  0
 38 43  1  0  0  0  0
  8 13  1  0  0  0  0
 18 29  1  0  0  0  0
 47 49  1  0  0  0  0
  7 12  1  0  0  0  0
 37 42  1  0  0  0  0
 17 28  1  0  0  0  0
M  END
$$$$

  -OEChem-05262214473D

 52 52  0     1  0  0  0  0  0999 V2000
   -1.8248    0.3424    3.9102 C   0  0  0  0  0  0  0  0  0  0  0  0
   -0.8774   -0.2723    3.4345 O   0  0  0  0  0  0  0  0  0  0  0  0
   -2.2566    0.0600    5.3109 C   0  0  0  0  0  0  0  0  0  0  0  0
   -3.0163   -0.7363    5.3643 H   0  0  0  0  0  0  0  0  0  0  0  0
   -1.4254   -0.2876    5.9452 H   0  0  0  0  0  0  0  0  0  0  0  0
   -2.6947    0.9149    5.8505 H   0  0  0  0  0  0  0  0  0  0  0  0
   -2.5745    1.3149    3.2691 N   0  0  0  0  0  0  0  0  0  0  0  0
   -2.3276    1.7409    1.9167 C   0  0  2  0  0  0  0  0  0  0  0  0
   -0.9926    1.1555    1.4755 C   0  0  0  0  0  0  0  0  0  0  0  0
   -0.1206    0.8028    2.2668 O   0  0  0  0  0  0  0  0  0  0  0  0
   -2.3188    3.2577    1.8072 C   0  0  0  0  0  0  0  0  0  0  0  0
   -3.3395    1.7507    3.7809 H   0  0  0  0  0  0  0  0  0  0  0  0
   -3.1317    1.3224    1.3015 H   0  0  0  0  0  0  0  0  0  0  0  0
   -1.5198    3.6949    2.4169 H   0  0  0  0  0  0  0  0  0  0  0  0
   -2.1594    3.5799    0.7729 H   0  0  0  0  0  0  0  0  0  0  0  0
   -3.2690    3.6789    2.1530 H   0  0  0  0  0  0  0  0  0  0  0  0
   -0.8700    1.1124    0.0921 N   0  0  0  0  0  0  0  0  0  0  0  0
    0.3073    0.6116   -0.5716 C   0  0  2  0  0  0  0  0  0  0  0  0
    0.2795   -0.9081   -0.4536 C   0  0  0  0  0  0  0  0  0  0  0  0
    0.8085   -1.6529   -1.2760 O   0  0  0  0  0  0  0  0  0  0  0  0
    1.5979    1.1700    0.0390 C   0  0  0  0  0  0  0  0  0  0  0  0
    1.7556    2.6540   -0.1861 C   0  0  0  0  0  0  0  0  0  0  0  0
    2.2412    3.1274   -1.4051 C   0  0  0  0  0  0  0  0  0  0  0  0
    1.4153    3.5523    0.8253 C   0  0  0  0  0  0  0  0  0  0  0  0
    2.3865    4.4990   -1.6126 C   0  0  0  0  0  0  0  0  0  0  0  0
    1.5606    4.9239    0.6177 C   0  0  0  0  0  0  0  0  0  0  0  0
    2.0462    5.3973   -0.6013 C   0  0  0  0  0  0  0  0  0  0  0  0
   -1.6531    1.4091   -0.4852 H   0  0  0  0  0  0  0  0  0  0  0  0
    0.2135    0.8914   -1.6275 H   0  0  0  0  0  0  0  0  0  0  0  0
    2.4707    0.6401   -0.3660 H   0  0  0  0  0  0  0  0  0  0  0  0
    1.6232    0.9818    1.1205 H   0  0  0  0  0  0  0  0  0  0  0  0
    2.5087    2.4348   -2.1989 H   0  0  0  0  0  0  0  0  0  0  0  0
    1.0361    3.1926    1.7781 H   0  0  0  0  0  0  0  0  0  0  0  0
    2.7656    4.8673   -2.5614 H   0  0  0  0  0  0  0  0  0  0  0  0
    1.2966    5.6230    1.4057 H   0  0  0  0  0  0  0  0  0  0  0  0
    2.1607    6.4652   -0.7626 H   0  0  0  0  0  0  0  0  0  0  0  0
   -0.3621   -1.3277    0.7035 N   0  0  0  0  0  0  0  0  0  0  0  0
   -0.5077   -2.7180    1.0704 C   0  0  2  0  0  0  0  0  0  0  0  0
   -1.0655   -3.4661   -0.1332 C   0  0  0  0  0  0  0  0  0  0  0  0
   -1.6896   -2.9132   -1.0364 O   0  0  0  0  0  0  0  0  0  0  0  0
   -1.4162   -2.8790    2.2793 C   0  0  0  0  0  0  0  0  0  0  0  0
   -0.7487   -0.6222    1.3235 H   0  0  0  0  0  0  0  0  0  0  0  0
    0.4963   -3.0914    1.3000 H   0  0  0  0  0  0  0  0  0  0  0  0
   -2.4266   -2.5103    2.0683 H   0  0  0  0  0  0  0  0  0  0  0  0
   -1.5027   -3.9302    2.5735 H   0  0  0  0  0  0  0  0  0  0  0  0
   -1.0290   -2.3160    3.1355 H   0  0  0  0  0  0  0  0  0  0  0  0
   -0.8219   -4.8304   -0.0585 N   0  0  0  0  0  0  0  0  0  0  0  0
   -1.2627   -5.7579   -1.0741 C   0  0  0  0  0  0  0  0  0  0  0  0
   -0.2800   -5.1995    0.7173 H   0  0  0  0  0  0  0  0  0  0  0  0
   -2.2493   -6.1602   -0.8007 H   0  0  0  0  0  0  0  0  0  0  0  0
   -1.3344   -5.2367   -2.0402 H   0  0  0  0  0  0  0  0  0  0  0  0
   -0.5400   -6.5831   -1.1554 H   0  0  0  0  0  0  0  0  0  0  0  0
 25 27  1  0  0  0  0
 26 27  2  0  0  0  0
 23 25  2  0  0  0  0
 24 26  1  0  0  0  0
 22 23  1  0  0  0  0
 22 24  2  0  0  0  0
 21 22  1  0  0  0  0
  1  3  1  0  0  0  0
  1  7  1  0  0  0  0
  1  2  2  0  0  0  0
 38 39  1  0  0  0  0
 39 47  1  0  0  0  0
 39 40  2  0  0  0  0
  8  9  1  0  0  0  0
  9 17  1  0  0  0  0
  9 10  2  0  0  0  0
 18 19  1  0  0  0  0
 19 37  1  0  0  0  0
 19 20  2  0  0  0  0
 38 41  1  0  0  0  0
  8 11  1  0  0  0  0
 47 48  1  0  0  0  0
 18 21  1  0  0  0  0
 37 38  1  0  0  0  0
  7  8  1  0  0  0  0
 17 18  1  0  0  0  0
 27 36  1  0  0  0  0
 25 34  1  0  0  0  0
 26 35  1  0  0  0  0
 23 32  1  0  0  0  0
 24 33  1  0  0  0  0
  3  4  1  0  0  0  0
  3  5  1  0  0  0  0
  3  6  1  0  0  0  0
 41 44  1  0  0  0  0
 41 45  1  0  0  0  0
 41 46  1  0  0  0  0
 11 14  1  0  0  0  0
 11 15  1  0  0  0  0
 11 16  1  0  0  0  0
 48 50  1  0  0  0  0
 48 51  1  0  0  0  0
 48 52  1  0  0  0  0
 21 30  1  0  0  0  0
 21 31  1  0  0  0  0
 38 43  1  0  0  0  0
  8 13  1  0  0  0  0
 18 29  1  0  0  0  0
 47 49  1  0  0  0  0
  7 12  1  0  0  0  0
 37 42  1  0  0  0  0
 17 28  1  0  0  0  0
M  END
$$$$

  -OEChem-05262214473D

 52 52  0     1  0  0  0  0  0999 V2000
   -1.8248    0.3424    3.9102 C   0  0  0  0  0  0  0  0  0  0  0  0
   -0.8774   -0.2723    3.4345 O   0  0  0  0  0  0  0  0  0  0  0  0
   -2.2566    0.0600    5.3109 C   0  0  0  0  0  0  0  0  0  0  0  0
   -3.0163   -0.7363    5.3643 H   0  0  0  0  0  0  0  0  0  0  0  0
   -1.4254   -0.2876    5.9452 H   0  0  0  0  0  0  0  0  0  0  0  0
   -2.6947    0.9149    5.8505 H   0  0  0  0  0  0  0  0  0  0  0  0
   -2.5745    1.3149    3.2691 N   0  0  0  0  0  0  0  0  0  0  0  0
   -2.3276    1.7409    1.9167 C   0  0  2  0  0  0  0  0  0  0  0  0
   -0.9926    1.1555    1.4755 C   0  0  0  0  0  0  0  0  0  0  0  0
   -0.1206    0.8028    2.2668 O   0  0  0  0  0  0  0  0  0  0  0  0
   -2.3188    3.2577    1.8072 C   0  0  0  0  0  0  0  0  0  0  0  0
   -3.3395    1.7507    3.7809 H   0  0  0  0  0  0  0  0  0  0  0  0
   -3.1317    1.3224    1.3015 H   0  0  0  0  0  0  0  0  0  0  0  0
   -1.5198    3.6949    2.4169 H   0  0  0  0  0  0  0  0  0  0  0  0
   -2.1594    3.5799    0.7729 H   0  0  0  0  0  0  0  0  0  0  0  0
   -3.2690    3.6789    2.1530 H   0  0  0  0  0  0  0  0  0  0  0  0
   -0.8700    1.1124    0.0921 N   0  0  0  0  0  0  0  0  0  0  0  0
    0.3073    0.6116   -0.5716 C   0  0  2  0  0  0  0  0  0  0  0  0
    0.2795   -0.9081   -0.4536 C   0  0  0  0  0  0  0  0  0  0  0  0
    1.0172   -1.6435   -1.1062 O   0  0  0  0  0  0  0  0  0  0  0  0
    1.5979    1.1700    0.0390 C   0  0  0  0  0  0  0  0  0  0  0  0
    1.7556    2.6540   -0.1861 C   0  0  0  0  0  0  0  0  0  0  0  0
    2.2412    3.1274   -1.4051 C   0  0  0  0  0  0  0  0  0  0  0  0
    1.4153    3.5523    0.8253 C   0  0  0  0  0  0  0  0  0  0  0  0
    2.3865    4.4990   -1.6126 C   0  0  0  0  0  0  0  0  0  0  0  0
    1.5606    4.9239    0.6177 C   0  0  0  0  0  0  0  0  0  0  0  0
    2.0462    5.3973   -0.6013 C   0  0  0  0  0  0  0  0  0  0  0  0
   -1.6531    1.4091   -0.4852 H   0  0  0  0  0  0  0  0  0  0  0  0
    0.2135    0.8914   -1.6275 H   0  0  0  0  0  0  0  0  0  0  0  0
    2.4707    0.6401   -0.3660 H   0  0  0  0  0  0  0  0  0  0  0  0
    1.6232    0.9818    1.1205 H   0  0  0  0  0  0  0  0  0  0  0  0
    2.5087    2.4348   -2.1989 H   0  0  0  0  0  0  0  0  0  0  0  0
    1.0361    3.1926    1.7781 H   0  0  0  0  0  0  0  0  0  0  0  0
    2.7656    4.8673   -2.5614 H   0  0  0  0  0  0  0  0  0  0  0  0
    1.2966    5.6230    1.4057 H   0  0  0  0  0  0  0  0  0  0  0  0
    2.1607    6.4652   -0.7626 H   0  0  0  0  0  0  0  0  0  0  0  0
   -0.6306   -1.3385    0.5019 N   0  0  0  0  0  0  0  0  0  0  0  0
   -0.8390   -2.7307    0.8290 C   0  0  2  0  0  0  0  0  0  0  0  0
   -1.0527   -3.4927   -0.4722 C   0  0  0  0  0  0  0  0  0  0  0  0
   -1.4332   -2.9546   -1.5099 O   0  0  0  0  0  0  0  0  0  0  0  0
   -2.0254   -2.9079    1.7638 C   0  0  0  0  0  0  0  0  0  0  0  0
   -1.1778   -0.6398    0.9960 H   0  0  0  0  0  0  0  0  0  0  0  0
    0.0787   -3.0828    1.3126 H   0  0  0  0  0  0  0  0  0  0  0  0
   -2.9541   -2.5606    1.2966 H   0  0  0  0  0  0  0  0  0  0  0  0
   -2.1644   -3.9600    2.0334 H   0  0  0  0  0  0  0  0  0  0  0  0
   -1.8833   -2.3352    2.6867 H   0  0  0  0  0  0  0  0  0  0  0  0
   -0.8102   -4.8515   -0.3272 N   0  0  0  0  0  0  0  0  0  0  0  0
   -0.9559   -5.7900   -1.4153 C   0  0  0  0  0  0  0  0  0  0  0  0
   -0.4797   -5.2077    0.5648 H   0  0  0  0  0  0  0  0  0  0  0  0
   -1.9717   -6.2120   -1.4026 H   0  0  0  0  0  0  0  0  0  0  0  0
   -0.7859   -5.2724   -2.3709 H   0  0  0  0  0  0  0  0  0  0  0  0
   -0.2208   -6.6003   -1.3014 H   0  0  0  0  0  0  0  0  0  0  0  0
 25 27  1  0  0  0  0
 26 27  2  0  0  0  0
 23 25  2  0  0  0  0
 24 26  1  0  0  0  0
 22 23  1  0  0  0  0
 22 24  2  0  0  0  0
 21 22  1  0  0  0  0
  1  3  1  0  0  0  0
  1  7  1  0  0  0  0
  1  2  2  0  0  0  0
 38 39  1  0  0  0  0
 39 47  1  0  0  0  0
 39 40  2  0  0  0  0
  8  9  1  0  0  0  0
  9 17  1  0  0  0  0
  9 10  2  0  0  0  0
 18 19  1  0  0  0  0
 19 37  1  0  0  0  0
 19 20  2  0  0  0  0
 38 41  1  0  0  0  0
  8 11  1  0  0  0  0
 47 48  1  0  0  0  0
 18 21  1  0  0  0  0
 37 38  1  0  0  0  0
  7  8  1  0  0  0  0
 17 18  1  0  0  0  0
 27 36  1  0  0  0  0
 25 34  1  0  0  0  0
 26 35  1  0  0  0  0
 23 32  1  0  0  0  0
 24 33  1  0  0  0  0
  3  4  1  0  0  0  0
  3  5  1  0  0  0  0
  3  6  1  0  0  0  0
 41 44  1  0  0  0  0
 41 45  1  0  0  0  0
 41 46  1  0  0  0  0
 11 14  1  0  0  0  0
 11 15  1  0  0  0  0
 11 16  1  0  0  0  0
 48 50  1  0  0  0  0
 48 51  1  0  0  0  0
 48 52  1  0  0  0  0
 21 30  1  0  0  0  0
 21 31  1  0  0  0  0
 38 43  1  0  0  0  0
  8 13  1  0  0  0  0
 18 29  1  0  0  0  0
 47 49  1  0  0  0  0
  7 12  1  0  0  0  0
 37 42  1  0  0  0  0
 17 28  1  0  0  0  0
M  END
$$$$

  -OEChem-05262214473D

 52 52  0     1  0  0  0  0  0999 V2000
   -1.8248    0.3424    3.9102 C   0  0  0  0  0  0  0  0  0  0  0  0
   -0.8774   -0.2723    3.4345 O   0  0  0  0  0  0  0  0  0  0  0  0
   -2.2566    0.0600    5.3109 C   0  0  0  0  0  0  0  0  0  0  0  0
   -3.0163   -0.7363    5.3643 H   0  0  0  0  0  0  0  0  0  0  0  0
   -1.4254   -0.2876    5.9452 H   0  0  0  0  0  0  0  0  0  0  0  0
   -2.6947    0.9149    5.8505 H   0  0  0  0  0  0  0  0  0  0  0  0
   -2.5745    1.3149    3.2691 N   0  0  0  0  0  0  0  0  0  0  0  0
   -2.3276    1.7409    1.9167 C   0  0  2  0  0  0  0  0  0  0  0  0
   -0.9926    1.1555    1.4755 C   0  0  0  0  0  0  0  0  0  0  0  0
   -0.1206    0.8028    2.2668 O   0  0  0  0  0  0  0  0  0  0  0  0
   -2.3188    3.2577    1.8072 C   0  0  0  0  0  0  0  0  0  0  0  0
   -3.3395    1.7507    3.7809 H   0  0  0  0  0  0  0  0  0  0  0  0
   -3.1317    1.3224    1.3015 H   0  0  0  0  0  0  0  0  0  0  0  0
   -1.5198    3.6949    2.4169 H   0  0  0  0  0  0  0  0  0  0  0  0
   -2.1594    3.5799    0.7729 H   0  0  0  0  0  0  0  0  0  0  0  0
   -3.2690    3.6789    2.1530 H   0  0  0  0  0  0  0  0  0  0  0  0
   -0.8700    1.1124    0.0921 N   0  0  0  0  0  0  0  0  0  0  0  0
    0.3073    0.6116   -0.5716 C   0  0  2  0  0  0  0  0  0  0  0  0
    0.2795   -0.9081   -0.4536 C   0  0  0  0  0  0  0  0  0  0  0  0
    1.1747   -1.6295   -0.8884 O   0  0  0  0  0  0  0  0  0  0  0  0
    1.5979    1.1700    0.0390 C   0  0  0  0  0  0  0  0  0  0  0  0
    1.7556    2.6540   -0.1861 C   0  0  0  0  0  0  0  0  0  0  0  0
    2.2412    3.1274   -1.4051 C   0  0  0  0  0  0  0  0  0  0  0  0
    1.4153    3.5523    0.8253 C   0  0  0  0  0  0  0  0  0  0  0  0
    2.3865    4.4990   -1.6126 C   0  0  0  0  0  0  0  0  0  0  0  0
    1.5606    4.9239    0.6177 C   0  0  0  0  0  0  0  0  0  0  0  0
    2.0462    5.3973   -0.6013 C   0  0  0  0  0  0  0  0  0  0  0  0
   -1.6531    1.4091   -0.4852 H   0  0  0  0  0  0  0  0  0  0  0  0
    0.2135    0.8914   -1.6275 H   0  0  0  0  0  0  0  0  0  0  0  0
    2.4707    0.6401   -0.3660 H   0  0  0  0  0  0  0  0  0  0  0  0
    1.6232    0.9818    1.1205 H   0  0  0  0  0  0  0  0  0  0  0  0
    2.5087    2.4348   -2.1989 H   0  0  0  0  0  0  0  0  0  0  0  0
    1.0361    3.1926    1.7781 H   0  0  0  0  0  0  0  0  0  0  0  0
    2.7656    4.8673   -2.5614 H   0  0  0  0  0  0  0  0  0  0  0  0
    1.2966    5.6230    1.4057 H   0  0  0  0  0  0  0  0  0  0  0  0
    2.1607    6.4652   -0.7626 H   0  0  0  0  0  0  0  0  0  0  0  0
   -0.8378   -1.3552    0.2379 N   0  0  0  0  0  0  0  0  0  0  0  0
   -1.0965   -2.7507    0.5105 C   0  0  2  0  0  0  0  0  0  0  0  0
   -0.9524   -3.5197   -0.7962 C   0  0  0  0  0  0  0  0  0  0  0  0
   -1.0626   -2.9918   -1.9009 O   0  0  0  0  0  0  0  0  0  0  0  0
   -2.4802   -2.9504    1.1089 C   0  0  0  0  0  0  0  0  0  0  0  0
   -1.5074   -0.6669    0.5691 H   0  0  0  0  0  0  0  0  0  0  0  0
   -0.3280   -3.0827    1.2169 H   0  0  0  0  0  0  0  0  0  0  0  0
   -3.2635   -2.6233    0.4153 H   0  0  0  0  0  0  0  0  0  0  0  0
   -2.6637   -4.0046    1.3412 H   0  0  0  0  0  0  0  0  0  0  0  0
   -2.5923   -2.3730    2.0329 H   0  0  0  0  0  0  0  0  0  0  0  0
   -0.7291   -4.8729   -0.5835 N   0  0  0  0  0  0  0  0  0  0  0  0
   -0.5709   -5.8164   -1.6655 C   0  0  0  0  0  0  0  0  0  0  0  0
   -0.6332   -5.2203    0.3661 H   0  0  0  0  0  0  0  0  0  0  0  0
   -1.5471   -6.2593   -1.9122 H   0  0  0  0  0  0  0  0  0  0  0  0
   -0.1702   -5.2975   -2.5488 H   0  0  0  0  0  0  0  0  0  0  0  0
    0.1255   -6.6112   -1.3599 H   0  0  0  0  0  0  0  0  0  0  0  0
 25 27  1  0  0  0  0
 26 27  2  0  0  0  0
 23 25  2  0  0  0  0
 24 26  1  0  0  0  0
 22 23  1  0  0  0  0
 22 24  2  0  0  0  0
 21 22  1  0  0  0  0
  1  3  1  0  0  0  0
  1  7  1  0  0  0  0
  1  2  2  0  0  0  0
 38 39  1  0  0  0  0
 39 47  1  0  0  0  0
 39 40  2  0  0  0  0
  8  9  1  0  0  0  0
  9 17  1  0  0  0  0
  9 10  2  0  0  0  0
 18 19  1  0  0  0  0
 19 37  1  0  0  0  0
 19 20  2  0  0  0  0
 38 41  1  0  0  0  0
  8 11  1  0  0  0  0
 47 48  1  0  0  0  0
 18 21  1  0  0  0  0
 37 38  1  0  0  0  0
  7  8  1  0  0  0  0
 17 18  1  0  0  0  0
 27 36  1  0  0  0  0
 25 34  1  0  0  0  0
 26 35  1  0  0  0  0
 23 32  1  0  0  0  0
 24 33  1  0  0  0  0
  3  4  1  0  0  0  0
  3  5  1  0  0  0  0
  3  6  1  0  0  0  0
 41 44  1  0  0  0  0
 41 45  1  0  0  0  0
 41 46  1  0  0  0  0
 11 14  1  0  0  0  0
 11 15  1  0  0  0  0
 11 16  1  0  0  0  0
 48 50  1  0  0  0  0
 48 51  1  0  0  0  0
 48 52  1  0  0  0  0
 21 30  1  0  0  0  0
 21 31  1  0  0  0  0
 38 43  1  0  0  0  0
  8 13  1  0  0  0  0
 18 29  1  0  0  0  0
 47 49  1  0  0  0  0
  7 12  1  0  0  0  0
 37 42  1  0  0  0  0
 17 28  1  0  0  0  0
M  END
$$$$

  -OEChem-05262214473D

 52 52  0     1  0  0  0  0  0999 V2000
   -1.8248    0.3424    3.9102 C   0  0  0  0  0  0  0  0  0  0  0  0
   -0.8774   -0.2723    3.4345 O   0  0  0  0  0  0  0  0  0  0  0  0
   -2.2566    0.0600    5.3109 C   0  0  0  0  0  0  0  0  0  0  0  0
   -3.0163   -0.7363    5.3643 H   0  0  0  0  0  0  0  0  0  0  0  0
   -1.4254   -0.2876    5.9452 H   0  0  0  0  0  0  0  0  0  0  0  0
   -2.6947    0.9149    5.8505 H   0  0  0  0  0  0  0  0  0  0  0  0
   -2.5745    1.3149    3.2691 N   0  0  0  0  0  0  0  0  0  0  0  0
   -2.3276    1.7409    1.9167 C   0  0  2  0  0  0  0  0  0  0  0  0
   -0.9926    1.1555    1.4755 C   0  0  0  0  0  0  0  0  0  0  0  0
   -0.1206    0.8028    2.2668 O   0  0  0  0  0  0  0  0  0  0  0  0
   -2.3188    3.2577    1.8072 C   0  0  0  0  0  0  0  0  0  0  0  0
   -3.3395    1.7507    3.7809 H   0  0  0  0  0  0  0  0  0  0  0  0
   -3.1317    1.3224    1.3015 H   0  0  0  0  0  0  0  0  0  0  0  0
   -1.5198    3.6949    2.4169 H   0  0  0  0  0  0  0  0  0  0  0  0
   -2.1594    3.5799    0.7729 H   0  0  0  0  0  0  0  0  0  0  0  0
   -3.2690    3.6789    2.1530 H   0  0  0  0  0  0  0  0  0  0  0  0
   -0.8700    1.1124    0.0921 N   0  0  0  0  0  0  0  0  0  0  0  0
    0.3073    0.6116   -0.5716 C   0  0  2  0  0  0  0  0  0  0  0  0
    0.2795   -0.9081   -0.4536 C   0  0  0  0  0  0  0  0  0  0  0  0
    1.2704   -1.6117   -0.6375 O   0  0  0  0  0  0  0  0  0  0  0  0
    1.5979    1.1700    0.0390 C   0  0  0  0  0  0  0  0  0  0  0  0
    1.7556    2.6540   -0.1861 C   0  0  0  0  0  0  0  0  0  0  0  0
    2.2412    3.1274   -1.4051 C   0  0  0  0  0  0  0  0  0  0  0  0
    1.4153    3.5523    0.8253 C   0  0  0  0  0  0  0  0  0  0  0  0
    2.3865    4.4990   -1.6126 C   0  0  0  0  0  0  0  0  0  0  0  0
    1.5606    4.9239    0.6177 C   0  0  0  0  0  0  0  0  0  0  0  0
    2.0462    5.3973   -0.6013 C   0  0  0  0  0  0  0  0  0  0  0  0
   -1.6531    1.4091   -0.4852 H   0  0  0  0  0  0  0  0  0  0  0  0
    0.2135    0.8914   -1.6275 H   0  0  0  0  0  0  0  0  0  0  0  0
    2.4707    0.6401   -0.3660 H   0  0  0  0  0  0  0  0  0  0  0  0
    1.6232    0.9818    1.1205 H   0  0  0  0  0  0  0  0  0  0  0  0
    2.5087    2.4348   -2.1989 H   0  0  0  0  0  0  0  0  0  0  0  0
    1.0361    3.1926    1.7781 H   0  0  0  0  0  0  0  0  0  0  0  0
    2.7656    4.8673   -2.5614 H   0  0  0  0  0  0  0  0  0  0  0  0
    1.2966    5.6230    1.4057 H   0  0  0  0  0  0  0  0  0  0  0  0
    2.1607    6.4652   -0.7626 H   0  0  0  0  0  0  0  0  0  0  0  0
   -0.9695   -1.3767   -0.0705 N   0  0  0  0  0  0  0  0  0  0  0  0
   -1.2626   -2.7767    0.1364 C   0  0  2  0  0  0  0  0  0  0  0  0
   -0.7713   -3.5453   -1.0832 C   0  0  0  0  0  0  0  0  0  0  0  0
   -0.6029   -3.0221   -2.1827 O   0  0  0  0  0  0  0  0  0  0  0  0
   -2.7498   -3.0037    0.3591 C   0  0  0  0  0  0  0  0  0  0  0  0
   -1.7151   -0.7017    0.0717 H   0  0  0  0  0  0  0  0  0  0  0  0
   -0.6961   -3.0913    1.0197 H   0  0  0  0  0  0  0  0  0  0  0  0
   -3.3338   -2.6943   -0.5154 H   0  0  0  0  0  0  0  0  0  0  0  0
   -2.9665   -4.0610    0.5440 H   0  0  0  0  0  0  0  0  0  0  0  0
   -3.1076   -2.4268    1.2187 H   0  0  0  0  0  0  0  0  0  0  0  0
   -0.5843   -4.8931   -0.8102 N   0  0  0  0  0  0  0  0  0  0  0  0
   -0.1339   -5.8355   -1.8077 C   0  0  0  0  0  0  0  0  0  0  0  0
   -0.7299   -5.2365    0.1346 H   0  0  0  0  0  0  0  0  0  0  0  0
   -1.0046   -6.2990   -2.2946 H   0  0  0  0  0  0  0  0  0  0  0  0
    0.4710   -5.3102   -2.5615 H   0  0  0  0  0  0  0  0  0  0  0  0
    0.4753   -6.6150   -1.3270 H   0  0  0  0  0  0  0  0  0  0  0  0
 25 27  1  0  0  0  0
 26 27  2  0  0  0  0
 23 25  2  0  0  0  0
 24 26  1  0  0  0  0
 22 23  1  0  0  0  0
 22 24  2  0  0  0  0
 21 22  1  0  0  0  0
  1  3  1  0  0  0  0
  1  7  1  0  0  0  0
  1  2  2  0  0  0  0
 38 39  1  0  0  0  0
 39 47  1  0  0  0  0
 39 40  2  0  0  0  0
  8  9  1  0  0  0  0
  9 17  1  0  0  0  0
  9 10  2  0  0  0  0
 18 19  1  0  0  0  0
 19 37  1  0  0  0  0
 19 20  2  0  0  0  0
 38 41  1  0  0  0  0
  8 11  1  0  0  0  0
 47 48  1  0  0  0  0
 18 21  1  0  0  0  0
 37 38  1  0  0  0  0
  7  8  1  0  0  0  0
 17 18  1  0  0  0  0
 27 36  1  0  0  0  0
 25 34  1  0  0  0  0
 26 35  1  0  0  0  0
 23 32  1  0  0  0  0
 24 33  1  0  0  0  0
  3  4  1  0  0  0  0
  3  5  1  0  0  0  0
  3  6  1  0  0  0  0
 41 44  1  0  0  0  0
 41 45  1  0  0  0  0
 41 46  1  0  0  0  0
 11 14  1  0  0  0  0
 11 15  1  0  0  0  0
 11 16  1  0  0  0  0
 48 50  1  0  0  0  0
 48 51  1  0  0  0  0
 48 52  1  0  0  0  0
 21 30  1  0  0  0  0
 21 31  1  0  0  0  0
 38 43  1  0  0  0  0
  8 13  1  0  0  0  0
 18 29  1  0  0  0  0
 47 49  1  0  0  0  0
  7 12  1  0  0  0  0
 37 42  1  0  0  0  0
 17 28  1  0  0  0  0
M  END
$$$$

  -OEChem-05262214473D

 52 52  0     1  0  0  0  0  0999 V2000
   -1.8248    0.3424    3.9102 C   0  0  0  0  0  0  0  0  0  0  0  0
   -0.8774   -0.2723    3.4345 O   0  0  0  0  0  0  0  0  0  0  0  0
   -2.2566    0.0600    5.3109 C   0  0  0  0  0  0  0  0  0  0  0  0
   -3.0163   -0.7363    5.3643 H   0  0  0  0  0  0  0  0  0  0  0  0
   -1.4254   -0.2876    5.9452 H   0  0  0  0  0  0  0  0  0  0  0  0
   -2.6947    0.9149    5.8505 H   0  0  0  0  0  0  0  0  0  0  0  0
   -2.5745    1.3149    3.2691 N   0  0  0  0  0  0  0  0  0  0  0  0
   -2.3276    1.7409    1.9167 C   0  0  2  0  0  0  0  0  0  0  0  0
   -0.9926    1.1555    1.4755 C   0  0  0  0  0  0  0  0  0  0  0  0
   -0.1206    0.8028    2.2668 O   0  0  0  0  0  0  0  0  0  0  0  0
   -2.3188    3.2577    1.8072 C   0  0  0  0  0  0  0  0  0  0  0  0
   -3.3395    1.7507    3.7809 H   0  0  0  0  0  0  0  0  0  0  0  0
   -3.1317    1.3224    1.3015 H   0  0  0  0  0  0  0  0  0  0  0  0
   -1.5198    3.6949    2.4169 H   0  0  0  0  0  0  0  0  0  0  0  0
   -2.1594    3.5799    0.7729 H   0  0  0  0  0  0  0  0  0  0  0  0
   -3.2690    3.6789    2.1530 H   0  0  0  0  0  0  0  0  0  0  0  0
   -0.8700    1.1124    0.0921 N   0  0  0  0  0  0  0  0  0  0  0  0
    0.3073    0.6116   -0.5716 C   0  0  2  0  0  0  0  0  0  0  0  0
    0.2795   -0.9081   -0.4536 C   0  0  0  0  0  0  0  0  0  0  0  0
    1.2978   -1.5915   -0.3705 O   0  0  0  0  0  0  0  0  0  0  0  0
    1.5979    1.1700    0.0390 C   0  0  0  0  0  0  0  0  0  0  0  0
    1.7556    2.6540   -0.1861 C   0  0  0  0  0  0  0  0  0  0  0  0
    2.2412    3.1274   -1.4051 C   0  0  0  0  0  0  0  0  0  0  0  0
    1.4153    3.5523    0.8253 C   0  0  0  0  0  0  0  0  0  0  0  0
    2.3865    4.4990   -1.6126 C   0  0  0  0  0  0  0  0  0  0  0  0
    1.5606    4.9239    0.6177 C   0  0  0  0  0  0  0  0  0  0  0  0
    2.0462    5.3973   -0.6013 C   0  0  0  0  0  0  0  0  0  0  0  0
   -1.6531    1.4091   -0.4852 H   0  0  0  0  0  0  0  0  0  0  0  0
    0.2135    0.8914   -1.6275 H   0  0  0  0  0  0  0  0  0  0  0  0
    2.4707    0.6401   -0.3660 H   0  0  0  0  0  0  0  0  0  0  0  0
    1.6232    0.9818    1.1205 H   0  0  0  0  0  0  0  0  0  0  0  0
    2.5087    2.4348   -2.1989 H   0  0  0  0  0  0  0  0  0  0  0  0
    1.0361    3.1926    1.7781 H   0  0  0  0  0  0  0  0  0  0  0  0
    2.7656    4.8673   -2.5614 H   0  0  0  0  0  0  0  0  0  0  0  0
    1.2966    5.6230    1.4057 H   0  0  0  0  0  0  0  0  0  0  0  0
    2.1607    6.4652   -0.7626 H   0  0  0  0  0  0  0  0  0  0  0  0
   -1.0167   -1.4016   -0.4022 N   0  0  0  0  0  0  0  0  0  0  0  0
   -1.3261   -2.8069   -0.2676 C   0  0  2  0  0  0  0  0  0  0  0  0
   -0.5219   -3.5677   -1.3135 C   0  0  0  0  0  0  0  0  0  0  0  0
   -0.0856   -3.0435   -2.3362 O   0  0  0  0  0  0  0  0  0  0  0  0
   -2.8156   -3.0641   -0.4344 C   0  0  0  0  0  0  0  0  0  0  0  0
   -1.7867   -0.7418   -0.4621 H   0  0  0  0  0  0  0  0  0  0  0  0
   -1.0007   -3.1079    0.7341 H   0  0  0  0  0  0  0  0  0  0  0  0
   -3.1601   -2.7687   -1.4322 H   0  0  0  0  0  0  0  0  0  0  0  0
   -3.0521   -4.1252   -0.3039 H   0  0  0  0  0  0  0  0  0  0  0  0
   -3.3943   -2.4929    0.2995 H   0  0  0  0  0  0  0  0  0  0  0  0
   -0.3855   -4.9108   -0.9916 N   0  0  0  0  0  0  0  0  0  0  0  0
    0.3253   -5.8458   -1.8323 C   0  0  0  0  0  0  0  0  0  0  0  0
   -0.7633   -5.2552   -0.1139 H   0  0  0  0  0  0  0  0  0  0  0  0
   -0.3812   -6.3282   -2.5239 H   0  0  0  0  0  0  0  0  0  0  0  0
    1.0939   -5.3097   -2.4083 H   0  0  0  0  0  0  0  0  0  0  0  0
    0.8048   -6.6116   -1.2049 H   0  0  0  0  0  0  0  0  0  0  0  0
 25 27  1  0  0  0  0
 26 27  2  0  0  0  0
 23 25  2  0  0  0  0
 24 26  1  0  0  0  0
 22 23  1  0  0  0  0
 22 24  2  0  0  0  0
 21 22  1  0  0  0  0
  1  3  1  0  0  0  0
  1  7  1  0  0  0  0
  1  2  2  0  0  0  0
 38 39  1  0  0  0  0
 39 47  1  0  0  0  0
 39 40  2  0  0  0  0
  8  9  1  0  0  0  0
  9 17  1  0  0  0  0
  9 10  2  0  0  0  0
 18 19  1  0  0  0  0
 19 37  1  0  0  0  0
 19 20  2  0  0  0  0
 38 41  1  0  0  0  0
  8 11  1  0  0  0  0
 47 48  1  0  0  0  0
 18 21  1  0  0  0  0
 37 38  1  0  0  0  0
  7  8  1  0  0  0  0
 17 18  1  0  0  0  0
 27 36  1  0  0  0  0
 25 34  1  0  0  0  0
 26 35  1  0  0  0  0
 23 32  1  0  0  0  0
 24 33  1  0  0  0  0
  3  4  1  0  0  0  0
  3  5  1  0  0  0  0
  3  6  1  0  0  0  0
 41 44  1  0  0  0  0
 41 45  1  0  0  0  0
 41 46  1  0  0  0  0
 11 14  1  0  0  0  0
 11 15  1  0  0  0  0
 11 16  1  0  0  0  0
 48 50  1  0  0  0  0
 48 51  1  0  0  0  0
 48 52  1  0  0  0  0
 21 30  1  0  0  0  0
 21 31  1  0  0  0  0
 38 43  1  0  0  0  0
  8 13  1  0  0  0  0
 18 29  1  0  0  0  0
 47 49  1  0  0  0  0
  7 12  1  0  0  0  0
 37 42  1  0  0  0  0
 17 28  1  0  0  0  0
M  END
$$$$

  -OEChem-05262214473D

 52 52  0     1  0  0  0  0  0999 V2000
   -1.8248    0.3424    3.9102 C   0  0  0  0  0  0  0  0  0  0  0  0
   -0.8774   -0.2723    3.4345 O   0  0  0  0  0  0  0  0  0  0  0  0
   -2.2566    0.0600    5.3109 C   0  0  0  0  0  0  0  0  0  0  0  0
   -3.0163   -0.7363    5.3643 H   0  0  0  0  0  0  0  0  0  0  0  0
   -1.4254   -0.2876    5.9452 H   0  0  0  0  0  0  0  0  0  0  0  0
   -2.6947    0.9149    5.8505 H   0  0  0  0  0  0  0  0  0  0  0  0
   -2.5745    1.3149    3.2691 N   0  0  0  0  0  0  0  0  0  0  0  0
   -2.3276    1.7409    1.9167 C   0  0  2  0  0  0  0  0  0  0  0  0
   -0.9926    1.1555    1.4755 C   0  0  0  0  0  0  0  0  0  0  0  0
   -0.1206    0.8028    2.2668 O   0  0  0  0  0  0  0  0  0  0  0  0
   -2.3188    3.2577    1.8072 C   0  0  0  0  0  0  0  0  0  0  0  0
   -3.3395    1.7507    3.7809 H   0  0  0  0  0  0  0  0  0  0  0  0
   -3.1317    1.3224    1.3015 H   0  0  0  0  0  0  0  0  0  0  0  0
   -1.5198    3.6949    2.4169 H   0  0  0  0  0  0  0  0  0  0  0  0
   -2.1594    3.5799    0.7729 H   0  0  0  0  0  0  0  0  0  0  0  0
   -3.2690    3.6789    2.1530 H   0  0  0  0  0  0  0  0  0  0  0  0
   -0.8700    1.1124    0.0921 N   0  0  0  0  0  0  0  0  0  0  0  0
    0.3073    0.6116   -0.5716 C   0  0  2  0  0  0  0  0  0  0  0  0
    0.2795   -0.9081   -0.4536 C   0  0  0  0  0  0  0  0  0  0  0  0
    1.2549   -1.5702   -0.1056 O   0  0  0  0  0  0  0  0  0  0  0  0
    1.5979    1.1700    0.0390 C   0  0  0  0  0  0  0  0  0  0  0  0
    1.7556    2.6540   -0.1861 C   0  0  0  0  0  0  0  0  0  0  0  0
    2.2412    3.1274   -1.4051 C   0  0  0  0  0  0  0  0  0  0  0  0
    1.4153    3.5523    0.8253 C   0  0  0  0  0  0  0  0  0  0  0  0
    2.3865    4.4990   -1.6126 C   0  0  0  0  0  0  0  0  0  0  0  0
    1.5606    4.9239    0.6177 C   0  0  0  0  0  0  0  0  0  0  0  0
    2.0462    5.3973   -0.6013 C   0  0  0  0  0  0  0  0  0  0  0  0
   -1.6531    1.4091   -0.4852 H   0  0  0  0  0  0  0  0  0  0  0  0
    0.2135    0.8914   -1.6275 H   0  0  0  0  0  0  0  0  0  0  0  0
    2.4707    0.6401   -0.3660 H   0  0  0  0  0  0  0  0  0  0  0  0
    1.6232    0.9818    1.1205 H   0  0  0  0  0  0  0  0  0  0  0  0
    2.5087    2.4348   -2.1989 H   0  0  0  0  0  0  0  0  0  0  0  0
    1.0361    3.1926    1.7781 H   0  0  0  0  0  0  0  0  0  0  0  0
    2.7656    4.8673   -2.5614 H   0  0  0  0  0  0  0  0  0  0  0  0
    1.2966    5.6230    1.4057 H   0  0  0  0  0  0  0  0  0  0  0  0
    2.1607    6.4652   -0.7626 H   0  0  0  0  0  0  0  0  0  0  0  0
   -0.9763   -1.4282   -0.7347 N   0  0  0  0  0  0  0  0  0  0  0  0
   -1.2825   -2.8393   -0.6741 C   0  0  2  0  0  0  0  0  0  0  0  0
   -0.2210   -3.5855   -1.4716 C   0  0  0  0  0  0  0  0  0  0  0  0
    0.4541   -3.0545   -2.3510 O   0  0  0  0  0  0  0  0  0  0  0  0
   -2.6733   -3.1275   -1.2176 C   0  0  0  0  0  0  0  0  0  0  0  0
   -1.7174   -0.7846   -0.9960 H   0  0  0  0  0  0  0  0  0  0  0  0
   -1.2209   -3.1314    0.3799 H   0  0  0  0  0  0  0  0  0  0  0  0
   -2.7542   -2.8414   -2.2726 H   0  0  0  0  0  0  0  0  0  0  0  0
   -2.9148   -4.1930   -1.1447 H   0  0  0  0  0  0  0  0  0  0  0  0
   -3.4327   -2.5669   -0.6620 H   0  0  0  0  0  0  0  0  0  0  0  0
   -0.1463   -4.9248   -1.1155 N   0  0  0  0  0  0  0  0  0  0  0  0
    0.7753   -5.8467   -1.7375 C   0  0  0  0  0  0  0  0  0  0  0  0
   -0.7311   -5.2751   -0.3624 H   0  0  0  0  0  0  0  0  0  0  0  0
    0.2808   -6.3450   -2.5843 H   0  0  0  0  0  0  0  0  0  0  0  0
    1.6560   -5.2961   -2.0997 H   0  0  0  0  0  0  0  0  0  0  0  0
    1.0915   -6.6011   -1.0021 H   0  0  0  0  0  0  0  0  0  0  0  0
 25 27  1  0  0  0  0
 26 27  2  0  0  0  0
 23 25  2  0  0  0  0
 24 26  1  0  0  0  0
 22 23  1  0  0  0  0
 22 24  2  0  0  0  0
 21 22  1  0  0  0  0
  1  3  1  0  0  0  0
  1  7  1  0  0  0  0
  1  2  2  0  0  0  0
 38 39  1  0  0  0  0
 39 47  1  0  0  0  0
 39 40  2  0  0  0  0
  8  9  1  0  0  0  0
  9 17  1  0  0  0  0
  9 10  2  0  0  0  0
 18 19  1  0  0  0  0
 19 37  1  0  0  0  0
 19 20  2  0  0  0  0
 38 41  1  0  0  0  0
  8 11  1  0  0  0  0
 47 48  1  0  0  0  0
 18 21  1  0  0  0  0
 37 38  1  0  0  0  0
  7  8  1  0  0  0  0
 17 18  1  0  0  0  0
 27 36  1  0  0  0  0
 25 34  1  0  0  0  0
 26 35  1  0  0  0  0
 23 32  1  0  0  0  0
 24 33  1  0  0  0  0
  3  4  1  0  0  0  0
  3  5  1  0  0  0  0
  3  6  1  0  0  0  0
 41 44  1  0  0  0  0
 41 45  1  0  0  0  0
 41 46  1  0  0  0  0
 11 14  1  0  0  0  0
 11 15  1  0  0  0  0
 11 16  1  0  0  0  0
 48 50  1  0  0  0  0
 48 51  1  0  0  0  0
 48 52  1  0  0  0  0
 21 30  1  0  0  0  0
 21 31  1  0  0  0  0
 38 43  1  0  0  0  0
  8 13  1  0  0  0  0
 18 29  1  0  0  0  0
 47 49  1  0  0  0  0
  7 12  1  0  0  0  0
 37 42  1  0  0  0  0
 17 28  1  0  0  0  0
M  END
$$$$

  -OEChem-05262214473D

 52 52  0     1  0  0  0  0  0999 V2000
   -1.8248    0.3424    3.9102 C   0  0  0  0  0  0  0  0  0  0  0  0
   -0.8774   -0.2723    3.4345 O   0  0  0  0  0  0  0  0  0  0  0  0
   -2.2566    0.0600    5.3109 C   0  0  0  0  0  0  0  0  0  0  0  0
   -3.0163   -0.7363    5.3643 H   0  0  0  0  0  0  0  0  0  0  0  0
   -1.4254   -0.2876    5.9452 H   0  0  0  0  0  0  0  0  0  0  0  0
   -2.6947    0.9149    5.8505 H   0  0  0  0  0  0  0  0  0  0  0  0
   -2.5745    1.3149    3.2691 N   0  0  0  0  0  0  0  0  0  0  0  0
   -2.3276    1.7409    1.9167 C   0  0  2  0  0  0  0  0  0  0  0  0
   -0.9926    1.1555    1.4755 C   0  0  0  0  0  0  0  0  0  0  0  0
   -0.1206    0.8028    2.2668 O   0  0  0  0  0  0  0  0  0  0  0  0
   -2.3188    3.2577    1.8072 C   0  0  0  0  0  0  0  0  0  0  0  0
   -3.3395    1.7507    3.7809 H   0  0  0  0  0  0  0  0  0  0  0  0
   -3.1317    1.3224    1.3015 H   0  0  0  0  0  0  0  0  0  0  0  0
   -1.5198    3.6949    2.4169 H   0  0  0  0  0  0  0  0  0  0  0  0
   -2.1594    3.5799    0.7729 H   0  0  0  0  0  0  0  0  0  0  0  0
   -3.2690    3.6789    2.1530 H   0  0  0  0  0  0  0  0  0  0  0  0
   -0.8700    1.1124    0.0921 N   0  0  0  0  0  0  0  0  0  0  0  0
    0.3073    0.6116   -0.5716 C   0  0  2  0  0  0  0  0  0  0  0  0
    0.2795   -0.9081   -0.4536 C   0  0  0  0  0  0  0  0  0  0  0  0
    1.1447   -1.5491    0.1391 O   0  0  0  0  0  0  0  0  0  0  0  0
    1.5979    1.1700    0.0390 C   0  0  0  0  0  0  0  0  0  0  0  0
    1.7556    2.6540   -0.1861 C   0  0  0  0  0  0  0  0  0  0  0  0
    2.2412    3.1274   -1.4051 C   0  0  0  0  0  0  0  0  0  0  0  0
    1.4153    3.5523    0.8253 C   0  0  0  0  0  0  0  0  0  0  0  0
    2.3865    4.4990   -1.6126 C   0  0  0  0  0  0  0  0  0  0  0  0
    1.5606    4.9239    0.6177 C   0  0  0  0  0  0  0  0  0  0  0  0
    2.0462    5.3973   -0.6013 C   0  0  0  0  0  0  0  0  0  0  0  0
   -1.6531    1.4091   -0.4852 H   0  0  0  0  0  0  0  0  0  0  0  0
    0.2135    0.8914   -1.6275 H   0  0  0  0  0  0  0  0  0  0  0  0
    2.4707    0.6401   -0.3660 H   0  0  0  0  0  0  0  0  0  0  0  0
    1.6232    0.9818    1.1205 H   0  0  0  0  0  0  0  0  0  0  0  0
    2.5087    2.4348   -2.1989 H   0  0  0  0  0  0  0  0  0  0  0  0
    1.0361    3.1926    1.7781 H   0  0  0  0  0  0  0  0  0  0  0  0
    2.7656    4.8673   -2.5614 H   0  0  0  0  0  0  0  0  0  0  0  0
    1.2966    5.6230    1.4057 H   0  0  0  0  0  0  0  0  0  0  0  0
    2.1607    6.4652   -0.7626 H   0  0  0  0  0  0  0  0  0  0  0  0
   -0.8509   -1.4546   -1.0452 N   0  0  0  0  0  0  0  0  0  0  0  0
   -1.1349   -2.8716   -1.0554 C   0  0  2  0  0  0  0  0  0  0  0  0
    0.1107   -3.5974   -1.5465 C   0  0  0  0  0  0  0  0  0  0  0  0
    0.9794   -3.0544   -2.2259 O   0  0  0  0  0  0  0  0  0  0  0  0
   -2.3325   -3.1896   -1.9371 C   0  0  0  0  0  0  0  0  0  0  0  0
   -1.5118   -0.8270   -1.4937 H   0  0  0  0  0  0  0  0  0  0  0  0
   -1.3417   -3.1601   -0.0190 H   0  0  0  0  0  0  0  0  0  0  0  0
   -2.1440   -2.9074   -2.9794 H   0  0  0  0  0  0  0  0  0  0  0  0
   -2.5639   -4.2598   -1.9212 H   0  0  0  0  0  0  0  0  0  0  0  0
   -3.2203   -2.6436   -1.6003 H   0  0  0  0  0  0  0  0  0  0  0  0
    0.1170   -4.9342   -1.1734 N   0  0  0  0  0  0  0  0  0  0  0  0
    1.1856   -5.8380   -1.5298 C   0  0  0  0  0  0  0  0  0  0  0  0
   -0.6354   -5.2948   -0.5941 H   0  0  0  0  0  0  0  0  0  0  0  0
    0.9361   -6.3482   -2.4719 H   0  0  0  0  0  0  0  0  0  0  0  0
    2.1191   -5.2701   -1.6566 H   0  0  0  0  0  0  0  0  0  0  0  0
    1.3159   -6.5842   -0.7322 H   0  0  0  0  0  0  0  0  0  0  0  0
 25 27  1  0  0  0  0
 26 27  2  0  0  0  0
 23 25  2  0  0  0  0
 24 26  1  0  0  0  0
 22 23  1  0  0  0  0
 22 24  2  0  0  0  0
 21 22  1  0  0  0  0
  1  3  1  0  0  0  0
  1  7  1  0  0  0  0
  1  2  2  0  0  0  0
 38 39  1  0  0  0  0
 39 47  1  0  0  0  0
 39 40  2  0  0  0  0
  8  9  1  0  0  0  0
  9 17  1  0  0  0  0
  9 10  2  0  0  0  0
 18 19  1  0  0  0  0
 19 37  1  0  0  0  0
 19 20  2  0  0  0  0
 38 41  1  0  0  0  0
  8 11  1  0  0  0  0
 47 48  1  0  0  0  0
 18 21  1  0  0  0  0
 37 38  1  0  0  0  0
  7  8  1  0  0  0  0
 17 18  1  0  0  0  0
 27 36  1  0  0  0  0
 25 34  1  0  0  0  0
 26 35  1  0  0  0  0
 23 32  1  0  0  0  0
 24 33  1  0  0  0  0
  3  4  1  0  0  0  0
  3  5  1  0  0  0  0
  3  6  1  0  0  0  0
 41 44  1  0  0  0  0
 41 45  1  0  0  0  0
 41 46  1  0  0  0  0
 11 14  1  0  0  0  0
 11 15  1  0  0  0  0
 11 16  1  0  0  0  0
 48 50  1  0  0  0  0
 48 51  1  0  0  0  0
 48 52  1  0  0  0  0
 21 30  1  0  0  0  0
 21 31  1  0  0  0  0
 38 43  1  0  0  0  0
  8 13  1  0  0  0  0
 18 29  1  0  0  0  0
 47 49  1  0  0  0  0
  7 12  1  0  0  0  0
 37 42  1  0  0  0  0
 17 28  1  0  0  0  0
M  END
$$$$

  -OEChem-05262214473D

 52 52  0     1  0  0  0  0  0999 V2000
   -1.8248    0.3424    3.9102 C   0  0  0  0  0  0  0  0  0  0  0  0
   -0.8774   -0.2723    3.4345 O   0  0  0  0  0  0  0  0  0  0  0  0
   -2.2566    0.0600    5.3109 C   0  0  0  0  0  0  0  0  0  0  0  0
   -3.0163   -0.7363    5.3643 H   0  0  0  0  0  0  0  0  0  0  0  0
   -1.4254   -0.2876    5.9452 H   0  0  0  0  0  0  0  0  0  0  0  0
   -2.6947    0.9149    5.8505 H   0  0  0  0  0  0  0  0  0  0  0  0
   -2.5745    1.3149    3.2691 N   0  0  0  0  0  0  0  0  0  0  0  0
   -2.3276    1.7409    1.9167 C   0  0  2  0  0  0  0  0  0  0  0  0
   -0.9926    1.1555    1.4755 C   0  0  0  0  0  0  0  0  0  0  0  0
   -0.1206    0.8028    2.2668 O   0  0  0  0  0  0  0  0  0  0  0  0
   -2.3188    3.2577    1.8072 C   0  0  0  0  0  0  0  0  0  0  0  0
   -3.3395    1.7507    3.7809 H   0  0  0  0  0  0  0  0  0  0  0  0
   -3.1317    1.3224    1.3015 H   0  0  0  0  0  0  0  0  0  0  0  0
   -1.5198    3.6949    2.4169 H   0  0  0  0  0  0  0  0  0  0  0  0
   -2.1594    3.5799    0.7729 H   0  0  0  0  0  0  0  0  0  0  0  0
   -3.2690    3.6789    2.1530 H   0  0  0  0  0  0  0  0  0  0  0  0
   -0.8700    1.1124    0.0921 N   0  0  0  0  0  0  0  0  0  0  0  0
    0.3073    0.6116   -0.5716 C   0  0  2  0  0  0  0  0  0  0  0  0
    0.2795   -0.9081   -0.4536 C   0  0  0  0  0  0  0  0  0  0  0  0
    0.9748   -1.5299    0.3469 O   0  0  0  0  0  0  0  0  0  0  0  0
    1.5979    1.1700    0.0390 C   0  0  0  0  0  0  0  0  0  0  0  0
    1.7556    2.6540   -0.1861 C   0  0  0  0  0  0  0  0  0  0  0  0
    2.2412    3.1274   -1.4051 C   0  0  0  0  0  0  0  0  0  0  0  0
    1.4153    3.5523    0.8253 C   0  0  0  0  0  0  0  0  0  0  0  0
    2.3865    4.4990   -1.6126 C   0  0  0  0  0  0  0  0  0  0  0  0
    1.5606    4.9239    0.6177 C   0  0  0  0  0  0  0  0  0  0  0  0
    2.0462    5.3973   -0.6013 C   0  0  0  0  0  0  0  0  0  0  0  0
   -1.6531    1.4091   -0.4852 H   0  0  0  0  0  0  0  0  0  0  0  0
    0.2135    0.8914   -1.6275 H   0  0  0  0  0  0  0  0  0  0  0  0
    2.4707    0.6401   -0.3660 H   0  0  0  0  0  0  0  0  0  0  0  0
    1.6232    0.9818    1.1205 H   0  0  0  0  0  0  0  0  0  0  0  0
    2.5087    2.4348   -2.1989 H   0  0  0  0  0  0  0  0  0  0  0  0
    1.0361    3.1926    1.7781 H   0  0  0  0  0  0  0  0  0  0  0  0
    2.7656    4.8673   -2.5614 H   0  0  0  0  0  0  0  0  0  0  0  0
    1.2966    5.6230    1.4057 H   0  0  0  0  0  0  0  0  0  0  0  0
    2.1607    6.4652   -0.7626 H   0  0  0  0  0  0  0  0  0  0  0  0
   -0.6491   -1.4790   -1.3128 N   0  0  0  0  0  0  0  0  0  0  0  0
   -0.8933   -2.9017   -1.3854 C   0  0  2  0  0  0  0  0  0  0  0  0
    0.4507   -3.6026   -1.5333 C   0  0  0  0  0  0  0  0  0  0  0  0
    1.4546   -3.0432   -1.9695 O   0  0  0  0  0  0  0  0  0  0  0  0
   -1.8164   -3.2462   -2.5439 C   0  0  0  0  0  0  0  0  0  0  0  0
   -1.1839   -0.8662   -1.9211 H   0  0  0  0  0  0  0  0  0  0  0  0
   -1.3549   -3.1922   -0.4354 H   0  0  0  0  0  0  0  0  0  0  0  0
   -1.3708   -2.9623   -3.5043 H   0  0  0  0  0  0  0  0  0  0  0  0
   -2.0233   -4.3208   -2.5803 H   0  0  0  0  0  0  0  0  0  0  0  0
   -2.7715   -2.7179   -2.4515 H   0  0  0  0  0  0  0  0  0  0  0  0
    0.3864   -4.9382   -1.1613 N   0  0  0  0  0  0  0  0  0  0  0  0
    1.5282   -5.8205   -1.2234 C   0  0  0  0  0  0  0  0  0  0  0  0
   -0.4828   -5.3130   -0.7931 H   0  0  0  0  0  0  0  0  0  0  0  0
    1.5402   -6.3377   -2.1941 H   0  0  0  0  0  0  0  0  0  0  0  0
    2.4516   -5.2337   -1.1093 H   0  0  0  0  0  0  0  0  0  0  0  0
    1.4627   -6.5622   -0.4137 H   0  0  0  0  0  0  0  0  0  0  0  0
 25 27  1  0  0  0  0
 26 27  2  0  0  0  0
 23 25  2  0  0  0  0
 24 26  1  0  0  0  0
 22 23  1  0  0  0  0
 22 24  2  0  0  0  0
 21 22  1  0  0  0  0
  1  3  1  0  0  0  0
  1  7  1  0  0  0  0
  1  2  2  0  0  0  0
 38 39  1  0  0  0  0
 39 47  1  0  0  0  0
 39 40  2  0  0  0  0
  8  9  1  0  0  0  0
  9 17  1  0  0  0  0
  9 10  2  0  0  0  0
 18 19  1  0  0  0  0
 19 37  1  0  0  0  0
 19 20  2  0  0  0  0
 38 41  1  0  0  0  0
  8 11  1  0  0  0  0
 47 48  1  0  0  0  0
 18 21  1  0  0  0  0
 37 38  1  0  0  0  0
  7  8  1  0  0  0  0
 17 18  1  0  0  0  0
 27 36  1  0  0  0  0
 25 34  1  0  0  0  0
 26 35  1  0  0  0  0
 23 32  1  0  0  0  0
 24 33  1  0  0  0  0
  3  4  1  0  0  0  0
  3  5  1  0  0  0  0
  3  6  1  0  0  0  0
 41 44  1  0  0  0  0
 41 45  1  0  0  0  0
 41 46  1  0  0  0  0
 11 14  1  0  0  0  0
 11 15  1  0  0  0  0
 11 16  1  0  0  0  0
 48 50  1  0  0  0  0
 48 51  1  0  0  0  0
 48 52  1  0  0  0  0
 21 30  1  0  0  0  0
 21 31  1  0  0  0  0
 38 43  1  0  0  0  0
  8 13  1  0  0  0  0
 18 29  1  0  0  0  0
 47 49  1  0  0  0  0
  7 12  1  0  0  0  0
 37 42  1  0  0  0  0
 17 28  1  0  0  0  0
M  END
$$$$

  -OEChem-05262214473D

 52 52  0     1  0  0  0  0  0999 V2000
   -1.8248    0.3424    3.9102 C   0  0  0  0  0  0  0  0  0  0  0  0
   -0.8774   -0.2723    3.4345 O   0  0  0  0  0  0  0  0  0  0  0  0
   -2.2566    0.0600    5.3109 C   0  0  0  0  0  0  0  0  0  0  0  0
   -3.0163   -0.7363    5.3643 H   0  0  0  0  0  0  0  0  0  0  0  0
   -1.4254   -0.2876    5.9452 H   0  0  0  0  0  0  0  0  0  0  0  0
   -2.6947    0.9149    5.8505 H   0  0  0  0  0  0  0  0  0  0  0  0
   -2.5745    1.3149    3.2691 N   0  0  0  0  0  0  0  0  0  0  0  0
   -2.3276    1.7409    1.9167 C   0  0  2  0  0  0  0  0  0  0  0  0
   -0.9926    1.1555    1.4755 C   0  0  0  0  0  0  0  0  0  0  0  0
   -0.1206    0.8028    2.2668 O   0  0  0  0  0  0  0  0  0  0  0  0
   -2.3188    3.2577    1.8072 C   0  0  0  0  0  0  0  0  0  0  0  0
   -3.3395    1.7507    3.7809 H   0  0  0  0  0  0  0  0  0  0  0  0
   -3.1317    1.3224    1.3015 H   0  0  0  0  0  0  0  0  0  0  0  0
   -1.5198    3.6949    2.4169 H   0  0  0  0  0  0  0  0  0  0  0  0
   -2.1594    3.5799    0.7729 H   0  0  0  0  0  0  0  0  0  0  0  0
   -3.2690    3.6789    2.1530 H   0  0  0  0  0  0  0  0  0  0  0  0
   -0.8700    1.1124    0.0921 N   0  0  0  0  0  0  0  0  0  0  0  0
    0.3073    0.6116   -0.5716 C   0  0  2  0  0  0  0  0  0  0  0  0
    0.2795   -0.9081   -0.4536 C   0  0  0  0  0  0  0  0  0  0  0  0
    0.7566   -1.5137    0.5037 O   0  0  0  0  0  0  0  0  0  0  0  0
    1.5979    1.1700    0.0390 C   0  0  0  0  0  0  0  0  0  0  0  0
    1.7556    2.6540   -0.1861 C   0  0  0  0  0  0  0  0  0  0  0  0
    2.2412    3.1274   -1.4051 C   0  0  0  0  0  0  0  0  0  0  0  0
    1.4153    3.5523    0.8253 C   0  0  0  0  0  0  0  0  0  0  0  0
    2.3865    4.4990   -1.6126 C   0  0  0  0  0  0  0  0  0  0  0  0
    1.5606    4.9239    0.6177 C   0  0  0  0  0  0  0  0  0  0  0  0
    2.0462    5.3973   -0.6013 C   0  0  0  0  0  0  0  0  0  0  0  0
   -1.6531    1.4091   -0.4852 H   0  0  0  0  0  0  0  0  0  0  0  0
    0.2135    0.8914   -1.6275 H   0  0  0  0  0  0  0  0  0  0  0  0
    2.4707    0.6401   -0.3660 H   0  0  0  0  0  0  0  0  0  0  0  0
    1.6232    0.9818    1.1205 H   0  0  0  0  0  0  0  0  0  0  0  0
    2.5087    2.4348   -2.1989 H   0  0  0  0  0  0  0  0  0  0  0  0
    1.0361    3.1926    1.7781 H   0  0  0  0  0  0  0  0  0  0  0  0
    2.7656    4.8673   -2.5614 H   0  0  0  0  0  0  0  0  0  0  0  0
    1.2966    5.6230    1.4057 H   0  0  0  0  0  0  0  0  0  0  0  0
    2.1607    6.4652   -0.7626 H   0  0  0  0  0  0  0  0  0  0  0  0
   -0.3847   -1.4999   -1.5190 N   0  0  0  0  0  0  0  0  0  0  0  0
   -0.5742   -2.9274   -1.6417 C   0  0  2  0  0  0  0  0  0  0  0  0
    0.7758   -3.6008   -1.4327 C   0  0  0  0  0  0  0  0  0  0  0  0
    1.8472   -3.0216   -1.5994 O   0  0  0  0  0  0  0  0  0  0  0  0
   -1.1602   -3.2933   -2.9965 C   0  0  0  0  0  0  0  0  0  0  0  0
   -0.7562   -0.8995   -2.2492 H   0  0  0  0  0  0  0  0  0  0  0  0
   -1.2595   -3.2255   -0.8408 H   0  0  0  0  0  0  0  0  0  0  0  0
   -0.4875   -3.0023   -3.8115 H   0  0  0  0  0  0  0  0  0  0  0  0
   -1.3298   -4.3721   -3.0772 H   0  0  0  0  0  0  0  0  0  0  0  0
   -2.1169   -2.7847   -3.1575 H   0  0  0  0  0  0  0  0  0  0  0  0
    0.6437   -4.9366   -1.0801 N   0  0  0  0  0  0  0  0  0  0  0  0
    1.7796   -5.7953   -0.8391 C   0  0  0  0  0  0  0  0  0  0  0  0
   -0.2837   -5.3285   -0.9458 H   0  0  0  0  0  0  0  0  0  0  0  0
    2.0518   -6.3142   -1.7701 H   0  0  0  0  0  0  0  0  0  0  0  0
    2.6307   -5.1893   -0.4950 H   0  0  0  0  0  0  0  0  0  0  0  0
    1.5218   -6.5365   -0.0683 H   0  0  0  0  0  0  0  0  0  0  0  0
 25 27  1  0  0  0  0
 26 27  2  0  0  0  0
 23 25  2  0  0  0  0
 24 26  1  0  0  0  0
 22 23  1  0  0  0  0
 22 24  2  0  0  0  0
 21 22  1  0  0  0  0
  1  3  1  0  0  0  0
  1  7  1  0  0  0  0
  1  2  2  0  0  0  0
 38 39  1  0  0  0  0
 39 47  1  0  0  0  0
 39 40  2  0  0  0  0
  8  9  1  0  0  0  0
  9 17  1  0  0  0  0
  9 10  2  0  0  0  0
 18 19  1  0  0  0  0
 19 37  1  0  0  0  0
 19 20  2  0  0  0  0
 38 41  1  0  0  0  0
  8 11  1  0  0  0  0
 47 48  1  0  0  0  0
 18 21  1  0  0  0  0
 37 38  1  0  0  0  0
  7  8  1  0  0  0  0
 17 18  1  0  0  0  0
 27 36  1  0  0  0  0
 25 34  1  0  0  0  0
 26 35  1  0  0  0  0
 23 32  1  0  0  0  0
 24 33  1  0  0  0  0
  3  4  1  0  0  0  0
  3  5  1  0  0  0  0
  3  6  1  0  0  0  0
 41 44  1  0  0  0  0
 41 45  1  0  0  0  0
 41 46  1  0  0  0  0
 11 14  1  0  0  0  0
 11 15  1  0  0  0  0
 11 16  1  0  0  0  0
 48 50  1  0  0  0  0
 48 51  1  0  0  0  0
 48 52  1  0  0  0  0
 21 30  1  0  0  0  0
 21 31  1  0  0  0  0
 38 43  1  0  0  0  0
  8 13  1  0  0  0  0
 18 29  1  0  0  0  0
 47 49  1  0  0  0  0
  7 12  1  0  0  0  0
 37 42  1  0  0  0  0
 17 28  1  0  0  0  0
M  END
$$$$

  -OEChem-05262214473D

 52 52  0     1  0  0  0  0  0999 V2000
   -1.8248    0.3424    3.9102 C   0  0  0  0  0  0  0  0  0  0  0  0
   -0.8774   -0.2723    3.4345 O   0  0  0  0  0  0  0  0  0  0  0  0
   -2.2566    0.0600    5.3109 C   0  0  0  0  0  0  0  0  0  0  0  0
   -3.0163   -0.7363    5.3643 H   0  0  0  0  0  0  0  0  0  0  0  0
   -1.4254   -0.2876    5.9452 H   0  0  0  0  0  0  0  0  0  0  0  0
   -2.6947    0.9149    5.8505 H   0  0  0  0  0  0  0  0  0  0  0  0
   -2.5745    1.3149    3.2691 N   0  0  0  0  0  0  0  0  0  0  0  0
   -2.3276    1.7409    1.9167 C   0  0  2  0  0  0  0  0  0  0  0  0
   -0.9926    1.1555    1.4755 C   0  0  0  0  0  0  0  0  0  0  0  0
   -0.1206    0.8028    2.2668 O   0  0  0  0  0  0  0  0  0  0  0  0
   -2.3188    3.2577    1.8072 C   0  0  0  0  0  0  0  0  0  0  0  0
   -3.3395    1.7507    3.7809 H   0  0  0  0  0  0  0  0  0  0  0  0
   -3.1317    1.3224    1.3015 H   0  0  0  0  0  0  0  0  0  0  0  0
   -1.5198    3.6949    2.4169 H   0  0  0  0  0  0  0  0  0  0  0  0
   -2.1594    3.5799    0.7729 H   0  0  0  0  0  0  0  0  0  0  0  0
   -3.2690    3.6789    2.1530 H   0  0  0  0  0  0  0  0  0  0  0  0
   -0.8700    1.1124    0.0921 N   0  0  0  0  0  0  0  0  0  0  0  0
    0.3073    0.6116   -0.5716 C   0  0  2  0  0  0  0  0  0  0  0  0
    0.2795   -0.9081   -0.4536 C   0  0  0  0  0  0  0  0  0  0  0  0
    0.5051   -1.5017    0.5988 O   0  0  0  0  0  0  0  0  0  0  0  0
    1.5979    1.1700    0.0390 C   0  0  0  0  0  0  0  0  0  0  0  0
    1.7556    2.6540   -0.1861 C   0  0  0  0  0  0  0  0  0  0  0  0
    2.2412    3.1274   -1.4051 C   0  0  0  0  0  0  0  0  0  0  0  0
    1.4153    3.5523    0.8253 C   0  0  0  0  0  0  0  0  0  0  0  0
    2.3865    4.4990   -1.6126 C   0  0  0  0  0  0  0  0  0  0  0  0
    1.5606    4.9239    0.6177 C   0  0  0  0  0  0  0  0  0  0  0  0
    2.0462    5.3973   -0.6013 C   0  0  0  0  0  0  0  0  0  0  0  0
   -1.6531    1.4091   -0.4852 H   0  0  0  0  0  0  0  0  0  0  0  0
    0.2135    0.8914   -1.6275 H   0  0  0  0  0  0  0  0  0  0  0  0
    2.4707    0.6401   -0.3660 H   0  0  0  0  0  0  0  0  0  0  0  0
    1.6232    0.9818    1.1205 H   0  0  0  0  0  0  0  0  0  0  0  0
    2.5087    2.4348   -2.1989 H   0  0  0  0  0  0  0  0  0  0  0  0
    1.0361    3.1926    1.7781 H   0  0  0  0  0  0  0  0  0  0  0  0
    2.7656    4.8673   -2.5614 H   0  0  0  0  0  0  0  0  0  0  0  0
    1.2966    5.6230    1.4057 H   0  0  0  0  0  0  0  0  0  0  0  0
    2.1607    6.4652   -0.7626 H   0  0  0  0  0  0  0  0  0  0  0  0
   -0.0756   -1.5157   -1.6499 N   0  0  0  0  0  0  0  0  0  0  0  0
   -0.1993   -2.9471   -1.8069 C   0  0  2  0  0  0  0  0  0  0  0  0
    1.0638   -3.5920   -1.2518 C   0  0  0  0  0  0  0  0  0  0  0  0
    2.1305   -2.9912   -1.1407 O   0  0  0  0  0  0  0  0  0  0  0  0
   -0.4087   -3.3279   -3.2642 C   0  0  0  0  0  0  0  0  0  0  0  0
   -0.2577   -0.9246   -2.4556 H   0  0  0  0  0  0  0  0  0  0  0  0
   -1.0622   -3.2575   -1.2076 H   0  0  0  0  0  0  0  0  0  0  0  0
    0.4458   -3.0247   -3.8803 H   0  0  0  0  0  0  0  0  0  0  0  0
   -0.5307   -4.4101   -3.3780 H   0  0  0  0  0  0  0  0  0  0  0  0
   -1.3011   -2.8395   -3.6703 H   0  0  0  0  0  0  0  0  0  0  0  0
    0.8711   -4.9295   -0.9354 N   0  0  0  0  0  0  0  0  0  0  0  0
    1.9229   -5.7641   -0.4032 C   0  0  0  0  0  0  0  0  0  0  0  0
   -0.0517   -5.3403   -1.0420 H   0  0  0  0  0  0  0  0  0  0  0  0
    2.4361   -6.2792   -1.2286 H   0  0  0  0  0  0  0  0  0  0  0  0
    2.6444   -5.1399    0.1444 H   0  0  0  0  0  0  0  0  0  0  0  0
    1.4893   -6.5088    0.2805 H   0  0  0  0  0  0  0  0  0  0  0  0
 25 27  1  0  0  0  0
 26 27  2  0  0  0  0
 23 25  2  0  0  0  0
 24 26  1  0  0  0  0
 22 23  1  0  0  0  0
 22 24  2  0  0  0  0
 21 22  1  0  0  0  0
  1  3  1  0  0  0  0
  1  7  1  0  0  0  0
  1  2  2  0  0  0  0
 38 39  1  0  0  0  0
 39 47  1  0  0  0  0
 39 40  2  0  0  0  0
  8  9  1  0  0  0  0
  9 17  1  0  0  0  0
  9 10  2  0  0  0  0
 18 19  1  0  0  0  0
 19 37  1  0  0  0  0
 19 20  2  0  0  0  0
 38 41  1  0  0  0  0
  8 11  1  0  0  0  0
 47 48  1  0  0  0  0
 18 21  1  0  0  0  0
 37 38  1  0  0  0  0
  7  8  1  0  0  0  0
 17 18  1  0  0  0  0
 27 36  1  0  0  0  0
 25 34  1  0  0  0  0
 26 35  1  0  0  0  0
 23 32  1  0  0  0  0
 24 33  1  0  0  0  0
  3  4  1  0  0  0  0
  3  5  1  0  0  0  0
  3  6  1  0  0  0  0
 41 44  1  0  0  0  0
 41 45  1  0  0  0  0
 41 46  1  0  0  0  0
 11 14  1  0  0  0  0
 11 15  1  0  0  0  0
 11 16  1  0  0  0  0
 48 50  1  0  0  0  0
 48 51  1  0  0  0  0
 48 52  1  0  0  0  0
 21 30  1  0  0  0  0
 21 31  1  0  0  0  0
 38 43  1  0  0  0  0
  8 13  1  0  0  0  0
 18 29  1  0  0  0  0
 47 49  1  0  0  0  0
  7 12  1  0  0  0  0
 37 42  1  0  0  0  0
 17 28  1  0  0  0  0
M  END
$$$$

  -OEChem-05262214473D

 52 52  0     1  0  0  0  0  0999 V2000
   -1.8248    0.3424    3.9102 C   0  0  0  0  0  0  0  0  0  0  0  0
   -0.8774   -0.2723    3.4345 O   0  0  0  0  0  0  0  0  0  0  0  0
   -2.2566    0.0600    5.3109 C   0  0  0  0  0  0  0  0  0  0  0  0
   -3.0163   -0.7363    5.3643 H   0  0  0  0  0  0  0  0  0  0  0  0
   -1.4254   -0.2876    5.9452 H   0  0  0  0  0  0  0  0  0  0  0  0
   -2.6947    0.9149    5.8505 H   0  0  0  0  0  0  0  0  0  0  0  0
   -2.5745    1.3149    3.2691 N   0  0  0  0  0  0  0  0  0  0  0  0
   -2.3276    1.7409    1.9167 C   0  0  2  0  0  0  0  0  0  0  0  0
   -0.9926    1.1555    1.4755 C   0  0  0  0  0  0  0  0  0  0  0  0
   -0.1206    0.8028    2.2668 O   0  0  0  0  0  0  0  0  0  0  0  0
   -2.3188    3.2577    1.8072 C   0  0  0  0  0  0  0  0  0  0  0  0
   -3.3395    1.7507    3.7809 H   0  0  0  0  0  0  0  0  0  0  0  0
   -3.1317    1.3224    1.3015 H   0  0  0  0  0  0  0  0  0  0  0  0
   -1.5198    3.6949    2.4169 H   0  0  0  0  0  0  0  0  0  0  0  0
   -2.1594    3.5799    0.7729 H   0  0  0  0  0  0  0  0  0  0  0  0
   -3.2690    3.6789    2.1530 H   0  0  0  0  0  0  0  0  0  0  0  0
   -0.8700    1.1124    0.0921 N   0  0  0  0  0  0  0  0  0  0  0  0
    0.3073    0.6116   -0.5716 C   0  0  2  0  0  0  0  0  0  0  0  0
    0.2795   -0.9081   -0.4536 C   0  0  0  0  0  0  0  0  0  0  0  0
    0.2373   -1.4948    0.6257 O   0  0  0  0  0  0  0  0  0  0  0  0
    1.5979    1.1700    0.0390 C   0  0  0  0  0  0  0  0  0  0  0  0
    1.7556    2.6540   -0.1861 C   0  0  0  0  0  0  0  0  0  0  0  0
    2.2412    3.1274   -1.4051 C   0  0  0  0  0  0  0  0  0  0  0  0
    1.4153    3.5523    0.8253 C   0  0  0  0  0  0  0  0  0  0  0  0
    2.3865    4.4990   -1.6126 C   0  0  0  0  0  0  0  0  0  0  0  0
    1.5606    4.9239    0.6177 C   0  0  0  0  0  0  0  0  0  0  0  0
    2.0462    5.3973   -0.6013 C   0  0  0  0  0  0  0  0  0  0  0  0
   -1.6531    1.4091   -0.4852 H   0  0  0  0  0  0  0  0  0  0  0  0
    0.2135    0.8914   -1.6275 H   0  0  0  0  0  0  0  0  0  0  0  0
    2.4707    0.6401   -0.3660 H   0  0  0  0  0  0  0  0  0  0  0  0
    1.6232    0.9818    1.1205 H   0  0  0  0  0  0  0  0  0  0  0  0
    2.5087    2.4348   -2.1989 H   0  0  0  0  0  0  0  0  0  0  0  0
    1.0361    3.1926    1.7781 H   0  0  0  0  0  0  0  0  0  0  0  0
    2.7656    4.8673   -2.5614 H   0  0  0  0  0  0  0  0  0  0  0  0
    1.2966    5.6230    1.4057 H   0  0  0  0  0  0  0  0  0  0  0  0
    2.1607    6.4652   -0.7626 H   0  0  0  0  0  0  0  0  0  0  0  0
    0.2570   -1.5254   -1.6965 N   0  0  0  0  0  0  0  0  0  0  0  0
    0.2058   -2.9594   -1.8696 C   0  0  2  0  0  0  0  0  0  0  0  0
    1.2952   -3.5769   -1.0027 C   0  0  0  0  0  0  0  0  0  0  0  0
    2.2852   -2.9540   -0.6246 O   0  0  0  0  0  0  0  0  0  0  0  0
    0.3870   -3.3474   -3.3287 C   0  0  0  0  0  0  0  0  0  0  0  0
    0.2775   -0.9399   -2.5263 H   0  0  0  0  0  0  0  0  0  0  0  0
   -0.7763   -3.2863   -1.5109 H   0  0  0  0  0  0  0  0  0  0  0  0
    1.3654   -3.0280   -3.7058 H   0  0  0  0  0  0  0  0  0  0  0  0
    0.3195   -4.4322   -3.4622 H   0  0  0  0  0  0  0  0  0  0  0  0
   -0.3797   -2.8784   -3.9549 H   0  0  0  0  0  0  0  0  0  0  0  0
    1.0534   -4.9174   -0.7369 N   0  0  0  0  0  0  0  0  0  0  0  0
    1.9482   -5.7290    0.0547 C   0  0  0  0  0  0  0  0  0  0  0  0
    0.1974   -5.3474   -1.0749 H   0  0  0  0  0  0  0  0  0  0  0  0
    2.6669   -6.2351   -0.6066 H   0  0  0  0  0  0  0  0  0  0  0  0
    2.4917   -5.0889    0.7653 H   0  0  0  0  0  0  0  0  0  0  0  0
    1.3674   -6.4811    0.6089 H   0  0  0  0  0  0  0  0  0  0  0  0
 25 27  1  0  0  0  0
 26 27  2  0  0  0  0
 23 25  2  0  0  0  0
 24 26  1  0  0  0  0
 22 23  1  0  0  0  0
 22 24  2  0  0  0  0
 21 22  1  0  0  0  0
  1  3  1  0  0  0  0
  1  7  1  0  0  0  0
  1  2  2  0  0  0  0
 38 39  1  0  0  0  0
 39 47  1  0  0  0  0
 39 40  2  0  0  0  0
  8  9  1  0  0  0  0
  9 17  1  0  0  0  0
  9 10  2  0  0  0  0
 18 19  1  0  0  0  0
 19 37  1  0  0  0  0
 19 20  2  0  0  0  0
 38 41  1  0  0  0  0
  8 11  1  0  0  0  0
 47 48  1  0  0  0  0
 18 21  1  0  0  0  0
 37 38  1  0  0  0  0
  7  8  1  0  0  0  0
 17 18  1  0  0  0  0
 27 36  1  0  0  0  0
 25 34  1  0  0  0  0
 26 35  1  0  0  0  0
 23 32  1  0  0  0  0
 24 33  1  0  0  0  0
  3  4  1  0  0  0  0
  3  5  1  0  0  0  0
  3  6  1  0  0  0  0
 41 44  1  0  0  0  0
 41 45  1  0  0  0  0
 41 46  1  0  0  0  0
 11 14  1  0  0  0  0
 11 15  1  0  0  0  0
 11 16  1  0  0  0  0
 48 50  1  0  0  0  0
 48 51  1  0  0  0  0
 48 52  1  0  0  0  0
 21 30  1  0  0  0  0
 21 31  1  0  0  0  0
 38 43  1  0  0  0  0
  8 13  1  0  0  0  0
 18 29  1  0  0  0  0
 47 49  1  0  0  0  0
  7 12  1  0  0  0  0
 37 42  1  0  0  0  0
 17 28  1  0  0  0  0
M  END
$$$$

  -OEChem-05262214473D

 52 52  0     1  0  0  0  0  0999 V2000
   -1.8248    0.3424    3.9102 C   0  0  0  0  0  0  0  0  0  0  0  0
   -0.8774   -0.2723    3.4345 O   0  0  0  0  0  0  0  0  0  0  0  0
   -2.2566    0.0600    5.3109 C   0  0  0  0  0  0  0  0  0  0  0  0
   -3.0163   -0.7363    5.3643 H   0  0  0  0  0  0  0  0  0  0  0  0
   -1.4254   -0.2876    5.9452 H   0  0  0  0  0  0  0  0  0  0  0  0
   -2.6947    0.9149    5.8505 H   0  0  0  0  0  0  0  0  0  0  0  0
   -2.5745    1.3149    3.2691 N   0  0  0  0  0  0  0  0  0  0  0  0
   -2.3276    1.7409    1.9167 C   0  0  2  0  0  0  0  0  0  0  0  0
   -0.9926    1.1555    1.4755 C   0  0  0  0  0  0  0  0  0  0  0  0
   -0.1206    0.8028    2.2668 O   0  0  0  0  0  0  0  0  0  0  0  0
   -2.3188    3.2577    1.8072 C   0  0  0  0  0  0  0  0  0  0  0  0
   -3.3395    1.7507    3.7809 H   0  0  0  0  0  0  0  0  0  0  0  0
   -3.1317    1.3224    1.3015 H   0  0  0  0  0  0  0  0  0  0  0  0
   -1.5198    3.6949    2.4169 H   0  0  0  0  0  0  0  0  0  0  0  0
   -2.1594    3.5799    0.7729 H   0  0  0  0  0  0  0  0  0  0  0  0
   -3.2690    3.6789    2.1530 H   0  0  0  0  0  0  0  0  0  0  0  0
   -0.8700    1.1124    0.0921 N   0  0  0  0  0  0  0  0  0  0  0  0
    0.3073    0.6116   -0.5716 C   0  0  2  0  0  0  0  0  0  0  0  0
    0.2795   -0.9081   -0.4536 C   0  0  0  0  0  0  0  0  0  0  0  0
   -0.0284   -1.4932    0.5826 O   0  0  0  0  0  0  0  0  0  0  0  0
    1.5979    1.1700    0.0390 C   0  0  0  0  0  0  0  0  0  0  0  0
    1.7556    2.6540   -0.1861 C   0  0  0  0  0  0  0  0  0  0  0  0
    2.2412    3.1274   -1.4051 C   0  0  0  0  0  0  0  0  0  0  0  0
    1.4153    3.5523    0.8253 C   0  0  0  0  0  0  0  0  0  0  0  0
    2.3865    4.4990   -1.6126 C   0  0  0  0  0  0  0  0  0  0  0  0
    1.5606    4.9239    0.6177 C   0  0  0  0  0  0  0  0  0  0  0  0
    2.0462    5.3973   -0.6013 C   0  0  0  0  0  0  0  0  0  0  0  0
   -1.6531    1.4091   -0.4852 H   0  0  0  0  0  0  0  0  0  0  0  0
    0.2135    0.8914   -1.6275 H   0  0  0  0  0  0  0  0  0  0  0  0
    2.4707    0.6401   -0.3660 H   0  0  0  0  0  0  0  0  0  0  0  0
    1.6232    0.9818    1.1205 H   0  0  0  0  0  0  0  0  0  0  0  0
    2.5087    2.4348   -2.1989 H   0  0  0  0  0  0  0  0  0  0  0  0
    1.0361    3.1926    1.7781 H   0  0  0  0  0  0  0  0  0  0  0  0
    2.7656    4.8673   -2.5614 H   0  0  0  0  0  0  0  0  0  0  0  0
    1.2966    5.6230    1.4057 H   0  0  0  0  0  0  0  0  0  0  0  0
    2.1607    6.4652   -0.7626 H   0  0  0  0  0  0  0  0  0  0  0  0
    0.5905   -1.5283   -1.6557 N   0  0  0  0  0  0  0  0  0  0  0  0
    0.6135   -2.9634   -1.8255 C   0  0  2  0  0  0  0  0  0  0  0  0
    1.4541   -3.5565   -0.7025 C   0  0  0  0  0  0  0  0  0  0  0  0
    2.3007   -2.9125   -0.0864 O   0  0  0  0  0  0  0  0  0  0  0  0
    1.1726   -3.3507   -3.1857 C   0  0  0  0  0  0  0  0  0  0  0  0
    0.8130   -0.9443   -2.4564 H   0  0  0  0  0  0  0  0  0  0  0  0
   -0.4213   -3.3098   -1.7300 H   0  0  0  0  0  0  0  0  0  0  0  0
    2.2088   -3.0120   -3.2999 H   0  0  0  0  0  0  0  0  0  0  0  0
    1.1629   -4.4369   -3.3240 H   0  0  0  0  0  0  0  0  0  0  0  0
    0.5845   -2.8990   -3.9918 H   0  0  0  0  0  0  0  0  0  0  0  0
    1.1779   -4.9012   -0.4982 N   0  0  0  0  0  0  0  0  0  0  0  0
    1.8537   -5.6924    0.5034 C   0  0  0  0  0  0  0  0  0  0  0  0
    0.4467   -5.3494   -1.0424 H   0  0  0  0  0  0  0  0  0  0  0  0
    2.7284   -6.1850    0.0536 H   0  0  0  0  0  0  0  0  0  0  0  0
    2.1830   -5.0398    1.3254 H   0  0  0  0  0  0  0  0  0  0  0  0
    1.1644   -6.4552    0.8945 H   0  0  0  0  0  0  0  0  0  0  0  0
 25 27  1  0  0  0  0
 26 27  2  0  0  0  0
 23 25  2  0  0  0  0
 24 26  1  0  0  0  0
 22 23  1  0  0  0  0
 22 24  2  0  0  0  0
 21 22  1  0  0  0  0
  1  3  1  0  0  0  0
  1  7  1  0  0  0  0
  1  2  2  0  0  0  0
 38 39  1  0  0  0  0
 39 47  1  0  0  0  0
 39 40  2  0  0  0  0
  8  9  1  0  0  0  0
  9 17  1  0  0  0  0
  9 10  2  0  0  0  0
 18 19  1  0  0  0  0
 19 37  1  0  0  0  0
 19 20  2  0  0  0  0
 38 41  1  0  0  0  0
  8 11  1  0  0  0  0
 47 48  1  0  0  0  0
 18 21  1  0  0  0  0
 37 38  1  0  0  0  0
  7  8  1  0  0  0  0
 17 18  1  0  0  0  0
 27 36  1  0  0  0  0
 25 34  1  0  0  0  0
 26 35  1  0  0  0  0
 23 32  1  0  0  0  0
 24 33  1  0  0  0  0
  3  4  1  0  0  0  0
  3  5  1  0  0  0  0
  3  6  1  0  0  0  0
 41 44  1  0  0  0  0
 41 45  1  0  0  0  0
 41 46  1  0  0  0  0
 11 14  1  0  0  0  0
 11 15  1  0  0  0  0
 11 16  1  0  0  0  0
 48 50  1  0  0  0  0
 48 51  1  0  0  0  0
 48 52  1  0  0  0  0
 21 30  1  0  0  0  0
 21 31  1  0  0  0  0
 38 43  1  0  0  0  0
  8 13  1  0  0  0  0
 18 29  1  0  0  0  0
 47 49  1  0  0  0  0
  7 12  1  0  0  0  0
 37 42  1  0  0  0  0
 17 28  1  0  0  0  0
M  END
$$$$

  -OEChem-05262214473D

 52 52  0     1  0  0  0  0  0999 V2000
   -1.8248    0.3424    3.9102 C   0  0  0  0  0  0  0  0  0  0  0  0
   -0.8774   -0.2723    3.4345 O   0  0  0  0  0  0  0  0  0  0  0  0
   -2.2566    0.0600    5.3109 C   0  0  0  0  0  0  0  0  0  0  0  0
   -3.0163   -0.7363    5.3643 H   0  0  0  0  0  0  0  0  0  0  0  0
   -1.4254   -0.2876    5.9452 H   0  0  0  0  0  0  0  0  0  0  0  0
   -2.6947    0.9149    5.8505 H   0  0  0  0  0  0  0  0  0  0  0  0
   -2.5745    1.3149    3.2691 N   0  0  0  0  0  0  0  0  0  0  0  0
   -2.3276    1.7409    1.9167 C   0  0  2  0  0  0  0  0  0  0  0  0
   -0.9926    1.1555    1.4755 C   0  0  0  0  0  0  0  0  0  0  0  0
   -0.1206    0.8028    2.2668 O   0  0  0  0  0  0  0  0  0  0  0  0
   -2.3188    3.2577    1.8072 C   0  0  0  0  0  0  0  0  0  0  0  0
   -3.3395    1.7507    3.7809 H   0  0  0  0  0  0  0  0  0  0  0  0
   -3.1317    1.3224    1.3015 H   0  0  0  0  0  0  0  0  0  0  0  0
   -1.5198    3.6949    2.4169 H   0  0  0  0  0  0  0  0  0  0  0  0
   -2.1594    3.5799    0.7729 H   0  0  0  0  0  0  0  0  0  0  0  0
   -3.2690    3.6789    2.1530 H   0  0  0  0  0  0  0  0  0  0  0  0
   -0.8700    1.1124    0.0921 N   0  0  0  0  0  0  0  0  0  0  0  0
    0.3073    0.6116   -0.5716 C   0  0  2  0  0  0  0  0  0  0  0  0
    0.2795   -0.9081   -0.4536 C   0  0  0  0  0  0  0  0  0  0  0  0
   -0.2739   -1.4973    0.4724 O   0  0  0  0  0  0  0  0  0  0  0  0
    1.5979    1.1700    0.0390 C   0  0  0  0  0  0  0  0  0  0  0  0
    1.7556    2.6540   -0.1861 C   0  0  0  0  0  0  0  0  0  0  0  0
    2.2412    3.1274   -1.4051 C   0  0  0  0  0  0  0  0  0  0  0  0
    1.4153    3.5523    0.8253 C   0  0  0  0  0  0  0  0  0  0  0  0
    2.3865    4.4990   -1.6126 C   0  0  0  0  0  0  0  0  0  0  0  0
    1.5606    4.9239    0.6177 C   0  0  0  0  0  0  0  0  0  0  0  0
    2.0462    5.3973   -0.6013 C   0  0  0  0  0  0  0  0  0  0  0  0
   -1.6531    1.4091   -0.4852 H   0  0  0  0  0  0  0  0  0  0  0  0
    0.2135    0.8914   -1.6275 H   0  0  0  0  0  0  0  0  0  0  0  0
    2.4707    0.6401   -0.3660 H   0  0  0  0  0  0  0  0  0  0  0  0
    1.6232    0.9818    1.1205 H   0  0  0  0  0  0  0  0  0  0  0  0
    2.5087    2.4348   -2.1989 H   0  0  0  0  0  0  0  0  0  0  0  0
    1.0361    3.1926    1.7781 H   0  0  0  0  0  0  0  0  0  0  0  0
    2.7656    4.8673   -2.5614 H   0  0  0  0  0  0  0  0  0  0  0  0
    1.2966    5.6230    1.4057 H   0  0  0  0  0  0  0  0  0  0  0  0
    2.1607    6.4652   -0.7626 H   0  0  0  0  0  0  0  0  0  0  0  0
    0.9021   -1.5243   -1.5302 N   0  0  0  0  0  0  0  0  0  0  0  0
    0.9960   -2.9589   -1.6778 C   0  0  2  0  0  0  0  0  0  0  0  0
    1.5297   -3.5322   -0.3716 C   0  0  0  0  0  0  0  0  0  0  0  0
    2.1760   -2.8695    0.4373 O   0  0  0  0  0  0  0  0  0  0  0  0
    1.8946   -3.3375   -2.8448 C   0  0  0  0  0  0  0  0  0  0  0  0
    1.3124   -0.9374   -2.2506 H   0  0  0  0  0  0  0  0  0  0  0  0
   -0.0215   -3.3265   -1.8499 H   0  0  0  0  0  0  0  0  0  0  0  0
    2.9184   -2.9776   -2.6904 H   0  0  0  0  0  0  0  0  0  0  0  0
    1.9420   -4.4239   -2.9730 H   0  0  0  0  0  0  0  0  0  0  0  0
    1.5258   -2.8996   -3.7787 H   0  0  0  0  0  0  0  0  0  0  0  0
    1.2364   -4.8818   -0.2356 N   0  0  0  0  0  0  0  0  0  0  0  0
    1.6461   -5.6569    0.9122 C   0  0  0  0  0  0  0  0  0  0  0  0
    0.6792   -5.3462   -0.9466 H   0  0  0  0  0  0  0  0  0  0  0  0
    2.6166   -6.1322    0.7069 H   0  0  0  0  0  0  0  0  0  0  0  0
    1.7393   -4.9958    1.7865 H   0  0  0  0  0  0  0  0  0  0  0  0
    0.8940   -6.4329    1.1179 H   0  0  0  0  0  0  0  0  0  0  0  0
 25 27  1  0  0  0  0
 26 27  2  0  0  0  0
 23 25  2  0  0  0  0
 24 26  1  0  0  0  0
 22 23  1  0  0  0  0
 22 24  2  0  0  0  0
 21 22  1  0  0  0  0
  1  3  1  0  0  0  0
  1  7  1  0  0  0  0
  1  2  2  0  0  0  0
 38 39  1  0  0  0  0
 39 47  1  0  0  0  0
 39 40  2  0  0  0  0
  8  9  1  0  0  0  0
  9 17  1  0  0  0  0
  9 10  2  0  0  0  0
 18 19  1  0  0  0  0
 19 37  1  0  0  0  0
 19 20  2  0  0  0  0
 38 41  1  0  0  0  0
  8 11  1  0  0  0  0
 47 48  1  0  0  0  0
 18 21  1  0  0  0  0
 37 38  1  0  0  0  0
  7  8  1  0  0  0  0
 17 18  1  0  0  0  0
 27 36  1  0  0  0  0
 25 34  1  0  0  0  0
 26 35  1  0  0  0  0
 23 32  1  0  0  0  0
 24 33  1  0  0  0  0
  3  4  1  0  0  0  0
  3  5  1  0  0  0  0
  3  6  1  0  0  0  0
 41 44  1  0  0  0  0
 41 45  1  0  0  0  0
 41 46  1  0  0  0  0
 11 14  1  0  0  0  0
 11 15  1  0  0  0  0
 11 16  1  0  0  0  0
 48 50  1  0  0  0  0
 48 51  1  0  0  0  0
 48 52  1  0  0  0  0
 21 30  1  0  0  0  0
 21 31  1  0  0  0  0
 38 43  1  0  0  0  0
  8 13  1  0  0  0  0
 18 29  1  0  0  0  0
 47 49  1  0  0  0  0
  7 12  1  0  0  0  0
 37 42  1  0  0  0  0
 17 28  1  0  0  0  0
M  END
$$$$

  -OEChem-05262214473D

 52 52  0     1  0  0  0  0  0999 V2000
   -1.8248    0.3424    3.9102 C   0  0  0  0  0  0  0  0  0  0  0  0
   -0.8774   -0.2723    3.4345 O   0  0  0  0  0  0  0  0  0  0  0  0
   -2.2566    0.0600    5.3109 C   0  0  0  0  0  0  0  0  0  0  0  0
   -3.0163   -0.7363    5.3643 H   0  0  0  0  0  0  0  0  0  0  0  0
   -1.4254   -0.2876    5.9452 H   0  0  0  0  0  0  0  0  0  0  0  0
   -2.6947    0.9149    5.8505 H   0  0  0  0  0  0  0  0  0  0  0  0
   -2.5745    1.3149    3.2691 N   0  0  0  0  0  0  0  0  0  0  0  0
   -2.3276    1.7409    1.9167 C   0  0  2  0  0  0  0  0  0  0  0  0
   -0.9926    1.1555    1.4755 C   0  0  0  0  0  0  0  0  0  0  0  0
   -0.1206    0.8028    2.2668 O   0  0  0  0  0  0  0  0  0  0  0  0
   -2.3188    3.2577    1.8072 C   0  0  0  0  0  0  0  0  0  0  0  0
   -3.3395    1.7507    3.7809 H   0  0  0  0  0  0  0  0  0  0  0  0
   -3.1317    1.3224    1.3015 H   0  0  0  0  0  0  0  0  0  0  0  0
   -1.5198    3.6949    2.4169 H   0  0  0  0  0  0  0  0  0  0  0  0
   -2.1594    3.5799    0.7729 H   0  0  0  0  0  0  0  0  0  0  0  0
   -3.2690    3.6789    2.1530 H   0  0  0  0  0  0  0  0  0  0  0  0
   -0.8700    1.1124    0.0921 N   0  0  0  0  0  0  0  0  0  0  0  0
    0.3073    0.6116   -0.5716 C   0  0  2  0  0  0  0  0  0  0  0  0
    0.2795   -0.9081   -0.4536 C   0  0  0  0  0  0  0  0  0  0  0  0
   -0.4826   -1.5067    0.3026 O   0  0  0  0  0  0  0  0  0  0  0  0
    1.5979    1.1700    0.0390 C   0  0  0  0  0  0  0  0  0  0  0  0
    1.7556    2.6540   -0.1861 C   0  0  0  0  0  0  0  0  0  0  0  0
    2.2412    3.1274   -1.4051 C   0  0  0  0  0  0  0  0  0  0  0  0
    1.4153    3.5523    0.8253 C   0  0  0  0  0  0  0  0  0  0  0  0
    2.3865    4.4990   -1.6126 C   0  0  0  0  0  0  0  0  0  0  0  0
    1.5606    4.9239    0.6177 C   0  0  0  0  0  0  0  0  0  0  0  0
    2.0462    5.3973   -0.6013 C   0  0  0  0  0  0  0  0  0  0  0  0
   -1.6531    1.4091   -0.4852 H   0  0  0  0  0  0  0  0  0  0  0  0
    0.2135    0.8914   -1.6275 H   0  0  0  0  0  0  0  0  0  0  0  0
    2.4707    0.6401   -0.3660 H   0  0  0  0  0  0  0  0  0  0  0  0
    1.6232    0.9818    1.1205 H   0  0  0  0  0  0  0  0  0  0  0  0
    2.5087    2.4348   -2.1989 H   0  0  0  0  0  0  0  0  0  0  0  0
    1.0361    3.1926    1.7781 H   0  0  0  0  0  0  0  0  0  0  0  0
    2.7656    4.8673   -2.5614 H   0  0  0  0  0  0  0  0  0  0  0  0
    1.2966    5.6230    1.4057 H   0  0  0  0  0  0  0  0  0  0  0  0
    2.1607    6.4652   -0.7626 H   0  0  0  0  0  0  0  0  0  0  0  0
    1.1707   -1.5136   -1.3286 N   0  0  0  0  0  0  0  0  0  0  0  0
    1.3274   -2.9463   -1.4364 C   0  0  2  0  0  0  0  0  0  0  0  0
    1.5169   -3.5056   -0.0326 C   0  0  0  0  0  0  0  0  0  0  0  0
    1.9196   -2.8281    0.9107 O   0  0  0  0  0  0  0  0  0  0  0  0
    2.5038   -3.3086   -2.3293 C   0  0  0  0  0  0  0  0  0  0  0  0
    1.7415   -0.9199   -1.9231 H   0  0  0  0  0  0  0  0  0  0  0  0
    0.3960   -3.3351   -1.8624 H   0  0  0  0  0  0  0  0  0  0  0  0
    3.4459   -2.9274   -1.9187 H   0  0  0  0  0  0  0  0  0  0  0  0
    2.6038   -4.3941   -2.4330 H   0  0  0  0  0  0  0  0  0  0  0  0
    2.3801   -2.8804   -3.3299 H   0  0  0  0  0  0  0  0  0  0  0  0
    1.2247   -4.8608    0.0331 N   0  0  0  0  0  0  0  0  0  0  0  0
    1.3392   -5.6248    1.2534 C   0  0  0  0  0  0  0  0  0  0  0  0
    0.8790   -5.3380   -0.7942 H   0  0  0  0  0  0  0  0  0  0  0  0
    2.3389   -6.0804    1.3089 H   0  0  0  0  0  0  0  0  0  0  0  0
    1.1909   -4.9601    2.1172 H   0  0  0  0  0  0  0  0  0  0  0  0
    0.5749   -6.4157    1.2638 H   0  0  0  0  0  0  0  0  0  0  0  0
 25 27  1  0  0  0  0
 26 27  2  0  0  0  0
 23 25  2  0  0  0  0
 24 26  1  0  0  0  0
 22 23  1  0  0  0  0
 22 24  2  0  0  0  0
 21 22  1  0  0  0  0
  1  3  1  0  0  0  0
  1  7  1  0  0  0  0
  1  2  2  0  0  0  0
 38 39  1  0  0  0  0
 39 47  1  0  0  0  0
 39 40  2  0  0  0  0
  8  9  1  0  0  0  0
  9 17  1  0  0  0  0
  9 10  2  0  0  0  0
 18 19  1  0  0  0  0
 19 37  1  0  0  0  0
 19 20  2  0  0  0  0
 38 41  1  0  0  0  0
  8 11  1  0  0  0  0
 47 48  1  0  0  0  0
 18 21  1  0  0  0  0
 37 38  1  0  0  0  0
  7  8  1  0  0  0  0
 17 18  1  0  0  0  0
 27 36  1  0  0  0  0
 25 34  1  0  0  0  0
 26 35  1  0  0  0  0
 23 32  1  0  0  0  0
 24 33  1  0  0  0  0
  3  4  1  0  0  0  0
  3  5  1  0  0  0  0
  3  6  1  0  0  0  0
 41 44  1  0  0  0  0
 41 45  1  0  0  0  0
 41 46  1  0  0  0  0
 11 14  1  0  0  0  0
 11 15  1  0  0  0  0
 11 16  1  0  0  0  0
 48 50  1  0  0  0  0
 48 51  1  0  0  0  0
 48 52  1  0  0  0  0
 21 30  1  0  0  0  0
 21 31  1  0  0  0  0
 38 43  1  0  0  0  0
  8 13  1  0  0  0  0
 18 29  1  0  0  0  0
 47 49  1  0  0  0  0
  7 12  1  0  0  0  0
 37 42  1  0  0  0  0
 17 28  1  0  0  0  0
M  END
$$$$

  -OEChem-05262214473D

 52 52  0     1  0  0  0  0  0999 V2000
   -1.8248    0.3424    3.9102 C   0  0  0  0  0  0  0  0  0  0  0  0
   -0.8774   -0.2723    3.4345 O   0  0  0  0  0  0  0  0  0  0  0  0
   -2.2566    0.0600    5.3109 C   0  0  0  0  0  0  0  0  0  0  0  0
   -3.0163   -0.7363    5.3643 H   0  0  0  0  0  0  0  0  0  0  0  0
   -1.4254   -0.2876    5.9452 H   0  0  0  0  0  0  0  0  0  0  0  0
   -2.6947    0.9149    5.8505 H   0  0  0  0  0  0  0  0  0  0  0  0
   -2.5745    1.3149    3.2691 N   0  0  0  0  0  0  0  0  0  0  0  0
   -2.3276    1.7409    1.9167 C   0  0  2  0  0  0  0  0  0  0  0  0
   -0.9926    1.1555    1.4755 C   0  0  0  0  0  0  0  0  0  0  0  0
   -0.1206    0.8028    2.2668 O   0  0  0  0  0  0  0  0  0  0  0  0
   -2.3188    3.2577    1.8072 C   0  0  0  0  0  0  0  0  0  0  0  0
   -3.3395    1.7507    3.7809 H   0  0  0  0  0  0  0  0  0  0  0  0
   -3.1317    1.3224    1.3015 H   0  0  0  0  0  0  0  0  0  0  0  0
   -1.5198    3.6949    2.4169 H   0  0  0  0  0  0  0  0  0  0  0  0
   -2.1594    3.5799    0.7729 H   0  0  0  0  0  0  0  0  0  0  0  0
   -3.2690    3.6789    2.1530 H   0  0  0  0  0  0  0  0  0  0  0  0
   -0.8700    1.1124    0.0921 N   0  0  0  0  0  0  0  0  0  0  0  0
    0.3073    0.6116   -0.5716 C   0  0  2  0  0  0  0  0  0  0  0  0
    0.1013   -0.8833   -0.7885 C   0  0  0  0  0  0  0  0  0  0  0  0
   -0.9303   -1.4699   -0.4683 O   0  0  0  0  0  0  0  0  0  0  0  0
    1.5816    0.8612    0.2432 C   0  0  0  0  0  0  0  0  0  0  0  0
    1.9232    2.3268    0.3581 C   0  0  0  0  0  0  0  0  0  0  0  0
    2.5804    2.9745   -0.6880 C   0  0  0  0  0  0  0  0  0  0  0  0
    1.5813    3.0337    1.5109 C   0  0  0  0  0  0  0  0  0  0  0  0
    2.8956    4.3291   -0.5813 C   0  0  0  0  0  0  0  0  0  0  0  0
    1.8965    4.3883    1.6176 C   0  0  0  0  0  0  0  0  0  0  0  0
    2.5536    5.0360    0.5715 C   0  0  0  0  0  0  0  0  0  0  0  0
   -1.6531    1.4091   -0.4852 H   0  0  0  0  0  0  0  0  0  0  0  0
    0.3537    1.1125   -1.5457 H   0  0  0  0  0  0  0  0  0  0  0  0
    2.4281    0.3182   -0.1985 H   0  0  0  0  0  0  0  0  0  0  0  0
    1.4750    0.4526    1.2568 H   0  0  0  0  0  0  0  0  0  0  0  0
    2.8506    2.4317   -1.5900 H   0  0  0  0  0  0  0  0  0  0  0  0
    1.0691    2.5374    2.3310 H   0  0  0  0  0  0  0  0  0  0  0  0
    3.4082    4.8329   -1.3955 H   0  0  0  0  0  0  0  0  0  0  0  0
    1.6310    4.9381    2.5157 H   0  0  0  0  0  0  0  0  0  0  0  0
    2.8003    6.0904    0.6549 H   0  0  0  0  0  0  0  0  0  0  0  0
    1.1855   -1.4701   -1.4261 N   0  0  0  0  0  0  0  0  0  0  0  0
    1.2391   -2.8723   -1.7719 C   0  0  2  0  0  0  0  0  0  0  0  0
    0.8674   -3.6767   -0.5333 C   0  0  0  0  0  0  0  0  0  0  0  0
    0.9698   -3.2348    0.6092 O   0  0  0  0  0  0  0  0  0  0  0  0
    2.6173   -3.2644   -2.2813 C   0  0  0  0  0  0  0  0  0  0  0  0
    1.9814   -0.8845   -1.6615 H   0  0  0  0  0  0  0  0  0  0  0  0
    0.4877   -3.0345   -2.5524 H   0  0  0  0  0  0  0  0  0  0  0  0
    3.3834   -3.1088   -1.5129 H   0  0  0  0  0  0  0  0  0  0  0  0
    2.6482   -4.3203   -2.5697 H   0  0  0  0  0  0  0  0  0  0  0  0
    2.8955   -2.6641   -3.1543 H   0  0  0  0  0  0  0  0  0  0  0  0
    0.4487   -4.9612   -0.8513 N   0  0  0  0  0  0  0  0  0  0  0  0
    0.0536   -5.9230    0.1511 C   0  0  0  0  0  0  0  0  0  0  0  0
    0.3765   -5.2361   -1.8265 H   0  0  0  0  0  0  0  0  0  0  0  0
    0.9229   -6.5333    0.4372 H   0  0  0  0  0  0  0  0  0  0  0  0
   -0.3299   -5.3938    1.0359 H   0  0  0  0  0  0  0  0  0  0  0  0
   -0.7335   -6.5745   -0.2563 H   0  0  0  0  0  0  0  0  0  0  0  0
 25 27  1  0  0  0  0
 26 27  2  0  0  0  0
 23 25  2  0  0  0  0
 24 26  1  0  0  0  0
 22 23  1  0  0  0  0
 22 24  2  0  0  0  0
 21 22  1  0  0  0  0
  1  3  1  0  0  0  0
  1  7  1  0  0  0  0
  1  2  2  0  0  0  0
 38 39  1  0  0  0  0
 39 47  1  0  0  0  0
 39 40  2  0  0  0  0
  8  9  1  0  0  0  0
  9 17  1  0  0  0  0
  9 10  2  0  0  0  0
 18 19  1  0  0  0  0
 19 37  1  0  0  0  0
 19 20  2  0  0  0  0
 38 41  1  0  0  0  0
  8 11  1  0  0  0  0
 47 48  1  0  0  0  0
 18 21  1  0  0  0  0
 37 38  1  0  0  0  0
  7  8  1  0  0  0  0
 17 18  1  0  0  0  0
 27 36  1  0  0  0  0
 25 34  1  0  0  0  0
 26 35  1  0  0  0  0
 23 32  1  0  0  0  0
 24 33  1  0  0  0  0
  3  4  1  0  0  0  0
  3  5  1  0  0  0  0
  3  6  1  0  0  0  0
 41 44  1  0  0  0  0
 41 45  1  0  0  0  0
 41 46  1  0  0  0  0
 11 14  1  0  0  0  0
 11 15  1  0  0  0  0
 11 16  1  0  0  0  0
 48 50  1  0  0  0  0
 48 51  1  0  0  0  0
 48 52  1  0  0  0  0
 21 30  1  0  0  0  0
 21 31  1  0  0  0  0
 38 43  1  0  0  0  0
  8 13  1  0  0  0  0
 18 29  1  0  0  0  0
 47 49  1  0  0  0  0
  7 12  1  0  0  0  0
 37 42  1  0  0  0  0
 17 28  1  0  0  0  0
M  END
$$$$

  -OEChem-05262214473D

 52 52  0     1  0  0  0  0  0999 V2000
   -1.8248    0.3424    3.9102 C   0  0  0  0  0  0  0  0  0  0  0  0
   -0.8774   -0.2723    3.4345 O   0  0  0  0  0  0  0  0  0  0  0  0
   -2.2566    0.0600    5.3109 C   0  0  0  0  0  0  0  0  0  0  0  0
   -3.0163   -0.7363    5.3643 H   0  0  0  0  0  0  0  0  0  0  0  0
   -1.4254   -0.2876    5.9452 H   0  0  0  0  0  0  0  0  0  0  0  0
   -2.6947    0.9149    5.8505 H   0  0  0  0  0  0  0  0  0  0  0  0
   -2.5745    1.3149    3.2691 N   0  0  0  0  0  0  0  0  0  0  0  0
   -2.3276    1.7409    1.9167 C   0  0  2  0  0  0  0  0  0  0  0  0
   -0.9926    1.1555    1.4755 C   0  0  0  0  0  0  0  0  0  0  0  0
   -0.1206    0.8028    2.2668 O   0  0  0  0  0  0  0  0  0  0  0  0
   -2.3188    3.2577    1.8072 C   0  0  0  0  0  0  0  0  0  0  0  0
   -3.3395    1.7507    3.7809 H   0  0  0  0  0  0  0  0  0  0  0  0
   -3.1317    1.3224    1.3015 H   0  0  0  0  0  0  0  0  0  0  0  0
   -1.5198    3.6949    2.4169 H   0  0  0  0  0  0  0  0  0  0  0  0
   -2.1594    3.5799    0.7729 H   0  0  0  0  0  0  0  0  0  0  0  0
   -3.2690    3.6789    2.1530 H   0  0  0  0  0  0  0  0  0  0  0  0
   -0.8700    1.1124    0.0921 N   0  0  0  0  0  0  0  0  0  0  0  0
    0.3073    0.6116   -0.5716 C   0  0  2  0  0  0  0  0  0  0  0  0
    0.1013   -0.8833   -0.7885 C   0  0  0  0  0  0  0  0  0  0  0  0
   -1.0011   -1.4231   -0.7237 O   0  0  0  0  0  0  0  0  0  0  0  0
    1.5816    0.8612    0.2432 C   0  0  0  0  0  0  0  0  0  0  0  0
    1.9232    2.3268    0.3581 C   0  0  0  0  0  0  0  0  0  0  0  0
    2.5804    2.9745   -0.6880 C   0  0  0  0  0  0  0  0  0  0  0  0
    1.5813    3.0337    1.5109 C   0  0  0  0  0  0  0  0  0  0  0  0
    2.8956    4.3291   -0.5813 C   0  0  0  0  0  0  0  0  0  0  0  0
    1.8965    4.3883    1.6176 C   0  0  0  0  0  0  0  0  0  0  0  0
    2.5536    5.0360    0.5715 C   0  0  0  0  0  0  0  0  0  0  0  0
   -1.6531    1.4091   -0.4852 H   0  0  0  0  0  0  0  0  0  0  0  0
    0.3537    1.1125   -1.5457 H   0  0  0  0  0  0  0  0  0  0  0  0
    2.4281    0.3182   -0.1985 H   0  0  0  0  0  0  0  0  0  0  0  0
    1.4750    0.4526    1.2568 H   0  0  0  0  0  0  0  0  0  0  0  0
    2.8506    2.4317   -1.5900 H   0  0  0  0  0  0  0  0  0  0  0  0
    1.0691    2.5374    2.3310 H   0  0  0  0  0  0  0  0  0  0  0  0
    3.4082    4.8329   -1.3955 H   0  0  0  0  0  0  0  0  0  0  0  0
    1.6310    4.9381    2.5157 H   0  0  0  0  0  0  0  0  0  0  0  0
    2.8003    6.0904    0.6549 H   0  0  0  0  0  0  0  0  0  0  0  0
    1.2864   -1.5297   -1.1112 N   0  0  0  0  0  0  0  0  0  0  0  0
    1.3677   -2.9456   -1.3895 C   0  0  2  0  0  0  0  0  0  0  0  0
    0.6617   -3.6877   -0.2624 C   0  0  0  0  0  0  0  0  0  0  0  0
    0.4897   -3.2042    0.8546 O   0  0  0  0  0  0  0  0  0  0  0  0
    2.8126   -3.4018   -1.5193 C   0  0  0  0  0  0  0  0  0  0  0  0
    2.1394   -0.9799   -1.1540 H   0  0  0  0  0  0  0  0  0  0  0  0
    0.8324   -3.1143   -2.3302 H   0  0  0  0  0  0  0  0  0  0  0  0
    3.3650   -3.2407   -0.5863 H   0  0  0  0  0  0  0  0  0  0  0  0
    2.8718   -4.4688   -1.7583 H   0  0  0  0  0  0  0  0  0  0  0  0
    3.3272   -2.8460   -2.3105 H   0  0  0  0  0  0  0  0  0  0  0  0
    0.2845   -4.9695   -0.6375 N   0  0  0  0  0  0  0  0  0  0  0  0
   -0.3909   -5.8775    0.2599 C   0  0  0  0  0  0  0  0  0  0  0  0
    0.4501   -5.2805   -1.5902 H   0  0  0  0  0  0  0  0  0  0  0  0
    0.3516   -6.5037    0.7761 H   0  0  0  0  0  0  0  0  0  0  0  0
   -0.9637   -5.3015    1.0016 H   0  0  0  0  0  0  0  0  0  0  0  0
   -1.0756   -6.5190   -0.3144 H   0  0  0  0  0  0  0  0  0  0  0  0
 25 27  1  0  0  0  0
 26 27  2  0  0  0  0
 23 25  2  0  0  0  0
 24 26  1  0  0  0  0
 22 23  1  0  0  0  0
 22 24  2  0  0  0  0
 21 22  1  0  0  0  0
  1  3  1  0  0  0  0
  1  7  1  0  0  0  0
  1  2  2  0  0  0  0
 38 39  1  0  0  0  0
 39 47  1  0  0  0  0
 39 40  2  0  0  0  0
  8  9  1  0  0  0  0
  9 17  1  0  0  0  0
  9 10  2  0  0  0  0
 18 19  1  0  0  0  0
 19 37  1  0  0  0  0
 19 20  2  0  0  0  0
 38 41  1  0  0  0  0
  8 11  1  0  0  0  0
 47 48  1  0  0  0  0
 18 21  1  0  0  0  0
 37 38  1  0  0  0  0
  7  8  1  0  0  0  0
 17 18  1  0  0  0  0
 27 36  1  0  0  0  0
 25 34  1  0  0  0  0
 26 35  1  0  0  0  0
 23 32  1  0  0  0  0
 24 33  1  0  0  0  0
  3  4  1  0  0  0  0
  3  5  1  0  0  0  0
  3  6  1  0  0  0  0
 41 44  1  0  0  0  0
 41 45  1  0  0  0  0
 41 46  1  0  0  0  0
 11 14  1  0  0  0  0
 11 15  1  0  0  0  0
 11 16  1  0  0  0  0
 48 50  1  0  0  0  0
 48 51  1  0  0  0  0
 48 52  1  0  0  0  0
 21 30  1  0  0  0  0
 21 31  1  0  0  0  0
 38 43  1  0  0  0  0
  8 13  1  0  0  0  0
 18 29  1  0  0  0  0
 47 49  1  0  0  0  0
  7 12  1  0  0  0  0
 37 42  1  0  0  0  0
 17 28  1  0  0  0  0
M  END
$$$$

  -OEChem-05262214473D

 52 52  0     1  0  0  0  0  0999 V2000
   -1.8248    0.3424    3.9102 C   0  0  0  0  0  0  0  0  0  0  0  0
   -0.8774   -0.2723    3.4345 O   0  0  0  0  0  0  0  0  0  0  0  0
   -2.2566    0.0600    5.3109 C   0  0  0  0  0  0  0  0  0  0  0  0
   -3.0163   -0.7363    5.3643 H   0  0  0  0  0  0  0  0  0  0  0  0
   -1.4254   -0.2876    5.9452 H   0  0  0  0  0  0  0  0  0  0  0  0
   -2.6947    0.9149    5.8505 H   0  0  0  0  0  0  0  0  0  0  0  0
   -2.5745    1.3149    3.2691 N   0  0  0  0  0  0  0  0  0  0  0  0
   -2.3276    1.7409    1.9167 C   0  0  2  0  0  0  0  0  0  0  0  0
   -0.9926    1.1555    1.4755 C   0  0  0  0  0  0  0  0  0  0  0  0
   -0.1206    0.8028    2.2668 O   0  0  0  0  0  0  0  0  0  0  0  0
   -2.3188    3.2577    1.8072 C   0  0  0  0  0  0  0  0  0  0  0  0
   -3.3395    1.7507    3.7809 H   0  0  0  0  0  0  0  0  0  0  0  0
   -3.1317    1.3224    1.3015 H   0  0  0  0  0  0  0  0  0  0  0  0
   -1.5198    3.6949    2.4169 H   0  0  0  0  0  0  0  0  0  0  0  0
   -2.1594    3.5799    0.7729 H   0  0  0  0  0  0  0  0  0  0  0  0
   -3.2690    3.6789    2.1530 H   0  0  0  0  0  0  0  0  0  0  0  0
   -0.8700    1.1124    0.0921 N   0  0  0  0  0  0  0  0  0  0  0  0
    0.3073    0.6116   -0.5716 C   0  0  2  0  0  0  0  0  0  0  0  0
    0.1013   -0.8833   -0.7885 C   0  0  0  0  0  0  0  0  0  0  0  0
   -1.0030   -1.3842   -0.9901 O   0  0  0  0  0  0  0  0  0  0  0  0
    1.5816    0.8612    0.2432 C   0  0  0  0  0  0  0  0  0  0  0  0
    1.9232    2.3268    0.3581 C   0  0  0  0  0  0  0  0  0  0  0  0
    2.5804    2.9745   -0.6880 C   0  0  0  0  0  0  0  0  0  0  0  0
    1.5813    3.0337    1.5109 C   0  0  0  0  0  0  0  0  0  0  0  0
    2.8956    4.3291   -0.5813 C   0  0  0  0  0  0  0  0  0  0  0  0
    1.8965    4.3883    1.6176 C   0  0  0  0  0  0  0  0  0  0  0  0
    2.5536    5.0360    0.5715 C   0  0  0  0  0  0  0  0  0  0  0  0
   -1.6531    1.4091   -0.4852 H   0  0  0  0  0  0  0  0  0  0  0  0
    0.3537    1.1125   -1.5457 H   0  0  0  0  0  0  0  0  0  0  0  0
    2.4281    0.3182   -0.1985 H   0  0  0  0  0  0  0  0  0  0  0  0
    1.4750    0.4526    1.2568 H   0  0  0  0  0  0  0  0  0  0  0  0
    2.8506    2.4317   -1.5900 H   0  0  0  0  0  0  0  0  0  0  0  0
    1.0691    2.5374    2.3310 H   0  0  0  0  0  0  0  0  0  0  0  0
    3.4082    4.8329   -1.3955 H   0  0  0  0  0  0  0  0  0  0  0  0
    1.6310    4.9381    2.5157 H   0  0  0  0  0  0  0  0  0  0  0  0
    2.8003    6.0904    0.6549 H   0  0  0  0  0  0  0  0  0  0  0  0
    1.3017   -1.5799   -0.7794 N   0  0  0  0  0  0  0  0  0  0  0  0
    1.3922   -3.0076   -0.9848 C   0  0  2  0  0  0  0  0  0  0  0  0
    0.3938   -3.6812   -0.0526 C   0  0  0  0  0  0  0  0  0  0  0  0
   -0.0351   -3.1484    0.9688 O   0  0  0  0  0  0  0  0  0  0  0  0
    2.8028   -3.5152   -0.7289 C   0  0  0  0  0  0  0  0  0  0  0  0
    2.1598   -1.0602   -0.6203 H   0  0  0  0  0  0  0  0  0  0  0  0
    1.1060   -3.1962   -2.0253 H   0  0  0  0  0  0  0  0  0  0  0  0
    3.1072   -3.3350    0.3086 H   0  0  0  0  0  0  0  0  0  0  0  0
    2.8764   -4.5921   -0.9126 H   0  0  0  0  0  0  0  0  0  0  0  0
    3.5235   -3.0082   -1.3795 H   0  0  0  0  0  0  0  0  0  0  0  0
    0.0712   -4.9641   -0.4725 N   0  0  0  0  0  0  0  0  0  0  0  0
   -0.8463   -5.8134    0.2506 C   0  0  0  0  0  0  0  0  0  0  0  0
    0.4596   -5.3178   -1.3418 H   0  0  0  0  0  0  0  0  0  0  0  0
   -0.2851   -6.4423    0.9575 H   0  0  0  0  0  0  0  0  0  0  0  0
   -1.5638   -5.1901    0.8044 H   0  0  0  0  0  0  0  0  0  0  0  0
   -1.3892   -6.4547   -0.4593 H   0  0  0  0  0  0  0  0  0  0  0  0
 25 27  1  0  0  0  0
 26 27  2  0  0  0  0
 23 25  2  0  0  0  0
 24 26  1  0  0  0  0
 22 23  1  0  0  0  0
 22 24  2  0  0  0  0
 21 22  1  0  0  0  0
  1  3  1  0  0  0  0
  1  7  1  0  0  0  0
  1  2  2  0  0  0  0
 38 39  1  0  0  0  0
 39 47  1  0  0  0  0
 39 40  2  0  0  0  0
  8  9  1  0  0  0  0
  9 17  1  0  0  0  0
  9 10  2  0  0  0  0
 18 19  1  0  0  0  0
 19 37  1  0  0  0  0
 19 20  2  0  0  0  0
 38 41  1  0  0  0  0
  8 11  1  0  0  0  0
 47 48  1  0  0  0  0
 18 21  1  0  0  0  0
 37 38  1  0  0  0  0
  7  8  1  0  0  0  0
 17 18  1  0  0  0  0
 27 36  1  0  0  0  0
 25 34  1  0  0  0  0
 26 35  1  0  0  0  0
 23 32  1  0  0  0  0
 24 33  1  0  0  0  0
  3  4  1  0  0  0  0
  3  5  1  0  0  0  0
  3  6  1  0  0  0  0
 41 44  1  0  0  0  0
 41 45  1  0  0  0  0
 41 46  1  0  0  0  0
 11 14  1  0  0  0  0
 11 15  1  0  0  0  0
 11 16  1  0  0  0  0
 48 50  1  0  0  0  0
 48 51  1  0  0  0  0
 48 52  1  0  0  0  0
 21 30  1  0  0  0  0
 21 31  1  0  0  0  0
 38 43  1  0  0  0  0
  8 13  1  0  0  0  0
 18 29  1  0  0  0  0
 47 49  1  0  0  0  0
  7 12  1  0  0  0  0
 37 42  1  0  0  0  0
 17 28  1  0  0  0  0
M  END
$$$$

  -OEChem-05262214473D

 52 52  0     1  0  0  0  0  0999 V2000
   -1.8248    0.3424    3.9102 C   0  0  0  0  0  0  0  0  0  0  0  0
   -0.8774   -0.2723    3.4345 O   0  0  0  0  0  0  0  0  0  0  0  0
   -2.2566    0.0600    5.3109 C   0  0  0  0  0  0  0  0  0  0  0  0
   -3.0163   -0.7363    5.3643 H   0  0  0  0  0  0  0  0  0  0  0  0
   -1.4254   -0.2876    5.9452 H   0  0  0  0  0  0  0  0  0  0  0  0
   -2.6947    0.9149    5.8505 H   0  0  0  0  0  0  0  0  0  0  0  0
   -2.5745    1.3149    3.2691 N   0  0  0  0  0  0  0  0  0  0  0  0
   -2.3276    1.7409    1.9167 C   0  0  2  0  0  0  0  0  0  0  0  0
   -0.9926    1.1555    1.4755 C   0  0  0  0  0  0  0  0  0  0  0  0
   -0.1206    0.8028    2.2668 O   0  0  0  0  0  0  0  0  0  0  0  0
   -2.3188    3.2577    1.8072 C   0  0  0  0  0  0  0  0  0  0  0  0
   -3.3395    1.7507    3.7809 H   0  0  0  0  0  0  0  0  0  0  0  0
   -3.1317    1.3224    1.3015 H   0  0  0  0  0  0  0  0  0  0  0  0
   -1.5198    3.6949    2.4169 H   0  0  0  0  0  0  0  0  0  0  0  0
   -2.1594    3.5799    0.7729 H   0  0  0  0  0  0  0  0  0  0  0  0
   -3.2690    3.6789    2.1530 H   0  0  0  0  0  0  0  0  0  0  0  0
   -0.8700    1.1124    0.0921 N   0  0  0  0  0  0  0  0  0  0  0  0
    0.3073    0.6116   -0.5716 C   0  0  2  0  0  0  0  0  0  0  0  0
    0.1013   -0.8833   -0.7885 C   0  0  0  0  0  0  0  0  0  0  0  0
   -0.9357   -1.3559   -1.2491 O   0  0  0  0  0  0  0  0  0  0  0  0
    1.5816    0.8612    0.2432 C   0  0  0  0  0  0  0  0  0  0  0  0
    1.9232    2.3268    0.3581 C   0  0  0  0  0  0  0  0  0  0  0  0
    2.5804    2.9745   -0.6880 C   0  0  0  0  0  0  0  0  0  0  0  0
    1.5813    3.0337    1.5109 C   0  0  0  0  0  0  0  0  0  0  0  0
    2.8956    4.3291   -0.5813 C   0  0  0  0  0  0  0  0  0  0  0  0
    1.8965    4.3883    1.6176 C   0  0  0  0  0  0  0  0  0  0  0  0
    2.5536    5.0360    0.5715 C   0  0  0  0  0  0  0  0  0  0  0  0
   -1.6531    1.4091   -0.4852 H   0  0  0  0  0  0  0  0  0  0  0  0
    0.3537    1.1125   -1.5457 H   0  0  0  0  0  0  0  0  0  0  0  0
    2.4281    0.3182   -0.1985 H   0  0  0  0  0  0  0  0  0  0  0  0
    1.4750    0.4526    1.2568 H   0  0  0  0  0  0  0  0  0  0  0  0
    2.8506    2.4317   -1.5900 H   0  0  0  0  0  0  0  0  0  0  0  0
    1.0691    2.5374    2.3310 H   0  0  0  0  0  0  0  0  0  0  0  0
    3.4082    4.8329   -1.3955 H   0  0  0  0  0  0  0  0  0  0  0  0
    1.6310    4.9381    2.5157 H   0  0  0  0  0  0  0  0  0  0  0  0
    2.8003    6.0904    0.6549 H   0  0  0  0  0  0  0  0  0  0  0  0
    1.2304   -1.6174   -0.4532 N   0  0  0  0  0  0  0  0  0  0  0  0
    1.3109   -3.0544   -0.5856 C   0  0  2  0  0  0  0  0  0  0  0  0
    0.0821   -3.6577    0.0818 C   0  0  0  0  0  0  0  0  0  0  0  0
   -0.5690   -3.0712    0.9439 O   0  0  0  0  0  0  0  0  0  0  0  0
    2.5885   -3.5966    0.0361 C   0  0  0  0  0  0  0  0  0  0  0  0
    2.0410   -1.1198   -0.0968 H   0  0  0  0  0  0  0  0  0  0  0  0
    1.2898   -3.2748   -1.6584 H   0  0  0  0  0  0  0  0  0  0  0  0
    2.6276   -3.3853    1.1109 H   0  0  0  0  0  0  0  0  0  0  0  0
    2.6617   -4.6819   -0.0902 H   0  0  0  0  0  0  0  0  0  0  0  0
    3.4708   -3.1394   -0.4248 H   0  0  0  0  0  0  0  0  0  0  0  0
   -0.1765   -4.9452   -0.3673 N   0  0  0  0  0  0  0  0  0  0  0  0
   -1.2814   -5.7350    0.1239 C   0  0  0  0  0  0  0  0  0  0  0  0
    0.4044   -5.3456   -1.0981 H   0  0  0  0  0  0  0  0  0  0  0  0
   -0.9439   -6.3531    0.9689 H   0  0  0  0  0  0  0  0  0  0  0  0
   -2.0894   -5.0674    0.4577 H   0  0  0  0  0  0  0  0  0  0  0  0
   -1.6529   -6.3862   -0.6811 H   0  0  0  0  0  0  0  0  0  0  0  0
 25 27  1  0  0  0  0
 26 27  2  0  0  0  0
 23 25  2  0  0  0  0
 24 26  1  0  0  0  0
 22 23  1  0  0  0  0
 22 24  2  0  0  0  0
 21 22  1  0  0  0  0
  1  3  1  0  0  0  0
  1  7  1  0  0  0  0
  1  2  2  0  0  0  0
 38 39  1  0  0  0  0
 39 47  1  0  0  0  0
 39 40  2  0  0  0  0
  8  9  1  0  0  0  0
  9 17  1  0  0  0  0
  9 10  2  0  0  0  0
 18 19  1  0  0  0  0
 19 37  1  0  0  0  0
 19 20  2  0  0  0  0
 38 41  1  0  0  0  0
  8 11  1  0  0  0  0
 47 48  1  0  0  0  0
 18 21  1  0  0  0  0
 37 38  1  0  0  0  0
  7  8  1  0  0  0  0
 17 18  1  0  0  0  0
 27 36  1  0  0  0  0
 25 34  1  0  0  0  0
 26 35  1  0  0  0  0
 23 32  1  0  0  0  0
 24 33  1  0  0  0  0
  3  4  1  0  0  0  0
  3  5  1  0  0  0  0
  3  6  1  0  0  0  0
 41 44  1  0  0  0  0
 41 45  1  0  0  0  0
 41 46  1  0  0  0  0
 11 14  1  0  0  0  0
 11 15  1  0  0  0  0
 11 16  1  0  0  0  0
 48 50  1  0  0  0  0
 48 51  1  0  0  0  0
 48 52  1  0  0  0  0
 21 30  1  0  0  0  0
 21 31  1  0  0  0  0
 38 43  1  0  0  0  0
  8 13  1  0  0  0  0
 18 29  1  0  0  0  0
 47 49  1  0  0  0  0
  7 12  1  0  0  0  0
 37 42  1  0  0  0  0
 17 28  1  0  0  0  0
M  END
$$$$

  -OEChem-05262214473D

 52 52  0     1  0  0  0  0  0999 V2000
   -1.8248    0.3424    3.9102 C   0  0  0  0  0  0  0  0  0  0  0  0
   -0.8774   -0.2723    3.4345 O   0  0  0  0  0  0  0  0  0  0  0  0
   -2.2566    0.0600    5.3109 C   0  0  0  0  0  0  0  0  0  0  0  0
   -3.0163   -0.7363    5.3643 H   0  0  0  0  0  0  0  0  0  0  0  0
   -1.4254   -0.2876    5.9452 H   0  0  0  0  0  0  0  0  0  0  0  0
   -2.6947    0.9149    5.8505 H   0  0  0  0  0  0  0  0  0  0  0  0
   -2.5745    1.3149    3.2691 N   0  0  0  0  0  0  0  0  0  0  0  0
   -2.3276    1.7409    1.9167 C   0  0  2  0  0  0  0  0  0  0  0  0
   -0.9926    1.1555    1.4755 C   0  0  0  0  0  0  0  0  0  0  0  0
   -0.1206    0.8028    2.2668 O   0  0  0  0  0  0  0  0  0  0  0  0
   -2.3188    3.2577    1.8072 C   0  0  0  0  0  0  0  0  0  0  0  0
   -3.3395    1.7507    3.7809 H   0  0  0  0  0  0  0  0  0  0  0  0
   -3.1317    1.3224    1.3015 H   0  0  0  0  0  0  0  0  0  0  0  0
   -1.5198    3.6949    2.4169 H   0  0  0  0  0  0  0  0  0  0  0  0
   -2.1594    3.5799    0.7729 H   0  0  0  0  0  0  0  0  0  0  0  0
   -3.2690    3.6789    2.1530 H   0  0  0  0  0  0  0  0  0  0  0  0
   -0.8700    1.1124    0.0921 N   0  0  0  0  0  0  0  0  0  0  0  0
    0.3073    0.6116   -0.5716 C   0  0  2  0  0  0  0  0  0  0  0  0
    0.1013   -0.8833   -0.7885 C   0  0  0  0  0  0  0  0  0  0  0  0
   -0.8039   -1.3401   -1.4833 O   0  0  0  0  0  0  0  0  0  0  0  0
    1.5816    0.8612    0.2432 C   0  0  0  0  0  0  0  0  0  0  0  0
    1.9232    2.3268    0.3581 C   0  0  0  0  0  0  0  0  0  0  0  0
    2.5804    2.9745   -0.6880 C   0  0  0  0  0  0  0  0  0  0  0  0
    1.5813    3.0337    1.5109 C   0  0  0  0  0  0  0  0  0  0  0  0
    2.8956    4.3291   -0.5813 C   0  0  0  0  0  0  0  0  0  0  0  0
    1.8965    4.3883    1.6176 C   0  0  0  0  0  0  0  0  0  0  0  0
    2.5536    5.0360    0.5715 C   0  0  0  0  0  0  0  0  0  0  0  0
   -1.6531    1.4091   -0.4852 H   0  0  0  0  0  0  0  0  0  0  0  0
    0.3537    1.1125   -1.5457 H   0  0  0  0  0  0  0  0  0  0  0  0
    2.4281    0.3182   -0.1985 H   0  0  0  0  0  0  0  0  0  0  0  0
    1.4750    0.4526    1.2568 H   0  0  0  0  0  0  0  0  0  0  0  0
    2.8506    2.4317   -1.5900 H   0  0  0  0  0  0  0  0  0  0  0  0
    1.0691    2.5374    2.3310 H   0  0  0  0  0  0  0  0  0  0  0  0
    3.4082    4.8329   -1.3955 H   0  0  0  0  0  0  0  0  0  0  0  0
    1.6310    4.9381    2.5157 H   0  0  0  0  0  0  0  0  0  0  0  0
    2.8003    6.0904    0.6549 H   0  0  0  0  0  0  0  0  0  0  0  0
    1.0774   -1.6396   -0.1549 N   0  0  0  0  0  0  0  0  0  0  0  0
    1.1294   -3.0825   -0.2189 C   0  0  2  0  0  0  0  0  0  0  0  0
   -0.2522   -3.6189    0.1318 C   0  0  0  0  0  0  0  0  0  0  0  0
   -1.0755   -2.9779    0.7816 O   0  0  0  0  0  0  0  0  0  0  0  0
    2.1844   -3.6407    0.7234 C   0  0  0  0  0  0  0  0  0  0  0  0
    1.7913   -1.1546    0.3809 H   0  0  0  0  0  0  0  0  0  0  0  0
    1.3714   -3.3446   -1.2547 H   0  0  0  0  0  0  0  0  0  0  0  0
    1.9589   -3.3882    1.7659 H   0  0  0  0  0  0  0  0  0  0  0  0
    2.2423   -4.7318    0.6527 H   0  0  0  0  0  0  0  0  0  0  0  0
    3.1727   -3.2309    0.4886 H   0  0  0  0  0  0  0  0  0  0  0  0
   -0.4417   -4.9142   -0.3293 N   0  0  0  0  0  0  0  0  0  0  0  0
   -1.6667   -5.6478   -0.1118 C   0  0  0  0  0  0  0  0  0  0  0  0
    0.2882   -5.3618   -0.8757 H   0  0  0  0  0  0  0  0  0  0  0  0
   -1.5799   -6.2423    0.8096 H   0  0  0  0  0  0  0  0  0  0  0  0
   -2.5045   -4.9416   -0.0148 H   0  0  0  0  0  0  0  0  0  0  0  0
   -1.8489   -6.3180   -0.9647 H   0  0  0  0  0  0  0  0  0  0  0  0
 25 27  1  0  0  0  0
 26 27  2  0  0  0  0
 23 25  2  0  0  0  0
 24 26  1  0  0  0  0
 22 23  1  0  0  0  0
 22 24  2  0  0  0  0
 21 22  1  0  0  0  0
  1  3  1  0  0  0  0
  1  7  1  0  0  0  0
  1  2  2  0  0  0  0
 38 39  1  0  0  0  0
 39 47  1  0  0  0  0
 39 40  2  0  0  0  0
  8  9  1  0  0  0  0
  9 17  1  0  0  0  0
  9 10  2  0  0  0  0
 18 19  1  0  0  0  0
 19 37  1  0  0  0  0
 19 20  2  0  0  0  0
 38 41  1  0  0  0  0
  8 11  1  0  0  0  0
 47 48  1  0  0  0  0
 18 21  1  0  0  0  0
 37 38  1  0  0  0  0
  7  8  1  0  0  0  0
 17 18  1  0  0  0  0
 27 36  1  0  0  0  0
 25 34  1  0  0  0  0
 26 35  1  0  0  0  0
 23 32  1  0  0  0  0
 24 33  1  0  0  0  0
  3  4  1  0  0  0  0
  3  5  1  0  0  0  0
  3  6  1  0  0  0  0
 41 44  1  0  0  0  0
 41 45  1  0  0  0  0
 41 46  1  0  0  0  0
 11 14  1  0  0  0  0
 11 15  1  0  0  0  0
 11 16  1  0  0  0  0
 48 50  1  0  0  0  0
 48 51  1  0  0  0  0
 48 52  1  0  0  0  0
 21 30  1  0  0  0  0
 21 31  1  0  0  0  0
 38 43  1  0  0  0  0
  8 13  1  0  0  0  0
 18 29  1  0  0  0  0
 47 49  1  0  0  0  0
  7 12  1  0  0  0  0
 37 42  1  0  0  0  0
 17 28  1  0  0  0  0
M  END
$$$$

  -OEChem-05262214473D

 52 52  0     1  0  0  0  0  0999 V2000
   -1.8248    0.3424    3.9102 C   0  0  0  0  0  0  0  0  0  0  0  0
   -0.8774   -0.2723    3.4345 O   0  0  0  0  0  0  0  0  0  0  0  0
   -2.2566    0.0600    5.3109 C   0  0  0  0  0  0  0  0  0  0  0  0
   -3.0163   -0.7363    5.3643 H   0  0  0  0  0  0  0  0  0  0  0  0
   -1.4254   -0.2876    5.9452 H   0  0  0  0  0  0  0  0  0  0  0  0
   -2.6947    0.9149    5.8505 H   0  0  0  0  0  0  0  0  0  0  0  0
   -2.5745    1.3149    3.2691 N   0  0  0  0  0  0  0  0  0  0  0  0
   -2.3276    1.7409    1.9167 C   0  0  2  0  0  0  0  0  0  0  0  0
   -0.9926    1.1555    1.4755 C   0  0  0  0  0  0  0  0  0  0  0  0
   -0.1206    0.8028    2.2668 O   0  0  0  0  0  0  0  0  0  0  0  0
   -2.3188    3.2577    1.8072 C   0  0  0  0  0  0  0  0  0  0  0  0
   -3.3395    1.7507    3.7809 H   0  0  0  0  0  0  0  0  0  0  0  0
   -3.1317    1.3224    1.3015 H   0  0  0  0  0  0  0  0  0  0  0  0
   -1.5198    3.6949    2.4169 H   0  0  0  0  0  0  0  0  0  0  0  0
   -2.1594    3.5799    0.7729 H   0  0  0  0  0  0  0  0  0  0  0  0
   -3.2690    3.6789    2.1530 H   0  0  0  0  0  0  0  0  0  0  0  0
   -0.8700    1.1124    0.0921 N   0  0  0  0  0  0  0  0  0  0  0  0
    0.3073    0.6116   -0.5716 C   0  0  2  0  0  0  0  0  0  0  0  0
    0.1013   -0.8833   -0.7885 C   0  0  0  0  0  0  0  0  0  0  0  0
   -0.6166   -1.3378   -1.6766 O   0  0  0  0  0  0  0  0  0  0  0  0
    1.5816    0.8612    0.2432 C   0  0  0  0  0  0  0  0  0  0  0  0
    1.9232    2.3268    0.3581 C   0  0  0  0  0  0  0  0  0  0  0  0
    2.5804    2.9745   -0.6880 C   0  0  0  0  0  0  0  0  0  0  0  0
    1.5813    3.0337    1.5109 C   0  0  0  0  0  0  0  0  0  0  0  0
    2.8956    4.3291   -0.5813 C   0  0  0  0  0  0  0  0  0  0  0  0
    1.8965    4.3883    1.6176 C   0  0  0  0  0  0  0  0  0  0  0  0
    2.5536    5.0360    0.5715 C   0  0  0  0  0  0  0  0  0  0  0  0
   -1.6531    1.4091   -0.4852 H   0  0  0  0  0  0  0  0  0  0  0  0
    0.3537    1.1125   -1.5457 H   0  0  0  0  0  0  0  0  0  0  0  0
    2.4281    0.3182   -0.1985 H   0  0  0  0  0  0  0  0  0  0  0  0
    1.4750    0.4526    1.2568 H   0  0  0  0  0  0  0  0  0  0  0  0
    2.8506    2.4317   -1.5900 H   0  0  0  0  0  0  0  0  0  0  0  0
    1.0691    2.5374    2.3310 H   0  0  0  0  0  0  0  0  0  0  0  0
    3.4082    4.8329   -1.3955 H   0  0  0  0  0  0  0  0  0  0  0  0
    1.6310    4.9381    2.5157 H   0  0  0  0  0  0  0  0  0  0  0  0
    2.8003    6.0904    0.6549 H   0  0  0  0  0  0  0  0  0  0  0  0
    0.8531   -1.6450    0.0952 N   0  0  0  0  0  0  0  0  0  0  0  0
    0.8599   -3.0902    0.0901 C   0  0  2  0  0  0  0  0  0  0  0  0
   -0.5864   -3.5673    0.0938 C   0  0  0  0  0  0  0  0  0  0  0  0
   -1.5202   -2.8747    0.4931 O   0  0  0  0  0  0  0  0  0  0  0  0
    1.6181   -3.6443    1.2863 C   0  0  0  0  0  0  0  0  0  0  0  0
    1.4275   -1.1624    0.7800 H   0  0  0  0  0  0  0  0  0  0  0  0
    1.3452   -3.4009   -0.8415 H   0  0  0  0  0  0  0  0  0  0  0  0
    1.1466   -3.3434    2.2290 H   0  0  0  0  0  0  0  0  0  0  0  0
    1.6467   -4.7387    1.2657 H   0  0  0  0  0  0  0  0  0  0  0  0
    2.6497   -3.2763    1.2984 H   0  0  0  0  0  0  0  0  0  0  0  0
   -0.7064   -4.8731   -0.3609 N   0  0  0  0  0  0  0  0  0  0  0  0
   -1.9758   -5.5575   -0.4402 C   0  0  0  0  0  0  0  0  0  0  0  0
    0.1189   -5.3655   -0.6899 H   0  0  0  0  0  0  0  0  0  0  0  0
   -2.1497   -6.1175    0.4905 H   0  0  0  0  0  0  0  0  0  0  0  0
   -2.7809   -4.8214   -0.5810 H   0  0  0  0  0  0  0  0  0  0  0  0
   -1.9637   -6.2549   -1.2908 H   0  0  0  0  0  0  0  0  0  0  0  0
 25 27  1  0  0  0  0
 26 27  2  0  0  0  0
 23 25  2  0  0  0  0
 24 26  1  0  0  0  0
 22 23  1  0  0  0  0
 22 24  2  0  0  0  0
 21 22  1  0  0  0  0
  1  3  1  0  0  0  0
  1  7  1  0  0  0  0
  1  2  2  0  0  0  0
 38 39  1  0  0  0  0
 39 47  1  0  0  0  0
 39 40  2  0  0  0  0
  8  9  1  0  0  0  0
  9 17  1  0  0  0  0
  9 10  2  0  0  0  0
 18 19  1  0  0  0  0
 19 37  1  0  0  0  0
 19 20  2  0  0  0  0
 38 41  1  0  0  0  0
  8 11  1  0  0  0  0
 47 48  1  0  0  0  0
 18 21  1  0  0  0  0
 37 38  1  0  0  0  0
  7  8  1  0  0  0  0
 17 18  1  0  0  0  0
 27 36  1  0  0  0  0
 25 34  1  0  0  0  0
 26 35  1  0  0  0  0
 23 32  1  0  0  0  0
 24 33  1  0  0  0  0
  3  4  1  0  0  0  0
  3  5  1  0  0  0  0
  3  6  1  0  0  0  0
 41 44  1  0  0  0  0
 41 45  1  0  0  0  0
 41 46  1  0  0  0  0
 11 14  1  0  0  0  0
 11 15  1  0  0  0  0
 11 16  1  0  0  0  0
 48 50  1  0  0  0  0
 48 51  1  0  0  0  0
 48 52  1  0  0  0  0
 21 30  1  0  0  0  0
 21 31  1  0  0  0  0
 38 43  1  0  0  0  0
  8 13  1  0  0  0  0
 18 29  1  0  0  0  0
 47 49  1  0  0  0  0
  7 12  1  0  0  0  0
 37 42  1  0  0  0  0
 17 28  1  0  0  0  0
M  END
$$$$

  -OEChem-05262214473D

 52 52  0     1  0  0  0  0  0999 V2000
   -1.8248    0.3424    3.9102 C   0  0  0  0  0  0  0  0  0  0  0  0
   -0.8774   -0.2723    3.4345 O   0  0  0  0  0  0  0  0  0  0  0  0
   -2.2566    0.0600    5.3109 C   0  0  0  0  0  0  0  0  0  0  0  0
   -3.0163   -0.7363    5.3643 H   0  0  0  0  0  0  0  0  0  0  0  0
   -1.4254   -0.2876    5.9452 H   0  0  0  0  0  0  0  0  0  0  0  0
   -2.6947    0.9149    5.8505 H   0  0  0  0  0  0  0  0  0  0  0  0
   -2.5745    1.3149    3.2691 N   0  0  0  0  0  0  0  0  0  0  0  0
   -2.3276    1.7409    1.9167 C   0  0  2  0  0  0  0  0  0  0  0  0
   -0.9926    1.1555    1.4755 C   0  0  0  0  0  0  0  0  0  0  0  0
   -0.1206    0.8028    2.2668 O   0  0  0  0  0  0  0  0  0  0  0  0
   -2.3188    3.2577    1.8072 C   0  0  0  0  0  0  0  0  0  0  0  0
   -3.3395    1.7507    3.7809 H   0  0  0  0  0  0  0  0  0  0  0  0
   -3.1317    1.3224    1.3015 H   0  0  0  0  0  0  0  0  0  0  0  0
   -1.5198    3.6949    2.4169 H   0  0  0  0  0  0  0  0  0  0  0  0
   -2.1594    3.5799    0.7729 H   0  0  0  0  0  0  0  0  0  0  0  0
   -3.2690    3.6789    2.1530 H   0  0  0  0  0  0  0  0  0  0  0  0
   -0.8700    1.1124    0.0921 N   0  0  0  0  0  0  0  0  0  0  0  0
    0.3073    0.6116   -0.5716 C   0  0  2  0  0  0  0  0  0  0  0  0
    0.1013   -0.8833   -0.7885 C   0  0  0  0  0  0  0  0  0  0  0  0
   -0.3866   -1.3493   -1.8159 O   0  0  0  0  0  0  0  0  0  0  0  0
    1.5816    0.8612    0.2432 C   0  0  0  0  0  0  0  0  0  0  0  0
    1.9232    2.3268    0.3581 C   0  0  0  0  0  0  0  0  0  0  0  0
    2.5804    2.9745   -0.6880 C   0  0  0  0  0  0  0  0  0  0  0  0
    1.5813    3.0337    1.5109 C   0  0  0  0  0  0  0  0  0  0  0  0
    2.8956    4.3291   -0.5813 C   0  0  0  0  0  0  0  0  0  0  0  0
    1.8965    4.3883    1.6176 C   0  0  0  0  0  0  0  0  0  0  0  0
    2.5536    5.0360    0.5715 C   0  0  0  0  0  0  0  0  0  0  0  0
   -1.6531    1.4091   -0.4852 H   0  0  0  0  0  0  0  0  0  0  0  0
    0.3537    1.1125   -1.5457 H   0  0  0  0  0  0  0  0  0  0  0  0
    2.4281    0.3182   -0.1985 H   0  0  0  0  0  0  0  0  0  0  0  0
    1.4750    0.4526    1.2568 H   0  0  0  0  0  0  0  0  0  0  0  0
    2.8506    2.4317   -1.5900 H   0  0  0  0  0  0  0  0  0  0  0  0
    1.0691    2.5374    2.3310 H   0  0  0  0  0  0  0  0  0  0  0  0
    3.4082    4.8329   -1.3955 H   0  0  0  0  0  0  0  0  0  0  0  0
    1.6310    4.9381    2.5157 H   0  0  0  0  0  0  0  0  0  0  0  0
    2.8003    6.0904    0.6549 H   0  0  0  0  0  0  0  0  0  0  0  0
    0.5728   -1.6332    0.2801 N   0  0  0  0  0  0  0  0  0  0  0  0
    0.5209   -3.0769    0.3205 C   0  0  2  0  0  0  0  0  0  0  0  0
   -0.8977   -3.5065   -0.0295 C   0  0  0  0  0  0  0  0  0  0  0  0
   -1.8727   -2.7688    0.0979 O   0  0  0  0  0  0  0  0  0  0  0  0
    0.9280   -3.6072    1.6865 C   0  0  0  0  0  0  0  0  0  0  0  0
    0.9746   -1.1426    1.0736 H   0  0  0  0  0  0  0  0  0  0  0  0
    1.2130   -3.4399   -0.4472 H   0  0  0  0  0  0  0  0  0  0  0  0
    0.2461   -3.2540    2.4686 H   0  0  0  0  0  0  0  0  0  0  0  0
    0.9157   -4.7019    1.7069 H   0  0  0  0  0  0  0  0  0  0  0  0
    1.9373   -3.2725    1.9495 H   0  0  0  0  0  0  0  0  0  0  0  0
   -0.9525   -4.8248   -0.4601 N   0  0  0  0  0  0  0  0  0  0  0  0
   -2.1877   -5.4704   -0.8390 C   0  0  0  0  0  0  0  0  0  0  0  0
   -0.0919   -5.3562   -0.5532 H   0  0  0  0  0  0  0  0  0  0  0  0
   -2.6145   -5.9871    0.0332 H   0  0  0  0  0  0  0  0  0  0  0  0
   -2.8998   -4.7148   -1.2022 H   0  0  0  0  0  0  0  0  0  0  0  0
   -1.9895   -6.2011   -1.6371 H   0  0  0  0  0  0  0  0  0  0  0  0
 25 27  1  0  0  0  0
 26 27  2  0  0  0  0
 23 25  2  0  0  0  0
 24 26  1  0  0  0  0
 22 23  1  0  0  0  0
 22 24  2  0  0  0  0
 21 22  1  0  0  0  0
  1  3  1  0  0  0  0
  1  7  1  0  0  0  0
  1  2  2  0  0  0  0
 38 39  1  0  0  0  0
 39 47  1  0  0  0  0
 39 40  2  0  0  0  0
  8  9  1  0  0  0  0
  9 17  1  0  0  0  0
  9 10  2  0  0  0  0
 18 19  1  0  0  0  0
 19 37  1  0  0  0  0
 19 20  2  0  0  0  0
 38 41  1  0  0  0  0
  8 11  1  0  0  0  0
 47 48  1  0  0  0  0
 18 21  1  0  0  0  0
 37 38  1  0  0  0  0
  7  8  1  0  0  0  0
 17 18  1  0  0  0  0
 27 36  1  0  0  0  0
 25 34  1  0  0  0  0
 26 35  1  0  0  0  0
 23 32  1  0  0  0  0
 24 33  1  0  0  0  0
  3  4  1  0  0  0  0
  3  5  1  0  0  0  0
  3  6  1  0  0  0  0
 41 44  1  0  0  0  0
 41 45  1  0  0  0  0
 41 46  1  0  0  0  0
 11 14  1  0  0  0  0
 11 15  1  0  0  0  0
 11 16  1  0  0  0  0
 48 50  1  0  0  0  0
 48 51  1  0  0  0  0
 48 52  1  0  0  0  0
 21 30  1  0  0  0  0
 21 31  1  0  0  0  0
 38 43  1  0  0  0  0
  8 13  1  0  0  0  0
 18 29  1  0  0  0  0
 47 49  1  0  0  0  0
  7 12  1  0  0  0  0
 37 42  1  0  0  0  0
 17 28  1  0  0  0  0
M  END
$$$$

  -OEChem-05262214473D

 52 52  0     1  0  0  0  0  0999 V2000
   -1.8248    0.3424    3.9102 C   0  0  0  0  0  0  0  0  0  0  0  0
   -0.8774   -0.2723    3.4345 O   0  0  0  0  0  0  0  0  0  0  0  0
   -2.2566    0.0600    5.3109 C   0  0  0  0  0  0  0  0  0  0  0  0
   -3.0163   -0.7363    5.3643 H   0  0  0  0  0  0  0  0  0  0  0  0
   -1.4254   -0.2876    5.9452 H   0  0  0  0  0  0  0  0  0  0  0  0
   -2.6947    0.9149    5.8505 H   0  0  0  0  0  0  0  0  0  0  0  0
   -2.5745    1.3149    3.2691 N   0  0  0  0  0  0  0  0  0  0  0  0
   -2.3276    1.7409    1.9167 C   0  0  2  0  0  0  0  0  0  0  0  0
   -0.9926    1.1555    1.4755 C   0  0  0  0  0  0  0  0  0  0  0  0
   -0.1206    0.8028    2.2668 O   0  0  0  0  0  0  0  0  0  0  0  0
   -2.3188    3.2577    1.8072 C   0  0  0  0  0  0  0  0  0  0  0  0
   -3.3395    1.7507    3.7809 H   0  0  0  0  0  0  0  0  0  0  0  0
   -3.1317    1.3224    1.3015 H   0  0  0  0  0  0  0  0  0  0  0  0
   -1.5198    3.6949    2.4169 H   0  0  0  0  0  0  0  0  0  0  0  0
   -2.1594    3.5799    0.7729 H   0  0  0  0  0  0  0  0  0  0  0  0
   -3.2690    3.6789    2.1530 H   0  0  0  0  0  0  0  0  0  0  0  0
   -0.8700    1.1124    0.0921 N   0  0  0  0  0  0  0  0  0  0  0  0
    0.3073    0.6116   -0.5716 C   0  0  2  0  0  0  0  0  0  0  0  0
    0.1013   -0.8833   -0.7885 C   0  0  0  0  0  0  0  0  0  0  0  0
   -0.1295   -1.3738   -1.8917 O   0  0  0  0  0  0  0  0  0  0  0  0
    1.5816    0.8612    0.2432 C   0  0  0  0  0  0  0  0  0  0  0  0
    1.9232    2.3268    0.3581 C   0  0  0  0  0  0  0  0  0  0  0  0
    2.5804    2.9745   -0.6880 C   0  0  0  0  0  0  0  0  0  0  0  0
    1.5813    3.0337    1.5109 C   0  0  0  0  0  0  0  0  0  0  0  0
    2.8956    4.3291   -0.5813 C   0  0  0  0  0  0  0  0  0  0  0  0
    1.8965    4.3883    1.6176 C   0  0  0  0  0  0  0  0  0  0  0  0
    2.5536    5.0360    0.5715 C   0  0  0  0  0  0  0  0  0  0  0  0
   -1.6531    1.4091   -0.4852 H   0  0  0  0  0  0  0  0  0  0  0  0
    0.3537    1.1125   -1.5457 H   0  0  0  0  0  0  0  0  0  0  0  0
    2.4281    0.3182   -0.1985 H   0  0  0  0  0  0  0  0  0  0  0  0
    1.4750    0.4526    1.2568 H   0  0  0  0  0  0  0  0  0  0  0  0
    2.8506    2.4317   -1.5900 H   0  0  0  0  0  0  0  0  0  0  0  0
    1.0691    2.5374    2.3310 H   0  0  0  0  0  0  0  0  0  0  0  0
    3.4082    4.8329   -1.3955 H   0  0  0  0  0  0  0  0  0  0  0  0
    1.6310    4.9381    2.5157 H   0  0  0  0  0  0  0  0  0  0  0  0
    2.8003    6.0904    0.6549 H   0  0  0  0  0  0  0  0  0  0  0  0
    0.2556   -1.6050    0.3870 N   0  0  0  0  0  0  0  0  0  0  0  0
    0.1355   -3.0436    0.4566 C   0  0  2  0  0  0  0  0  0  0  0  0
   -1.1648   -3.4407   -0.2297 C   0  0  0  0  0  0  0  0  0  0  0  0
   -2.1090   -2.6674   -0.3769 O   0  0  0  0  0  0  0  0  0  0  0  0
    0.1613   -3.5320    1.8965 C   0  0  0  0  0  0  0  0  0  0  0  0
    0.4633   -1.0965    1.2414 H   0  0  0  0  0  0  0  0  0  0  0  0
    0.9837   -3.4589   -0.0984 H   0  0  0  0  0  0  0  0  0  0  0  0
   -0.6812   -3.1262    2.4684 H   0  0  0  0  0  0  0  0  0  0  0  0
    0.0989   -4.6241    1.9462 H   0  0  0  0  0  0  0  0  0  0  0  0
    1.0840   -3.2199    2.3975 H   0  0  0  0  0  0  0  0  0  0  0  0
   -1.1633   -4.7725   -0.6201 N   0  0  0  0  0  0  0  0  0  0  0  0
   -2.2879   -5.3925   -1.2811 C   0  0  0  0  0  0  0  0  0  0  0  0
   -0.3299   -5.3348   -0.4750 H   0  0  0  0  0  0  0  0  0  0  0  0
   -2.9427   -5.8600   -0.5309 H   0  0  0  0  0  0  0  0  0  0  0  0
   -2.8531   -4.6293   -1.8362 H   0  0  0  0  0  0  0  0  0  0  0  0
   -1.9246   -6.1603   -1.9800 H   0  0  0  0  0  0  0  0  0  0  0  0
 25 27  1  0  0  0  0
 26 27  2  0  0  0  0
 23 25  2  0  0  0  0
 24 26  1  0  0  0  0
 22 23  1  0  0  0  0
 22 24  2  0  0  0  0
 21 22  1  0  0  0  0
  1  3  1  0  0  0  0
  1  7  1  0  0  0  0
  1  2  2  0  0  0  0
 38 39  1  0  0  0  0
 39 47  1  0  0  0  0
 39 40  2  0  0  0  0
  8  9  1  0  0  0  0
  9 17  1  0  0  0  0
  9 10  2  0  0  0  0
 18 19  1  0  0  0  0
 19 37  1  0  0  0  0
 19 20  2  0  0  0  0
 38 41  1  0  0  0  0
  8 11  1  0  0  0  0
 47 48  1  0  0  0  0
 18 21  1  0  0  0  0
 37 38  1  0  0  0  0
  7  8  1  0  0  0  0
 17 18  1  0  0  0  0
 27 36  1  0  0  0  0
 25 34  1  0  0  0  0
 26 35  1  0  0  0  0
 23 32  1  0  0  0  0
 24 33  1  0  0  0  0
  3  4  1  0  0  0  0
  3  5  1  0  0  0  0
  3  6  1  0  0  0  0
 41 44  1  0  0  0  0
 41 45  1  0  0  0  0
 41 46  1  0  0  0  0
 11 14  1  0  0  0  0
 11 15  1  0  0  0  0
 11 16  1  0  0  0  0
 48 50  1  0  0  0  0
 48 51  1  0  0  0  0
 48 52  1  0  0  0  0
 21 30  1  0  0  0  0
 21 31  1  0  0  0  0
 38 43  1  0  0  0  0
  8 13  1  0  0  0  0
 18 29  1  0  0  0  0
 47 49  1  0  0  0  0
  7 12  1  0  0  0  0
 37 42  1  0  0  0  0
 17 28  1  0  0  0  0
M  END
$$$$

  -OEChem-05262214473D

 52 52  0     1  0  0  0  0  0999 V2000
   -1.8248    0.3424    3.9102 C   0  0  0  0  0  0  0  0  0  0  0  0
   -0.8774   -0.2723    3.4345 O   0  0  0  0  0  0  0  0  0  0  0  0
   -2.2566    0.0600    5.3109 C   0  0  0  0  0  0  0  0  0  0  0  0
   -3.0163   -0.7363    5.3643 H   0  0  0  0  0  0  0  0  0  0  0  0
   -1.4254   -0.2876    5.9452 H   0  0  0  0  0  0  0  0  0  0  0  0
   -2.6947    0.9149    5.8505 H   0  0  0  0  0  0  0  0  0  0  0  0
   -2.5745    1.3149    3.2691 N   0  0  0  0  0  0  0  0  0  0  0  0
   -2.3276    1.7409    1.9167 C   0  0  2  0  0  0  0  0  0  0  0  0
   -0.9926    1.1555    1.4755 C   0  0  0  0  0  0  0  0  0  0  0  0
   -0.1206    0.8028    2.2668 O   0  0  0  0  0  0  0  0  0  0  0  0
   -2.3188    3.2577    1.8072 C   0  0  0  0  0  0  0  0  0  0  0  0
   -3.3395    1.7507    3.7809 H   0  0  0  0  0  0  0  0  0  0  0  0
   -3.1317    1.3224    1.3015 H   0  0  0  0  0  0  0  0  0  0  0  0
   -1.5198    3.6949    2.4169 H   0  0  0  0  0  0  0  0  0  0  0  0
   -2.1594    3.5799    0.7729 H   0  0  0  0  0  0  0  0  0  0  0  0
   -3.2690    3.6789    2.1530 H   0  0  0  0  0  0  0  0  0  0  0  0
   -0.8700    1.1124    0.0921 N   0  0  0  0  0  0  0  0  0  0  0  0
    0.3073    0.6116   -0.5716 C   0  0  2  0  0  0  0  0  0  0  0  0
    0.1013   -0.8833   -0.7885 C   0  0  0  0  0  0  0  0  0  0  0  0
    0.1372   -1.4095   -1.8987 O   0  0  0  0  0  0  0  0  0  0  0  0
    1.5816    0.8612    0.2432 C   0  0  0  0  0  0  0  0  0  0  0  0
    1.9232    2.3268    0.3581 C   0  0  0  0  0  0  0  0  0  0  0  0
    2.5804    2.9745   -0.6880 C   0  0  0  0  0  0  0  0  0  0  0  0
    1.5813    3.0337    1.5109 C   0  0  0  0  0  0  0  0  0  0  0  0
    2.8956    4.3291   -0.5813 C   0  0  0  0  0  0  0  0  0  0  0  0
    1.8965    4.3883    1.6176 C   0  0  0  0  0  0  0  0  0  0  0  0
    2.5536    5.0360    0.5715 C   0  0  0  0  0  0  0  0  0  0  0  0
   -1.6531    1.4091   -0.4852 H   0  0  0  0  0  0  0  0  0  0  0  0
    0.3537    1.1125   -1.5457 H   0  0  0  0  0  0  0  0  0  0  0  0
    2.4281    0.3182   -0.1985 H   0  0  0  0  0  0  0  0  0  0  0  0
    1.4750    0.4526    1.2568 H   0  0  0  0  0  0  0  0  0  0  0  0
    2.8506    2.4317   -1.5900 H   0  0  0  0  0  0  0  0  0  0  0  0
    1.0691    2.5374    2.3310 H   0  0  0  0  0  0  0  0  0  0  0  0
    3.4082    4.8329   -1.3955 H   0  0  0  0  0  0  0  0  0  0  0  0
    1.6310    4.9381    2.5157 H   0  0  0  0  0  0  0  0  0  0  0  0
    2.8003    6.0904    0.6549 H   0  0  0  0  0  0  0  0  0  0  0  0
   -0.0770   -1.5623    0.4089 N   0  0  0  0  0  0  0  0  0  0  0  0
   -0.2701   -2.9924    0.4890 C   0  0  2  0  0  0  0  0  0  0  0  0
   -1.3696   -3.3742   -0.4932 C   0  0  0  0  0  0  0  0  0  0  0  0
   -2.2130   -2.5773   -0.8991 O   0  0  0  0  0  0  0  0  0  0  0  0
   -0.6299   -3.4238    1.9022 C   0  0  0  0  0  0  0  0  0  0  0  0
   -0.0714   -1.0272    1.2722 H   0  0  0  0  0  0  0  0  0  0  0  0
    0.6730   -3.4566    0.1809 H   0  0  0  0  0  0  0  0  0  0  0  0
   -1.5722   -2.9686    2.2284 H   0  0  0  0  0  0  0  0  0  0  0  0
   -0.7479   -4.5104    1.9674 H   0  0  0  0  0  0  0  0  0  0  0  0
    0.1481   -3.1220    2.6118 H   0  0  0  0  0  0  0  0  0  0  0  0
   -1.3244   -4.7199   -0.8299 N   0  0  0  0  0  0  0  0  0  0  0  0
   -2.2697   -5.3289   -1.7362 C   0  0  0  0  0  0  0  0  0  0  0  0
   -0.5788   -5.3025   -0.4607 H   0  0  0  0  0  0  0  0  0  0  0  0
   -3.1118   -5.7449   -1.1636 H   0  0  0  0  0  0  0  0  0  0  0  0
   -2.6439   -4.5706   -2.4397 H   0  0  0  0  0  0  0  0  0  0  0  0
   -1.7733   -6.1352   -2.2962 H   0  0  0  0  0  0  0  0  0  0  0  0
 25 27  1  0  0  0  0
 26 27  2  0  0  0  0
 23 25  2  0  0  0  0
 24 26  1  0  0  0  0
 22 23  1  0  0  0  0
 22 24  2  0  0  0  0
 21 22  1  0  0  0  0
  1  3  1  0  0  0  0
  1  7  1  0  0  0  0
  1  2  2  0  0  0  0
 38 39  1  0  0  0  0
 39 47  1  0  0  0  0
 39 40  2  0  0  0  0
  8  9  1  0  0  0  0
  9 17  1  0  0  0  0
  9 10  2  0  0  0  0
 18 19  1  0  0  0  0
 19 37  1  0  0  0  0
 19 20  2  0  0  0  0
 38 41  1  0  0  0  0
  8 11  1  0  0  0  0
 47 48  1  0  0  0  0
 18 21  1  0  0  0  0
 37 38  1  0  0  0  0
  7  8  1  0  0  0  0
 17 18  1  0  0  0  0
 27 36  1  0  0  0  0
 25 34  1  0  0  0  0
 26 35  1  0  0  0  0
 23 32  1  0  0  0  0
 24 33  1  0  0  0  0
  3  4  1  0  0  0  0
  3  5  1  0  0  0  0
  3  6  1  0  0  0  0
 41 44  1  0  0  0  0
 41 45  1  0  0  0  0
 41 46  1  0  0  0  0
 11 14  1  0  0  0  0
 11 15  1  0  0  0  0
 11 16  1  0  0  0  0
 48 50  1  0  0  0  0
 48 51  1  0  0  0  0
 48 52  1  0  0  0  0
 21 30  1  0  0  0  0
 21 31  1  0  0  0  0
 38 43  1  0  0  0  0
  8 13  1  0  0  0  0
 18 29  1  0  0  0  0
 47 49  1  0  0  0  0
  7 12  1  0  0  0  0
 37 42  1  0  0  0  0
 17 28  1  0  0  0  0
M  END
$$$$

  -OEChem-05262214473D

 52 52  0     1  0  0  0  0  0999 V2000
   -1.8248    0.3424    3.9102 C   0  0  0  0  0  0  0  0  0  0  0  0
   -0.8774   -0.2723    3.4345 O   0  0  0  0  0  0  0  0  0  0  0  0
   -2.2566    0.0600    5.3109 C   0  0  0  0  0  0  0  0  0  0  0  0
   -3.0163   -0.7363    5.3643 H   0  0  0  0  0  0  0  0  0  0  0  0
   -1.4254   -0.2876    5.9452 H   0  0  0  0  0  0  0  0  0  0  0  0
   -2.6947    0.9149    5.8505 H   0  0  0  0  0  0  0  0  0  0  0  0
   -2.5745    1.3149    3.2691 N   0  0  0  0  0  0  0  0  0  0  0  0
   -2.3276    1.7409    1.9167 C   0  0  2  0  0  0  0  0  0  0  0  0
   -0.9926    1.1555    1.4755 C   0  0  0  0  0  0  0  0  0  0  0  0
   -0.1206    0.8028    2.2668 O   0  0  0  0  0  0  0  0  0  0  0  0
   -2.3188    3.2577    1.8072 C   0  0  0  0  0  0  0  0  0  0  0  0
   -3.3395    1.7507    3.7809 H   0  0  0  0  0  0  0  0  0  0  0  0
   -3.1317    1.3224    1.3015 H   0  0  0  0  0  0  0  0  0  0  0  0
   -1.5198    3.6949    2.4169 H   0  0  0  0  0  0  0  0  0  0  0  0
   -2.1594    3.5799    0.7729 H   0  0  0  0  0  0  0  0  0  0  0  0
   -3.2690    3.6789    2.1530 H   0  0  0  0  0  0  0  0  0  0  0  0
   -0.8700    1.1124    0.0921 N   0  0  0  0  0  0  0  0  0  0  0  0
    0.3073    0.6116   -0.5716 C   0  0  2  0  0  0  0  0  0  0  0  0
    0.1013   -0.8833   -0.7885 C   0  0  0  0  0  0  0  0  0  0  0  0
    0.3953   -1.4541   -1.8366 O   0  0  0  0  0  0  0  0  0  0  0  0
    1.5816    0.8612    0.2432 C   0  0  0  0  0  0  0  0  0  0  0  0
    1.9232    2.3268    0.3581 C   0  0  0  0  0  0  0  0  0  0  0  0
    2.5804    2.9745   -0.6880 C   0  0  0  0  0  0  0  0  0  0  0  0
    1.5813    3.0337    1.5109 C   0  0  0  0  0  0  0  0  0  0  0  0
    2.8956    4.3291   -0.5813 C   0  0  0  0  0  0  0  0  0  0  0  0
    1.8965    4.3883    1.6176 C   0  0  0  0  0  0  0  0  0  0  0  0
    2.5536    5.0360    0.5715 C   0  0  0  0  0  0  0  0  0  0  0  0
   -1.6531    1.4091   -0.4852 H   0  0  0  0  0  0  0  0  0  0  0  0
    0.3537    1.1125   -1.5457 H   0  0  0  0  0  0  0  0  0  0  0  0
    2.4281    0.3182   -0.1985 H   0  0  0  0  0  0  0  0  0  0  0  0
    1.4750    0.4526    1.2568 H   0  0  0  0  0  0  0  0  0  0  0  0
    2.8506    2.4317   -1.5900 H   0  0  0  0  0  0  0  0  0  0  0  0
    1.0691    2.5374    2.3310 H   0  0  0  0  0  0  0  0  0  0  0  0
    3.4082    4.8329   -1.3955 H   0  0  0  0  0  0  0  0  0  0  0  0
    1.6310    4.9381    2.5157 H   0  0  0  0  0  0  0  0  0  0  0  0
    2.8003    6.0904    0.6549 H   0  0  0  0  0  0  0  0  0  0  0  0
   -0.4022   -1.5081    0.3441 N   0  0  0  0  0  0  0  0  0  0  0  0
   -0.6683   -2.9268    0.4156 C   0  0  2  0  0  0  0  0  0  0  0  0
   -1.4981   -3.3117   -0.8021 C   0  0  0  0  0  0  0  0  0  0  0  0
   -2.1776   -2.5047   -1.4331 O   0  0  0  0  0  0  0  0  0  0  0  0
   -1.3916   -3.2899    1.7031 C   0  0  0  0  0  0  0  0  0  0  0  0
   -0.5932   -0.9396    1.1638 H   0  0  0  0  0  0  0  0  0  0  0  0
    0.3021   -3.4332    0.3718 H   0  0  0  0  0  0  0  0  0  0  0  0
   -2.3661   -2.7919    1.7649 H   0  0  0  0  0  0  0  0  0  0  0  0
   -1.5670   -4.3688    1.7690 H   0  0  0  0  0  0  0  0  0  0  0  0
   -0.8067   -2.9855    2.5778 H   0  0  0  0  0  0  0  0  0  0  0  0
   -1.4249   -4.6704   -1.0753 N   0  0  0  0  0  0  0  0  0  0  0  0
   -2.1343   -5.2842   -2.1735 C   0  0  0  0  0  0  0  0  0  0  0  0
   -0.8218   -5.2617   -0.5111 H   0  0  0  0  0  0  0  0  0  0  0  0
   -3.1103   -5.6496   -1.8217 H   0  0  0  0  0  0  0  0  0  0  0  0
   -2.2865   -4.5427   -2.9716 H   0  0  0  0  0  0  0  0  0  0  0  0
   -1.5461   -6.1277   -2.5641 H   0  0  0  0  0  0  0  0  0  0  0  0
 25 27  1  0  0  0  0
 26 27  2  0  0  0  0
 23 25  2  0  0  0  0
 24 26  1  0  0  0  0
 22 23  1  0  0  0  0
 22 24  2  0  0  0  0
 21 22  1  0  0  0  0
  1  3  1  0  0  0  0
  1  7  1  0  0  0  0
  1  2  2  0  0  0  0
 38 39  1  0  0  0  0
 39 47  1  0  0  0  0
 39 40  2  0  0  0  0
  8  9  1  0  0  0  0
  9 17  1  0  0  0  0
  9 10  2  0  0  0  0
 18 19  1  0  0  0  0
 19 37  1  0  0  0  0
 19 20  2  0  0  0  0
 38 41  1  0  0  0  0
  8 11  1  0  0  0  0
 47 48  1  0  0  0  0
 18 21  1  0  0  0  0
 37 38  1  0  0  0  0
  7  8  1  0  0  0  0
 17 18  1  0  0  0  0
 27 36  1  0  0  0  0
 25 34  1  0  0  0  0
 26 35  1  0  0  0  0
 23 32  1  0  0  0  0
 24 33  1  0  0  0  0
  3  4  1  0  0  0  0
  3  5  1  0  0  0  0
  3  6  1  0  0  0  0
 41 44  1  0  0  0  0
 41 45  1  0  0  0  0
 41 46  1  0  0  0  0
 11 14  1  0  0  0  0
 11 15  1  0  0  0  0
 11 16  1  0  0  0  0
 48 50  1  0  0  0  0
 48 51  1  0  0  0  0
 48 52  1  0  0  0  0
 21 30  1  0  0  0  0
 21 31  1  0  0  0  0
 38 43  1  0  0  0  0
  8 13  1  0  0  0  0
 18 29  1  0  0  0  0
 47 49  1  0  0  0  0
  7 12  1  0  0  0  0
 37 42  1  0  0  0  0
 17 28  1  0  0  0  0
M  END
$$$$

  -OEChem-05262214473D

 52 52  0     1  0  0  0  0  0999 V2000
   -1.8248    0.3424    3.9102 C   0  0  0  0  0  0  0  0  0  0  0  0
   -0.8774   -0.2723    3.4345 O   0  0  0  0  0  0  0  0  0  0  0  0
   -2.2566    0.0600    5.3109 C   0  0  0  0  0  0  0  0  0  0  0  0
   -3.0163   -0.7363    5.3643 H   0  0  0  0  0  0  0  0  0  0  0  0
   -1.4254   -0.2876    5.9452 H   0  0  0  0  0  0  0  0  0  0  0  0
   -2.6947    0.9149    5.8505 H   0  0  0  0  0  0  0  0  0  0  0  0
   -2.5745    1.3149    3.2691 N   0  0  0  0  0  0  0  0  0  0  0  0
   -2.3276    1.7409    1.9167 C   0  0  2  0  0  0  0  0  0  0  0  0
   -0.9926    1.1555    1.4755 C   0  0  0  0  0  0  0  0  0  0  0  0
   -0.1206    0.8028    2.2668 O   0  0  0  0  0  0  0  0  0  0  0  0
   -2.3188    3.2577    1.8072 C   0  0  0  0  0  0  0  0  0  0  0  0
   -3.3395    1.7507    3.7809 H   0  0  0  0  0  0  0  0  0  0  0  0
   -3.1317    1.3224    1.3015 H   0  0  0  0  0  0  0  0  0  0  0  0
   -1.5198    3.6949    2.4169 H   0  0  0  0  0  0  0  0  0  0  0  0
   -2.1594    3.5799    0.7729 H   0  0  0  0  0  0  0  0  0  0  0  0
   -3.2690    3.6789    2.1530 H   0  0  0  0  0  0  0  0  0  0  0  0
   -0.8700    1.1124    0.0921 N   0  0  0  0  0  0  0  0  0  0  0  0
    0.3073    0.6116   -0.5716 C   0  0  2  0  0  0  0  0  0  0  0  0
    0.1013   -0.8833   -0.7885 C   0  0  0  0  0  0  0  0  0  0  0  0
    0.6272   -1.5045   -1.7095 O   0  0  0  0  0  0  0  0  0  0  0  0
    1.5816    0.8612    0.2432 C   0  0  0  0  0  0  0  0  0  0  0  0
    1.9232    2.3268    0.3581 C   0  0  0  0  0  0  0  0  0  0  0  0
    2.5804    2.9745   -0.6880 C   0  0  0  0  0  0  0  0  0  0  0  0
    1.5813    3.0337    1.5109 C   0  0  0  0  0  0  0  0  0  0  0  0
    2.8956    4.3291   -0.5813 C   0  0  0  0  0  0  0  0  0  0  0  0
    1.8965    4.3883    1.6176 C   0  0  0  0  0  0  0  0  0  0  0  0
    2.5536    5.0360    0.5715 C   0  0  0  0  0  0  0  0  0  0  0  0
   -1.6531    1.4091   -0.4852 H   0  0  0  0  0  0  0  0  0  0  0  0
    0.3537    1.1125   -1.5457 H   0  0  0  0  0  0  0  0  0  0  0  0
    2.4281    0.3182   -0.1985 H   0  0  0  0  0  0  0  0  0  0  0  0
    1.4750    0.4526    1.2568 H   0  0  0  0  0  0  0  0  0  0  0  0
    2.8506    2.4317   -1.5900 H   0  0  0  0  0  0  0  0  0  0  0  0
    1.0691    2.5374    2.3310 H   0  0  0  0  0  0  0  0  0  0  0  0
    3.4082    4.8329   -1.3955 H   0  0  0  0  0  0  0  0  0  0  0  0
    1.6310    4.9381    2.5157 H   0  0  0  0  0  0  0  0  0  0  0  0
    2.8003    6.0904    0.6549 H   0  0  0  0  0  0  0  0  0  0  0  0
   -0.6978   -1.4460    0.1970 N   0  0  0  0  0  0  0  0  0  0  0  0
   -1.0318   -2.8514    0.2414 C   0  0  2  0  0  0  0  0  0  0  0  0
   -1.5416   -3.2574   -1.1352 C   0  0  0  0  0  0  0  0  0  0  0  0
   -2.0052   -2.4545   -1.9424 O   0  0  0  0  0  0  0  0  0  0  0  0
   -2.0718   -3.1395    1.3129 C   0  0  0  0  0  0  0  0  0  0  0  0
   -1.0665   -0.8395    0.9237 H   0  0  0  0  0  0  0  0  0  0  0  0
   -0.1037   -3.3903    0.4613 H   0  0  0  0  0  0  0  0  0  0  0  0
   -3.0087   -2.6082    1.1095 H   0  0  0  0  0  0  0  0  0  0  0  0
   -2.3027   -4.2087    1.3645 H   0  0  0  0  0  0  0  0  0  0  0  0
   -1.7154   -2.8196    2.2980 H   0  0  0  0  0  0  0  0  0  0  0  0
   -1.4577   -4.6275   -1.3396 N   0  0  0  0  0  0  0  0  0  0  0  0
   -1.8908   -5.2612   -2.5631 C   0  0  0  0  0  0  0  0  0  0  0  0
   -1.0421   -5.2152   -0.6229 H   0  0  0  0  0  0  0  0  0  0  0  0
   -2.9383   -5.5807   -2.4603 H   0  0  0  0  0  0  0  0  0  0  0  0
   -1.8053   -4.5475   -3.3957 H   0  0  0  0  0  0  0  0  0  0  0  0
   -1.2583   -6.1381   -2.7654 H   0  0  0  0  0  0  0  0  0  0  0  0
 25 27  1  0  0  0  0
 26 27  2  0  0  0  0
 23 25  2  0  0  0  0
 24 26  1  0  0  0  0
 22 23  1  0  0  0  0
 22 24  2  0  0  0  0
 21 22  1  0  0  0  0
  1  3  1  0  0  0  0
  1  7  1  0  0  0  0
  1  2  2  0  0  0  0
 38 39  1  0  0  0  0
 39 47  1  0  0  0  0
 39 40  2  0  0  0  0
  8  9  1  0  0  0  0
  9 17  1  0  0  0  0
  9 10  2  0  0  0  0
 18 19  1  0  0  0  0
 19 37  1  0  0  0  0
 19 20  2  0  0  0  0
 38 41  1  0  0  0  0
  8 11  1  0  0  0  0
 47 48  1  0  0  0  0
 18 21  1  0  0  0  0
 37 38  1  0  0  0  0
  7  8  1  0  0  0  0
 17 18  1  0  0  0  0
 27 36  1  0  0  0  0
 25 34  1  0  0  0  0
 26 35  1  0  0  0  0
 23 32  1  0  0  0  0
 24 33  1  0  0  0  0
  3  4  1  0  0  0  0
  3  5  1  0  0  0  0
  3  6  1  0  0  0  0
 41 44  1  0  0  0  0
 41 45  1  0  0  0  0
 41 46  1  0  0  0  0
 11 14  1  0  0  0  0
 11 15  1  0  0  0  0
 11 16  1  0  0  0  0
 48 50  1  0  0  0  0
 48 51  1  0  0  0  0
 48 52  1  0  0  0  0
 21 30  1  0  0  0  0
 21 31  1  0  0  0  0
 38 43  1  0  0  0  0
  8 13  1  0  0  0  0
 18 29  1  0  0  0  0
 47 49  1  0  0  0  0
  7 12  1  0  0  0  0
 37 42  1  0  0  0  0
 17 28  1  0  0  0  0
M  END
$$$$

  -OEChem-05262214473D

 52 52  0     1  0  0  0  0  0999 V2000
   -1.8248    0.3424    3.9102 C   0  0  0  0  0  0  0  0  0  0  0  0
   -0.8774   -0.2723    3.4345 O   0  0  0  0  0  0  0  0  0  0  0  0
   -2.2566    0.0600    5.3109 C   0  0  0  0  0  0  0  0  0  0  0  0
   -3.0163   -0.7363    5.3643 H   0  0  0  0  0  0  0  0  0  0  0  0
   -1.4254   -0.2876    5.9452 H   0  0  0  0  0  0  0  0  0  0  0  0
   -2.6947    0.9149    5.8505 H   0  0  0  0  0  0  0  0  0  0  0  0
   -2.5745    1.3149    3.2691 N   0  0  0  0  0  0  0  0  0  0  0  0
   -2.3276    1.7409    1.9167 C   0  0  2  0  0  0  0  0  0  0  0  0
   -0.9926    1.1555    1.4755 C   0  0  0  0  0  0  0  0  0  0  0  0
   -0.1206    0.8028    2.2668 O   0  0  0  0  0  0  0  0  0  0  0  0
   -2.3188    3.2577    1.8072 C   0  0  0  0  0  0  0  0  0  0  0  0
   -3.3395    1.7507    3.7809 H   0  0  0  0  0  0  0  0  0  0  0  0
   -3.1317    1.3224    1.3015 H   0  0  0  0  0  0  0  0  0  0  0  0
   -1.5198    3.6949    2.4169 H   0  0  0  0  0  0  0  0  0  0  0  0
   -2.1594    3.5799    0.7729 H   0  0  0  0  0  0  0  0  0  0  0  0
   -3.2690    3.6789    2.1530 H   0  0  0  0  0  0  0  0  0  0  0  0
   -0.8700    1.1124    0.0921 N   0  0  0  0  0  0  0  0  0  0  0  0
    0.3073    0.6116   -0.5716 C   0  0  2  0  0  0  0  0  0  0  0  0
    0.1013   -0.8833   -0.7885 C   0  0  0  0  0  0  0  0  0  0  0  0
    0.8171   -1.5573   -1.5262 O   0  0  0  0  0  0  0  0  0  0  0  0
    1.5816    0.8612    0.2432 C   0  0  0  0  0  0  0  0  0  0  0  0
    1.9232    2.3268    0.3581 C   0  0  0  0  0  0  0  0  0  0  0  0
    2.5804    2.9745   -0.6880 C   0  0  0  0  0  0  0  0  0  0  0  0
    1.5813    3.0337    1.5109 C   0  0  0  0  0  0  0  0  0  0  0  0
    2.8956    4.3291   -0.5813 C   0  0  0  0  0  0  0  0  0  0  0  0
    1.8965    4.3883    1.6176 C   0  0  0  0  0  0  0  0  0  0  0  0
    2.5536    5.0360    0.5715 C   0  0  0  0  0  0  0  0  0  0  0  0
   -1.6531    1.4091   -0.4852 H   0  0  0  0  0  0  0  0  0  0  0  0
    0.3537    1.1125   -1.5457 H   0  0  0  0  0  0  0  0  0  0  0  0
    2.4281    0.3182   -0.1985 H   0  0  0  0  0  0  0  0  0  0  0  0
    1.4750    0.4526    1.2568 H   0  0  0  0  0  0  0  0  0  0  0  0
    2.8506    2.4317   -1.5900 H   0  0  0  0  0  0  0  0  0  0  0  0
    1.0691    2.5374    2.3310 H   0  0  0  0  0  0  0  0  0  0  0  0
    3.4082    4.8329   -1.3955 H   0  0  0  0  0  0  0  0  0  0  0  0
    1.6310    4.9381    2.5157 H   0  0  0  0  0  0  0  0  0  0  0  0
    2.8003    6.0904    0.6549 H   0  0  0  0  0  0  0  0  0  0  0  0
   -0.9438   -1.3803   -0.0222 N   0  0  0  0  0  0  0  0  0  0  0  0
   -1.3359   -2.7713   -0.0218 C   0  0  2  0  0  0  0  0  0  0  0  0
   -1.4970   -3.2150   -1.4698 C   0  0  0  0  0  0  0  0  0  0  0  0
   -1.7076   -2.4303   -2.3923 O   0  0  0  0  0  0  0  0  0  0  0  0
   -2.6243   -2.9829    0.7580 C   0  0  0  0  0  0  0  0  0  0  0  0
   -1.4591   -0.7338    0.5680 H   0  0  0  0  0  0  0  0  0  0  0  0
   -0.5168   -3.3307    0.4432 H   0  0  0  0  0  0  0  0  0  0  0  0
   -3.4565   -2.4301    0.3070 H   0  0  0  0  0  0  0  0  0  0  0  0
   -2.9047   -4.0411    0.7815 H   0  0  0  0  0  0  0  0  0  0  0  0
   -2.5159   -2.6358    1.7912 H   0  0  0  0  0  0  0  0  0  0  0  0
   -1.4209   -4.5942   -1.6047 N   0  0  0  0  0  0  0  0  0  0  0  0
   -1.5559   -5.2616   -2.8783 C   0  0  0  0  0  0  0  0  0  0  0  0
   -1.2248   -5.1660   -0.7884 H   0  0  0  0  0  0  0  0  0  0  0  0
   -2.6077   -5.5427   -3.0359 H   0  0  0  0  0  0  0  0  0  0  0  0
   -1.2330   -4.5847   -3.6830 H   0  0  0  0  0  0  0  0  0  0  0  0
   -0.9296   -6.1659   -2.8865 H   0  0  0  0  0  0  0  0  0  0  0  0
 25 27  1  0  0  0  0
 26 27  2  0  0  0  0
 23 25  2  0  0  0  0
 24 26  1  0  0  0  0
 22 23  1  0  0  0  0
 22 24  2  0  0  0  0
 21 22  1  0  0  0  0
  1  3  1  0  0  0  0
  1  7  1  0  0  0  0
  1  2  2  0  0  0  0
 38 39  1  0  0  0  0
 39 47  1  0  0  0  0
 39 40  2  0  0  0  0
  8  9  1  0  0  0  0
  9 17  1  0  0  0  0
  9 10  2  0  0  0  0
 18 19  1  0  0  0  0
 19 37  1  0  0  0  0
 19 20  2  0  0  0  0
 38 41  1  0  0  0  0
  8 11  1  0  0  0  0
 47 48  1  0  0  0  0
 18 21  1  0  0  0  0
 37 38  1  0  0  0  0
  7  8  1  0  0  0  0
 17 18  1  0  0  0  0
 27 36  1  0  0  0  0
 25 34  1  0  0  0  0
 26 35  1  0  0  0  0
 23 32  1  0  0  0  0
 24 33  1  0  0  0  0
  3  4  1  0  0  0  0
  3  5  1  0  0  0  0
  3  6  1  0  0  0  0
 41 44  1  0  0  0  0
 41 45  1  0  0  0  0
 41 46  1  0  0  0  0
 11 14  1  0  0  0  0
 11 15  1  0  0  0  0
 11 16  1  0  0  0  0
 48 50  1  0  0  0  0
 48 51  1  0  0  0  0
 48 52  1  0  0  0  0
 21 30  1  0  0  0  0
 21 31  1  0  0  0  0
 38 43  1  0  0  0  0
  8 13  1  0  0  0  0
 18 29  1  0  0  0  0
 47 49  1  0  0  0  0
  7 12  1  0  0  0  0
 37 42  1  0  0  0  0
 17 28  1  0  0  0  0
M  END
$$$$

  -OEChem-05262214473D

 52 52  0     1  0  0  0  0  0999 V2000
   -1.8248    0.3424    3.9102 C   0  0  0  0  0  0  0  0  0  0  0  0
   -0.8774   -0.2723    3.4345 O   0  0  0  0  0  0  0  0  0  0  0  0
   -2.2566    0.0600    5.3109 C   0  0  0  0  0  0  0  0  0  0  0  0
   -3.0163   -0.7363    5.3643 H   0  0  0  0  0  0  0  0  0  0  0  0
   -1.4254   -0.2876    5.9452 H   0  0  0  0  0  0  0  0  0  0  0  0
   -2.6947    0.9149    5.8505 H   0  0  0  0  0  0  0  0  0  0  0  0
   -2.5745    1.3149    3.2691 N   0  0  0  0  0  0  0  0  0  0  0  0
   -2.3276    1.7409    1.9167 C   0  0  2  0  0  0  0  0  0  0  0  0
   -0.9926    1.1555    1.4755 C   0  0  0  0  0  0  0  0  0  0  0  0
   -0.1206    0.8028    2.2668 O   0  0  0  0  0  0  0  0  0  0  0  0
   -2.3188    3.2577    1.8072 C   0  0  0  0  0  0  0  0  0  0  0  0
   -3.3395    1.7507    3.7809 H   0  0  0  0  0  0  0  0  0  0  0  0
   -3.1317    1.3224    1.3015 H   0  0  0  0  0  0  0  0  0  0  0  0
   -1.5198    3.6949    2.4169 H   0  0  0  0  0  0  0  0  0  0  0  0
   -2.1594    3.5799    0.7729 H   0  0  0  0  0  0  0  0  0  0  0  0
   -3.2690    3.6789    2.1530 H   0  0  0  0  0  0  0  0  0  0  0  0
   -0.8700    1.1124    0.0921 N   0  0  0  0  0  0  0  0  0  0  0  0
    0.3073    0.6116   -0.5716 C   0  0  2  0  0  0  0  0  0  0  0  0
    0.1013   -0.8833   -0.7885 C   0  0  0  0  0  0  0  0  0  0  0  0
    0.9520   -1.6088   -1.2990 O   0  0  0  0  0  0  0  0  0  0  0  0
    1.5816    0.8612    0.2432 C   0  0  0  0  0  0  0  0  0  0  0  0
    1.9232    2.3268    0.3581 C   0  0  0  0  0  0  0  0  0  0  0  0
    2.5804    2.9745   -0.6880 C   0  0  0  0  0  0  0  0  0  0  0  0
    1.5813    3.0337    1.5109 C   0  0  0  0  0  0  0  0  0  0  0  0
    2.8956    4.3291   -0.5813 C   0  0  0  0  0  0  0  0  0  0  0  0
    1.8965    4.3883    1.6176 C   0  0  0  0  0  0  0  0  0  0  0  0
    2.5536    5.0360    0.5715 C   0  0  0  0  0  0  0  0  0  0  0  0
   -1.6531    1.4091   -0.4852 H   0  0  0  0  0  0  0  0  0  0  0  0
    0.3537    1.1125   -1.5457 H   0  0  0  0  0  0  0  0  0  0  0  0
    2.4281    0.3182   -0.1985 H   0  0  0  0  0  0  0  0  0  0  0  0
    1.4750    0.4526    1.2568 H   0  0  0  0  0  0  0  0  0  0  0  0
    2.8506    2.4317   -1.5900 H   0  0  0  0  0  0  0  0  0  0  0  0
    1.0691    2.5374    2.3310 H   0  0  0  0  0  0  0  0  0  0  0  0
    3.4082    4.8329   -1.3955 H   0  0  0  0  0  0  0  0  0  0  0  0
    1.6310    4.9381    2.5157 H   0  0  0  0  0  0  0  0  0  0  0  0
    2.8003    6.0904    0.6549 H   0  0  0  0  0  0  0  0  0  0  0  0
   -1.1234   -1.3154   -0.2987 N   0  0  0  0  0  0  0  0  0  0  0  0
   -1.5600   -2.6920   -0.3560 C   0  0  2  0  0  0  0  0  0  0  0  0
   -1.3674   -3.1873   -1.7833 C   0  0  0  0  0  0  0  0  0  0  0  0
   -1.3050   -2.4335   -2.7523 O   0  0  0  0  0  0  0  0  0  0  0  0
   -3.0114   -2.8306    0.0763 C   0  0  0  0  0  0  0  0  0  0  0  0
   -1.7441   -0.6297    0.1212 H   0  0  0  0  0  0  0  0  0  0  0  0
   -0.9091   -3.2586    0.3188 H   0  0  0  0  0  0  0  0  0  0  0  0
   -3.6787   -2.2696   -0.5881 H   0  0  0  0  0  0  0  0  0  0  0  0
   -3.3321   -3.8775    0.0597 H   0  0  0  0  0  0  0  0  0  0  0  0
   -3.1538   -2.4464    1.0921 H   0  0  0  0  0  0  0  0  0  0  0  0
   -1.3167   -4.5725   -1.8526 N   0  0  0  0  0  0  0  0  0  0  0  0
   -1.1525   -5.2854   -3.0979 C   0  0  0  0  0  0  0  0  0  0  0  0
   -1.3575   -5.1175   -0.9963 H   0  0  0  0  0  0  0  0  0  0  0  0
   -2.1408   -5.5384   -3.5093 H   0  0  0  0  0  0  0  0  0  0  0  0
   -0.6087   -4.6517   -3.8140 H   0  0  0  0  0  0  0  0  0  0  0  0
   -0.5824   -6.2090   -2.9191 H   0  0  0  0  0  0  0  0  0  0  0  0
 25 27  1  0  0  0  0
 26 27  2  0  0  0  0
 23 25  2  0  0  0  0
 24 26  1  0  0  0  0
 22 23  1  0  0  0  0
 22 24  2  0  0  0  0
 21 22  1  0  0  0  0
  1  3  1  0  0  0  0
  1  7  1  0  0  0  0
  1  2  2  0  0  0  0
 38 39  1  0  0  0  0
 39 47  1  0  0  0  0
 39 40  2  0  0  0  0
  8  9  1  0  0  0  0
  9 17  1  0  0  0  0
  9 10  2  0  0  0  0
 18 19  1  0  0  0  0
 19 37  1  0  0  0  0
 19 20  2  0  0  0  0
 38 41  1  0  0  0  0
  8 11  1  0  0  0  0
 47 48  1  0  0  0  0
 18 21  1  0  0  0  0
 37 38  1  0  0  0  0
  7  8  1  0  0  0  0
 17 18  1  0  0  0  0
 27 36  1  0  0  0  0
 25 34  1  0  0  0  0
 26 35  1  0  0  0  0
 23 32  1  0  0  0  0
 24 33  1  0  0  0  0
  3  4  1  0  0  0  0
  3  5  1  0  0  0  0
  3  6  1  0  0  0  0
 41 44  1  0  0  0  0
 41 45  1  0  0  0  0
 41 46  1  0  0  0  0
 11 14  1  0  0  0  0
 11 15  1  0  0  0  0
 11 16  1  0  0  0  0
 48 50  1  0  0  0  0
 48 51  1  0  0  0  0
 48 52  1  0  0  0  0
 21 30  1  0  0  0  0
 21 31  1  0  0  0  0
 38 43  1  0  0  0  0
  8 13  1  0  0  0  0
 18 29  1  0  0  0  0
 47 49  1  0  0  0  0
  7 12  1  0  0  0  0
 37 42  1  0  0  0  0
 17 28  1  0  0  0  0
M  END
$$$$

  -OEChem-05262214473D

 52 52  0     1  0  0  0  0  0999 V2000
   -1.8248    0.3424    3.9102 C   0  0  0  0  0  0  0  0  0  0  0  0
   -0.8774   -0.2723    3.4345 O   0  0  0  0  0  0  0  0  0  0  0  0
   -2.2566    0.0600    5.3109 C   0  0  0  0  0  0  0  0  0  0  0  0
   -3.0163   -0.7363    5.3643 H   0  0  0  0  0  0  0  0  0  0  0  0
   -1.4254   -0.2876    5.9452 H   0  0  0  0  0  0  0  0  0  0  0  0
   -2.6947    0.9149    5.8505 H   0  0  0  0  0  0  0  0  0  0  0  0
   -2.5745    1.3149    3.2691 N   0  0  0  0  0  0  0  0  0  0  0  0
   -2.3276    1.7409    1.9167 C   0  0  2  0  0  0  0  0  0  0  0  0
   -0.9926    1.1555    1.4755 C   0  0  0  0  0  0  0  0  0  0  0  0
   -0.1206    0.8028    2.2668 O   0  0  0  0  0  0  0  0  0  0  0  0
   -2.3188    3.2577    1.8072 C   0  0  0  0  0  0  0  0  0  0  0  0
   -3.3395    1.7507    3.7809 H   0  0  0  0  0  0  0  0  0  0  0  0
   -3.1317    1.3224    1.3015 H   0  0  0  0  0  0  0  0  0  0  0  0
   -1.5198    3.6949    2.4169 H   0  0  0  0  0  0  0  0  0  0  0  0
   -2.1594    3.5799    0.7729 H   0  0  0  0  0  0  0  0  0  0  0  0
   -3.2690    3.6789    2.1530 H   0  0  0  0  0  0  0  0  0  0  0  0
   -0.8700    1.1124    0.0921 N   0  0  0  0  0  0  0  0  0  0  0  0
    0.3073    0.6116   -0.5716 C   0  0  2  0  0  0  0  0  0  0  0  0
    0.1013   -0.8833   -0.7885 C   0  0  0  0  0  0  0  0  0  0  0  0
    1.0228   -1.6557   -1.0436 O   0  0  0  0  0  0  0  0  0  0  0  0
    1.5816    0.8612    0.2432 C   0  0  0  0  0  0  0  0  0  0  0  0
    1.9232    2.3268    0.3581 C   0  0  0  0  0  0  0  0  0  0  0  0
    2.5804    2.9745   -0.6880 C   0  0  0  0  0  0  0  0  0  0  0  0
    1.5813    3.0337    1.5109 C   0  0  0  0  0  0  0  0  0  0  0  0
    2.8956    4.3291   -0.5813 C   0  0  0  0  0  0  0  0  0  0  0  0
    1.8965    4.3883    1.6176 C   0  0  0  0  0  0  0  0  0  0  0  0
    2.5536    5.0360    0.5715 C   0  0  0  0  0  0  0  0  0  0  0  0
   -1.6531    1.4091   -0.4852 H   0  0  0  0  0  0  0  0  0  0  0  0
    0.3537    1.1125   -1.5457 H   0  0  0  0  0  0  0  0  0  0  0  0
    2.4281    0.3182   -0.1985 H   0  0  0  0  0  0  0  0  0  0  0  0
    1.4750    0.4526    1.2568 H   0  0  0  0  0  0  0  0  0  0  0  0
    2.8506    2.4317   -1.5900 H   0  0  0  0  0  0  0  0  0  0  0  0
    1.0691    2.5374    2.3310 H   0  0  0  0  0  0  0  0  0  0  0  0
    3.4082    4.8329   -1.3955 H   0  0  0  0  0  0  0  0  0  0  0  0
    1.6310    4.9381    2.5157 H   0  0  0  0  0  0  0  0  0  0  0  0
    2.8003    6.0904    0.6549 H   0  0  0  0  0  0  0  0  0  0  0  0
   -1.2243   -1.2558   -0.6136 N   0  0  0  0  0  0  0  0  0  0  0  0
   -1.6886   -2.6187   -0.7385 C   0  0  2  0  0  0  0  0  0  0  0  0
   -1.1617   -3.1764   -2.0541 C   0  0  0  0  0  0  0  0  0  0  0  0
   -0.8250   -2.4641   -2.9977 O   0  0  0  0  0  0  0  0  0  0  0  0
   -3.2066   -2.6931   -0.6857 C   0  0  0  0  0  0  0  0  0  0  0  0
   -1.9021   -0.5343   -0.3863 H   0  0  0  0  0  0  0  0  0  0  0  0
   -1.2537   -3.1788    0.0965 H   0  0  0  0  0  0  0  0  0  0  0  0
   -3.6603   -2.1377   -1.5146 H   0  0  0  0  0  0  0  0  0  0  0  0
   -3.5557   -3.7289   -0.7517 H   0  0  0  0  0  0  0  0  0  0  0  0
   -3.5856   -2.2645    0.2484 H   0  0  0  0  0  0  0  0  0  0  0  0
   -1.1525   -4.5642   -2.0663 N   0  0  0  0  0  0  0  0  0  0  0  0
   -0.7079   -5.3309   -3.2067 C   0  0  0  0  0  0  0  0  0  0  0  0
   -1.4311   -5.0731   -1.2326 H   0  0  0  0  0  0  0  0  0  0  0  0
   -1.5695   -5.5680   -3.8482 H   0  0  0  0  0  0  0  0  0  0  0  0
    0.0251   -4.7440   -3.7797 H   0  0  0  0  0  0  0  0  0  0  0  0
   -0.2404   -6.2646   -2.8610 H   0  0  0  0  0  0  0  0  0  0  0  0
 25 27  1  0  0  0  0
 26 27  2  0  0  0  0
 23 25  2  0  0  0  0
 24 26  1  0  0  0  0
 22 23  1  0  0  0  0
 22 24  2  0  0  0  0
 21 22  1  0  0  0  0
  1  3  1  0  0  0  0
  1  7  1  0  0  0  0
  1  2  2  0  0  0  0
 38 39  1  0  0  0  0
 39 47  1  0  0  0  0
 39 40  2  0  0  0  0
  8  9  1  0  0  0  0
  9 17  1  0  0  0  0
  9 10  2  0  0  0  0
 18 19  1  0  0  0  0
 19 37  1  0  0  0  0
 19 20  2  0  0  0  0
 38 41  1  0  0  0  0
  8 11  1  0  0  0  0
 47 48  1  0  0  0  0
 18 21  1  0  0  0  0
 37 38  1  0  0  0  0
  7  8  1  0  0  0  0
 17 18  1  0  0  0  0
 27 36  1  0  0  0  0
 25 34  1  0  0  0  0
 26 35  1  0  0  0  0
 23 32  1  0  0  0  0
 24 33  1  0  0  0  0
  3  4  1  0  0  0  0
  3  5  1  0  0  0  0
  3  6  1  0  0  0  0
 41 44  1  0  0  0  0
 41 45  1  0  0  0  0
 41 46  1  0  0  0  0
 11 14  1  0  0  0  0
 11 15  1  0  0  0  0
 11 16  1  0  0  0  0
 48 50  1  0  0  0  0
 48 51  1  0  0  0  0
 48 52  1  0  0  0  0
 21 30  1  0  0  0  0
 21 31  1  0  0  0  0
 38 43  1  0  0  0  0
  8 13  1  0  0  0  0
 18 29  1  0  0  0  0
 47 49  1  0  0  0  0
  7 12  1  0  0  0  0
 37 42  1  0  0  0  0
 17 28  1  0  0  0  0
M  END
$$$$

  -OEChem-05262214473D

 52 52  0     1  0  0  0  0  0999 V2000
   -1.8248    0.3424    3.9102 C   0  0  0  0  0  0  0  0  0  0  0  0
   -0.8774   -0.2723    3.4345 O   0  0  0  0  0  0  0  0  0  0  0  0
   -2.2566    0.0600    5.3109 C   0  0  0  0  0  0  0  0  0  0  0  0
   -3.0163   -0.7363    5.3643 H   0  0  0  0  0  0  0  0  0  0  0  0
   -1.4254   -0.2876    5.9452 H   0  0  0  0  0  0  0  0  0  0  0  0
   -2.6947    0.9149    5.8505 H   0  0  0  0  0  0  0  0  0  0  0  0
   -2.5745    1.3149    3.2691 N   0  0  0  0  0  0  0  0  0  0  0  0
   -2.3276    1.7409    1.9167 C   0  0  2  0  0  0  0  0  0  0  0  0
   -0.9926    1.1555    1.4755 C   0  0  0  0  0  0  0  0  0  0  0  0
   -0.1206    0.8028    2.2668 O   0  0  0  0  0  0  0  0  0  0  0  0
   -2.3188    3.2577    1.8072 C   0  0  0  0  0  0  0  0  0  0  0  0
   -3.3395    1.7507    3.7809 H   0  0  0  0  0  0  0  0  0  0  0  0
   -3.1317    1.3224    1.3015 H   0  0  0  0  0  0  0  0  0  0  0  0
   -1.5198    3.6949    2.4169 H   0  0  0  0  0  0  0  0  0  0  0  0
   -2.1594    3.5799    0.7729 H   0  0  0  0  0  0  0  0  0  0  0  0
   -3.2690    3.6789    2.1530 H   0  0  0  0  0  0  0  0  0  0  0  0
   -0.8700    1.1124    0.0921 N   0  0  0  0  0  0  0  0  0  0  0  0
    0.3073    0.6116   -0.5716 C   0  0  2  0  0  0  0  0  0  0  0  0
    0.1013   -0.8833   -0.7885 C   0  0  0  0  0  0  0  0  0  0  0  0
    1.0246   -1.6946   -0.7773 O   0  0  0  0  0  0  0  0  0  0  0  0
    1.5816    0.8612    0.2432 C   0  0  0  0  0  0  0  0  0  0  0  0
    1.9232    2.3268    0.3581 C   0  0  0  0  0  0  0  0  0  0  0  0
    2.5804    2.9745   -0.6880 C   0  0  0  0  0  0  0  0  0  0  0  0
    1.5813    3.0337    1.5109 C   0  0  0  0  0  0  0  0  0  0  0  0
    2.8956    4.3291   -0.5813 C   0  0  0  0  0  0  0  0  0  0  0  0
    1.8965    4.3883    1.6176 C   0  0  0  0  0  0  0  0  0  0  0  0
    2.5536    5.0360    0.5715 C   0  0  0  0  0  0  0  0  0  0  0  0
   -1.6531    1.4091   -0.4852 H   0  0  0  0  0  0  0  0  0  0  0  0
    0.3537    1.1125   -1.5457 H   0  0  0  0  0  0  0  0  0  0  0  0
    2.4281    0.3182   -0.1985 H   0  0  0  0  0  0  0  0  0  0  0  0
    1.4750    0.4526    1.2568 H   0  0  0  0  0  0  0  0  0  0  0  0
    2.8506    2.4317   -1.5900 H   0  0  0  0  0  0  0  0  0  0  0  0
    1.0691    2.5374    2.3310 H   0  0  0  0  0  0  0  0  0  0  0  0
    3.4082    4.8329   -1.3955 H   0  0  0  0  0  0  0  0  0  0  0  0
    1.6310    4.9381    2.5157 H   0  0  0  0  0  0  0  0  0  0  0  0
    2.8003    6.0904    0.6549 H   0  0  0  0  0  0  0  0  0  0  0  0
   -1.2396   -1.2056   -0.9454 N   0  0  0  0  0  0  0  0  0  0  0  0
   -1.7131   -2.5567   -1.1431 C   0  0  2  0  0  0  0  0  0  0  0  0
   -0.8939   -3.1829   -2.2639 C   0  0  0  0  0  0  0  0  0  0  0  0
   -0.3001   -2.5199   -3.1118 O   0  0  0  0  0  0  0  0  0  0  0  0
   -3.1968   -2.5798   -1.4761 C   0  0  0  0  0  0  0  0  0  0  0  0
   -1.9225   -0.4540   -0.9201 H   0  0  0  0  0  0  0  0  0  0  0  0
   -1.5273   -3.0969   -0.2084 H   0  0  0  0  0  0  0  0  0  0  0  0
   -3.4025   -2.0434   -2.4096 H   0  0  0  0  0  0  0  0  0  0  0  0
   -3.5603   -3.6056   -1.5974 H   0  0  0  0  0  0  0  0  0  0  0  0
   -3.7818   -2.1024   -0.6826 H   0  0  0  0  0  0  0  0  0  0  0  0
   -0.9392   -4.5696   -2.2314 N   0  0  0  0  0  0  0  0  0  0  0  0
   -0.2525   -5.3950   -3.1975 C   0  0  0  0  0  0  0  0  0  0  0  0
   -1.4407   -5.0357   -1.4810 H   0  0  0  0  0  0  0  0  0  0  0  0
   -0.9327   -5.6294   -4.0296 H   0  0  0  0  0  0  0  0  0  0  0  0
    0.6253   -4.8554   -3.5825 H   0  0  0  0  0  0  0  0  0  0  0  0
    0.0732   -6.3288   -2.7160 H   0  0  0  0  0  0  0  0  0  0  0  0
 25 27  1  0  0  0  0
 26 27  2  0  0  0  0
 23 25  2  0  0  0  0
 24 26  1  0  0  0  0
 22 23  1  0  0  0  0
 22 24  2  0  0  0  0
 21 22  1  0  0  0  0
  1  3  1  0  0  0  0
  1  7  1  0  0  0  0
  1  2  2  0  0  0  0
 38 39  1  0  0  0  0
 39 47  1  0  0  0  0
 39 40  2  0  0  0  0
  8  9  1  0  0  0  0
  9 17  1  0  0  0  0
  9 10  2  0  0  0  0
 18 19  1  0  0  0  0
 19 37  1  0  0  0  0
 19 20  2  0  0  0  0
 38 41  1  0  0  0  0
  8 11  1  0  0  0  0
 47 48  1  0  0  0  0
 18 21  1  0  0  0  0
 37 38  1  0  0  0  0
  7  8  1  0  0  0  0
 17 18  1  0  0  0  0
 27 36  1  0  0  0  0
 25 34  1  0  0  0  0
 26 35  1  0  0  0  0
 23 32  1  0  0  0  0
 24 33  1  0  0  0  0
  3  4  1  0  0  0  0
  3  5  1  0  0  0  0
  3  6  1  0  0  0  0
 41 44  1  0  0  0  0
 41 45  1  0  0  0  0
 41 46  1  0  0  0  0
 11 14  1  0  0  0  0
 11 15  1  0  0  0  0
 11 16  1  0  0  0  0
 48 50  1  0  0  0  0
 48 51  1  0  0  0  0
 48 52  1  0  0  0  0
 21 30  1  0  0  0  0
 21 31  1  0  0  0  0
 38 43  1  0  0  0  0
  8 13  1  0  0  0  0
 18 29  1  0  0  0  0
 47 49  1  0  0  0  0
  7 12  1  0  0  0  0
 37 42  1  0  0  0  0
 17 28  1  0  0  0  0
M  END
$$$$

  -OEChem-05262214473D

 52 52  0     1  0  0  0  0  0999 V2000
   -1.8248    0.3424    3.9102 C   0  0  0  0  0  0  0  0  0  0  0  0
   -0.8774   -0.2723    3.4345 O   0  0  0  0  0  0  0  0  0  0  0  0
   -2.2566    0.0600    5.3109 C   0  0  0  0  0  0  0  0  0  0  0  0
   -3.0163   -0.7363    5.3643 H   0  0  0  0  0  0  0  0  0  0  0  0
   -1.4254   -0.2876    5.9452 H   0  0  0  0  0  0  0  0  0  0  0  0
   -2.6947    0.9149    5.8505 H   0  0  0  0  0  0  0  0  0  0  0  0
   -2.5745    1.3149    3.2691 N   0  0  0  0  0  0  0  0  0  0  0  0
   -2.3276    1.7409    1.9167 C   0  0  2  0  0  0  0  0  0  0  0  0
   -0.9926    1.1555    1.4755 C   0  0  0  0  0  0  0  0  0  0  0  0
   -0.1206    0.8028    2.2668 O   0  0  0  0  0  0  0  0  0  0  0  0
   -2.3188    3.2577    1.8072 C   0  0  0  0  0  0  0  0  0  0  0  0
   -3.3395    1.7507    3.7809 H   0  0  0  0  0  0  0  0  0  0  0  0
   -3.1317    1.3224    1.3015 H   0  0  0  0  0  0  0  0  0  0  0  0
   -1.5198    3.6949    2.4169 H   0  0  0  0  0  0  0  0  0  0  0  0
   -2.1594    3.5799    0.7729 H   0  0  0  0  0  0  0  0  0  0  0  0
   -3.2690    3.6789    2.1530 H   0  0  0  0  0  0  0  0  0  0  0  0
   -0.8700    1.1124    0.0921 N   0  0  0  0  0  0  0  0  0  0  0  0
    0.3073    0.6116   -0.5716 C   0  0  2  0  0  0  0  0  0  0  0  0
    0.1013   -0.8833   -0.7885 C   0  0  0  0  0  0  0  0  0  0  0  0
    0.9574   -1.7229   -0.5182 O   0  0  0  0  0  0  0  0  0  0  0  0
    1.5816    0.8612    0.2432 C   0  0  0  0  0  0  0  0  0  0  0  0
    1.9232    2.3268    0.3581 C   0  0  0  0  0  0  0  0  0  0  0  0
    2.5804    2.9745   -0.6880 C   0  0  0  0  0  0  0  0  0  0  0  0
    1.5813    3.0337    1.5109 C   0  0  0  0  0  0  0  0  0  0  0  0
    2.8956    4.3291   -0.5813 C   0  0  0  0  0  0  0  0  0  0  0  0
    1.8965    4.3883    1.6176 C   0  0  0  0  0  0  0  0  0  0  0  0
    2.5536    5.0360    0.5715 C   0  0  0  0  0  0  0  0  0  0  0  0
   -1.6531    1.4091   -0.4852 H   0  0  0  0  0  0  0  0  0  0  0  0
    0.3537    1.1125   -1.5457 H   0  0  0  0  0  0  0  0  0  0  0  0
    2.4281    0.3182   -0.1985 H   0  0  0  0  0  0  0  0  0  0  0  0
    1.4750    0.4526    1.2568 H   0  0  0  0  0  0  0  0  0  0  0  0
    2.8506    2.4317   -1.5900 H   0  0  0  0  0  0  0  0  0  0  0  0
    1.0691    2.5374    2.3310 H   0  0  0  0  0  0  0  0  0  0  0  0
    3.4082    4.8329   -1.3955 H   0  0  0  0  0  0  0  0  0  0  0  0
    1.6310    4.9381    2.5157 H   0  0  0  0  0  0  0  0  0  0  0  0
    2.8003    6.0904    0.6549 H   0  0  0  0  0  0  0  0  0  0  0  0
   -1.1683   -1.1681   -1.2716 N   0  0  0  0  0  0  0  0  0  0  0  0
   -1.6318   -2.5099   -1.5424 C   0  0  2  0  0  0  0  0  0  0  0  0
   -0.5822   -3.2063   -2.3984 C   0  0  0  0  0  0  0  0  0  0  0  0
    0.2338   -2.5971   -3.0869 O   0  0  0  0  0  0  0  0  0  0  0  0
   -2.9826   -2.4984   -2.2410 C   0  0  0  0  0  0  0  0  0  0  0  0
   -1.8037   -0.3944   -1.4436 H   0  0  0  0  0  0  0  0  0  0  0  0
   -1.7112   -3.0183   -0.5753 H   0  0  0  0  0  0  0  0  0  0  0  0
   -2.9229   -1.9931   -3.2119 H   0  0  0  0  0  0  0  0  0  0  0  0
   -3.3455   -3.5159   -2.4198 H   0  0  0  0  0  0  0  0  0  0  0  0
   -3.7291   -1.9711   -1.6373 H   0  0  0  0  0  0  0  0  0  0  0  0
   -0.6915   -4.5885   -2.3366 N   0  0  0  0  0  0  0  0  0  0  0  0
    0.1826   -5.4733   -3.0707 C   0  0  0  0  0  0  0  0  0  0  0  0
   -1.3854   -5.0080   -1.7247 H   0  0  0  0  0  0  0  0  0  0  0  0
   -0.2739   -5.7186   -4.0410 H   0  0  0  0  0  0  0  0  0  0  0  0
    1.1508   -4.9781   -3.2359 H   0  0  0  0  0  0  0  0  0  0  0  0
    0.3370   -6.3974   -2.4942 H   0  0  0  0  0  0  0  0  0  0  0  0
 25 27  1  0  0  0  0
 26 27  2  0  0  0  0
 23 25  2  0  0  0  0
 24 26  1  0  0  0  0
 22 23  1  0  0  0  0
 22 24  2  0  0  0  0
 21 22  1  0  0  0  0
  1  3  1  0  0  0  0
  1  7  1  0  0  0  0
  1  2  2  0  0  0  0
 38 39  1  0  0  0  0
 39 47  1  0  0  0  0
 39 40  2  0  0  0  0
  8  9  1  0  0  0  0
  9 17  1  0  0  0  0
  9 10  2  0  0  0  0
 18 19  1  0  0  0  0
 19 37  1  0  0  0  0
 19 20  2  0  0  0  0
 38 41  1  0  0  0  0
  8 11  1  0  0  0  0
 47 48  1  0  0  0  0
 18 21  1  0  0  0  0
 37 38  1  0  0  0  0
  7  8  1  0  0  0  0
 17 18  1  0  0  0  0
 27 36  1  0  0  0  0
 25 34  1  0  0  0  0
 26 35  1  0  0  0  0
 23 32  1  0  0  0  0
 24 33  1  0  0  0  0
  3  4  1  0  0  0  0
  3  5  1  0  0  0  0
  3  6  1  0  0  0  0
 41 44  1  0  0  0  0
 41 45  1  0  0  0  0
 41 46  1  0  0  0  0
 11 14  1  0  0  0  0
 11 15  1  0  0  0  0
 11 16  1  0  0  0  0
 48 50  1  0  0  0  0
 48 51  1  0  0  0  0
 48 52  1  0  0  0  0
 21 30  1  0  0  0  0
 21 31  1  0  0  0  0
 38 43  1  0  0  0  0
  8 13  1  0  0  0  0
 18 29  1  0  0  0  0
 47 49  1  0  0  0  0
  7 12  1  0  0  0  0
 37 42  1  0  0  0  0
 17 28  1  0  0  0  0
M  END
$$$$

  -OEChem-05262214473D

 52 52  0     1  0  0  0  0  0999 V2000
   -1.8248    0.3424    3.9102 C   0  0  0  0  0  0  0  0  0  0  0  0
   -0.8774   -0.2723    3.4345 O   0  0  0  0  0  0  0  0  0  0  0  0
   -2.2566    0.0600    5.3109 C   0  0  0  0  0  0  0  0  0  0  0  0
   -3.0163   -0.7363    5.3643 H   0  0  0  0  0  0  0  0  0  0  0  0
   -1.4254   -0.2876    5.9452 H   0  0  0  0  0  0  0  0  0  0  0  0
   -2.6947    0.9149    5.8505 H   0  0  0  0  0  0  0  0  0  0  0  0
   -2.5745    1.3149    3.2691 N   0  0  0  0  0  0  0  0  0  0  0  0
   -2.3276    1.7409    1.9167 C   0  0  2  0  0  0  0  0  0  0  0  0
   -0.9926    1.1555    1.4755 C   0  0  0  0  0  0  0  0  0  0  0  0
   -0.1206    0.8028    2.2668 O   0  0  0  0  0  0  0  0  0  0  0  0
   -2.3188    3.2577    1.8072 C   0  0  0  0  0  0  0  0  0  0  0  0
   -3.3395    1.7507    3.7809 H   0  0  0  0  0  0  0  0  0  0  0  0
   -3.1317    1.3224    1.3015 H   0  0  0  0  0  0  0  0  0  0  0  0
   -1.5198    3.6949    2.4169 H   0  0  0  0  0  0  0  0  0  0  0  0
   -2.1594    3.5799    0.7729 H   0  0  0  0  0  0  0  0  0  0  0  0
   -3.2690    3.6789    2.1530 H   0  0  0  0  0  0  0  0  0  0  0  0
   -0.8700    1.1124    0.0921 N   0  0  0  0  0  0  0  0  0  0  0  0
    0.3073    0.6116   -0.5716 C   0  0  2  0  0  0  0  0  0  0  0  0
    0.1013   -0.8833   -0.7885 C   0  0  0  0  0  0  0  0  0  0  0  0
    0.8256   -1.7387   -0.2840 O   0  0  0  0  0  0  0  0  0  0  0  0
    1.5816    0.8612    0.2432 C   0  0  0  0  0  0  0  0  0  0  0  0
    1.9232    2.3268    0.3581 C   0  0  0  0  0  0  0  0  0  0  0  0
    2.5804    2.9745   -0.6880 C   0  0  0  0  0  0  0  0  0  0  0  0
    1.5813    3.0337    1.5109 C   0  0  0  0  0  0  0  0  0  0  0  0
    2.8956    4.3291   -0.5813 C   0  0  0  0  0  0  0  0  0  0  0  0
    1.8965    4.3883    1.6176 C   0  0  0  0  0  0  0  0  0  0  0  0
    2.5536    5.0360    0.5715 C   0  0  0  0  0  0  0  0  0  0  0  0
   -1.6531    1.4091   -0.4852 H   0  0  0  0  0  0  0  0  0  0  0  0
    0.3537    1.1125   -1.5457 H   0  0  0  0  0  0  0  0  0  0  0  0
    2.4281    0.3182   -0.1985 H   0  0  0  0  0  0  0  0  0  0  0  0
    1.4750    0.4526    1.2568 H   0  0  0  0  0  0  0  0  0  0  0  0
    2.8506    2.4317   -1.5900 H   0  0  0  0  0  0  0  0  0  0  0  0
    1.0691    2.5374    2.3310 H   0  0  0  0  0  0  0  0  0  0  0  0
    3.4082    4.8329   -1.3955 H   0  0  0  0  0  0  0  0  0  0  0  0
    1.6310    4.9381    2.5157 H   0  0  0  0  0  0  0  0  0  0  0  0
    2.8003    6.0904    0.6549 H   0  0  0  0  0  0  0  0  0  0  0  0
   -1.0153   -1.1459   -1.5699 N   0  0  0  0  0  0  0  0  0  0  0  0
   -1.4503   -2.4818   -1.9090 C   0  0  2  0  0  0  0  0  0  0  0  0
   -0.2478   -3.2452   -2.4483 C   0  0  0  0  0  0  0  0  0  0  0  0
    0.7403   -2.6904   -2.9247 O   0  0  0  0  0  0  0  0  0  0  0  0
   -2.5785   -2.4543   -2.9284 C   0  0  0  0  0  0  0  0  0  0  0  0
   -1.5539   -0.3596   -1.9212 H   0  0  0  0  0  0  0  0  0  0  0  0
   -1.7928   -2.9485   -0.9790 H   0  0  0  0  0  0  0  0  0  0  0  0
   -2.2541   -1.9902   -3.8669 H   0  0  0  0  0  0  0  0  0  0  0  0
   -2.9261   -3.4659   -3.1628 H   0  0  0  0  0  0  0  0  0  0  0  0
   -3.4311   -1.8797   -2.5507 H   0  0  0  0  0  0  0  0  0  0  0  0
   -0.4263   -4.6195   -2.3746 N   0  0  0  0  0  0  0  0  0  0  0  0
    0.5678   -5.5606   -2.8351 C   0  0  0  0  0  0  0  0  0  0  0  0
   -1.2692   -4.9917   -1.9471 H   0  0  0  0  0  0  0  0  0  0  0  0
    0.3621   -5.8294   -3.8817 H   0  0  0  0  0  0  0  0  0  0  0  0
    1.5659   -5.1039   -2.7633 H   0  0  0  0  0  0  0  0  0  0  0  0
    0.5329   -6.4655   -2.2106 H   0  0  0  0  0  0  0  0  0  0  0  0
 25 27  1  0  0  0  0
 26 27  2  0  0  0  0
 23 25  2  0  0  0  0
 24 26  1  0  0  0  0
 22 23  1  0  0  0  0
 22 24  2  0  0  0  0
 21 22  1  0  0  0  0
  1  3  1  0  0  0  0
  1  7  1  0  0  0  0
  1  2  2  0  0  0  0
 38 39  1  0  0  0  0
 39 47  1  0  0  0  0
 39 40  2  0  0  0  0
  8  9  1  0  0  0  0
  9 17  1  0  0  0  0
  9 10  2  0  0  0  0
 18 19  1  0  0  0  0
 19 37  1  0  0  0  0
 19 20  2  0  0  0  0
 38 41  1  0  0  0  0
  8 11  1  0  0  0  0
 47 48  1  0  0  0  0
 18 21  1  0  0  0  0
 37 38  1  0  0  0  0
  7  8  1  0  0  0  0
 17 18  1  0  0  0  0
 27 36  1  0  0  0  0
 25 34  1  0  0  0  0
 26 35  1  0  0  0  0
 23 32  1  0  0  0  0
 24 33  1  0  0  0  0
  3  4  1  0  0  0  0
  3  5  1  0  0  0  0
  3  6  1  0  0  0  0
 41 44  1  0  0  0  0
 41 45  1  0  0  0  0
 41 46  1  0  0  0  0
 11 14  1  0  0  0  0
 11 15  1  0  0  0  0
 11 16  1  0  0  0  0
 48 50  1  0  0  0  0
 48 51  1  0  0  0  0
 48 52  1  0  0  0  0
 21 30  1  0  0  0  0
 21 31  1  0  0  0  0
 38 43  1  0  0  0  0
  8 13  1  0  0  0  0
 18 29  1  0  0  0  0
 47 49  1  0  0  0  0
  7 12  1  0  0  0  0
 37 42  1  0  0  0  0
 17 28  1  0  0  0  0
M  END
$$$$

  -OEChem-05262214473D

 52 52  0     1  0  0  0  0  0999 V2000
   -1.8248    0.3424    3.9102 C   0  0  0  0  0  0  0  0  0  0  0  0
   -0.8774   -0.2723    3.4345 O   0  0  0  0  0  0  0  0  0  0  0  0
   -2.2566    0.0600    5.3109 C   0  0  0  0  0  0  0  0  0  0  0  0
   -3.0163   -0.7363    5.3643 H   0  0  0  0  0  0  0  0  0  0  0  0
   -1.4254   -0.2876    5.9452 H   0  0  0  0  0  0  0  0  0  0  0  0
   -2.6947    0.9149    5.8505 H   0  0  0  0  0  0  0  0  0  0  0  0
   -2.5745    1.3149    3.2691 N   0  0  0  0  0  0  0  0  0  0  0  0
   -2.3276    1.7409    1.9167 C   0  0  2  0  0  0  0  0  0  0  0  0
   -0.9926    1.1555    1.4755 C   0  0  0  0  0  0  0  0  0  0  0  0
   -0.1206    0.8028    2.2668 O   0  0  0  0  0  0  0  0  0  0  0  0
   -2.3188    3.2577    1.8072 C   0  0  0  0  0  0  0  0  0  0  0  0
   -3.3395    1.7507    3.7809 H   0  0  0  0  0  0  0  0  0  0  0  0
   -3.1317    1.3224    1.3015 H   0  0  0  0  0  0  0  0  0  0  0  0
   -1.5198    3.6949    2.4169 H   0  0  0  0  0  0  0  0  0  0  0  0
   -2.1594    3.5799    0.7729 H   0  0  0  0  0  0  0  0  0  0  0  0
   -3.2690    3.6789    2.1530 H   0  0  0  0  0  0  0  0  0  0  0  0
   -0.8700    1.1124    0.0921 N   0  0  0  0  0  0  0  0  0  0  0  0
    0.3073    0.6116   -0.5716 C   0  0  2  0  0  0  0  0  0  0  0  0
    0.1013   -0.8833   -0.7885 C   0  0  0  0  0  0  0  0  0  0  0  0
    0.6383   -1.7409   -0.0907 O   0  0  0  0  0  0  0  0  0  0  0  0
    1.5816    0.8612    0.2432 C   0  0  0  0  0  0  0  0  0  0  0  0
    1.9232    2.3268    0.3581 C   0  0  0  0  0  0  0  0  0  0  0  0
    2.5804    2.9745   -0.6880 C   0  0  0  0  0  0  0  0  0  0  0  0
    1.5813    3.0337    1.5109 C   0  0  0  0  0  0  0  0  0  0  0  0
    2.8956    4.3291   -0.5813 C   0  0  0  0  0  0  0  0  0  0  0  0
    1.8965    4.3883    1.6176 C   0  0  0  0  0  0  0  0  0  0  0  0
    2.5536    5.0360    0.5715 C   0  0  0  0  0  0  0  0  0  0  0  0
   -1.6531    1.4091   -0.4852 H   0  0  0  0  0  0  0  0  0  0  0  0
    0.3537    1.1125   -1.5457 H   0  0  0  0  0  0  0  0  0  0  0  0
    2.4281    0.3182   -0.1985 H   0  0  0  0  0  0  0  0  0  0  0  0
    1.4750    0.4526    1.2568 H   0  0  0  0  0  0  0  0  0  0  0  0
    2.8506    2.4317   -1.5900 H   0  0  0  0  0  0  0  0  0  0  0  0
    1.0691    2.5374    2.3310 H   0  0  0  0  0  0  0  0  0  0  0  0
    3.4082    4.8329   -1.3955 H   0  0  0  0  0  0  0  0  0  0  0  0
    1.6310    4.9381    2.5157 H   0  0  0  0  0  0  0  0  0  0  0  0
    2.8003    6.0904    0.6549 H   0  0  0  0  0  0  0  0  0  0  0  0
   -0.7910   -1.1405   -1.8200 N   0  0  0  0  0  0  0  0  0  0  0  0
   -1.1808   -2.4741   -2.2181 C   0  0  2  0  0  0  0  0  0  0  0  0
    0.0864   -3.2967   -2.4103 C   0  0  0  0  0  0  0  0  0  0  0  0
    1.1850   -2.7936   -2.6361 O   0  0  0  0  0  0  0  0  0  0  0  0
   -2.0121   -2.4507   -3.4913 C   0  0  0  0  0  0  0  0  0  0  0  0
   -1.1902   -0.3518   -2.3204 H   0  0  0  0  0  0  0  0  0  0  0  0
   -1.7666   -2.8921   -1.3921 H   0  0  0  0  0  0  0  0  0  0  0  0
   -1.4419   -2.0350   -4.3300 H   0  0  0  0  0  0  0  0  0  0  0  0
   -2.3306   -3.4590   -3.7757 H   0  0  0  0  0  0  0  0  0  0  0  0
   -2.9080   -1.8343   -3.3605 H   0  0  0  0  0  0  0  0  0  0  0  0
   -0.1616   -4.6606   -2.3430 N   0  0  0  0  0  0  0  0  0  0  0  0
    0.8769   -5.6509   -2.5067 C   0  0  0  0  0  0  0  0  0  0  0  0
   -1.0999   -4.9881   -2.1329 H   0  0  0  0  0  0  0  0  0  0  0  0
    0.9319   -5.9542   -3.5626 H   0  0  0  0  0  0  0  0  0  0  0  0
    1.8424   -5.2241   -2.1971 H   0  0  0  0  0  0  0  0  0  0  0  0
    0.6477   -6.5287   -1.8846 H   0  0  0  0  0  0  0  0  0  0  0  0
 25 27  1  0  0  0  0
 26 27  2  0  0  0  0
 23 25  2  0  0  0  0
 24 26  1  0  0  0  0
 22 23  1  0  0  0  0
 22 24  2  0  0  0  0
 21 22  1  0  0  0  0
  1  3  1  0  0  0  0
  1  7  1  0  0  0  0
  1  2  2  0  0  0  0
 38 39  1  0  0  0  0
 39 47  1  0  0  0  0
 39 40  2  0  0  0  0
  8  9  1  0  0  0  0
  9 17  1  0  0  0  0
  9 10  2  0  0  0  0
 18 19  1  0  0  0  0
 19 37  1  0  0  0  0
 19 20  2  0  0  0  0
 38 41  1  0  0  0  0
  8 11  1  0  0  0  0
 47 48  1  0  0  0  0
 18 21  1  0  0  0  0
 37 38  1  0  0  0  0
  7  8  1  0  0  0  0
 17 18  1  0  0  0  0
 27 36  1  0  0  0  0
 25 34  1  0  0  0  0
 26 35  1  0  0  0  0
 23 32  1  0  0  0  0
 24 33  1  0  0  0  0
  3  4  1  0  0  0  0
  3  5  1  0  0  0  0
  3  6  1  0  0  0  0
 41 44  1  0  0  0  0
 41 45  1  0  0  0  0
 41 46  1  0  0  0  0
 11 14  1  0  0  0  0
 11 15  1  0  0  0  0
 11 16  1  0  0  0  0
 48 50  1  0  0  0  0
 48 51  1  0  0  0  0
 48 52  1  0  0  0  0
 21 30  1  0  0  0  0
 21 31  1  0  0  0  0
 38 43  1  0  0  0  0
  8 13  1  0  0  0  0
 18 29  1  0  0  0  0
 47 49  1  0  0  0  0
  7 12  1  0  0  0  0
 37 42  1  0  0  0  0
 17 28  1  0  0  0  0
M  END
$$$$

  -OEChem-05262214473D

 52 52  0     1  0  0  0  0  0999 V2000
   -1.8248    0.3424    3.9102 C   0  0  0  0  0  0  0  0  0  0  0  0
   -0.8774   -0.2723    3.4345 O   0  0  0  0  0  0  0  0  0  0  0  0
   -2.2566    0.0600    5.3109 C   0  0  0  0  0  0  0  0  0  0  0  0
   -3.0163   -0.7363    5.3643 H   0  0  0  0  0  0  0  0  0  0  0  0
   -1.4254   -0.2876    5.9452 H   0  0  0  0  0  0  0  0  0  0  0  0
   -2.6947    0.9149    5.8505 H   0  0  0  0  0  0  0  0  0  0  0  0
   -2.5745    1.3149    3.2691 N   0  0  0  0  0  0  0  0  0  0  0  0
   -2.3276    1.7409    1.9167 C   0  0  2  0  0  0  0  0  0  0  0  0
   -0.9926    1.1555    1.4755 C   0  0  0  0  0  0  0  0  0  0  0  0
   -0.1206    0.8028    2.2668 O   0  0  0  0  0  0  0  0  0  0  0  0
   -2.3188    3.2577    1.8072 C   0  0  0  0  0  0  0  0  0  0  0  0
   -3.3395    1.7507    3.7809 H   0  0  0  0  0  0  0  0  0  0  0  0
   -3.1317    1.3224    1.3015 H   0  0  0  0  0  0  0  0  0  0  0  0
   -1.5198    3.6949    2.4169 H   0  0  0  0  0  0  0  0  0  0  0  0
   -2.1594    3.5799    0.7729 H   0  0  0  0  0  0  0  0  0  0  0  0
   -3.2690    3.6789    2.1530 H   0  0  0  0  0  0  0  0  0  0  0  0
   -0.8700    1.1124    0.0921 N   0  0  0  0  0  0  0  0  0  0  0  0
    0.3073    0.6116   -0.5716 C   0  0  2  0  0  0  0  0  0  0  0  0
    0.1013   -0.8833   -0.7885 C   0  0  0  0  0  0  0  0  0  0  0  0
    0.4083   -1.7294    0.0486 O   0  0  0  0  0  0  0  0  0  0  0  0
    1.5816    0.8612    0.2432 C   0  0  0  0  0  0  0  0  0  0  0  0
    1.9232    2.3268    0.3581 C   0  0  0  0  0  0  0  0  0  0  0  0
    2.5804    2.9745   -0.6880 C   0  0  0  0  0  0  0  0  0  0  0  0
    1.5813    3.0337    1.5109 C   0  0  0  0  0  0  0  0  0  0  0  0
    2.8956    4.3291   -0.5813 C   0  0  0  0  0  0  0  0  0  0  0  0
    1.8965    4.3883    1.6176 C   0  0  0  0  0  0  0  0  0  0  0  0
    2.5536    5.0360    0.5715 C   0  0  0  0  0  0  0  0  0  0  0  0
   -1.6531    1.4091   -0.4852 H   0  0  0  0  0  0  0  0  0  0  0  0
    0.3537    1.1125   -1.5457 H   0  0  0  0  0  0  0  0  0  0  0  0
    2.4281    0.3182   -0.1985 H   0  0  0  0  0  0  0  0  0  0  0  0
    1.4750    0.4526    1.2568 H   0  0  0  0  0  0  0  0  0  0  0  0
    2.8506    2.4317   -1.5900 H   0  0  0  0  0  0  0  0  0  0  0  0
    1.0691    2.5374    2.3310 H   0  0  0  0  0  0  0  0  0  0  0  0
    3.4082    4.8329   -1.3955 H   0  0  0  0  0  0  0  0  0  0  0  0
    1.6310    4.9381    2.5157 H   0  0  0  0  0  0  0  0  0  0  0  0
    2.8003    6.0904    0.6549 H   0  0  0  0  0  0  0  0  0  0  0  0
   -0.5107   -1.1523   -2.0048 N   0  0  0  0  0  0  0  0  0  0  0  0
   -0.8418   -2.4874   -2.4485 C   0  0  2  0  0  0  0  0  0  0  0  0
    0.3976   -3.3575   -2.2870 C   0  0  0  0  0  0  0  0  0  0  0  0
    1.5374   -2.8995   -2.2410 O   0  0  0  0  0  0  0  0  0  0  0  0
   -1.3220   -2.4878   -3.8914 C   0  0  0  0  0  0  0  0  0  0  0  0
   -0.7373   -0.3716   -2.6139 H   0  0  0  0  0  0  0  0  0  0  0  0
   -1.6343   -2.8532   -1.7865 H   0  0  0  0  0  0  0  0  0  0  0  0
   -0.5414   -2.1243   -4.5696 H   0  0  0  0  0  0  0  0  0  0  0  0
   -1.5995   -3.4958   -4.2169 H   0  0  0  0  0  0  0  0  0  0  0  0
   -2.1956   -1.8380   -4.0116 H   0  0  0  0  0  0  0  0  0  0  0  0
    0.0845   -4.7089   -2.2438 N   0  0  0  0  0  0  0  0  0  0  0  0
    1.0888   -5.7379   -2.1078 C   0  0  0  0  0  0  0  0  0  0  0  0
   -0.8891   -4.9973   -2.2696 H   0  0  0  0  0  0  0  0  0  0  0  0
    1.3967   -6.0846   -3.1053 H   0  0  0  0  0  0  0  0  0  0  0  0
    1.9613   -5.3306   -1.5759 H   0  0  0  0  0  0  0  0  0  0  0  0
    0.6736   -6.5825   -1.5383 H   0  0  0  0  0  0  0  0  0  0  0  0
 25 27  1  0  0  0  0
 26 27  2  0  0  0  0
 23 25  2  0  0  0  0
 24 26  1  0  0  0  0
 22 23  1  0  0  0  0
 22 24  2  0  0  0  0
 21 22  1  0  0  0  0
  1  3  1  0  0  0  0
  1  7  1  0  0  0  0
  1  2  2  0  0  0  0
 38 39  1  0  0  0  0
 39 47  1  0  0  0  0
 39 40  2  0  0  0  0
  8  9  1  0  0  0  0
  9 17  1  0  0  0  0
  9 10  2  0  0  0  0
 18 19  1  0  0  0  0
 19 37  1  0  0  0  0
 19 20  2  0  0  0  0
 38 41  1  0  0  0  0
  8 11  1  0  0  0  0
 47 48  1  0  0  0  0
 18 21  1  0  0  0  0
 37 38  1  0  0  0  0
  7  8  1  0  0  0  0
 17 18  1  0  0  0  0
 27 36  1  0  0  0  0
 25 34  1  0  0  0  0
 26 35  1  0  0  0  0
 23 32  1  0  0  0  0
 24 33  1  0  0  0  0
  3  4  1  0  0  0  0
  3  5  1  0  0  0  0
  3  6  1  0  0  0  0
 41 44  1  0  0  0  0
 41 45  1  0  0  0  0
 41 46  1  0  0  0  0
 11 14  1  0  0  0  0
 11 15  1  0  0  0  0
 11 16  1  0  0  0  0
 48 50  1  0  0  0  0
 48 51  1  0  0  0  0
 48 52  1  0  0  0  0
 21 30  1  0  0  0  0
 21 31  1  0  0  0  0
 38 43  1  0  0  0  0
  8 13  1  0  0  0  0
 18 29  1  0  0  0  0
 47 49  1  0  0  0  0
  7 12  1  0  0  0  0
 37 42  1  0  0  0  0
 17 28  1  0  0  0  0
M  END
$$$$

  -OEChem-05262214473D

 52 52  0     1  0  0  0  0  0999 V2000
   -1.8248    0.3424    3.9102 C   0  0  0  0  0  0  0  0  0  0  0  0
   -0.8774   -0.2723    3.4345 O   0  0  0  0  0  0  0  0  0  0  0  0
   -2.2566    0.0600    5.3109 C   0  0  0  0  0  0  0  0  0  0  0  0
   -3.0163   -0.7363    5.3643 H   0  0  0  0  0  0  0  0  0  0  0  0
   -1.4254   -0.2876    5.9452 H   0  0  0  0  0  0  0  0  0  0  0  0
   -2.6947    0.9149    5.8505 H   0  0  0  0  0  0  0  0  0  0  0  0
   -2.5745    1.3149    3.2691 N   0  0  0  0  0  0  0  0  0  0  0  0
   -2.3276    1.7409    1.9167 C   0  0  2  0  0  0  0  0  0  0  0  0
   -0.9926    1.1555    1.4755 C   0  0  0  0  0  0  0  0  0  0  0  0
   -0.1206    0.8028    2.2668 O   0  0  0  0  0  0  0  0  0  0  0  0
   -2.3188    3.2577    1.8072 C   0  0  0  0  0  0  0  0  0  0  0  0
   -3.3395    1.7507    3.7809 H   0  0  0  0  0  0  0  0  0  0  0  0
   -3.1317    1.3224    1.3015 H   0  0  0  0  0  0  0  0  0  0  0  0
   -1.5198    3.6949    2.4169 H   0  0  0  0  0  0  0  0  0  0  0  0
   -2.1594    3.5799    0.7729 H   0  0  0  0  0  0  0  0  0  0  0  0
   -3.2690    3.6789    2.1530 H   0  0  0  0  0  0  0  0  0  0  0  0
   -0.8700    1.1124    0.0921 N   0  0  0  0  0  0  0  0  0  0  0  0
    0.3073    0.6116   -0.5716 C   0  0  2  0  0  0  0  0  0  0  0  0
    0.1013   -0.8833   -0.7885 C   0  0  0  0  0  0  0  0  0  0  0  0
    0.1511   -1.7050    0.1243 O   0  0  0  0  0  0  0  0  0  0  0  0
    1.5816    0.8612    0.2432 C   0  0  0  0  0  0  0  0  0  0  0  0
    1.9232    2.3268    0.3581 C   0  0  0  0  0  0  0  0  0  0  0  0
    2.5804    2.9745   -0.6880 C   0  0  0  0  0  0  0  0  0  0  0  0
    1.5813    3.0337    1.5109 C   0  0  0  0  0  0  0  0  0  0  0  0
    2.8956    4.3291   -0.5813 C   0  0  0  0  0  0  0  0  0  0  0  0
    1.8965    4.3883    1.6176 C   0  0  0  0  0  0  0  0  0  0  0  0
    2.5536    5.0360    0.5715 C   0  0  0  0  0  0  0  0  0  0  0  0
   -1.6531    1.4091   -0.4852 H   0  0  0  0  0  0  0  0  0  0  0  0
    0.3537    1.1125   -1.5457 H   0  0  0  0  0  0  0  0  0  0  0  0
    2.4281    0.3182   -0.1985 H   0  0  0  0  0  0  0  0  0  0  0  0
    1.4750    0.4526    1.2568 H   0  0  0  0  0  0  0  0  0  0  0  0
    2.8506    2.4317   -1.5900 H   0  0  0  0  0  0  0  0  0  0  0  0
    1.0691    2.5374    2.3310 H   0  0  0  0  0  0  0  0  0  0  0  0
    3.4082    4.8329   -1.3955 H   0  0  0  0  0  0  0  0  0  0  0  0
    1.6310    4.9381    2.5157 H   0  0  0  0  0  0  0  0  0  0  0  0
    2.8003    6.0904    0.6549 H   0  0  0  0  0  0  0  0  0  0  0  0
   -0.1934   -1.1805   -2.1118 N   0  0  0  0  0  0  0  0  0  0  0  0
   -0.4564   -2.5208   -2.5845 C   0  0  2  0  0  0  0  0  0  0  0  0
    0.6648   -3.4234   -2.0868 C   0  0  0  0  0  0  0  0  0  0  0  0
    1.7737   -3.0010   -1.7661 O   0  0  0  0  0  0  0  0  0  0  0  0
   -0.5553   -2.5630   -4.1015 C   0  0  0  0  0  0  0  0  0  0  0  0
   -0.2260   -0.4177   -2.7818 H   0  0  0  0  0  0  0  0  0  0  0  0
   -1.4050   -2.8342   -2.1353 H   0  0  0  0  0  0  0  0  0  0  0  0
    0.3859   -2.2522   -4.5694 H   0  0  0  0  0  0  0  0  0  0  0  0
   -0.7828   -3.5736   -4.4563 H   0  0  0  0  0  0  0  0  0  0  0  0
   -1.3424   -1.8906   -4.4596 H   0  0  0  0  0  0  0  0  0  0  0  0
    0.2953   -4.7612   -2.0838 N   0  0  0  0  0  0  0  0  0  0  0  0
    1.1891   -5.8159   -1.6658 C   0  0  0  0  0  0  0  0  0  0  0  0
   -0.6511   -5.0188   -2.3478 H   0  0  0  0  0  0  0  0  0  0  0  0
    1.7249   -6.2117   -2.5412 H   0  0  0  0  0  0  0  0  0  0  0  0
    1.9145   -5.4162   -0.9419 H   0  0  0  0  0  0  0  0  0  0  0  0
    0.6086   -6.6233   -1.1954 H   0  0  0  0  0  0  0  0  0  0  0  0
 25 27  1  0  0  0  0
 26 27  2  0  0  0  0
 23 25  2  0  0  0  0
 24 26  1  0  0  0  0
 22 23  1  0  0  0  0
 22 24  2  0  0  0  0
 21 22  1  0  0  0  0
  1  3  1  0  0  0  0
  1  7  1  0  0  0  0
  1  2  2  0  0  0  0
 38 39  1  0  0  0  0
 39 47  1  0  0  0  0
 39 40  2  0  0  0  0
  8  9  1  0  0  0  0
  9 17  1  0  0  0  0
  9 10  2  0  0  0  0
 18 19  1  0  0  0  0
 19 37  1  0  0  0  0
 19 20  2  0  0  0  0
 38 41  1  0  0  0  0
  8 11  1  0  0  0  0
 47 48  1  0  0  0  0
 18 21  1  0  0  0  0
 37 38  1  0  0  0  0
  7  8  1  0  0  0  0
 17 18  1  0  0  0  0
 27 36  1  0  0  0  0
 25 34  1  0  0  0  0
 26 35  1  0  0  0  0
 23 32  1  0  0  0  0
 24 33  1  0  0  0  0
  3  4  1  0  0  0  0
  3  5  1  0  0  0  0
  3  6  1  0  0  0  0
 41 44  1  0  0  0  0
 41 45  1  0  0  0  0
 41 46  1  0  0  0  0
 11 14  1  0  0  0  0
 11 15  1  0  0  0  0
 11 16  1  0  0  0  0
 48 50  1  0  0  0  0
 48 51  1  0  0  0  0
 48 52  1  0  0  0  0
 21 30  1  0  0  0  0
 21 31  1  0  0  0  0
 38 43  1  0  0  0  0
  8 13  1  0  0  0  0
 18 29  1  0  0  0  0
 47 49  1  0  0  0  0
  7 12  1  0  0  0  0
 37 42  1  0  0  0  0
 17 28  1  0  0  0  0
M  END
$$$$

  -OEChem-05262214473D

 52 52  0     1  0  0  0  0  0999 V2000
   -1.8248    0.3424    3.9102 C   0  0  0  0  0  0  0  0  0  0  0  0
   -0.8774   -0.2723    3.4345 O   0  0  0  0  0  0  0  0  0  0  0  0
   -2.2566    0.0600    5.3109 C   0  0  0  0  0  0  0  0  0  0  0  0
   -3.0163   -0.7363    5.3643 H   0  0  0  0  0  0  0  0  0  0  0  0
   -1.4254   -0.2876    5.9452 H   0  0  0  0  0  0  0  0  0  0  0  0
   -2.6947    0.9149    5.8505 H   0  0  0  0  0  0  0  0  0  0  0  0
   -2.5745    1.3149    3.2691 N   0  0  0  0  0  0  0  0  0  0  0  0
   -2.3276    1.7409    1.9167 C   0  0  2  0  0  0  0  0  0  0  0  0
   -0.9926    1.1555    1.4755 C   0  0  0  0  0  0  0  0  0  0  0  0
   -0.1206    0.8028    2.2668 O   0  0  0  0  0  0  0  0  0  0  0  0
   -2.3188    3.2577    1.8072 C   0  0  0  0  0  0  0  0  0  0  0  0
   -3.3395    1.7507    3.7809 H   0  0  0  0  0  0  0  0  0  0  0  0
   -3.1317    1.3224    1.3015 H   0  0  0  0  0  0  0  0  0  0  0  0
   -1.5198    3.6949    2.4169 H   0  0  0  0  0  0  0  0  0  0  0  0
   -2.1594    3.5799    0.7729 H   0  0  0  0  0  0  0  0  0  0  0  0
   -3.2690    3.6789    2.1530 H   0  0  0  0  0  0  0  0  0  0  0  0
   -0.8700    1.1124    0.0921 N   0  0  0  0  0  0  0  0  0  0  0  0
    0.3073    0.6116   -0.5716 C   0  0  2  0  0  0  0  0  0  0  0  0
    0.1013   -0.8833   -0.7885 C   0  0  0  0  0  0  0  0  0  0  0  0
   -0.1156   -1.6692    0.1314 O   0  0  0  0  0  0  0  0  0  0  0  0
    1.5816    0.8612    0.2432 C   0  0  0  0  0  0  0  0  0  0  0  0
    1.9232    2.3268    0.3581 C   0  0  0  0  0  0  0  0  0  0  0  0
    2.5804    2.9745   -0.6880 C   0  0  0  0  0  0  0  0  0  0  0  0
    1.5813    3.0337    1.5109 C   0  0  0  0  0  0  0  0  0  0  0  0
    2.8956    4.3291   -0.5813 C   0  0  0  0  0  0  0  0  0  0  0  0
    1.8965    4.3883    1.6176 C   0  0  0  0  0  0  0  0  0  0  0  0
    2.5536    5.0360    0.5715 C   0  0  0  0  0  0  0  0  0  0  0  0
   -1.6531    1.4091   -0.4852 H   0  0  0  0  0  0  0  0  0  0  0  0
    0.3537    1.1125   -1.5457 H   0  0  0  0  0  0  0  0  0  0  0  0
    2.4281    0.3182   -0.1985 H   0  0  0  0  0  0  0  0  0  0  0  0
    1.4750    0.4526    1.2568 H   0  0  0  0  0  0  0  0  0  0  0  0
    2.8506    2.4317   -1.5900 H   0  0  0  0  0  0  0  0  0  0  0  0
    1.0691    2.5374    2.3310 H   0  0  0  0  0  0  0  0  0  0  0  0
    3.4082    4.8329   -1.3955 H   0  0  0  0  0  0  0  0  0  0  0  0
    1.6310    4.9381    2.5157 H   0  0  0  0  0  0  0  0  0  0  0  0
    2.8003    6.0904    0.6549 H   0  0  0  0  0  0  0  0  0  0  0  0
    0.1391   -1.2232   -2.1336 N   0  0  0  0  0  0  0  0  0  0  0  0
   -0.0508   -2.5720   -2.6170 C   0  0  2  0  0  0  0  0  0  0  0  0
    0.8696   -3.4899   -1.8233 C   0  0  0  0  0  0  0  0  0  0  0  0
    1.8777   -3.0911   -1.2439 O   0  0  0  0  0  0  0  0  0  0  0  0
    0.2359   -2.6712   -4.1072 C   0  0  0  0  0  0  0  0  0  0  0  0
    0.3088   -0.4870   -2.8126 H   0  0  0  0  0  0  0  0  0  0  0  0
   -1.0944   -2.8364   -2.4146 H   0  0  0  0  0  0  0  0  0  0  0  0
    1.2769   -2.4098   -4.3293 H   0  0  0  0  0  0  0  0  0  0  0  0
    0.0640   -3.6873   -4.4774 H   0  0  0  0  0  0  0  0  0  0  0  0
   -0.4064   -1.9885   -4.6739 H   0  0  0  0  0  0  0  0  0  0  0  0
    0.4564   -4.8138   -1.8740 N   0  0  0  0  0  0  0  0  0  0  0  0
    1.1709   -5.8794   -1.2106 C   0  0  0  0  0  0  0  0  0  0  0  0
   -0.4022   -5.0510   -2.3621 H   0  0  0  0  0  0  0  0  0  0  0  0
    1.8939   -6.3268   -1.9085 H   0  0  0  0  0  0  0  0  0  0  0  0
    1.7053   -5.4749   -0.3384 H   0  0  0  0  0  0  0  0  0  0  0  0
    0.4574   -6.6483   -0.8792 H   0  0  0  0  0  0  0  0  0  0  0  0
 25 27  1  0  0  0  0
 26 27  2  0  0  0  0
 23 25  2  0  0  0  0
 24 26  1  0  0  0  0
 22 23  1  0  0  0  0
 22 24  2  0  0  0  0
 21 22  1  0  0  0  0
  1  3  1  0  0  0  0
  1  7  1  0  0  0  0
  1  2  2  0  0  0  0
 38 39  1  0  0  0  0
 39 47  1  0  0  0  0
 39 40  2  0  0  0  0
  8  9  1  0  0  0  0
  9 17  1  0  0  0  0
  9 10  2  0  0  0  0
 18 19  1  0  0  0  0
 19 37  1  0  0  0  0
 19 20  2  0  0  0  0
 38 41  1  0  0  0  0
  8 11  1  0  0  0  0
 47 48  1  0  0  0  0
 18 21  1  0  0  0  0
 37 38  1  0  0  0  0
  7  8  1  0  0  0  0
 17 18  1  0  0  0  0
 27 36  1  0  0  0  0
 25 34  1  0  0  0  0
 26 35  1  0  0  0  0
 23 32  1  0  0  0  0
 24 33  1  0  0  0  0
  3  4  1  0  0  0  0
  3  5  1  0  0  0  0
  3  6  1  0  0  0  0
 41 44  1  0  0  0  0
 41 45  1  0  0  0  0
 41 46  1  0  0  0  0
 11 14  1  0  0  0  0
 11 15  1  0  0  0  0
 11 16  1  0  0  0  0
 48 50  1  0  0  0  0
 48 51  1  0  0  0  0
 48 52  1  0  0  0  0
 21 30  1  0  0  0  0
 21 31  1  0  0  0  0
 38 43  1  0  0  0  0
  8 13  1  0  0  0  0
 18 29  1  0  0  0  0
 47 49  1  0  0  0  0
  7 12  1  0  0  0  0
 37 42  1  0  0  0  0
 17 28  1  0  0  0  0
M  END
$$$$

  -OEChem-05262214473D

 52 52  0     1  0  0  0  0  0999 V2000
   -1.8248    0.3424    3.9102 C   0  0  0  0  0  0  0  0  0  0  0  0
   -0.8774   -0.2723    3.4345 O   0  0  0  0  0  0  0  0  0  0  0  0
   -2.2566    0.0600    5.3109 C   0  0  0  0  0  0  0  0  0  0  0  0
   -3.0163   -0.7363    5.3643 H   0  0  0  0  0  0  0  0  0  0  0  0
   -1.4254   -0.2876    5.9452 H   0  0  0  0  0  0  0  0  0  0  0  0
   -2.6947    0.9149    5.8505 H   0  0  0  0  0  0  0  0  0  0  0  0
   -2.5745    1.3149    3.2691 N   0  0  0  0  0  0  0  0  0  0  0  0
   -2.3276    1.7409    1.9167 C   0  0  2  0  0  0  0  0  0  0  0  0
   -0.9926    1.1555    1.4755 C   0  0  0  0  0  0  0  0  0  0  0  0
   -0.1206    0.8028    2.2668 O   0  0  0  0  0  0  0  0  0  0  0  0
   -2.3188    3.2577    1.8072 C   0  0  0  0  0  0  0  0  0  0  0  0
   -3.3395    1.7507    3.7809 H   0  0  0  0  0  0  0  0  0  0  0  0
   -3.1317    1.3224    1.3015 H   0  0  0  0  0  0  0  0  0  0  0  0
   -1.5198    3.6949    2.4169 H   0  0  0  0  0  0  0  0  0  0  0  0
   -2.1594    3.5799    0.7729 H   0  0  0  0  0  0  0  0  0  0  0  0
   -3.2690    3.6789    2.1530 H   0  0  0  0  0  0  0  0  0  0  0  0
   -0.8700    1.1124    0.0921 N   0  0  0  0  0  0  0  0  0  0  0  0
    0.3073    0.6116   -0.5716 C   0  0  2  0  0  0  0  0  0  0  0  0
    0.1013   -0.8833   -0.7885 C   0  0  0  0  0  0  0  0  0  0  0  0
   -0.3736   -1.6246    0.0693 O   0  0  0  0  0  0  0  0  0  0  0  0
    1.5816    0.8612    0.2432 C   0  0  0  0  0  0  0  0  0  0  0  0
    1.9232    2.3268    0.3581 C   0  0  0  0  0  0  0  0  0  0  0  0
    2.5804    2.9745   -0.6880 C   0  0  0  0  0  0  0  0  0  0  0  0
    1.5813    3.0337    1.5109 C   0  0  0  0  0  0  0  0  0  0  0  0
    2.8956    4.3291   -0.5813 C   0  0  0  0  0  0  0  0  0  0  0  0
    1.8965    4.3883    1.6176 C   0  0  0  0  0  0  0  0  0  0  0  0
    2.5536    5.0360    0.5715 C   0  0  0  0  0  0  0  0  0  0  0  0
   -1.6531    1.4091   -0.4852 H   0  0  0  0  0  0  0  0  0  0  0  0
    0.3537    1.1125   -1.5457 H   0  0  0  0  0  0  0  0  0  0  0  0
    2.4281    0.3182   -0.1985 H   0  0  0  0  0  0  0  0  0  0  0  0
    1.4750    0.4526    1.2568 H   0  0  0  0  0  0  0  0  0  0  0  0
    2.8506    2.4317   -1.5900 H   0  0  0  0  0  0  0  0  0  0  0  0
    1.0691    2.5374    2.3310 H   0  0  0  0  0  0  0  0  0  0  0  0
    3.4082    4.8329   -1.3955 H   0  0  0  0  0  0  0  0  0  0  0  0
    1.6310    4.9381    2.5157 H   0  0  0  0  0  0  0  0  0  0  0  0
    2.8003    6.0904    0.6549 H   0  0  0  0  0  0  0  0  0  0  0  0
    0.4643   -1.2774   -2.0688 N   0  0  0  0  0  0  0  0  0  0  0  0
    0.3474   -2.6375   -2.5436 C   0  0  2  0  0  0  0  0  0  0  0  0
    0.9981   -3.5524   -1.5145 C   0  0  0  0  0  0  0  0  0  0  0  0
    1.8423   -3.1636   -0.7100 O   0  0  0  0  0  0  0  0  0  0  0  0
    0.9975   -2.8051   -3.9081 C   0  0  0  0  0  0  0  0  0  0  0  0
    0.8306   -0.5746   -2.7042 H   0  0  0  0  0  0  0  0  0  0  0  0
   -0.7235   -2.8599   -2.6055 H   0  0  0  0  0  0  0  0  0  0  0  0
    2.0708   -2.5865   -3.8659 H   0  0  0  0  0  0  0  0  0  0  0  0
    0.8831   -3.8290   -4.2790 H   0  0  0  0  0  0  0  0  0  0  0  0
    0.5484   -2.1250   -4.6400 H   0  0  0  0  0  0  0  0  0  0  0  0
    0.5568   -4.8633   -1.6286 N   0  0  0  0  0  0  0  0  0  0  0  0
    1.0354   -5.9242   -0.7733 C   0  0  0  0  0  0  0  0  0  0  0  0
   -0.1593   -5.0918   -2.3117 H   0  0  0  0  0  0  0  0  0  0  0  0
    1.8925   -6.4221   -1.2504 H   0  0  0  0  0  0  0  0  0  0  0  0
    1.3480   -5.5028    0.1935 H   0  0  0  0  0  0  0  0  0  0  0  0
    0.2302   -6.6558   -0.6113 H   0  0  0  0  0  0  0  0  0  0  0  0
 25 27  1  0  0  0  0
 26 27  2  0  0  0  0
 23 25  2  0  0  0  0
 24 26  1  0  0  0  0
 22 23  1  0  0  0  0
 22 24  2  0  0  0  0
 21 22  1  0  0  0  0
  1  3  1  0  0  0  0
  1  7  1  0  0  0  0
  1  2  2  0  0  0  0
 38 39  1  0  0  0  0
 39 47  1  0  0  0  0
 39 40  2  0  0  0  0
  8  9  1  0  0  0  0
  9 17  1  0  0  0  0
  9 10  2  0  0  0  0
 18 19  1  0  0  0  0
 19 37  1  0  0  0  0
 19 20  2  0  0  0  0
 38 41  1  0  0  0  0
  8 11  1  0  0  0  0
 47 48  1  0  0  0  0
 18 21  1  0  0  0  0
 37 38  1  0  0  0  0
  7  8  1  0  0  0  0
 17 18  1  0  0  0  0
 27 36  1  0  0  0  0
 25 34  1  0  0  0  0
 26 35  1  0  0  0  0
 23 32  1  0  0  0  0
 24 33  1  0  0  0  0
  3  4  1  0  0  0  0
  3  5  1  0  0  0  0
  3  6  1  0  0  0  0
 41 44  1  0  0  0  0
 41 45  1  0  0  0  0
 41 46  1  0  0  0  0
 11 14  1  0  0  0  0
 11 15  1  0  0  0  0
 11 16  1  0  0  0  0
 48 50  1  0  0  0  0
 48 51  1  0  0  0  0
 48 52  1  0  0  0  0
 21 30  1  0  0  0  0
 21 31  1  0  0  0  0
 38 43  1  0  0  0  0
  8 13  1  0  0  0  0
 18 29  1  0  0  0  0
 47 49  1  0  0  0  0
  7 12  1  0  0  0  0
 37 42  1  0  0  0  0
 17 28  1  0  0  0  0
M  END
$$$$

  -OEChem-05262214473D

 52 52  0     1  0  0  0  0  0999 V2000
   -1.8248    0.3424    3.9102 C   0  0  0  0  0  0  0  0  0  0  0  0
   -0.8774   -0.2723    3.4345 O   0  0  0  0  0  0  0  0  0  0  0  0
   -2.2566    0.0600    5.3109 C   0  0  0  0  0  0  0  0  0  0  0  0
   -3.0163   -0.7363    5.3643 H   0  0  0  0  0  0  0  0  0  0  0  0
   -1.4254   -0.2876    5.9452 H   0  0  0  0  0  0  0  0  0  0  0  0
   -2.6947    0.9149    5.8505 H   0  0  0  0  0  0  0  0  0  0  0  0
   -2.5745    1.3149    3.2691 N   0  0  0  0  0  0  0  0  0  0  0  0
   -2.3276    1.7409    1.9167 C   0  0  2  0  0  0  0  0  0  0  0  0
   -0.9926    1.1555    1.4755 C   0  0  0  0  0  0  0  0  0  0  0  0
   -0.1206    0.8028    2.2668 O   0  0  0  0  0  0  0  0  0  0  0  0
   -2.3188    3.2577    1.8072 C   0  0  0  0  0  0  0  0  0  0  0  0
   -3.3395    1.7507    3.7809 H   0  0  0  0  0  0  0  0  0  0  0  0
   -3.1317    1.3224    1.3015 H   0  0  0  0  0  0  0  0  0  0  0  0
   -1.5198    3.6949    2.4169 H   0  0  0  0  0  0  0  0  0  0  0  0
   -2.1594    3.5799    0.7729 H   0  0  0  0  0  0  0  0  0  0  0  0
   -3.2690    3.6789    2.1530 H   0  0  0  0  0  0  0  0  0  0  0  0
   -0.8700    1.1124    0.0921 N   0  0  0  0  0  0  0  0  0  0  0  0
    0.3073    0.6116   -0.5716 C   0  0  2  0  0  0  0  0  0  0  0  0
    0.1013   -0.8833   -0.7885 C   0  0  0  0  0  0  0  0  0  0  0  0
   -0.6055   -1.5743   -0.0578 O   0  0  0  0  0  0  0  0  0  0  0  0
    1.5816    0.8612    0.2432 C   0  0  0  0  0  0  0  0  0  0  0  0
    1.9232    2.3268    0.3581 C   0  0  0  0  0  0  0  0  0  0  0  0
    2.5804    2.9745   -0.6880 C   0  0  0  0  0  0  0  0  0  0  0  0
    1.5813    3.0337    1.5109 C   0  0  0  0  0  0  0  0  0  0  0  0
    2.8956    4.3291   -0.5813 C   0  0  0  0  0  0  0  0  0  0  0  0
    1.8965    4.3883    1.6176 C   0  0  0  0  0  0  0  0  0  0  0  0
    2.5536    5.0360    0.5715 C   0  0  0  0  0  0  0  0  0  0  0  0
   -1.6531    1.4091   -0.4852 H   0  0  0  0  0  0  0  0  0  0  0  0
    0.3537    1.1125   -1.5457 H   0  0  0  0  0  0  0  0  0  0  0  0
    2.4281    0.3182   -0.1985 H   0  0  0  0  0  0  0  0  0  0  0  0
    1.4750    0.4526    1.2568 H   0  0  0  0  0  0  0  0  0  0  0  0
    2.8506    2.4317   -1.5900 H   0  0  0  0  0  0  0  0  0  0  0  0
    1.0691    2.5374    2.3310 H   0  0  0  0  0  0  0  0  0  0  0  0
    3.4082    4.8329   -1.3955 H   0  0  0  0  0  0  0  0  0  0  0  0
    1.6310    4.9381    2.5157 H   0  0  0  0  0  0  0  0  0  0  0  0
    2.8003    6.0904    0.6549 H   0  0  0  0  0  0  0  0  0  0  0  0
    0.7600   -1.3395   -1.9218 N   0  0  0  0  0  0  0  0  0  0  0  0
    0.7109   -2.7129   -2.3693 C   0  0  2  0  0  0  0  0  0  0  0  0
    1.0415   -3.6067   -1.1814 C   0  0  0  0  0  0  0  0  0  0  0  0
    1.6700   -3.2138   -0.2007 O   0  0  0  0  0  0  0  0  0  0  0  0
    1.6778   -2.9555   -3.5178 C   0  0  0  0  0  0  0  0  0  0  0  0
    1.3039   -0.6747   -2.4640 H   0  0  0  0  0  0  0  0  0  0  0  0
   -0.3177   -2.9028   -2.6949 H   0  0  0  0  0  0  0  0  0  0  0  0
    2.7135   -2.7701   -3.2105 H   0  0  0  0  0  0  0  0  0  0  0  0
    1.6188   -3.9891   -3.8745 H   0  0  0  0  0  0  0  0  0  0  0  0
    1.4570   -2.2909   -4.3601 H   0  0  0  0  0  0  0  0  0  0  0  0
    0.5897   -4.9062   -1.3643 N   0  0  0  0  0  0  0  0  0  0  0  0
    0.7920   -5.9472   -0.3838 C   0  0  0  0  0  0  0  0  0  0  0  0
    0.0611   -5.1384   -2.2000 H   0  0  0  0  0  0  0  0  0  0  0  0
    1.7205   -6.4910   -0.6118 H   0  0  0  0  0  0  0  0  0  0  0  0
    0.8667   -5.4980    0.6176 H   0  0  0  0  0  0  0  0  0  0  0  0
   -0.0576   -6.6454   -0.4100 H   0  0  0  0  0  0  0  0  0  0  0  0
 25 27  1  0  0  0  0
 26 27  2  0  0  0  0
 23 25  2  0  0  0  0
 24 26  1  0  0  0  0
 22 23  1  0  0  0  0
 22 24  2  0  0  0  0
 21 22  1  0  0  0  0
  1  3  1  0  0  0  0
  1  7  1  0  0  0  0
  1  2  2  0  0  0  0
 38 39  1  0  0  0  0
 39 47  1  0  0  0  0
 39 40  2  0  0  0  0
  8  9  1  0  0  0  0
  9 17  1  0  0  0  0
  9 10  2  0  0  0  0
 18 19  1  0  0  0  0
 19 37  1  0  0  0  0
 19 20  2  0  0  0  0
 38 41  1  0  0  0  0
  8 11  1  0  0  0  0
 47 48  1  0  0  0  0
 18 21  1  0  0  0  0
 37 38  1  0  0  0  0
  7  8  1  0  0  0  0
 17 18  1  0  0  0  0
 27 36  1  0  0  0  0
 25 34  1  0  0  0  0
 26 35  1  0  0  0  0
 23 32  1  0  0  0  0
 24 33  1  0  0  0  0
  3  4  1  0  0  0  0
  3  5  1  0  0  0  0
  3  6  1  0  0  0  0
 41 44  1  0  0  0  0
 41 45  1  0  0  0  0
 41 46  1  0  0  0  0
 11 14  1  0  0  0  0
 11 15  1  0  0  0  0
 11 16  1  0  0  0  0
 48 50  1  0  0  0  0
 48 51  1  0  0  0  0
 48 52  1  0  0  0  0
 21 30  1  0  0  0  0
 21 31  1  0  0  0  0
 38 43  1  0  0  0  0
  8 13  1  0  0  0  0
 18 29  1  0  0  0  0
 47 49  1  0  0  0  0
  7 12  1  0  0  0  0
 37 42  1  0  0  0  0
 17 28  1  0  0  0  0
M  END
$$$$

  -OEChem-05262214473D

 52 52  0     1  0  0  0  0  0999 V2000
   -1.8248    0.3424    3.9102 C   0  0  0  0  0  0  0  0  0  0  0  0
   -0.8774   -0.2723    3.4345 O   0  0  0  0  0  0  0  0  0  0  0  0
   -2.2566    0.0600    5.3109 C   0  0  0  0  0  0  0  0  0  0  0  0
   -3.0163   -0.7363    5.3643 H   0  0  0  0  0  0  0  0  0  0  0  0
   -1.4254   -0.2876    5.9452 H   0  0  0  0  0  0  0  0  0  0  0  0
   -2.6947    0.9149    5.8505 H   0  0  0  0  0  0  0  0  0  0  0  0
   -2.5745    1.3149    3.2691 N   0  0  0  0  0  0  0  0  0  0  0  0
   -2.3276    1.7409    1.9167 C   0  0  2  0  0  0  0  0  0  0  0  0
   -0.9926    1.1555    1.4755 C   0  0  0  0  0  0  0  0  0  0  0  0
   -0.1206    0.8028    2.2668 O   0  0  0  0  0  0  0  0  0  0  0  0
   -2.3188    3.2577    1.8072 C   0  0  0  0  0  0  0  0  0  0  0  0
   -3.3395    1.7507    3.7809 H   0  0  0  0  0  0  0  0  0  0  0  0
   -3.1317    1.3224    1.3015 H   0  0  0  0  0  0  0  0  0  0  0  0
   -1.5198    3.6949    2.4169 H   0  0  0  0  0  0  0  0  0  0  0  0
   -2.1594    3.5799    0.7729 H   0  0  0  0  0  0  0  0  0  0  0  0
   -3.2690    3.6789    2.1530 H   0  0  0  0  0  0  0  0  0  0  0  0
   -0.8700    1.1124    0.0921 N   0  0  0  0  0  0  0  0  0  0  0  0
    0.3073    0.6116   -0.5716 C   0  0  2  0  0  0  0  0  0  0  0  0
    0.1013   -0.8833   -0.7885 C   0  0  0  0  0  0  0  0  0  0  0  0
   -0.7954   -1.5215   -0.2411 O   0  0  0  0  0  0  0  0  0  0  0  0
    1.5816    0.8612    0.2432 C   0  0  0  0  0  0  0  0  0  0  0  0
    1.9232    2.3268    0.3581 C   0  0  0  0  0  0  0  0  0  0  0  0
    2.5804    2.9745   -0.6880 C   0  0  0  0  0  0  0  0  0  0  0  0
    1.5813    3.0337    1.5109 C   0  0  0  0  0  0  0  0  0  0  0  0
    2.8956    4.3291   -0.5813 C   0  0  0  0  0  0  0  0  0  0  0  0
    1.8965    4.3883    1.6176 C   0  0  0  0  0  0  0  0  0  0  0  0
    2.5536    5.0360    0.5715 C   0  0  0  0  0  0  0  0  0  0  0  0
   -1.6531    1.4091   -0.4852 H   0  0  0  0  0  0  0  0  0  0  0  0
    0.3537    1.1125   -1.5457 H   0  0  0  0  0  0  0  0  0  0  0  0
    2.4281    0.3182   -0.1985 H   0  0  0  0  0  0  0  0  0  0  0  0
    1.4750    0.4526    1.2568 H   0  0  0  0  0  0  0  0  0  0  0  0
    2.8506    2.4317   -1.5900 H   0  0  0  0  0  0  0  0  0  0  0  0
    1.0691    2.5374    2.3310 H   0  0  0  0  0  0  0  0  0  0  0  0
    3.4082    4.8329   -1.3955 H   0  0  0  0  0  0  0  0  0  0  0  0
    1.6310    4.9381    2.5157 H   0  0  0  0  0  0  0  0  0  0  0  0
    2.8003    6.0904    0.6549 H   0  0  0  0  0  0  0  0  0  0  0  0
    1.0059   -1.4052   -1.7026 N   0  0  0  0  0  0  0  0  0  0  0  0
    1.0150   -2.7930   -2.1061 C   0  0  2  0  0  0  0  0  0  0  0  0
    0.9969   -3.6491   -0.8467 C   0  0  0  0  0  0  0  0  0  0  0  0
    1.3723   -3.2380    0.2493 O   0  0  0  0  0  0  0  0  0  0  0  0
    2.2303   -3.1121   -2.9629 C   0  0  0  0  0  0  0  0  0  0  0  0
    1.6964   -0.7804   -2.1084 H   0  0  0  0  0  0  0  0  0  0  0  0
    0.0955   -2.9624   -2.6769 H   0  0  0  0  0  0  0  0  0  0  0  0
    3.1612   -2.9483   -2.4080 H   0  0  0  0  0  0  0  0  0  0  0  0
    2.2208   -4.1566   -3.2915 H   0  0  0  0  0  0  0  0  0  0  0  0
    2.2576   -2.4748   -3.8533 H   0  0  0  0  0  0  0  0  0  0  0  0
    0.5529   -4.9395   -1.0992 N   0  0  0  0  0  0  0  0  0  0  0  0
    0.4571   -5.9468   -0.0685 C   0  0  0  0  0  0  0  0  0  0  0  0
    0.2438   -5.1876   -2.0344 H   0  0  0  0  0  0  0  0  0  0  0  0
    1.3898   -6.5289   -0.0362 H   0  0  0  0  0  0  0  0  0  0  0  0
    0.2945   -5.4608    0.9049 H   0  0  0  0  0  0  0  0  0  0  0  0
   -0.3863   -6.6177   -0.2889 H   0  0  0  0  0  0  0  0  0  0  0  0
 25 27  1  0  0  0  0
 26 27  2  0  0  0  0
 23 25  2  0  0  0  0
 24 26  1  0  0  0  0
 22 23  1  0  0  0  0
 22 24  2  0  0  0  0
 21 22  1  0  0  0  0
  1  3  1  0  0  0  0
  1  7  1  0  0  0  0
  1  2  2  0  0  0  0
 38 39  1  0  0  0  0
 39 47  1  0  0  0  0
 39 40  2  0  0  0  0
  8  9  1  0  0  0  0
  9 17  1  0  0  0  0
  9 10  2  0  0  0  0
 18 19  1  0  0  0  0
 19 37  1  0  0  0  0
 19 20  2  0  0  0  0
 38 41  1  0  0  0  0
  8 11  1  0  0  0  0
 47 48  1  0  0  0  0
 18 21  1  0  0  0  0
 37 38  1  0  0  0  0
  7  8  1  0  0  0  0
 17 18  1  0  0  0  0
 27 36  1  0  0  0  0
 25 34  1  0  0  0  0
 26 35  1  0  0  0  0
 23 32  1  0  0  0  0
 24 33  1  0  0  0  0
  3  4  1  0  0  0  0
  3  5  1  0  0  0  0
  3  6  1  0  0  0  0
 41 44  1  0  0  0  0
 41 45  1  0  0  0  0
 41 46  1  0  0  0  0
 11 14  1  0  0  0  0
 11 15  1  0  0  0  0
 11 16  1  0  0  0  0
 48 50  1  0  0  0  0
 48 51  1  0  0  0  0
 48 52  1  0  0  0  0
 21 30  1  0  0  0  0
 21 31  1  0  0  0  0
 38 43  1  0  0  0  0
  8 13  1  0  0  0  0
 18 29  1  0  0  0  0
 47 49  1  0  0  0  0
  7 12  1  0  0  0  0
 37 42  1  0  0  0  0
 17 28  1  0  0  0  0
M  END
$$$$

  -OEChem-05262214473D

 52 52  0     1  0  0  0  0  0999 V2000
   -1.8248    0.3424    3.9102 C   0  0  0  0  0  0  0  0  0  0  0  0
   -0.8774   -0.2723    3.4345 O   0  0  0  0  0  0  0  0  0  0  0  0
   -2.2566    0.0600    5.3109 C   0  0  0  0  0  0  0  0  0  0  0  0
   -3.0163   -0.7363    5.3643 H   0  0  0  0  0  0  0  0  0  0  0  0
   -1.4254   -0.2876    5.9452 H   0  0  0  0  0  0  0  0  0  0  0  0
   -2.6947    0.9149    5.8505 H   0  0  0  0  0  0  0  0  0  0  0  0
   -2.5745    1.3149    3.2691 N   0  0  0  0  0  0  0  0  0  0  0  0
   -2.3276    1.7409    1.9167 C   0  0  2  0  0  0  0  0  0  0  0  0
   -0.9926    1.1555    1.4755 C   0  0  0  0  0  0  0  0  0  0  0  0
   -0.1206    0.8028    2.2668 O   0  0  0  0  0  0  0  0  0  0  0  0
   -2.3188    3.2577    1.8072 C   0  0  0  0  0  0  0  0  0  0  0  0
   -3.3395    1.7507    3.7809 H   0  0  0  0  0  0  0  0  0  0  0  0
   -3.1317    1.3224    1.3015 H   0  0  0  0  0  0  0  0  0  0  0  0
   -1.5198    3.6949    2.4169 H   0  0  0  0  0  0  0  0  0  0  0  0
   -2.1594    3.5799    0.7729 H   0  0  0  0  0  0  0  0  0  0  0  0
   -3.2690    3.6789    2.1530 H   0  0  0  0  0  0  0  0  0  0  0  0
   -0.8700    1.1124    0.0921 N   0  0  0  0  0  0  0  0  0  0  0  0
    0.3073    0.6116   -0.5716 C   0  0  2  0  0  0  0  0  0  0  0  0
   -0.0378   -0.7673   -1.1227 C   0  0  0  0  0  0  0  0  0  0  0  0
   -1.1549   -1.2694   -1.0179 O   0  0  0  0  0  0  0  0  0  0  0  0
    1.5108    0.5217    0.3738 C   0  0  0  0  0  0  0  0  0  0  0  0
    1.9972    1.8757    0.8297 C   0  0  0  0  0  0  0  0  0  0  0  0
    2.8253    2.6348    0.0028 C   0  0  0  0  0  0  0  0  0  0  0  0
    1.6181    2.3681    2.0785 C   0  0  0  0  0  0  0  0  0  0  0  0
    3.2743    3.8862    0.4248 C   0  0  0  0  0  0  0  0  0  0  0  0
    2.0671    3.6195    2.5004 C   0  0  0  0  0  0  0  0  0  0  0  0
    2.8952    4.3786    1.6735 C   0  0  0  0  0  0  0  0  0  0  0  0
   -1.6531    1.4091   -0.4852 H   0  0  0  0  0  0  0  0  0  0  0  0
    0.5081    1.2922   -1.4073 H   0  0  0  0  0  0  0  0  0  0  0  0
    2.3336   -0.0231   -0.1086 H   0  0  0  0  0  0  0  0  0  0  0  0
    1.2565   -0.0697    1.2633 H   0  0  0  0  0  0  0  0  0  0  0  0
    3.1257    2.2592   -0.9718 H   0  0  0  0  0  0  0  0  0  0  0  0
    0.9731    1.7838    2.7294 H   0  0  0  0  0  0  0  0  0  0  0  0
    3.9200    4.4766   -0.2188 H   0  0  0  0  0  0  0  0  0  0  0  0
    1.7726    4.0021    3.4732 H   0  0  0  0  0  0  0  0  0  0  0  0
    3.2460    5.3524    2.0024 H   0  0  0  0  0  0  0  0  0  0  0  0
    1.0354   -1.3449   -1.7869 N   0  0  0  0  0  0  0  0  0  0  0  0
    0.9703   -2.6408   -2.4234 C   0  0  2  0  0  0  0  0  0  0  0  0
    0.3875   -3.6283   -1.4211 C   0  0  0  0  0  0  0  0  0  0  0  0
    0.4198   -3.4481   -0.2055 O   0  0  0  0  0  0  0  0  0  0  0  0
    2.3423   -3.0938   -2.8978 C   0  0  0  0  0  0  0  0  0  0  0  0
    1.9106   -0.8309   -1.8276 H   0  0  0  0  0  0  0  0  0  0  0  0
    0.2899   -2.5405   -3.2761 H   0  0  0  0  0  0  0  0  0  0  0  0
    3.0378   -3.1998   -2.0573 H   0  0  0  0  0  0  0  0  0  0  0  0
    2.2869   -4.0626   -3.4051 H   0  0  0  0  0  0  0  0  0  0  0  0
    2.7728   -2.3675   -3.5957 H   0  0  0  0  0  0  0  0  0  0  0  0
   -0.1344   -4.7548   -2.0414 N   0  0  0  0  0  0  0  0  0  0  0  0
   -0.7333   -5.8434   -1.3050 C   0  0  0  0  0  0  0  0  0  0  0  0
   -0.1357   -4.8113   -3.0556 H   0  0  0  0  0  0  0  0  0  0  0  0
    0.0299   -6.6063   -1.0919 H   0  0  0  0  0  0  0  0  0  0  0  0
   -1.1454   -5.4628   -0.3588 H   0  0  0  0  0  0  0  0  0  0  0  0
   -1.5410   -6.2901   -1.9034 H   0  0  0  0  0  0  0  0  0  0  0  0
 25 27  1  0  0  0  0
 26 27  2  0  0  0  0
 23 25  2  0  0  0  0
 24 26  1  0  0  0  0
 22 23  1  0  0  0  0
 22 24  2  0  0  0  0
 21 22  1  0  0  0  0
  1  3  1  0  0  0  0
  1  7  1  0  0  0  0
  1  2  2  0  0  0  0
 38 39  1  0  0  0  0
 39 47  1  0  0  0  0
 39 40  2  0  0  0  0
  8  9  1  0  0  0  0
  9 17  1  0  0  0  0
  9 10  2  0  0  0  0
 18 19  1  0  0  0  0
 19 37  1  0  0  0  0
 19 20  2  0  0  0  0
 38 41  1  0  0  0  0
  8 11  1  0  0  0  0
 47 48  1  0  0  0  0
 18 21  1  0  0  0  0
 37 38  1  0  0  0  0
  7  8  1  0  0  0  0
 17 18  1  0  0  0  0
 27 36  1  0  0  0  0
 25 34  1  0  0  0  0
 26 35  1  0  0  0  0
 23 32  1  0  0  0  0
 24 33  1  0  0  0  0
  3  4  1  0  0  0  0
  3  5  1  0  0  0  0
  3  6  1  0  0  0  0
 41 44  1  0  0  0  0
 41 45  1  0  0  0  0
 41 46  1  0  0  0  0
 11 14  1  0  0  0  0
 11 15  1  0  0  0  0
 11 16  1  0  0  0  0
 48 50  1  0  0  0  0
 48 51  1  0  0  0  0
 48 52  1  0  0  0  0
 21 30  1  0  0  0  0
 21 31  1  0  0  0  0
 38 43  1  0  0  0  0
  8 13  1  0  0  0  0
 18 29  1  0  0  0  0
 47 49  1  0  0  0  0
  7 12  1  0  0  0  0
 37 42  1  0  0  0  0
 17 28  1  0  0  0  0
M  END
$$$$

  -OEChem-05262214473D

 52 52  0     1  0  0  0  0  0999 V2000
   -1.8248    0.3424    3.9102 C   0  0  0  0  0  0  0  0  0  0  0  0
   -0.8774   -0.2723    3.4345 O   0  0  0  0  0  0  0  0  0  0  0  0
   -2.2566    0.0600    5.3109 C   0  0  0  0  0  0  0  0  0  0  0  0
   -3.0163   -0.7363    5.3643 H   0  0  0  0  0  0  0  0  0  0  0  0
   -1.4254   -0.2876    5.9452 H   0  0  0  0  0  0  0  0  0  0  0  0
   -2.6947    0.9149    5.8505 H   0  0  0  0  0  0  0  0  0  0  0  0
   -2.5745    1.3149    3.2691 N   0  0  0  0  0  0  0  0  0  0  0  0
   -2.3276    1.7409    1.9167 C   0  0  2  0  0  0  0  0  0  0  0  0
   -0.9926    1.1555    1.4755 C   0  0  0  0  0  0  0  0  0  0  0  0
   -0.1206    0.8028    2.2668 O   0  0  0  0  0  0  0  0  0  0  0  0
   -2.3188    3.2577    1.8072 C   0  0  0  0  0  0  0  0  0  0  0  0
   -3.3395    1.7507    3.7809 H   0  0  0  0  0  0  0  0  0  0  0  0
   -3.1317    1.3224    1.3015 H   0  0  0  0  0  0  0  0  0  0  0  0
   -1.5198    3.6949    2.4169 H   0  0  0  0  0  0  0  0  0  0  0  0
   -2.1594    3.5799    0.7729 H   0  0  0  0  0  0  0  0  0  0  0  0
   -3.2690    3.6789    2.1530 H   0  0  0  0  0  0  0  0  0  0  0  0
   -0.8700    1.1124    0.0921 N   0  0  0  0  0  0  0  0  0  0  0  0
    0.3073    0.6116   -0.5716 C   0  0  2  0  0  0  0  0  0  0  0  0
   -0.0378   -0.7673   -1.1227 C   0  0  0  0  0  0  0  0  0  0  0  0
   -1.1935   -1.1622   -1.2618 O   0  0  0  0  0  0  0  0  0  0  0  0
    1.5108    0.5217    0.3738 C   0  0  0  0  0  0  0  0  0  0  0  0
    1.9972    1.8757    0.8297 C   0  0  0  0  0  0  0  0  0  0  0  0
    2.8253    2.6348    0.0028 C   0  0  0  0  0  0  0  0  0  0  0  0
    1.6181    2.3681    2.0785 C   0  0  0  0  0  0  0  0  0  0  0  0
    3.2743    3.8862    0.4248 C   0  0  0  0  0  0  0  0  0  0  0  0
    2.0671    3.6195    2.5004 C   0  0  0  0  0  0  0  0  0  0  0  0
    2.8952    4.3786    1.6735 C   0  0  0  0  0  0  0  0  0  0  0  0
   -1.6531    1.4091   -0.4852 H   0  0  0  0  0  0  0  0  0  0  0  0
    0.5081    1.2922   -1.4073 H   0  0  0  0  0  0  0  0  0  0  0  0
    2.3336   -0.0231   -0.1086 H   0  0  0  0  0  0  0  0  0  0  0  0
    1.2565   -0.0697    1.2633 H   0  0  0  0  0  0  0  0  0  0  0  0
    3.1257    2.2592   -0.9718 H   0  0  0  0  0  0  0  0  0  0  0  0
    0.9731    1.7838    2.7294 H   0  0  0  0  0  0  0  0  0  0  0  0
    3.9200    4.4766   -0.2188 H   0  0  0  0  0  0  0  0  0  0  0  0
    1.7726    4.0021    3.4732 H   0  0  0  0  0  0  0  0  0  0  0  0
    3.2460    5.3524    2.0024 H   0  0  0  0  0  0  0  0  0  0  0  0
    1.0962   -1.4805   -1.4856 N   0  0  0  0  0  0  0  0  0  0  0  0
    1.0502   -2.8072   -2.0572 C   0  0  2  0  0  0  0  0  0  0  0  0
    0.1551   -3.6682   -1.1758 C   0  0  0  0  0  0  0  0  0  0  0  0
   -0.0767   -3.4072    0.0029 O   0  0  0  0  0  0  0  0  0  0  0  0
    2.4421   -3.4092   -2.1710 C   0  0  0  0  0  0  0  0  0  0  0  0
    2.0042   -1.0484   -1.3422 H   0  0  0  0  0  0  0  0  0  0  0  0
    0.5991   -2.7081   -3.0505 H   0  0  0  0  0  0  0  0  0  0  0  0
    2.9100   -3.5162   -1.1856 H   0  0  0  0  0  0  0  0  0  0  0  0
    2.4083   -4.4026   -2.6304 H   0  0  0  0  0  0  0  0  0  0  0  0
    3.0930   -2.7734   -2.7808 H   0  0  0  0  0  0  0  0  0  0  0  0
   -0.3197   -4.7858   -1.8479 N   0  0  0  0  0  0  0  0  0  0  0  0
   -1.1790   -5.7644   -1.2235 C   0  0  0  0  0  0  0  0  0  0  0  0
   -0.0921   -4.9126   -2.8297 H   0  0  0  0  0  0  0  0  0  0  0  0
   -0.5665   -6.5738   -0.7997 H   0  0  0  0  0  0  0  0  0  0  0  0
   -1.7584   -5.2845   -0.4210 H   0  0  0  0  0  0  0  0  0  0  0  0
   -1.8672   -6.1801   -1.9743 H   0  0  0  0  0  0  0  0  0  0  0  0
 25 27  1  0  0  0  0
 26 27  2  0  0  0  0
 23 25  2  0  0  0  0
 24 26  1  0  0  0  0
 22 23  1  0  0  0  0
 22 24  2  0  0  0  0
 21 22  1  0  0  0  0
  1  3  1  0  0  0  0
  1  7  1  0  0  0  0
  1  2  2  0  0  0  0
 38 39  1  0  0  0  0
 39 47  1  0  0  0  0
 39 40  2  0  0  0  0
  8  9  1  0  0  0  0
  9 17  1  0  0  0  0
  9 10  2  0  0  0  0
 18 19  1  0  0  0  0
 19 37  1  0  0  0  0
 19 20  2  0  0  0  0
 38 41  1  0  0  0  0
  8 11  1  0  0  0  0
 47 48  1  0  0  0  0
 18 21  1  0  0  0  0
 37 38  1  0  0  0  0
  7  8  1  0  0  0  0
 17 18  1  0  0  0  0
 27 36  1  0  0  0  0
 25 34  1  0  0  0  0
 26 35  1  0  0  0  0
 23 32  1  0  0  0  0
 24 33  1  0  0  0  0
  3  4  1  0  0  0  0
  3  5  1  0  0  0  0
  3  6  1  0  0  0  0
 41 44  1  0  0  0  0
 41 45  1  0  0  0  0
 41 46  1  0  0  0  0
 11 14  1  0  0  0  0
 11 15  1  0  0  0  0
 11 16  1  0  0  0  0
 48 50  1  0  0  0  0
 48 51  1  0  0  0  0
 48 52  1  0  0  0  0
 21 30  1  0  0  0  0
 21 31  1  0  0  0  0
 38 43  1  0  0  0  0
  8 13  1  0  0  0  0
 18 29  1  0  0  0  0
 47 49  1  0  0  0  0
  7 12  1  0  0  0  0
 37 42  1  0  0  0  0
 17 28  1  0  0  0  0
M  END
$$$$

  -OEChem-05262214473D

 52 52  0     1  0  0  0  0  0999 V2000
   -1.8248    0.3424    3.9102 C   0  0  0  0  0  0  0  0  0  0  0  0
   -0.8774   -0.2723    3.4345 O   0  0  0  0  0  0  0  0  0  0  0  0
   -2.2566    0.0600    5.3109 C   0  0  0  0  0  0  0  0  0  0  0  0
   -3.0163   -0.7363    5.3643 H   0  0  0  0  0  0  0  0  0  0  0  0
   -1.4254   -0.2876    5.9452 H   0  0  0  0  0  0  0  0  0  0  0  0
   -2.6947    0.9149    5.8505 H   0  0  0  0  0  0  0  0  0  0  0  0
   -2.5745    1.3149    3.2691 N   0  0  0  0  0  0  0  0  0  0  0  0
   -2.3276    1.7409    1.9167 C   0  0  2  0  0  0  0  0  0  0  0  0
   -0.9926    1.1555    1.4755 C   0  0  0  0  0  0  0  0  0  0  0  0
   -0.1206    0.8028    2.2668 O   0  0  0  0  0  0  0  0  0  0  0  0
   -2.3188    3.2577    1.8072 C   0  0  0  0  0  0  0  0  0  0  0  0
   -3.3395    1.7507    3.7809 H   0  0  0  0  0  0  0  0  0  0  0  0
   -3.1317    1.3224    1.3015 H   0  0  0  0  0  0  0  0  0  0  0  0
   -1.5198    3.6949    2.4169 H   0  0  0  0  0  0  0  0  0  0  0  0
   -2.1594    3.5799    0.7729 H   0  0  0  0  0  0  0  0  0  0  0  0
   -3.2690    3.6789    2.1530 H   0  0  0  0  0  0  0  0  0  0  0  0
   -0.8700    1.1124    0.0921 N   0  0  0  0  0  0  0  0  0  0  0  0
    0.3073    0.6116   -0.5716 C   0  0  2  0  0  0  0  0  0  0  0  0
   -0.0378   -0.7673   -1.1227 C   0  0  0  0  0  0  0  0  0  0  0  0
   -1.1637   -1.0694   -1.5127 O   0  0  0  0  0  0  0  0  0  0  0  0
    1.5108    0.5217    0.3738 C   0  0  0  0  0  0  0  0  0  0  0  0
    1.9972    1.8757    0.8297 C   0  0  0  0  0  0  0  0  0  0  0  0
    2.8253    2.6348    0.0028 C   0  0  0  0  0  0  0  0  0  0  0  0
    1.6181    2.3681    2.0785 C   0  0  0  0  0  0  0  0  0  0  0  0
    3.2743    3.8862    0.4248 C   0  0  0  0  0  0  0  0  0  0  0  0
    2.0671    3.6195    2.5004 C   0  0  0  0  0  0  0  0  0  0  0  0
    2.8952    4.3786    1.6735 C   0  0  0  0  0  0  0  0  0  0  0  0
   -1.6531    1.4091   -0.4852 H   0  0  0  0  0  0  0  0  0  0  0  0
    0.5081    1.2922   -1.4073 H   0  0  0  0  0  0  0  0  0  0  0  0
    2.3336   -0.0231   -0.1086 H   0  0  0  0  0  0  0  0  0  0  0  0
    1.2565   -0.0697    1.2633 H   0  0  0  0  0  0  0  0  0  0  0  0
    3.1257    2.2592   -0.9718 H   0  0  0  0  0  0  0  0  0  0  0  0
    0.9731    1.7838    2.7294 H   0  0  0  0  0  0  0  0  0  0  0  0
    3.9200    4.4766   -0.2188 H   0  0  0  0  0  0  0  0  0  0  0  0
    1.7726    4.0021    3.4732 H   0  0  0  0  0  0  0  0  0  0  0  0
    3.2460    5.3524    2.0024 H   0  0  0  0  0  0  0  0  0  0  0  0
    1.0718   -1.5996   -1.1724 N   0  0  0  0  0  0  0  0  0  0  0  0
    1.0261   -2.9539   -1.6750 C   0  0  2  0  0  0  0  0  0  0  0  0
   -0.1306   -3.6706   -0.9908 C   0  0  0  0  0  0  0  0  0  0  0  0
   -0.6013   -3.3089    0.0856 O   0  0  0  0  0  0  0  0  0  0  0  0
    2.3387   -3.6807   -1.4272 C   0  0  0  0  0  0  0  0  0  0  0  0
    1.9607   -1.2388   -0.8387 H   0  0  0  0  0  0  0  0  0  0  0  0
    0.8293   -2.8856   -2.7504 H   0  0  0  0  0  0  0  0  0  0  0  0
    2.5528   -3.7588   -0.3550 H   0  0  0  0  0  0  0  0  0  0  0  0
    2.3125   -4.6970   -1.8338 H   0  0  0  0  0  0  0  0  0  0  0  0
    3.1736   -3.1477   -1.8948 H   0  0  0  0  0  0  0  0  0  0  0  0
   -0.5469   -4.7870   -1.7025 N   0  0  0  0  0  0  0  0  0  0  0  0
   -1.6213   -5.6416   -1.2538 C   0  0  0  0  0  0  0  0  0  0  0  0
   -0.1123   -5.0012   -2.5953 H   0  0  0  0  0  0  0  0  0  0  0  0
   -1.2079   -6.4695   -0.6590 H   0  0  0  0  0  0  0  0  0  0  0  0
   -2.3193   -5.0586   -0.6350 H   0  0  0  0  0  0  0  0  0  0  0  0
   -2.1553   -6.0475   -2.1256 H   0  0  0  0  0  0  0  0  0  0  0  0
 25 27  1  0  0  0  0
 26 27  2  0  0  0  0
 23 25  2  0  0  0  0
 24 26  1  0  0  0  0
 22 23  1  0  0  0  0
 22 24  2  0  0  0  0
 21 22  1  0  0  0  0
  1  3  1  0  0  0  0
  1  7  1  0  0  0  0
  1  2  2  0  0  0  0
 38 39  1  0  0  0  0
 39 47  1  0  0  0  0
 39 40  2  0  0  0  0
  8  9  1  0  0  0  0
  9 17  1  0  0  0  0
  9 10  2  0  0  0  0
 18 19  1  0  0  0  0
 19 37  1  0  0  0  0
 19 20  2  0  0  0  0
 38 41  1  0  0  0  0
  8 11  1  0  0  0  0
 47 48  1  0  0  0  0
 18 21  1  0  0  0  0
 37 38  1  0  0  0  0
  7  8  1  0  0  0  0
 17 18  1  0  0  0  0
 27 36  1  0  0  0  0
 25 34  1  0  0  0  0
 26 35  1  0  0  0  0
 23 32  1  0  0  0  0
 24 33  1  0  0  0  0
  3  4  1  0  0  0  0
  3  5  1  0  0  0  0
  3  6  1  0  0  0  0
 41 44  1  0  0  0  0
 41 45  1  0  0  0  0
 41 46  1  0  0  0  0
 11 14  1  0  0  0  0
 11 15  1  0  0  0  0
 11 16  1  0  0  0  0
 48 50  1  0  0  0  0
 48 51  1  0  0  0  0
 48 52  1  0  0  0  0
 21 30  1  0  0  0  0
 21 31  1  0  0  0  0
 38 43  1  0  0  0  0
  8 13  1  0  0  0  0
 18 29  1  0  0  0  0
 47 49  1  0  0  0  0
  7 12  1  0  0  0  0
 37 42  1  0  0  0  0
 17 28  1  0  0  0  0
M  END
$$$$

  -OEChem-05262214473D

 52 52  0     1  0  0  0  0  0999 V2000
   -1.8248    0.3424    3.9102 C   0  0  0  0  0  0  0  0  0  0  0  0
   -0.8774   -0.2723    3.4345 O   0  0  0  0  0  0  0  0  0  0  0  0
   -2.2566    0.0600    5.3109 C   0  0  0  0  0  0  0  0  0  0  0  0
   -3.0163   -0.7363    5.3643 H   0  0  0  0  0  0  0  0  0  0  0  0
   -1.4254   -0.2876    5.9452 H   0  0  0  0  0  0  0  0  0  0  0  0
   -2.6947    0.9149    5.8505 H   0  0  0  0  0  0  0  0  0  0  0  0
   -2.5745    1.3149    3.2691 N   0  0  0  0  0  0  0  0  0  0  0  0
   -2.3276    1.7409    1.9167 C   0  0  2  0  0  0  0  0  0  0  0  0
   -0.9926    1.1555    1.4755 C   0  0  0  0  0  0  0  0  0  0  0  0
   -0.1206    0.8028    2.2668 O   0  0  0  0  0  0  0  0  0  0  0  0
   -2.3188    3.2577    1.8072 C   0  0  0  0  0  0  0  0  0  0  0  0
   -3.3395    1.7507    3.7809 H   0  0  0  0  0  0  0  0  0  0  0  0
   -3.1317    1.3224    1.3015 H   0  0  0  0  0  0  0  0  0  0  0  0
   -1.5198    3.6949    2.4169 H   0  0  0  0  0  0  0  0  0  0  0  0
   -2.1594    3.5799    0.7729 H   0  0  0  0  0  0  0  0  0  0  0  0
   -3.2690    3.6789    2.1530 H   0  0  0  0  0  0  0  0  0  0  0  0
   -0.8700    1.1124    0.0921 N   0  0  0  0  0  0  0  0  0  0  0  0
    0.3073    0.6116   -0.5716 C   0  0  2  0  0  0  0  0  0  0  0  0
   -0.0378   -0.7673   -1.1227 C   0  0  0  0  0  0  0  0  0  0  0  0
   -1.0674   -0.9972   -1.7535 O   0  0  0  0  0  0  0  0  0  0  0  0
    1.5108    0.5217    0.3738 C   0  0  0  0  0  0  0  0  0  0  0  0
    1.9972    1.8757    0.8297 C   0  0  0  0  0  0  0  0  0  0  0  0
    2.8253    2.6348    0.0028 C   0  0  0  0  0  0  0  0  0  0  0  0
    1.6181    2.3681    2.0785 C   0  0  0  0  0  0  0  0  0  0  0  0
    3.2743    3.8862    0.4248 C   0  0  0  0  0  0  0  0  0  0  0  0
    2.0671    3.6195    2.5004 C   0  0  0  0  0  0  0  0  0  0  0  0
    2.8952    4.3786    1.6735 C   0  0  0  0  0  0  0  0  0  0  0  0
   -1.6531    1.4091   -0.4852 H   0  0  0  0  0  0  0  0  0  0  0  0
    0.5081    1.2922   -1.4073 H   0  0  0  0  0  0  0  0  0  0  0  0
    2.3336   -0.0231   -0.1086 H   0  0  0  0  0  0  0  0  0  0  0  0
    1.2565   -0.0697    1.2633 H   0  0  0  0  0  0  0  0  0  0  0  0
    3.1257    2.2592   -0.9718 H   0  0  0  0  0  0  0  0  0  0  0  0
    0.9731    1.7838    2.7294 H   0  0  0  0  0  0  0  0  0  0  0  0
    3.9200    4.4766   -0.2188 H   0  0  0  0  0  0  0  0  0  0  0  0
    1.7726    4.0021    3.4732 H   0  0  0  0  0  0  0  0  0  0  0  0
    3.2460    5.3524    2.0024 H   0  0  0  0  0  0  0  0  0  0  0  0
    0.9637   -1.6940   -0.8686 N   0  0  0  0  0  0  0  0  0  0  0  0
    0.8996   -3.0710   -1.3028 C   0  0  2  0  0  0  0  0  0  0  0  0
   -0.4500   -3.6354   -0.8790 C   0  0  0  0  0  0  0  0  0  0  0  0
   -1.1181   -3.1601    0.0369 O   0  0  0  0  0  0  0  0  0  0  0  0
    2.0394   -3.8896   -0.7170 C   0  0  0  0  0  0  0  0  0  0  0  0
    1.7830   -1.3891   -0.3513 H   0  0  0  0  0  0  0  0  0  0  0  0
    0.9648   -3.0611   -2.3963 H   0  0  0  0  0  0  0  0  0  0  0  0
    1.9907   -3.9110    0.3779 H   0  0  0  0  0  0  0  0  0  0  0  0
    2.0058   -4.9258   -1.0696 H   0  0  0  0  0  0  0  0  0  0  0  0
    3.0090   -3.4649   -0.9983 H   0  0  0  0  0  0  0  0  0  0  0  0
   -0.8005   -4.7585   -1.6152 N   0  0  0  0  0  0  0  0  0  0  0  0
   -2.0299   -5.4834   -1.3937 C   0  0  0  0  0  0  0  0  0  0  0  0
   -0.1950   -5.0712   -2.3684 H   0  0  0  0  0  0  0  0  0  0  0  0
   -1.8507   -6.3005   -0.6794 H   0  0  0  0  0  0  0  0  0  0  0  0
   -2.7898   -4.8004   -0.9863 H   0  0  0  0  0  0  0  0  0  0  0  0
   -2.3857   -5.9014   -2.3469 H   0  0  0  0  0  0  0  0  0  0  0  0
 25 27  1  0  0  0  0
 26 27  2  0  0  0  0
 23 25  2  0  0  0  0
 24 26  1  0  0  0  0
 22 23  1  0  0  0  0
 22 24  2  0  0  0  0
 21 22  1  0  0  0  0
  1  3  1  0  0  0  0
  1  7  1  0  0  0  0
  1  2  2  0  0  0  0
 38 39  1  0  0  0  0
 39 47  1  0  0  0  0
 39 40  2  0  0  0  0
  8  9  1  0  0  0  0
  9 17  1  0  0  0  0
  9 10  2  0  0  0  0
 18 19  1  0  0  0  0
 19 37  1  0  0  0  0
 19 20  2  0  0  0  0
 38 41  1  0  0  0  0
  8 11  1  0  0  0  0
 47 48  1  0  0  0  0
 18 21  1  0  0  0  0
 37 38  1  0  0  0  0
  7  8  1  0  0  0  0
 17 18  1  0  0  0  0
 27 36  1  0  0  0  0
 25 34  1  0  0  0  0
 26 35  1  0  0  0  0
 23 32  1  0  0  0  0
 24 33  1  0  0  0  0
  3  4  1  0  0  0  0
  3  5  1  0  0  0  0
  3  6  1  0  0  0  0
 41 44  1  0  0  0  0
 41 45  1  0  0  0  0
 41 46  1  0  0  0  0
 11 14  1  0  0  0  0
 11 15  1  0  0  0  0
 11 16  1  0  0  0  0
 48 50  1  0  0  0  0
 48 51  1  0  0  0  0
 48 52  1  0  0  0  0
 21 30  1  0  0  0  0
 21 31  1  0  0  0  0
 38 43  1  0  0  0  0
  8 13  1  0  0  0  0
 18 29  1  0  0  0  0
 47 49  1  0  0  0  0
  7 12  1  0  0  0  0
 37 42  1  0  0  0  0
 17 28  1  0  0  0  0
M  END
$$$$

  -OEChem-05262214473D

 52 52  0     1  0  0  0  0  0999 V2000
   -1.8248    0.3424    3.9102 C   0  0  0  0  0  0  0  0  0  0  0  0
   -0.8774   -0.2723    3.4345 O   0  0  0  0  0  0  0  0  0  0  0  0
   -2.2566    0.0600    5.3109 C   0  0  0  0  0  0  0  0  0  0  0  0
   -3.0163   -0.7363    5.3643 H   0  0  0  0  0  0  0  0  0  0  0  0
   -1.4254   -0.2876    5.9452 H   0  0  0  0  0  0  0  0  0  0  0  0
   -2.6947    0.9149    5.8505 H   0  0  0  0  0  0  0  0  0  0  0  0
   -2.5745    1.3149    3.2691 N   0  0  0  0  0  0  0  0  0  0  0  0
   -2.3276    1.7409    1.9167 C   0  0  2  0  0  0  0  0  0  0  0  0
   -0.9926    1.1555    1.4755 C   0  0  0  0  0  0  0  0  0  0  0  0
   -0.1206    0.8028    2.2668 O   0  0  0  0  0  0  0  0  0  0  0  0
   -2.3188    3.2577    1.8072 C   0  0  0  0  0  0  0  0  0  0  0  0
   -3.3395    1.7507    3.7809 H   0  0  0  0  0  0  0  0  0  0  0  0
   -3.1317    1.3224    1.3015 H   0  0  0  0  0  0  0  0  0  0  0  0
   -1.5198    3.6949    2.4169 H   0  0  0  0  0  0  0  0  0  0  0  0
   -2.1594    3.5799    0.7729 H   0  0  0  0  0  0  0  0  0  0  0  0
   -3.2690    3.6789    2.1530 H   0  0  0  0  0  0  0  0  0  0  0  0
   -0.8700    1.1124    0.0921 N   0  0  0  0  0  0  0  0  0  0  0  0
    0.3073    0.6116   -0.5716 C   0  0  2  0  0  0  0  0  0  0  0  0
   -0.0378   -0.7673   -1.1227 C   0  0  0  0  0  0  0  0  0  0  0  0
   -0.9114   -0.9506   -1.9678 O   0  0  0  0  0  0  0  0  0  0  0  0
    1.5108    0.5217    0.3738 C   0  0  0  0  0  0  0  0  0  0  0  0
    1.9972    1.8757    0.8297 C   0  0  0  0  0  0  0  0  0  0  0  0
    2.8253    2.6348    0.0028 C   0  0  0  0  0  0  0  0  0  0  0  0
    1.6181    2.3681    2.0785 C   0  0  0  0  0  0  0  0  0  0  0  0
    3.2743    3.8862    0.4248 C   0  0  0  0  0  0  0  0  0  0  0  0
    2.0671    3.6195    2.5004 C   0  0  0  0  0  0  0  0  0  0  0  0
    2.8952    4.3786    1.6735 C   0  0  0  0  0  0  0  0  0  0  0  0
   -1.6531    1.4091   -0.4852 H   0  0  0  0  0  0  0  0  0  0  0  0
    0.5081    1.2922   -1.4073 H   0  0  0  0  0  0  0  0  0  0  0  0
    2.3336   -0.0231   -0.1086 H   0  0  0  0  0  0  0  0  0  0  0  0
    1.2565   -0.0697    1.2633 H   0  0  0  0  0  0  0  0  0  0  0  0
    3.1257    2.2592   -0.9718 H   0  0  0  0  0  0  0  0  0  0  0  0
    0.9731    1.7838    2.7294 H   0  0  0  0  0  0  0  0  0  0  0  0
    3.9200    4.4766   -0.2188 H   0  0  0  0  0  0  0  0  0  0  0  0
    1.7726    4.0021    3.4732 H   0  0  0  0  0  0  0  0  0  0  0  0
    3.2460    5.3524    2.0024 H   0  0  0  0  0  0  0  0  0  0  0  0
    0.7794   -1.7572   -0.5949 N   0  0  0  0  0  0  0  0  0  0  0  0
    0.6793   -3.1504   -0.9662 C   0  0  2  0  0  0  0  0  0  0  0  0
   -0.7814   -3.5649   -0.8477 C   0  0  0  0  0  0  0  0  0  0  0  0
   -1.5920   -2.9709   -0.1398 O   0  0  0  0  0  0  0  0  0  0  0  0
    1.5644   -4.0218   -0.0888 C   0  0  0  0  0  0  0  0  0  0  0  0
    1.4832   -1.4891    0.0867 H   0  0  0  0  0  0  0  0  0  0  0  0
    0.9963   -3.2225   -2.0123 H   0  0  0  0  0  0  0  0  0  0  0  0
    1.2620   -3.9626    0.9631 H   0  0  0  0  0  0  0  0  0  0  0  0
    1.5094   -5.0732   -0.3897 H   0  0  0  0  0  0  0  0  0  0  0  0
    2.6105   -3.7033   -0.1522 H   0  0  0  0  0  0  0  0  0  0  0  0
   -1.0632   -4.7020   -1.5919 N   0  0  0  0  0  0  0  0  0  0  0  0
   -2.3770   -5.3006   -1.6338 C   0  0  0  0  0  0  0  0  0  0  0  0
   -0.3345   -5.1177   -2.1645 H   0  0  0  0  0  0  0  0  0  0  0  0
   -2.4510   -6.0783   -0.8594 H   0  0  0  0  0  0  0  0  0  0  0  0
   -3.1379   -4.5276   -1.4509 H   0  0  0  0  0  0  0  0  0  0  0  0
   -2.5429   -5.7516   -2.6233 H   0  0  0  0  0  0  0  0  0  0  0  0
 25 27  1  0  0  0  0
 26 27  2  0  0  0  0
 23 25  2  0  0  0  0
 24 26  1  0  0  0  0
 22 23  1  0  0  0  0
 22 24  2  0  0  0  0
 21 22  1  0  0  0  0
  1  3  1  0  0  0  0
  1  7  1  0  0  0  0
  1  2  2  0  0  0  0
 38 39  1  0  0  0  0
 39 47  1  0  0  0  0
 39 40  2  0  0  0  0
  8  9  1  0  0  0  0
  9 17  1  0  0  0  0
  9 10  2  0  0  0  0
 18 19  1  0  0  0  0
 19 37  1  0  0  0  0
 19 20  2  0  0  0  0
 38 41  1  0  0  0  0
  8 11  1  0  0  0  0
 47 48  1  0  0  0  0
 18 21  1  0  0  0  0
 37 38  1  0  0  0  0
  7  8  1  0  0  0  0
 17 18  1  0  0  0  0
 27 36  1  0  0  0  0
 25 34  1  0  0  0  0
 26 35  1  0  0  0  0
 23 32  1  0  0  0  0
 24 33  1  0  0  0  0
  3  4  1  0  0  0  0
  3  5  1  0  0  0  0
  3  6  1  0  0  0  0
 41 44  1  0  0  0  0
 41 45  1  0  0  0  0
 41 46  1  0  0  0  0
 11 14  1  0  0  0  0
 11 15  1  0  0  0  0
 11 16  1  0  0  0  0
 48 50  1  0  0  0  0
 48 51  1  0  0  0  0
 48 52  1  0  0  0  0
 21 30  1  0  0  0  0
 21 31  1  0  0  0  0
 38 43  1  0  0  0  0
  8 13  1  0  0  0  0
 18 29  1  0  0  0  0
 47 49  1  0  0  0  0
  7 12  1  0  0  0  0
 37 42  1  0  0  0  0
 17 28  1  0  0  0  0
M  END
$$$$

  -OEChem-05262214473D

 52 52  0     1  0  0  0  0  0999 V2000
   -1.8248    0.3424    3.9102 C   0  0  0  0  0  0  0  0  0  0  0  0
   -0.8774   -0.2723    3.4345 O   0  0  0  0  0  0  0  0  0  0  0  0
   -2.2566    0.0600    5.3109 C   0  0  0  0  0  0  0  0  0  0  0  0
   -3.0163   -0.7363    5.3643 H   0  0  0  0  0  0  0  0  0  0  0  0
   -1.4254   -0.2876    5.9452 H   0  0  0  0  0  0  0  0  0  0  0  0
   -2.6947    0.9149    5.8505 H   0  0  0  0  0  0  0  0  0  0  0  0
   -2.5745    1.3149    3.2691 N   0  0  0  0  0  0  0  0  0  0  0  0
   -2.3276    1.7409    1.9167 C   0  0  2  0  0  0  0  0  0  0  0  0
   -0.9926    1.1555    1.4755 C   0  0  0  0  0  0  0  0  0  0  0  0
   -0.1206    0.8028    2.2668 O   0  0  0  0  0  0  0  0  0  0  0  0
   -2.3188    3.2577    1.8072 C   0  0  0  0  0  0  0  0  0  0  0  0
   -3.3395    1.7507    3.7809 H   0  0  0  0  0  0  0  0  0  0  0  0
   -3.1317    1.3224    1.3015 H   0  0  0  0  0  0  0  0  0  0  0  0
   -1.5198    3.6949    2.4169 H   0  0  0  0  0  0  0  0  0  0  0  0
   -2.1594    3.5799    0.7729 H   0  0  0  0  0  0  0  0  0  0  0  0
   -3.2690    3.6789    2.1530 H   0  0  0  0  0  0  0  0  0  0  0  0
   -0.8700    1.1124    0.0921 N   0  0  0  0  0  0  0  0  0  0  0  0
    0.3073    0.6116   -0.5716 C   0  0  2  0  0  0  0  0  0  0  0  0
   -0.0378   -0.7673   -1.1227 C   0  0  0  0  0  0  0  0  0  0  0  0
   -0.7061   -0.9328   -2.1410 O   0  0  0  0  0  0  0  0  0  0  0  0
    1.5108    0.5217    0.3738 C   0  0  0  0  0  0  0  0  0  0  0  0
    1.9972    1.8757    0.8297 C   0  0  0  0  0  0  0  0  0  0  0  0
    2.8253    2.6348    0.0028 C   0  0  0  0  0  0  0  0  0  0  0  0
    1.6181    2.3681    2.0785 C   0  0  0  0  0  0  0  0  0  0  0  0
    3.2743    3.8862    0.4248 C   0  0  0  0  0  0  0  0  0  0  0  0
    2.0671    3.6195    2.5004 C   0  0  0  0  0  0  0  0  0  0  0  0
    2.8952    4.3786    1.6735 C   0  0  0  0  0  0  0  0  0  0  0  0
   -1.6531    1.4091   -0.4852 H   0  0  0  0  0  0  0  0  0  0  0  0
    0.5081    1.2922   -1.4073 H   0  0  0  0  0  0  0  0  0  0  0  0
    2.3336   -0.0231   -0.1086 H   0  0  0  0  0  0  0  0  0  0  0  0
    1.2565   -0.0697    1.2633 H   0  0  0  0  0  0  0  0  0  0  0  0
    3.1257    2.2592   -0.9718 H   0  0  0  0  0  0  0  0  0  0  0  0
    0.9731    1.7838    2.7294 H   0  0  0  0  0  0  0  0  0  0  0  0
    3.9200    4.4766   -0.2188 H   0  0  0  0  0  0  0  0  0  0  0  0
    1.7726    4.0021    3.4732 H   0  0  0  0  0  0  0  0  0  0  0  0
    3.2460    5.3524    2.0024 H   0  0  0  0  0  0  0  0  0  0  0  0
    0.5313   -1.7851   -0.3700 N   0  0  0  0  0  0  0  0  0  0  0  0
    0.3803   -3.1868   -0.6878 C   0  0  2  0  0  0  0  0  0  0  0  0
   -1.1023   -3.4640   -0.8993 C   0  0  0  0  0  0  0  0  0  0  0  0
   -1.9907   -2.7541   -0.4325 O   0  0  0  0  0  0  0  0  0  0  0  0
    0.9463   -4.0683    0.4146 C   0  0  0  0  0  0  0  0  0  0  0  0
    1.0817   -1.5320    0.4454 H   0  0  0  0  0  0  0  0  0  0  0  0
    0.9218   -3.3588   -1.6244 H   0  0  0  0  0  0  0  0  0  0  0  0
    0.4162   -3.9099    1.3608 H   0  0  0  0  0  0  0  0  0  0  0  0
    0.8569   -5.1294    0.1594 H   0  0  0  0  0  0  0  0  0  0  0  0
    2.0052   -3.8467    0.5857 H   0  0  0  0  0  0  0  0  0  0  0  0
   -1.3172   -4.6215   -1.6342 N   0  0  0  0  0  0  0  0  0  0  0  0
   -2.6389   -5.1056   -1.9576 C   0  0  0  0  0  0  0  0  0  0  0  0
   -0.5214   -5.1377   -1.9975 H   0  0  0  0  0  0  0  0  0  0  0  0
   -2.9679   -5.8180   -1.1868 H   0  0  0  0  0  0  0  0  0  0  0  0
   -3.3399   -4.2587   -1.9971 H   0  0  0  0  0  0  0  0  0  0  0  0
   -2.6160   -5.6084   -2.9357 H   0  0  0  0  0  0  0  0  0  0  0  0
 25 27  1  0  0  0  0
 26 27  2  0  0  0  0
 23 25  2  0  0  0  0
 24 26  1  0  0  0  0
 22 23  1  0  0  0  0
 22 24  2  0  0  0  0
 21 22  1  0  0  0  0
  1  3  1  0  0  0  0
  1  7  1  0  0  0  0
  1  2  2  0  0  0  0
 38 39  1  0  0  0  0
 39 47  1  0  0  0  0
 39 40  2  0  0  0  0
  8  9  1  0  0  0  0
  9 17  1  0  0  0  0
  9 10  2  0  0  0  0
 18 19  1  0  0  0  0
 19 37  1  0  0  0  0
 19 20  2  0  0  0  0
 38 41  1  0  0  0  0
  8 11  1  0  0  0  0
 47 48  1  0  0  0  0
 18 21  1  0  0  0  0
 37 38  1  0  0  0  0
  7  8  1  0  0  0  0
 17 18  1  0  0  0  0
 27 36  1  0  0  0  0
 25 34  1  0  0  0  0
 26 35  1  0  0  0  0
 23 32  1  0  0  0  0
 24 33  1  0  0  0  0
  3  4  1  0  0  0  0
  3  5  1  0  0  0  0
  3  6  1  0  0  0  0
 41 44  1  0  0  0  0
 41 45  1  0  0  0  0
 41 46  1  0  0  0  0
 11 14  1  0  0  0  0
 11 15  1  0  0  0  0
 11 16  1  0  0  0  0
 48 50  1  0  0  0  0
 48 51  1  0  0  0  0
 48 52  1  0  0  0  0
 21 30  1  0  0  0  0
 21 31  1  0  0  0  0
 38 43  1  0  0  0  0
  8 13  1  0  0  0  0
 18 29  1  0  0  0  0
 47 49  1  0  0  0  0
  7 12  1  0  0  0  0
 37 42  1  0  0  0  0
 17 28  1  0  0  0  0
M  END
$$$$

  -OEChem-05262214473D

 52 52  0     1  0  0  0  0  0999 V2000
   -1.8248    0.3424    3.9102 C   0  0  0  0  0  0  0  0  0  0  0  0
   -0.8774   -0.2723    3.4345 O   0  0  0  0  0  0  0  0  0  0  0  0
   -2.2566    0.0600    5.3109 C   0  0  0  0  0  0  0  0  0  0  0  0
   -3.0163   -0.7363    5.3643 H   0  0  0  0  0  0  0  0  0  0  0  0
   -1.4254   -0.2876    5.9452 H   0  0  0  0  0  0  0  0  0  0  0  0
   -2.6947    0.9149    5.8505 H   0  0  0  0  0  0  0  0  0  0  0  0
   -2.5745    1.3149    3.2691 N   0  0  0  0  0  0  0  0  0  0  0  0
   -2.3276    1.7409    1.9167 C   0  0  2  0  0  0  0  0  0  0  0  0
   -0.9926    1.1555    1.4755 C   0  0  0  0  0  0  0  0  0  0  0  0
   -0.1206    0.8028    2.2668 O   0  0  0  0  0  0  0  0  0  0  0  0
   -2.3188    3.2577    1.8072 C   0  0  0  0  0  0  0  0  0  0  0  0
   -3.3395    1.7507    3.7809 H   0  0  0  0  0  0  0  0  0  0  0  0
   -3.1317    1.3224    1.3015 H   0  0  0  0  0  0  0  0  0  0  0  0
   -1.5198    3.6949    2.4169 H   0  0  0  0  0  0  0  0  0  0  0  0
   -2.1594    3.5799    0.7729 H   0  0  0  0  0  0  0  0  0  0  0  0
   -3.2690    3.6789    2.1530 H   0  0  0  0  0  0  0  0  0  0  0  0
   -0.8700    1.1124    0.0921 N   0  0  0  0  0  0  0  0  0  0  0  0
    0.3073    0.6116   -0.5716 C   0  0  2  0  0  0  0  0  0  0  0  0
   -0.0378   -0.7673   -1.1227 C   0  0  0  0  0  0  0  0  0  0  0  0
   -0.4656   -0.9449   -2.2613 O   0  0  0  0  0  0  0  0  0  0  0  0
    1.5108    0.5217    0.3738 C   0  0  0  0  0  0  0  0  0  0  0  0
    1.9972    1.8757    0.8297 C   0  0  0  0  0  0  0  0  0  0  0  0
    2.8253    2.6348    0.0028 C   0  0  0  0  0  0  0  0  0  0  0  0
    1.6181    2.3681    2.0785 C   0  0  0  0  0  0  0  0  0  0  0  0
    3.2743    3.8862    0.4248 C   0  0  0  0  0  0  0  0  0  0  0  0
    2.0671    3.6195    2.5004 C   0  0  0  0  0  0  0  0  0  0  0  0
    2.8952    4.3786    1.6735 C   0  0  0  0  0  0  0  0  0  0  0  0
   -1.6531    1.4091   -0.4852 H   0  0  0  0  0  0  0  0  0  0  0  0
    0.5081    1.2922   -1.4073 H   0  0  0  0  0  0  0  0  0  0  0  0
    2.3336   -0.0231   -0.1086 H   0  0  0  0  0  0  0  0  0  0  0  0
    1.2565   -0.0697    1.2633 H   0  0  0  0  0  0  0  0  0  0  0  0
    3.1257    2.2592   -0.9718 H   0  0  0  0  0  0  0  0  0  0  0  0
    0.9731    1.7838    2.7294 H   0  0  0  0  0  0  0  0  0  0  0  0
    3.9200    4.4766   -0.2188 H   0  0  0  0  0  0  0  0  0  0  0  0
    1.7726    4.0021    3.4732 H   0  0  0  0  0  0  0  0  0  0  0  0
    3.2460    5.3524    2.0024 H   0  0  0  0  0  0  0  0  0  0  0  0
    0.2365   -1.7755   -0.2092 N   0  0  0  0  0  0  0  0  0  0  0  0
    0.0229   -3.1777   -0.4869 C   0  0  2  0  0  0  0  0  0  0  0  0
   -1.3907   -3.3395   -1.0301 C   0  0  0  0  0  0  0  0  0  0  0  0
   -2.2869   -2.5245   -0.8213 O   0  0  0  0  0  0  0  0  0  0  0  0
    0.2270   -4.0258    0.7588 C   0  0  0  0  0  0  0  0  0  0  0  0
    0.6059   -1.5148    0.7004 H   0  0  0  0  0  0  0  0  0  0  0  0
    0.7462   -3.4609   -1.2593 H   0  0  0  0  0  0  0  0  0  0  0  0
   -0.4889   -3.7565    1.5439 H   0  0  0  0  0  0  0  0  0  0  0  0
    0.0928   -5.0904    0.5403 H   0  0  0  0  0  0  0  0  0  0  0  0
    1.2344   -3.8854    1.1652 H   0  0  0  0  0  0  0  0  0  0  0  0
   -1.5450   -4.5225   -1.7392 N   0  0  0  0  0  0  0  0  0  0  0  0
   -2.7979   -4.9117   -2.3432 C   0  0  0  0  0  0  0  0  0  0  0  0
   -0.7428   -5.1298   -1.8787 H   0  0  0  0  0  0  0  0  0  0  0  0
   -3.3662   -5.5375   -1.6393 H   0  0  0  0  0  0  0  0  0  0  0  0
   -3.3820   -4.0121   -2.5877 H   0  0  0  0  0  0  0  0  0  0  0  0
   -2.6000   -5.4816   -3.2630 H   0  0  0  0  0  0  0  0  0  0  0  0
 25 27  1  0  0  0  0
 26 27  2  0  0  0  0
 23 25  2  0  0  0  0
 24 26  1  0  0  0  0
 22 23  1  0  0  0  0
 22 24  2  0  0  0  0
 21 22  1  0  0  0  0
  1  3  1  0  0  0  0
  1  7  1  0  0  0  0
  1  2  2  0  0  0  0
 38 39  1  0  0  0  0
 39 47  1  0  0  0  0
 39 40  2  0  0  0  0
  8  9  1  0  0  0  0
  9 17  1  0  0  0  0
  9 10  2  0  0  0  0
 18 19  1  0  0  0  0
 19 37  1  0  0  0  0
 19 20  2  0  0  0  0
 38 41  1  0  0  0  0
  8 11  1  0  0  0  0
 47 48  1  0  0  0  0
 18 21  1  0  0  0  0
 37 38  1  0  0  0  0
  7  8  1  0  0  0  0
 17 18  1  0  0  0  0
 27 36  1  0  0  0  0
 25 34  1  0  0  0  0
 26 35  1  0  0  0  0
 23 32  1  0  0  0  0
 24 33  1  0  0  0  0
  3  4  1  0  0  0  0
  3  5  1  0  0  0  0
  3  6  1  0  0  0  0
 41 44  1  0  0  0  0
 41 45  1  0  0  0  0
 41 46  1  0  0  0  0
 11 14  1  0  0  0  0
 11 15  1  0  0  0  0
 11 16  1  0  0  0  0
 48 50  1  0  0  0  0
 48 51  1  0  0  0  0
 48 52  1  0  0  0  0
 21 30  1  0  0  0  0
 21 31  1  0  0  0  0
 38 43  1  0  0  0  0
  8 13  1  0  0  0  0
 18 29  1  0  0  0  0
 47 49  1  0  0  0  0
  7 12  1  0  0  0  0
 37 42  1  0  0  0  0
 17 28  1  0  0  0  0
M  END
$$$$

  -OEChem-05262214473D

 52 52  0     1  0  0  0  0  0999 V2000
   -1.8248    0.3424    3.9102 C   0  0  0  0  0  0  0  0  0  0  0  0
   -0.8774   -0.2723    3.4345 O   0  0  0  0  0  0  0  0  0  0  0  0
   -2.2566    0.0600    5.3109 C   0  0  0  0  0  0  0  0  0  0  0  0
   -3.0163   -0.7363    5.3643 H   0  0  0  0  0  0  0  0  0  0  0  0
   -1.4254   -0.2876    5.9452 H   0  0  0  0  0  0  0  0  0  0  0  0
   -2.6947    0.9149    5.8505 H   0  0  0  0  0  0  0  0  0  0  0  0
   -2.5745    1.3149    3.2691 N   0  0  0  0  0  0  0  0  0  0  0  0
   -2.3276    1.7409    1.9167 C   0  0  2  0  0  0  0  0  0  0  0  0
   -0.9926    1.1555    1.4755 C   0  0  0  0  0  0  0  0  0  0  0  0
   -0.1206    0.8028    2.2668 O   0  0  0  0  0  0  0  0  0  0  0  0
   -2.3188    3.2577    1.8072 C   0  0  0  0  0  0  0  0  0  0  0  0
   -3.3395    1.7507    3.7809 H   0  0  0  0  0  0  0  0  0  0  0  0
   -3.1317    1.3224    1.3015 H   0  0  0  0  0  0  0  0  0  0  0  0
   -1.5198    3.6949    2.4169 H   0  0  0  0  0  0  0  0  0  0  0  0
   -2.1594    3.5799    0.7729 H   0  0  0  0  0  0  0  0  0  0  0  0
   -3.2690    3.6789    2.1530 H   0  0  0  0  0  0  0  0  0  0  0  0
   -0.8700    1.1124    0.0921 N   0  0  0  0  0  0  0  0  0  0  0  0
    0.3073    0.6116   -0.5716 C   0  0  2  0  0  0  0  0  0  0  0  0
   -0.0378   -0.7673   -1.1227 C   0  0  0  0  0  0  0  0  0  0  0  0
   -0.2063   -0.9861   -2.3205 O   0  0  0  0  0  0  0  0  0  0  0  0
    1.5108    0.5217    0.3738 C   0  0  0  0  0  0  0  0  0  0  0  0
    1.9972    1.8757    0.8297 C   0  0  0  0  0  0  0  0  0  0  0  0
    2.8253    2.6348    0.0028 C   0  0  0  0  0  0  0  0  0  0  0  0
    1.6181    2.3681    2.0785 C   0  0  0  0  0  0  0  0  0  0  0  0
    3.2743    3.8862    0.4248 C   0  0  0  0  0  0  0  0  0  0  0  0
    2.0671    3.6195    2.5004 C   0  0  0  0  0  0  0  0  0  0  0  0
    2.8952    4.3786    1.6735 C   0  0  0  0  0  0  0  0  0  0  0  0
   -1.6531    1.4091   -0.4852 H   0  0  0  0  0  0  0  0  0  0  0  0
    0.5081    1.2922   -1.4073 H   0  0  0  0  0  0  0  0  0  0  0  0
    2.3336   -0.0231   -0.1086 H   0  0  0  0  0  0  0  0  0  0  0  0
    1.2565   -0.0697    1.2633 H   0  0  0  0  0  0  0  0  0  0  0  0
    3.1257    2.2592   -0.9718 H   0  0  0  0  0  0  0  0  0  0  0  0
    0.9731    1.7838    2.7294 H   0  0  0  0  0  0  0  0  0  0  0  0
    3.9200    4.4766   -0.2188 H   0  0  0  0  0  0  0  0  0  0  0  0
    1.7726    4.0021    3.4732 H   0  0  0  0  0  0  0  0  0  0  0  0
    3.2460    5.3524    2.0024 H   0  0  0  0  0  0  0  0  0  0  0  0
   -0.0851   -1.7293   -0.1234 N   0  0  0  0  0  0  0  0  0  0  0  0
   -0.3685   -3.1237   -0.3770 C   0  0  2  0  0  0  0  0  0  0  0  0
   -1.6270   -3.2000   -1.2312 C   0  0  0  0  0  0  0  0  0  0  0  0
   -2.4606   -2.2979   -1.2796 O   0  0  0  0  0  0  0  0  0  0  0  0
   -0.5444   -3.8974    0.9204 C   0  0  0  0  0  0  0  0  0  0  0  0
    0.0882   -1.4388    0.8344 H   0  0  0  0  0  0  0  0  0  0  0  0
    0.4816   -3.5216   -0.9417 H   0  0  0  0  0  0  0  0  0  0  0  0
   -1.3917   -3.5129    1.4999 H   0  0  0  0  0  0  0  0  0  0  0  0
   -0.7308   -4.9590    0.7271 H   0  0  0  0  0  0  0  0  0  0  0  0
    0.3506   -3.8167    1.5467 H   0  0  0  0  0  0  0  0  0  0  0  0
   -1.7313   -4.4117   -1.8998 N   0  0  0  0  0  0  0  0  0  0  0  0
   -2.8431   -4.7321   -2.7642 C   0  0  0  0  0  0  0  0  0  0  0  0
   -0.9838   -5.0944   -1.8163 H   0  0  0  0  0  0  0  0  0  0  0  0
   -3.6187   -5.2557   -2.1861 H   0  0  0  0  0  0  0  0  0  0  0  0
   -3.2612   -3.8046   -3.1825 H   0  0  0  0  0  0  0  0  0  0  0  0
   -2.4961   -5.3797   -3.5829 H   0  0  0  0  0  0  0  0  0  0  0  0
 25 27  1  0  0  0  0
 26 27  2  0  0  0  0
 23 25  2  0  0  0  0
 24 26  1  0  0  0  0
 22 23  1  0  0  0  0
 22 24  2  0  0  0  0
 21 22  1  0  0  0  0
  1  3  1  0  0  0  0
  1  7  1  0  0  0  0
  1  2  2  0  0  0  0
 38 39  1  0  0  0  0
 39 47  1  0  0  0  0
 39 40  2  0  0  0  0
  8  9  1  0  0  0  0
  9 17  1  0  0  0  0
  9 10  2  0  0  0  0
 18 19  1  0  0  0  0
 19 37  1  0  0  0  0
 19 20  2  0  0  0  0
 38 41  1  0  0  0  0
  8 11  1  0  0  0  0
 47 48  1  0  0  0  0
 18 21  1  0  0  0  0
 37 38  1  0  0  0  0
  7  8  1  0  0  0  0
 17 18  1  0  0  0  0
 27 36  1  0  0  0  0
 25 34  1  0  0  0  0
 26 35  1  0  0  0  0
 23 32  1  0  0  0  0
 24 33  1  0  0  0  0
  3  4  1  0  0  0  0
  3  5  1  0  0  0  0
  3  6  1  0  0  0  0
 41 44  1  0  0  0  0
 41 45  1  0  0  0  0
 41 46  1  0  0  0  0
 11 14  1  0  0  0  0
 11 15  1  0  0  0  0
 11 16  1  0  0  0  0
 48 50  1  0  0  0  0
 48 51  1  0  0  0  0
 48 52  1  0  0  0  0
 21 30  1  0  0  0  0
 21 31  1  0  0  0  0
 38 43  1  0  0  0  0
  8 13  1  0  0  0  0
 18 29  1  0  0  0  0
 47 49  1  0  0  0  0
  7 12  1  0  0  0  0
 37 42  1  0  0  0  0
 17 28  1  0  0  0  0
M  END
$$$$

  -OEChem-05262214473D

 52 52  0     1  0  0  0  0  0999 V2000
   -1.8248    0.3424    3.9102 C   0  0  0  0  0  0  0  0  0  0  0  0
   -0.8774   -0.2723    3.4345 O   0  0  0  0  0  0  0  0  0  0  0  0
   -2.2566    0.0600    5.3109 C   0  0  0  0  0  0  0  0  0  0  0  0
   -3.0163   -0.7363    5.3643 H   0  0  0  0  0  0  0  0  0  0  0  0
   -1.4254   -0.2876    5.9452 H   0  0  0  0  0  0  0  0  0  0  0  0
   -2.6947    0.9149    5.8505 H   0  0  0  0  0  0  0  0  0  0  0  0
   -2.5745    1.3149    3.2691 N   0  0  0  0  0  0  0  0  0  0  0  0
   -2.3276    1.7409    1.9167 C   0  0  2  0  0  0  0  0  0  0  0  0
   -0.9926    1.1555    1.4755 C   0  0  0  0  0  0  0  0  0  0  0  0
   -0.1206    0.8028    2.2668 O   0  0  0  0  0  0  0  0  0  0  0  0
   -2.3188    3.2577    1.8072 C   0  0  0  0  0  0  0  0  0  0  0  0
   -3.3395    1.7507    3.7809 H   0  0  0  0  0  0  0  0  0  0  0  0
   -3.1317    1.3224    1.3015 H   0  0  0  0  0  0  0  0  0  0  0  0
   -1.5198    3.6949    2.4169 H   0  0  0  0  0  0  0  0  0  0  0  0
   -2.1594    3.5799    0.7729 H   0  0  0  0  0  0  0  0  0  0  0  0
   -3.2690    3.6789    2.1530 H   0  0  0  0  0  0  0  0  0  0  0  0
   -0.8700    1.1124    0.0921 N   0  0  0  0  0  0  0  0  0  0  0  0
    0.3073    0.6116   -0.5716 C   0  0  2  0  0  0  0  0  0  0  0  0
   -0.0378   -0.7673   -1.1227 C   0  0  0  0  0  0  0  0  0  0  0  0
    0.0542   -1.0537   -2.3145 O   0  0  0  0  0  0  0  0  0  0  0  0
    1.5108    0.5217    0.3738 C   0  0  0  0  0  0  0  0  0  0  0  0
    1.9972    1.8757    0.8297 C   0  0  0  0  0  0  0  0  0  0  0  0
    2.8253    2.6348    0.0028 C   0  0  0  0  0  0  0  0  0  0  0  0
    1.6181    2.3681    2.0785 C   0  0  0  0  0  0  0  0  0  0  0  0
    3.2743    3.8862    0.4248 C   0  0  0  0  0  0  0  0  0  0  0  0
    2.0671    3.6195    2.5004 C   0  0  0  0  0  0  0  0  0  0  0  0
    2.8952    4.3786    1.6735 C   0  0  0  0  0  0  0  0  0  0  0  0
   -1.6531    1.4091   -0.4852 H   0  0  0  0  0  0  0  0  0  0  0  0
    0.5081    1.2922   -1.4073 H   0  0  0  0  0  0  0  0  0  0  0  0
    2.3336   -0.0231   -0.1086 H   0  0  0  0  0  0  0  0  0  0  0  0
    1.2565   -0.0697    1.2633 H   0  0  0  0  0  0  0  0  0  0  0  0
    3.1257    2.2592   -0.9718 H   0  0  0  0  0  0  0  0  0  0  0  0
    0.9731    1.7838    2.7294 H   0  0  0  0  0  0  0  0  0  0  0  0
    3.9200    4.4766   -0.2188 H   0  0  0  0  0  0  0  0  0  0  0  0
    1.7726    4.0021    3.4732 H   0  0  0  0  0  0  0  0  0  0  0  0
    3.2460    5.3524    2.0024 H   0  0  0  0  0  0  0  0  0  0  0  0
   -0.4114   -1.6496   -0.1186 N   0  0  0  0  0  0  0  0  0  0  0  0
   -0.7672   -3.0284   -0.3656 C   0  0  2  0  0  0  0  0  0  0  0  0
   -1.7951   -3.0549   -1.4890 C   0  0  0  0  0  0  0  0  0  0  0  0
   -2.4999   -2.0895   -1.7762 O   0  0  0  0  0  0  0  0  0  0  0  0
   -1.3154   -3.6916    0.8884 C   0  0  0  0  0  0  0  0  0  0  0  0
   -0.4361   -1.3091    0.8381 H   0  0  0  0  0  0  0  0  0  0  0  0
    0.1461   -3.5369   -0.6934 H   0  0  0  0  0  0  0  0  0  0  0  0
   -2.2306   -3.1958    1.2318 H   0  0  0  0  0  0  0  0  0  0  0  0
   -1.5577   -4.7440    0.7071 H   0  0  0  0  0  0  0  0  0  0  0  0
   -0.5861   -3.6453    1.7043 H   0  0  0  0  0  0  0  0  0  0  0  0
   -1.8632   -4.2967   -2.1050 N   0  0  0  0  0  0  0  0  0  0  0  0
   -2.7714   -4.5790   -3.1920 C   0  0  0  0  0  0  0  0  0  0  0  0
   -1.2278   -5.0340   -1.8146 H   0  0  0  0  0  0  0  0  0  0  0  0
   -3.7083   -4.9920   -2.7899 H   0  0  0  0  0  0  0  0  0  0  0  0
   -2.9860   -3.6503   -3.7410 H   0  0  0  0  0  0  0  0  0  0  0  0
   -2.3114   -5.3098   -3.8735 H   0  0  0  0  0  0  0  0  0  0  0  0
 25 27  1  0  0  0  0
 26 27  2  0  0  0  0
 23 25  2  0  0  0  0
 24 26  1  0  0  0  0
 22 23  1  0  0  0  0
 22 24  2  0  0  0  0
 21 22  1  0  0  0  0
  1  3  1  0  0  0  0
  1  7  1  0  0  0  0
  1  2  2  0  0  0  0
 38 39  1  0  0  0  0
 39 47  1  0  0  0  0
 39 40  2  0  0  0  0
  8  9  1  0  0  0  0
  9 17  1  0  0  0  0
  9 10  2  0  0  0  0
 18 19  1  0  0  0  0
 19 37  1  0  0  0  0
 19 20  2  0  0  0  0
 38 41  1  0  0  0  0
  8 11  1  0  0  0  0
 47 48  1  0  0  0  0
 18 21  1  0  0  0  0
 37 38  1  0  0  0  0
  7  8  1  0  0  0  0
 17 18  1  0  0  0  0
 27 36  1  0  0  0  0
 25 34  1  0  0  0  0
 26 35  1  0  0  0  0
 23 32  1  0  0  0  0
 24 33  1  0  0  0  0
  3  4  1  0  0  0  0
  3  5  1  0  0  0  0
  3  6  1  0  0  0  0
 41 44  1  0  0  0  0
 41 45  1  0  0  0  0
 41 46  1  0  0  0  0
 11 14  1  0  0  0  0
 11 15  1  0  0  0  0
 11 16  1  0  0  0  0
 48 50  1  0  0  0  0
 48 51  1  0  0  0  0
 48 52  1  0  0  0  0
 21 30  1  0  0  0  0
 21 31  1  0  0  0  0
 38 43  1  0  0  0  0
  8 13  1  0  0  0  0
 18 29  1  0  0  0  0
 47 49  1  0  0  0  0
  7 12  1  0  0  0  0
 37 42  1  0  0  0  0
 17 28  1  0  0  0  0
M  END
$$$$

  -OEChem-05262214473D

 52 52  0     1  0  0  0  0  0999 V2000
   -1.8248    0.3424    3.9102 C   0  0  0  0  0  0  0  0  0  0  0  0
   -0.8774   -0.2723    3.4345 O   0  0  0  0  0  0  0  0  0  0  0  0
   -2.2566    0.0600    5.3109 C   0  0  0  0  0  0  0  0  0  0  0  0
   -3.0163   -0.7363    5.3643 H   0  0  0  0  0  0  0  0  0  0  0  0
   -1.4254   -0.2876    5.9452 H   0  0  0  0  0  0  0  0  0  0  0  0
   -2.6947    0.9149    5.8505 H   0  0  0  0  0  0  0  0  0  0  0  0
   -2.5745    1.3149    3.2691 N   0  0  0  0  0  0  0  0  0  0  0  0
   -2.3276    1.7409    1.9167 C   0  0  2  0  0  0  0  0  0  0  0  0
   -0.9926    1.1555    1.4755 C   0  0  0  0  0  0  0  0  0  0  0  0
   -0.1206    0.8028    2.2668 O   0  0  0  0  0  0  0  0  0  0  0  0
   -2.3188    3.2577    1.8072 C   0  0  0  0  0  0  0  0  0  0  0  0
   -3.3395    1.7507    3.7809 H   0  0  0  0  0  0  0  0  0  0  0  0
   -3.1317    1.3224    1.3015 H   0  0  0  0  0  0  0  0  0  0  0  0
   -1.5198    3.6949    2.4169 H   0  0  0  0  0  0  0  0  0  0  0  0
   -2.1594    3.5799    0.7729 H   0  0  0  0  0  0  0  0  0  0  0  0
   -3.2690    3.6789    2.1530 H   0  0  0  0  0  0  0  0  0  0  0  0
   -0.8700    1.1124    0.0921 N   0  0  0  0  0  0  0  0  0  0  0  0
    0.3073    0.6116   -0.5716 C   0  0  2  0  0  0  0  0  0  0  0  0
   -0.0378   -0.7673   -1.1227 C   0  0  0  0  0  0  0  0  0  0  0  0
    0.2981   -1.1430   -2.2438 O   0  0  0  0  0  0  0  0  0  0  0  0
    1.5108    0.5217    0.3738 C   0  0  0  0  0  0  0  0  0  0  0  0
    1.9972    1.8757    0.8297 C   0  0  0  0  0  0  0  0  0  0  0  0
    2.8253    2.6348    0.0028 C   0  0  0  0  0  0  0  0  0  0  0  0
    1.6181    2.3681    2.0785 C   0  0  0  0  0  0  0  0  0  0  0  0
    3.2743    3.8862    0.4248 C   0  0  0  0  0  0  0  0  0  0  0  0
    2.0671    3.6195    2.5004 C   0  0  0  0  0  0  0  0  0  0  0  0
    2.8952    4.3786    1.6735 C   0  0  0  0  0  0  0  0  0  0  0  0
   -1.6531    1.4091   -0.4852 H   0  0  0  0  0  0  0  0  0  0  0  0
    0.5081    1.2922   -1.4073 H   0  0  0  0  0  0  0  0  0  0  0  0
    2.3336   -0.0231   -0.1086 H   0  0  0  0  0  0  0  0  0  0  0  0
    1.2565   -0.0697    1.2633 H   0  0  0  0  0  0  0  0  0  0  0  0
    3.1257    2.2592   -0.9718 H   0  0  0  0  0  0  0  0  0  0  0  0
    0.9731    1.7838    2.7294 H   0  0  0  0  0  0  0  0  0  0  0  0
    3.9200    4.4766   -0.2188 H   0  0  0  0  0  0  0  0  0  0  0  0
    1.7726    4.0021    3.4732 H   0  0  0  0  0  0  0  0  0  0  0  0
    3.2460    5.3524    2.0024 H   0  0  0  0  0  0  0  0  0  0  0  0
   -0.7203   -1.5417   -0.1949 N   0  0  0  0  0  0  0  0  0  0  0  0
   -1.1461   -2.8984   -0.4535 C   0  0  2  0  0  0  0  0  0  0  0  0
   -1.8836   -2.9140   -1.7859 C   0  0  0  0  0  0  0  0  0  0  0  0
   -2.4021   -1.9137   -2.2774 O   0  0  0  0  0  0  0  0  0  0  0  0
   -2.0333   -3.4226    0.6649 C   0  0  0  0  0  0  0  0  0  0  0  0
   -0.9312   -1.1345    0.7114 H   0  0  0  0  0  0  0  0  0  0  0  0
   -0.2377   -3.5057   -0.5311 H   0  0  0  0  0  0  0  0  0  0  0  0
   -2.9485   -2.8267    0.7579 H   0  0  0  0  0  0  0  0  0  0  0  0
   -2.3316   -4.4601    0.4815 H   0  0  0  0  0  0  0  0  0  0  0  0
   -1.5116   -3.3828    1.6273 H   0  0  0  0  0  0  0  0  0  0  0  0
   -1.9319   -4.1852   -2.3408 N   0  0  0  0  0  0  0  0  0  0  0  0
   -2.5876   -4.4630   -3.5974 C   0  0  0  0  0  0  0  0  0  0  0  0
   -1.4583   -4.9528   -1.8735 H   0  0  0  0  0  0  0  0  0  0  0  0
   -3.6288   -4.7642   -3.4095 H   0  0  0  0  0  0  0  0  0  0  0  0
   -2.5749   -3.5597   -4.2250 H   0  0  0  0  0  0  0  0  0  0  0  0
   -2.0584   -5.2766   -4.1150 H   0  0  0  0  0  0  0  0  0  0  0  0
 25 27  1  0  0  0  0
 26 27  2  0  0  0  0
 23 25  2  0  0  0  0
 24 26  1  0  0  0  0
 22 23  1  0  0  0  0
 22 24  2  0  0  0  0
 21 22  1  0  0  0  0
  1  3  1  0  0  0  0
  1  7  1  0  0  0  0
  1  2  2  0  0  0  0
 38 39  1  0  0  0  0
 39 47  1  0  0  0  0
 39 40  2  0  0  0  0
  8  9  1  0  0  0  0
  9 17  1  0  0  0  0
  9 10  2  0  0  0  0
 18 19  1  0  0  0  0
 19 37  1  0  0  0  0
 19 20  2  0  0  0  0
 38 41  1  0  0  0  0
  8 11  1  0  0  0  0
 47 48  1  0  0  0  0
 18 21  1  0  0  0  0
 37 38  1  0  0  0  0
  7  8  1  0  0  0  0
 17 18  1  0  0  0  0
 27 36  1  0  0  0  0
 25 34  1  0  0  0  0
 26 35  1  0  0  0  0
 23 32  1  0  0  0  0
 24 33  1  0  0  0  0
  3  4  1  0  0  0  0
  3  5  1  0  0  0  0
  3  6  1  0  0  0  0
 41 44  1  0  0  0  0
 41 45  1  0  0  0  0
 41 46  1  0  0  0  0
 11 14  1  0  0  0  0
 11 15  1  0  0  0  0
 11 16  1  0  0  0  0
 48 50  1  0  0  0  0
 48 51  1  0  0  0  0
 48 52  1  0  0  0  0
 21 30  1  0  0  0  0
 21 31  1  0  0  0  0
 38 43  1  0  0  0  0
  8 13  1  0  0  0  0
 18 29  1  0  0  0  0
 47 49  1  0  0  0  0
  7 12  1  0  0  0  0
 37 42  1  0  0  0  0
 17 28  1  0  0  0  0
M  END
$$$$

  -OEChem-05262214473D

 52 52  0     1  0  0  0  0  0999 V2000
   -1.8248    0.3424    3.9102 C   0  0  0  0  0  0  0  0  0  0  0  0
   -0.8774   -0.2723    3.4345 O   0  0  0  0  0  0  0  0  0  0  0  0
   -2.2566    0.0600    5.3109 C   0  0  0  0  0  0  0  0  0  0  0  0
   -3.0163   -0.7363    5.3643 H   0  0  0  0  0  0  0  0  0  0  0  0
   -1.4254   -0.2876    5.9452 H   0  0  0  0  0  0  0  0  0  0  0  0
   -2.6947    0.9149    5.8505 H   0  0  0  0  0  0  0  0  0  0  0  0
   -2.5745    1.3149    3.2691 N   0  0  0  0  0  0  0  0  0  0  0  0
   -2.3276    1.7409    1.9167 C   0  0  2  0  0  0  0  0  0  0  0  0
   -0.9926    1.1555    1.4755 C   0  0  0  0  0  0  0  0  0  0  0  0
   -0.1206    0.8028    2.2668 O   0  0  0  0  0  0  0  0  0  0  0  0
   -2.3188    3.2577    1.8072 C   0  0  0  0  0  0  0  0  0  0  0  0
   -3.3395    1.7507    3.7809 H   0  0  0  0  0  0  0  0  0  0  0  0
   -3.1317    1.3224    1.3015 H   0  0  0  0  0  0  0  0  0  0  0  0
   -1.5198    3.6949    2.4169 H   0  0  0  0  0  0  0  0  0  0  0  0
   -2.1594    3.5799    0.7729 H   0  0  0  0  0  0  0  0  0  0  0  0
   -3.2690    3.6789    2.1530 H   0  0  0  0  0  0  0  0  0  0  0  0
   -0.8700    1.1124    0.0921 N   0  0  0  0  0  0  0  0  0  0  0  0
    0.3073    0.6116   -0.5716 C   0  0  2  0  0  0  0  0  0  0  0  0
   -0.0378   -0.7673   -1.1227 C   0  0  0  0  0  0  0  0  0  0  0  0
    0.5088   -1.2480   -2.1132 O   0  0  0  0  0  0  0  0  0  0  0  0
    1.5108    0.5217    0.3738 C   0  0  0  0  0  0  0  0  0  0  0  0
    1.9972    1.8757    0.8297 C   0  0  0  0  0  0  0  0  0  0  0  0
    2.8253    2.6348    0.0028 C   0  0  0  0  0  0  0  0  0  0  0  0
    1.6181    2.3681    2.0785 C   0  0  0  0  0  0  0  0  0  0  0  0
    3.2743    3.8862    0.4248 C   0  0  0  0  0  0  0  0  0  0  0  0
    2.0671    3.6195    2.5004 C   0  0  0  0  0  0  0  0  0  0  0  0
    2.8952    4.3786    1.6735 C   0  0  0  0  0  0  0  0  0  0  0  0
   -1.6531    1.4091   -0.4852 H   0  0  0  0  0  0  0  0  0  0  0  0
    0.5081    1.2922   -1.4073 H   0  0  0  0  0  0  0  0  0  0  0  0
    2.3336   -0.0231   -0.1086 H   0  0  0  0  0  0  0  0  0  0  0  0
    1.2565   -0.0697    1.2633 H   0  0  0  0  0  0  0  0  0  0  0  0
    3.1257    2.2592   -0.9718 H   0  0  0  0  0  0  0  0  0  0  0  0
    0.9731    1.7838    2.7294 H   0  0  0  0  0  0  0  0  0  0  0  0
    3.9200    4.4766   -0.2188 H   0  0  0  0  0  0  0  0  0  0  0  0
    1.7726    4.0021    3.4732 H   0  0  0  0  0  0  0  0  0  0  0  0
    3.2460    5.3524    2.0024 H   0  0  0  0  0  0  0  0  0  0  0  0
   -0.9907   -1.4131   -0.3473 N   0  0  0  0  0  0  0  0  0  0  0  0
   -1.4794   -2.7426   -0.6347 C   0  0  2  0  0  0  0  0  0  0  0  0
   -1.8864   -2.7872   -2.1017 C   0  0  0  0  0  0  0  0  0  0  0  0
   -2.1739   -1.7824   -2.7488 O   0  0  0  0  0  0  0  0  0  0  0  0
   -2.6492   -3.1087    0.2653 C   0  0  0  0  0  0  0  0  0  0  0  0
   -1.3635   -0.9270    0.4629 H   0  0  0  0  0  0  0  0  0  0  0  0
   -0.6434   -3.4301   -0.4660 H   0  0  0  0  0  0  0  0  0  0  0  0
   -3.4965   -2.4307    0.1104 H   0  0  0  0  0  0  0  0  0  0  0  0
   -2.9998   -4.1267    0.0659 H   0  0  0  0  0  0  0  0  0  0  0  0
   -2.3630   -3.0472    1.3208 H   0  0  0  0  0  0  0  0  0  0  0  0
   -1.9326   -4.0850   -2.5913 N   0  0  0  0  0  0  0  0  0  0  0  0
   -2.3044   -4.3919   -3.9527 C   0  0  0  0  0  0  0  0  0  0  0  0
   -1.6596   -4.8562   -1.9892 H   0  0  0  0  0  0  0  0  0  0  0  0
   -3.3856   -4.5880   -4.0027 H   0  0  0  0  0  0  0  0  0  0  0  0
   -2.0561   -3.5390   -4.6016 H   0  0  0  0  0  0  0  0  0  0  0  0
   -1.7543   -5.2823   -4.2910 H   0  0  0  0  0  0  0  0  0  0  0  0
 25 27  1  0  0  0  0
 26 27  2  0  0  0  0
 23 25  2  0  0  0  0
 24 26  1  0  0  0  0
 22 23  1  0  0  0  0
 22 24  2  0  0  0  0
 21 22  1  0  0  0  0
  1  3  1  0  0  0  0
  1  7  1  0  0  0  0
  1  2  2  0  0  0  0
 38 39  1  0  0  0  0
 39 47  1  0  0  0  0
 39 40  2  0  0  0  0
  8  9  1  0  0  0  0
  9 17  1  0  0  0  0
  9 10  2  0  0  0  0
 18 19  1  0  0  0  0
 19 37  1  0  0  0  0
 19 20  2  0  0  0  0
 38 41  1  0  0  0  0
  8 11  1  0  0  0  0
 47 48  1  0  0  0  0
 18 21  1  0  0  0  0
 37 38  1  0  0  0  0
  7  8  1  0  0  0  0
 17 18  1  0  0  0  0
 27 36  1  0  0  0  0
 25 34  1  0  0  0  0
 26 35  1  0  0  0  0
 23 32  1  0  0  0  0
 24 33  1  0  0  0  0
  3  4  1  0  0  0  0
  3  5  1  0  0  0  0
  3  6  1  0  0  0  0
 41 44  1  0  0  0  0
 41 45  1  0  0  0  0
 41 46  1  0  0  0  0
 11 14  1  0  0  0  0
 11 15  1  0  0  0  0
 11 16  1  0  0  0  0
 48 50  1  0  0  0  0
 48 51  1  0  0  0  0
 48 52  1  0  0  0  0
 21 30  1  0  0  0  0
 21 31  1  0  0  0  0
 38 43  1  0  0  0  0
  8 13  1  0  0  0  0
 18 29  1  0  0  0  0
 47 49  1  0  0  0  0
  7 12  1  0  0  0  0
 37 42  1  0  0  0  0
 17 28  1  0  0  0  0
M  END
$$$$

  -OEChem-05262214473D

 52 52  0     1  0  0  0  0  0999 V2000
   -1.8248    0.3424    3.9102 C   0  0  0  0  0  0  0  0  0  0  0  0
   -0.8774   -0.2723    3.4345 O   0  0  0  0  0  0  0  0  0  0  0  0
   -2.2566    0.0600    5.3109 C   0  0  0  0  0  0  0  0  0  0  0  0
   -3.0163   -0.7363    5.3643 H   0  0  0  0  0  0  0  0  0  0  0  0
   -1.4254   -0.2876    5.9452 H   0  0  0  0  0  0  0  0  0  0  0  0
   -2.6947    0.9149    5.8505 H   0  0  0  0  0  0  0  0  0  0  0  0
   -2.5745    1.3149    3.2691 N   0  0  0  0  0  0  0  0  0  0  0  0
   -2.3276    1.7409    1.9167 C   0  0  2  0  0  0  0  0  0  0  0  0
   -0.9926    1.1555    1.4755 C   0  0  0  0  0  0  0  0  0  0  0  0
   -0.1206    0.8028    2.2668 O   0  0  0  0  0  0  0  0  0  0  0  0
   -2.3188    3.2577    1.8072 C   0  0  0  0  0  0  0  0  0  0  0  0
   -3.3395    1.7507    3.7809 H   0  0  0  0  0  0  0  0  0  0  0  0
   -3.1317    1.3224    1.3015 H   0  0  0  0  0  0  0  0  0  0  0  0
   -1.5198    3.6949    2.4169 H   0  0  0  0  0  0  0  0  0  0  0  0
   -2.1594    3.5799    0.7729 H   0  0  0  0  0  0  0  0  0  0  0  0
   -3.2690    3.6789    2.1530 H   0  0  0  0  0  0  0  0  0  0  0  0
   -0.8700    1.1124    0.0921 N   0  0  0  0  0  0  0  0  0  0  0  0
    0.3073    0.6116   -0.5716 C   0  0  2  0  0  0  0  0  0  0  0  0
   -0.0378   -0.7673   -1.1227 C   0  0  0  0  0  0  0  0  0  0  0  0
    0.6719   -1.3614   -1.9316 O   0  0  0  0  0  0  0  0  0  0  0  0
    1.5108    0.5217    0.3738 C   0  0  0  0  0  0  0  0  0  0  0  0
    1.9972    1.8757    0.8297 C   0  0  0  0  0  0  0  0  0  0  0  0
    2.8253    2.6348    0.0028 C   0  0  0  0  0  0  0  0  0  0  0  0
    1.6181    2.3681    2.0785 C   0  0  0  0  0  0  0  0  0  0  0  0
    3.2743    3.8862    0.4248 C   0  0  0  0  0  0  0  0  0  0  0  0
    2.0671    3.6195    2.5004 C   0  0  0  0  0  0  0  0  0  0  0  0
    2.8952    4.3786    1.6735 C   0  0  0  0  0  0  0  0  0  0  0  0
   -1.6531    1.4091   -0.4852 H   0  0  0  0  0  0  0  0  0  0  0  0
    0.5081    1.2922   -1.4073 H   0  0  0  0  0  0  0  0  0  0  0  0
    2.3336   -0.0231   -0.1086 H   0  0  0  0  0  0  0  0  0  0  0  0
    1.2565   -0.0697    1.2633 H   0  0  0  0  0  0  0  0  0  0  0  0
    3.1257    2.2592   -0.9718 H   0  0  0  0  0  0  0  0  0  0  0  0
    0.9731    1.7838    2.7294 H   0  0  0  0  0  0  0  0  0  0  0  0
    3.9200    4.4766   -0.2188 H   0  0  0  0  0  0  0  0  0  0  0  0
    1.7726    4.0021    3.4732 H   0  0  0  0  0  0  0  0  0  0  0  0
    3.2460    5.3524    2.0024 H   0  0  0  0  0  0  0  0  0  0  0  0
   -1.2042   -1.2725   -0.5654 N   0  0  0  0  0  0  0  0  0  0  0  0
   -1.7442   -2.5715   -0.8969 C   0  0  2  0  0  0  0  0  0  0  0  0
   -1.8033   -2.6828   -2.4147 C   0  0  0  0  0  0  0  0  0  0  0  0
   -1.8308   -1.7045   -3.1585 O   0  0  0  0  0  0  0  0  0  0  0  0
   -3.1213   -2.7713   -0.2833 C   0  0  0  0  0  0  0  0  0  0  0  0
   -1.7034   -0.7006    0.1095 H   0  0  0  0  0  0  0  0  0  0  0  0
   -1.0434   -3.3154   -0.5026 H   0  0  0  0  0  0  0  0  0  0  0  0
   -3.8371   -2.0349   -0.6665 H   0  0  0  0  0  0  0  0  0  0  0  0
   -3.5168   -3.7665   -0.5116 H   0  0  0  0  0  0  0  0  0  0  0  0
   -3.0823   -2.6614    0.8058 H   0  0  0  0  0  0  0  0  0  0  0  0
   -1.8652   -4.0027   -2.8392 N   0  0  0  0  0  0  0  0  0  0  0  0
   -1.9410   -4.3705   -4.2338 C   0  0  0  0  0  0  0  0  0  0  0  0
   -1.8179   -4.7508   -2.1537 H   0  0  0  0  0  0  0  0  0  0  0  0
   -2.9954   -4.4752   -4.5292 H   0  0  0  0  0  0  0  0  0  0  0  0
   -1.4649   -3.5897   -4.8451 H   0  0  0  0  0  0  0  0  0  0  0  0
   -1.4199   -5.3266   -4.3896 H   0  0  0  0  0  0  0  0  0  0  0  0
 25 27  1  0  0  0  0
 26 27  2  0  0  0  0
 23 25  2  0  0  0  0
 24 26  1  0  0  0  0
 22 23  1  0  0  0  0
 22 24  2  0  0  0  0
 21 22  1  0  0  0  0
  1  3  1  0  0  0  0
  1  7  1  0  0  0  0
  1  2  2  0  0  0  0
 38 39  1  0  0  0  0
 39 47  1  0  0  0  0
 39 40  2  0  0  0  0
  8  9  1  0  0  0  0
  9 17  1  0  0  0  0
  9 10  2  0  0  0  0
 18 19  1  0  0  0  0
 19 37  1  0  0  0  0
 19 20  2  0  0  0  0
 38 41  1  0  0  0  0
  8 11  1  0  0  0  0
 47 48  1  0  0  0  0
 18 21  1  0  0  0  0
 37 38  1  0  0  0  0
  7  8  1  0  0  0  0
 17 18  1  0  0  0  0
 27 36  1  0  0  0  0
 25 34  1  0  0  0  0
 26 35  1  0  0  0  0
 23 32  1  0  0  0  0
 24 33  1  0  0  0  0
  3  4  1  0  0  0  0
  3  5  1  0  0  0  0
  3  6  1  0  0  0  0
 41 44  1  0  0  0  0
 41 45  1  0  0  0  0
 41 46  1  0  0  0  0
 11 14  1  0  0  0  0
 11 15  1  0  0  0  0
 11 16  1  0  0  0  0
 48 50  1  0  0  0  0
 48 51  1  0  0  0  0
 48 52  1  0  0  0  0
 21 30  1  0  0  0  0
 21 31  1  0  0  0  0
 38 43  1  0  0  0  0
  8 13  1  0  0  0  0
 18 29  1  0  0  0  0
 47 49  1  0  0  0  0
  7 12  1  0  0  0  0
 37 42  1  0  0  0  0
 17 28  1  0  0  0  0
M  END
$$$$

  -OEChem-05262214473D

 52 52  0     1  0  0  0  0  0999 V2000
   -1.8248    0.3424    3.9102 C   0  0  0  0  0  0  0  0  0  0  0  0
   -0.8774   -0.2723    3.4345 O   0  0  0  0  0  0  0  0  0  0  0  0
   -2.2566    0.0600    5.3109 C   0  0  0  0  0  0  0  0  0  0  0  0
   -3.0163   -0.7363    5.3643 H   0  0  0  0  0  0  0  0  0  0  0  0
   -1.4254   -0.2876    5.9452 H   0  0  0  0  0  0  0  0  0  0  0  0
   -2.6947    0.9149    5.8505 H   0  0  0  0  0  0  0  0  0  0  0  0
   -2.5745    1.3149    3.2691 N   0  0  0  0  0  0  0  0  0  0  0  0
   -2.3276    1.7409    1.9167 C   0  0  2  0  0  0  0  0  0  0  0  0
   -0.9926    1.1555    1.4755 C   0  0  0  0  0  0  0  0  0  0  0  0
   -0.1206    0.8028    2.2668 O   0  0  0  0  0  0  0  0  0  0  0  0
   -2.3188    3.2577    1.8072 C   0  0  0  0  0  0  0  0  0  0  0  0
   -3.3395    1.7507    3.7809 H   0  0  0  0  0  0  0  0  0  0  0  0
   -3.1317    1.3224    1.3015 H   0  0  0  0  0  0  0  0  0  0  0  0
   -1.5198    3.6949    2.4169 H   0  0  0  0  0  0  0  0  0  0  0  0
   -2.1594    3.5799    0.7729 H   0  0  0  0  0  0  0  0  0  0  0  0
   -3.2690    3.6789    2.1530 H   0  0  0  0  0  0  0  0  0  0  0  0
   -0.8700    1.1124    0.0921 N   0  0  0  0  0  0  0  0  0  0  0  0
    0.3073    0.6116   -0.5716 C   0  0  2  0  0  0  0  0  0  0  0  0
   -0.0378   -0.7673   -1.1227 C   0  0  0  0  0  0  0  0  0  0  0  0
    0.7763   -1.4755   -1.7113 O   0  0  0  0  0  0  0  0  0  0  0  0
    1.5108    0.5217    0.3738 C   0  0  0  0  0  0  0  0  0  0  0  0
    1.9972    1.8757    0.8297 C   0  0  0  0  0  0  0  0  0  0  0  0
    2.8253    2.6348    0.0028 C   0  0  0  0  0  0  0  0  0  0  0  0
    1.6181    2.3681    2.0785 C   0  0  0  0  0  0  0  0  0  0  0  0
    3.2743    3.8862    0.4248 C   0  0  0  0  0  0  0  0  0  0  0  0
    2.0671    3.6195    2.5004 C   0  0  0  0  0  0  0  0  0  0  0  0
    2.8952    4.3786    1.6735 C   0  0  0  0  0  0  0  0  0  0  0  0
   -1.6531    1.4091   -0.4852 H   0  0  0  0  0  0  0  0  0  0  0  0
    0.5081    1.2922   -1.4073 H   0  0  0  0  0  0  0  0  0  0  0  0
    2.3336   -0.0231   -0.1086 H   0  0  0  0  0  0  0  0  0  0  0  0
    1.2565   -0.0697    1.2633 H   0  0  0  0  0  0  0  0  0  0  0  0
    3.1257    2.2592   -0.9718 H   0  0  0  0  0  0  0  0  0  0  0  0
    0.9731    1.7838    2.7294 H   0  0  0  0  0  0  0  0  0  0  0  0
    3.9200    4.4766   -0.2188 H   0  0  0  0  0  0  0  0  0  0  0  0
    1.7726    4.0021    3.4732 H   0  0  0  0  0  0  0  0  0  0  0  0
    3.2460    5.3524    2.0024 H   0  0  0  0  0  0  0  0  0  0  0  0
   -1.3462   -1.1295   -0.8342 N   0  0  0  0  0  0  0  0  0  0  0  0
   -1.9227   -2.3968   -1.2222 C   0  0  2  0  0  0  0  0  0  0  0  0
   -1.6400   -2.6082   -2.7038 C   0  0  0  0  0  0  0  0  0  0  0  0
   -1.3962   -1.6854   -3.4784 O   0  0  0  0  0  0  0  0  0  0  0  0
   -3.4173   -2.4333   -0.9435 C   0  0  0  0  0  0  0  0  0  0  0  0
   -1.9279   -0.4709   -0.3248 H   0  0  0  0  0  0  0  0  0  0  0  0
   -1.4106   -3.1693   -0.6383 H   0  0  0  0  0  0  0  0  0  0  0  0
   -3.9473   -1.6663   -1.5198 H   0  0  0  0  0  0  0  0  0  0  0  0
   -3.8472   -3.4041   -1.2115 H   0  0  0  0  0  0  0  0  0  0  0  0
   -3.6204   -2.2515    0.1174 H   0  0  0  0  0  0  0  0  0  0  0  0
   -1.7344   -3.9441   -3.0677 N   0  0  0  0  0  0  0  0  0  0  0  0
   -1.5221   -4.4003   -4.4215 C   0  0  0  0  0  0  0  0  0  0  0  0
   -1.9224   -4.6438   -2.3558 H   0  0  0  0  0  0  0  0  0  0  0  0
   -2.4846   -4.4337   -4.9529 H   0  0  0  0  0  0  0  0  0  0  0  0
   -0.8415   -3.7082   -4.9390 H   0  0  0  0  0  0  0  0  0  0  0  0
   -1.0781   -5.4065   -4.4039 H   0  0  0  0  0  0  0  0  0  0  0  0
 25 27  1  0  0  0  0
 26 27  2  0  0  0  0
 23 25  2  0  0  0  0
 24 26  1  0  0  0  0
 22 23  1  0  0  0  0
 22 24  2  0  0  0  0
 21 22  1  0  0  0  0
  1  3  1  0  0  0  0
  1  7  1  0  0  0  0
  1  2  2  0  0  0  0
 38 39  1  0  0  0  0
 39 47  1  0  0  0  0
 39 40  2  0  0  0  0
  8  9  1  0  0  0  0
  9 17  1  0  0  0  0
  9 10  2  0  0  0  0
 18 19  1  0  0  0  0
 19 37  1  0  0  0  0
 19 20  2  0  0  0  0
 38 41  1  0  0  0  0
  8 11  1  0  0  0  0
 47 48  1  0  0  0  0
 18 21  1  0  0  0  0
 37 38  1  0  0  0  0
  7  8  1  0  0  0  0
 17 18  1  0  0  0  0
 27 36  1  0  0  0  0
 25 34  1  0  0  0  0
 26 35  1  0  0  0  0
 23 32  1  0  0  0  0
 24 33  1  0  0  0  0
  3  4  1  0  0  0  0
  3  5  1  0  0  0  0
  3  6  1  0  0  0  0
 41 44  1  0  0  0  0
 41 45  1  0  0  0  0
 41 46  1  0  0  0  0
 11 14  1  0  0  0  0
 11 15  1  0  0  0  0
 11 16  1  0  0  0  0
 48 50  1  0  0  0  0
 48 51  1  0  0  0  0
 48 52  1  0  0  0  0
 21 30  1  0  0  0  0
 21 31  1  0  0  0  0
 38 43  1  0  0  0  0
  8 13  1  0  0  0  0
 18 29  1  0  0  0  0
 47 49  1  0  0  0  0
  7 12  1  0  0  0  0
 37 42  1  0  0  0  0
 17 28  1  0  0  0  0
M  END
$$$$

  -OEChem-05262214473D

 52 52  0     1  0  0  0  0  0999 V2000
   -1.8248    0.3424    3.9102 C   0  0  0  0  0  0  0  0  0  0  0  0
   -0.8774   -0.2723    3.4345 O   0  0  0  0  0  0  0  0  0  0  0  0
   -2.2566    0.0600    5.3109 C   0  0  0  0  0  0  0  0  0  0  0  0
   -3.0163   -0.7363    5.3643 H   0  0  0  0  0  0  0  0  0  0  0  0
   -1.4254   -0.2876    5.9452 H   0  0  0  0  0  0  0  0  0  0  0  0
   -2.6947    0.9149    5.8505 H   0  0  0  0  0  0  0  0  0  0  0  0
   -2.5745    1.3149    3.2691 N   0  0  0  0  0  0  0  0  0  0  0  0
   -2.3276    1.7409    1.9167 C   0  0  2  0  0  0  0  0  0  0  0  0
   -0.9926    1.1555    1.4755 C   0  0  0  0  0  0  0  0  0  0  0  0
   -0.1206    0.8028    2.2668 O   0  0  0  0  0  0  0  0  0  0  0  0
   -2.3188    3.2577    1.8072 C   0  0  0  0  0  0  0  0  0  0  0  0
   -3.3395    1.7507    3.7809 H   0  0  0  0  0  0  0  0  0  0  0  0
   -3.1317    1.3224    1.3015 H   0  0  0  0  0  0  0  0  0  0  0  0
   -1.5198    3.6949    2.4169 H   0  0  0  0  0  0  0  0  0  0  0  0
   -2.1594    3.5799    0.7729 H   0  0  0  0  0  0  0  0  0  0  0  0
   -3.2690    3.6789    2.1530 H   0  0  0  0  0  0  0  0  0  0  0  0
   -0.8700    1.1124    0.0921 N   0  0  0  0  0  0  0  0  0  0  0  0
    0.3073    0.6116   -0.5716 C   0  0  2  0  0  0  0  0  0  0  0  0
   -0.0378   -0.7673   -1.1227 C   0  0  0  0  0  0  0  0  0  0  0  0
    0.8149   -1.5827   -1.4675 O   0  0  0  0  0  0  0  0  0  0  0  0
    1.5108    0.5217    0.3738 C   0  0  0  0  0  0  0  0  0  0  0  0
    1.9972    1.8757    0.8297 C   0  0  0  0  0  0  0  0  0  0  0  0
    2.8253    2.6348    0.0028 C   0  0  0  0  0  0  0  0  0  0  0  0
    1.6181    2.3681    2.0785 C   0  0  0  0  0  0  0  0  0  0  0  0
    3.2743    3.8862    0.4248 C   0  0  0  0  0  0  0  0  0  0  0  0
    2.0671    3.6195    2.5004 C   0  0  0  0  0  0  0  0  0  0  0  0
    2.8952    4.3786    1.6735 C   0  0  0  0  0  0  0  0  0  0  0  0
   -1.6531    1.4091   -0.4852 H   0  0  0  0  0  0  0  0  0  0  0  0
    0.5081    1.2922   -1.4073 H   0  0  0  0  0  0  0  0  0  0  0  0
    2.3336   -0.0231   -0.1086 H   0  0  0  0  0  0  0  0  0  0  0  0
    1.2565   -0.0697    1.2633 H   0  0  0  0  0  0  0  0  0  0  0  0
    3.1257    2.2592   -0.9718 H   0  0  0  0  0  0  0  0  0  0  0  0
    0.9731    1.7838    2.7294 H   0  0  0  0  0  0  0  0  0  0  0  0
    3.9200    4.4766   -0.2188 H   0  0  0  0  0  0  0  0  0  0  0  0
    1.7726    4.0021    3.4732 H   0  0  0  0  0  0  0  0  0  0  0  0
    3.2460    5.3524    2.0024 H   0  0  0  0  0  0  0  0  0  0  0  0
   -1.4071   -0.9939   -1.1355 N   0  0  0  0  0  0  0  0  0  0  0  0
   -2.0026   -2.2304   -1.5885 C   0  0  2  0  0  0  0  0  0  0  0  0
   -1.4076   -2.5683   -2.9491 C   0  0  0  0  0  0  0  0  0  0  0  0
   -0.8997   -1.7264   -3.6869 O   0  0  0  0  0  0  0  0  0  0  0  0
   -3.5170   -2.1179   -1.6703 C   0  0  0  0  0  0  0  0  0  0  0  0
   -2.0216   -0.2534   -0.8102 H   0  0  0  0  0  0  0  0  0  0  0  0
   -1.7198   -3.0017   -0.8638 H   0  0  0  0  0  0  0  0  0  0  0  0
   -3.8195   -1.3499   -2.3915 H   0  0  0  0  0  0  0  0  0  0  0  0
   -3.9687   -3.0640   -1.9861 H   0  0  0  0  0  0  0  0  0  0  0  0
   -3.9407   -1.8456   -0.6976 H   0  0  0  0  0  0  0  0  0  0  0  0
   -1.5491   -3.9131   -3.2612 N   0  0  0  0  0  0  0  0  0  0  0  0
   -1.0764   -4.4793   -4.5030 C   0  0  0  0  0  0  0  0  0  0  0  0
   -1.9660   -4.5426   -2.5817 H   0  0  0  0  0  0  0  0  0  0  0  0
   -1.8882   -4.4662   -5.2451 H   0  0  0  0  0  0  0  0  0  0  0  0
   -0.2285   -3.8865   -4.8768 H   0  0  0  0  0  0  0  0  0  0  0  0
   -0.7519   -5.5165   -4.3330 H   0  0  0  0  0  0  0  0  0  0  0  0
 25 27  1  0  0  0  0
 26 27  2  0  0  0  0
 23 25  2  0  0  0  0
 24 26  1  0  0  0  0
 22 23  1  0  0  0  0
 22 24  2  0  0  0  0
 21 22  1  0  0  0  0
  1  3  1  0  0  0  0
  1  7  1  0  0  0  0
  1  2  2  0  0  0  0
 38 39  1  0  0  0  0
 39 47  1  0  0  0  0
 39 40  2  0  0  0  0
  8  9  1  0  0  0  0
  9 17  1  0  0  0  0
  9 10  2  0  0  0  0
 18 19  1  0  0  0  0
 19 37  1  0  0  0  0
 19 20  2  0  0  0  0
 38 41  1  0  0  0  0
  8 11  1  0  0  0  0
 47 48  1  0  0  0  0
 18 21  1  0  0  0  0
 37 38  1  0  0  0  0
  7  8  1  0  0  0  0
 17 18  1  0  0  0  0
 27 36  1  0  0  0  0
 25 34  1  0  0  0  0
 26 35  1  0  0  0  0
 23 32  1  0  0  0  0
 24 33  1  0  0  0  0
  3  4  1  0  0  0  0
  3  5  1  0  0  0  0
  3  6  1  0  0  0  0
 41 44  1  0  0  0  0
 41 45  1  0  0  0  0
 41 46  1  0  0  0  0
 11 14  1  0  0  0  0
 11 15  1  0  0  0  0
 11 16  1  0  0  0  0
 48 50  1  0  0  0  0
 48 51  1  0  0  0  0
 48 52  1  0  0  0  0
 21 30  1  0  0  0  0
 21 31  1  0  0  0  0
 38 43  1  0  0  0  0
  8 13  1  0  0  0  0
 18 29  1  0  0  0  0
 47 49  1  0  0  0  0
  7 12  1  0  0  0  0
 37 42  1  0  0  0  0
 17 28  1  0  0  0  0
M  END
$$$$

  -OEChem-05262214473D

 52 52  0     1  0  0  0  0  0999 V2000
   -1.8248    0.3424    3.9102 C   0  0  0  0  0  0  0  0  0  0  0  0
   -0.8774   -0.2723    3.4345 O   0  0  0  0  0  0  0  0  0  0  0  0
   -2.2566    0.0600    5.3109 C   0  0  0  0  0  0  0  0  0  0  0  0
   -3.0163   -0.7363    5.3643 H   0  0  0  0  0  0  0  0  0  0  0  0
   -1.4254   -0.2876    5.9452 H   0  0  0  0  0  0  0  0  0  0  0  0
   -2.6947    0.9149    5.8505 H   0  0  0  0  0  0  0  0  0  0  0  0
   -2.5745    1.3149    3.2691 N   0  0  0  0  0  0  0  0  0  0  0  0
   -2.3276    1.7409    1.9167 C   0  0  2  0  0  0  0  0  0  0  0  0
   -0.9926    1.1555    1.4755 C   0  0  0  0  0  0  0  0  0  0  0  0
   -0.1206    0.8028    2.2668 O   0  0  0  0  0  0  0  0  0  0  0  0
   -2.3188    3.2577    1.8072 C   0  0  0  0  0  0  0  0  0  0  0  0
   -3.3395    1.7507    3.7809 H   0  0  0  0  0  0  0  0  0  0  0  0
   -3.1317    1.3224    1.3015 H   0  0  0  0  0  0  0  0  0  0  0  0
   -1.5198    3.6949    2.4169 H   0  0  0  0  0  0  0  0  0  0  0  0
   -2.1594    3.5799    0.7729 H   0  0  0  0  0  0  0  0  0  0  0  0
   -3.2690    3.6789    2.1530 H   0  0  0  0  0  0  0  0  0  0  0  0
   -0.8700    1.1124    0.0921 N   0  0  0  0  0  0  0  0  0  0  0  0
    0.3073    0.6116   -0.5716 C   0  0  2  0  0  0  0  0  0  0  0  0
   -0.0378   -0.7673   -1.1227 C   0  0  0  0  0  0  0  0  0  0  0  0
    0.7851   -1.6755   -1.2166 O   0  0  0  0  0  0  0  0  0  0  0  0
    1.5108    0.5217    0.3738 C   0  0  0  0  0  0  0  0  0  0  0  0
    1.9972    1.8757    0.8297 C   0  0  0  0  0  0  0  0  0  0  0  0
    2.8253    2.6348    0.0028 C   0  0  0  0  0  0  0  0  0  0  0  0
    1.6181    2.3681    2.0785 C   0  0  0  0  0  0  0  0  0  0  0  0
    3.2743    3.8862    0.4248 C   0  0  0  0  0  0  0  0  0  0  0  0
    2.0671    3.6195    2.5004 C   0  0  0  0  0  0  0  0  0  0  0  0
    2.8952    4.3786    1.6735 C   0  0  0  0  0  0  0  0  0  0  0  0
   -1.6531    1.4091   -0.4852 H   0  0  0  0  0  0  0  0  0  0  0  0
    0.5081    1.2922   -1.4073 H   0  0  0  0  0  0  0  0  0  0  0  0
    2.3336   -0.0231   -0.1086 H   0  0  0  0  0  0  0  0  0  0  0  0
    1.2565   -0.0697    1.2633 H   0  0  0  0  0  0  0  0  0  0  0  0
    3.1257    2.2592   -0.9718 H   0  0  0  0  0  0  0  0  0  0  0  0
    0.9731    1.7838    2.7294 H   0  0  0  0  0  0  0  0  0  0  0  0
    3.9200    4.4766   -0.2188 H   0  0  0  0  0  0  0  0  0  0  0  0
    1.7726    4.0021    3.4732 H   0  0  0  0  0  0  0  0  0  0  0  0
    3.2460    5.3524    2.0024 H   0  0  0  0  0  0  0  0  0  0  0  0
   -1.3826   -0.8748   -1.4488 N   0  0  0  0  0  0  0  0  0  0  0  0
   -1.9785   -2.0837   -1.9707 C   0  0  2  0  0  0  0  0  0  0  0  0
   -1.1219   -2.5659   -3.1340 C   0  0  0  0  0  0  0  0  0  0  0  0
   -0.3752   -1.8246   -3.7696 O   0  0  0  0  0  0  0  0  0  0  0  0
   -3.4136   -1.8464   -2.4141 C   0  0  0  0  0  0  0  0  0  0  0  0
   -1.9781   -0.0630   -1.3138 H   0  0  0  0  0  0  0  0  0  0  0  0
   -1.9499   -2.8242   -1.1639 H   0  0  0  0  0  0  0  0  0  0  0  0
   -3.4623   -1.1073   -3.2221 H   0  0  0  0  0  0  0  0  0  0  0  0
   -3.8728   -2.7696   -2.7827 H   0  0  0  0  0  0  0  0  0  0  0  0
   -4.0213   -1.4713   -1.5835 H   0  0  0  0  0  0  0  0  0  0  0  0
   -1.3219   -3.9119   -3.4066 N   0  0  0  0  0  0  0  0  0  0  0  0
   -0.6342   -4.6020   -4.4728 C   0  0  0  0  0  0  0  0  0  0  0  0
   -1.9458   -4.4540   -2.8161 H   0  0  0  0  0  0  0  0  0  0  0  0
   -1.2468   -4.5705   -5.3858 H   0  0  0  0  0  0  0  0  0  0  0  0
    0.3324   -4.1124   -4.6628 H   0  0  0  0  0  0  0  0  0  0  0  0
   -0.4638   -5.6491   -4.1817 H   0  0  0  0  0  0  0  0  0  0  0  0
 25 27  1  0  0  0  0
 26 27  2  0  0  0  0
 23 25  2  0  0  0  0
 24 26  1  0  0  0  0
 22 23  1  0  0  0  0
 22 24  2  0  0  0  0
 21 22  1  0  0  0  0
  1  3  1  0  0  0  0
  1  7  1  0  0  0  0
  1  2  2  0  0  0  0
 38 39  1  0  0  0  0
 39 47  1  0  0  0  0
 39 40  2  0  0  0  0
  8  9  1  0  0  0  0
  9 17  1  0  0  0  0
  9 10  2  0  0  0  0
 18 19  1  0  0  0  0
 19 37  1  0  0  0  0
 19 20  2  0  0  0  0
 38 41  1  0  0  0  0
  8 11  1  0  0  0  0
 47 48  1  0  0  0  0
 18 21  1  0  0  0  0
 37 38  1  0  0  0  0
  7  8  1  0  0  0  0
 17 18  1  0  0  0  0
 27 36  1  0  0  0  0
 25 34  1  0  0  0  0
 26 35  1  0  0  0  0
 23 32  1  0  0  0  0
 24 33  1  0  0  0  0
  3  4  1  0  0  0  0
  3  5  1  0  0  0  0
  3  6  1  0  0  0  0
 41 44  1  0  0  0  0
 41 45  1  0  0  0  0
 41 46  1  0  0  0  0
 11 14  1  0  0  0  0
 11 15  1  0  0  0  0
 11 16  1  0  0  0  0
 48 50  1  0  0  0  0
 48 51  1  0  0  0  0
 48 52  1  0  0  0  0
 21 30  1  0  0  0  0
 21 31  1  0  0  0  0
 38 43  1  0  0  0  0
  8 13  1  0  0  0  0
 18 29  1  0  0  0  0
 47 49  1  0  0  0  0
  7 12  1  0  0  0  0
 37 42  1  0  0  0  0
 17 28  1  0  0  0  0
M  END
$$$$

  -OEChem-05262214473D

 52 52  0     1  0  0  0  0  0999 V2000
   -1.8248    0.3424    3.9102 C   0  0  0  0  0  0  0  0  0  0  0  0
   -0.8774   -0.2723    3.4345 O   0  0  0  0  0  0  0  0  0  0  0  0
   -2.2566    0.0600    5.3109 C   0  0  0  0  0  0  0  0  0  0  0  0
   -3.0163   -0.7363    5.3643 H   0  0  0  0  0  0  0  0  0  0  0  0
   -1.4254   -0.2876    5.9452 H   0  0  0  0  0  0  0  0  0  0  0  0
   -2.6947    0.9149    5.8505 H   0  0  0  0  0  0  0  0  0  0  0  0
   -2.5745    1.3149    3.2691 N   0  0  0  0  0  0  0  0  0  0  0  0
   -2.3276    1.7409    1.9167 C   0  0  2  0  0  0  0  0  0  0  0  0
   -0.9926    1.1555    1.4755 C   0  0  0  0  0  0  0  0  0  0  0  0
   -0.1206    0.8028    2.2668 O   0  0  0  0  0  0  0  0  0  0  0  0
   -2.3188    3.2577    1.8072 C   0  0  0  0  0  0  0  0  0  0  0  0
   -3.3395    1.7507    3.7809 H   0  0  0  0  0  0  0  0  0  0  0  0
   -3.1317    1.3224    1.3015 H   0  0  0  0  0  0  0  0  0  0  0  0
   -1.5198    3.6949    2.4169 H   0  0  0  0  0  0  0  0  0  0  0  0
   -2.1594    3.5799    0.7729 H   0  0  0  0  0  0  0  0  0  0  0  0
   -3.2690    3.6789    2.1530 H   0  0  0  0  0  0  0  0  0  0  0  0
   -0.8700    1.1124    0.0921 N   0  0  0  0  0  0  0  0  0  0  0  0
    0.3073    0.6116   -0.5716 C   0  0  2  0  0  0  0  0  0  0  0  0
   -0.0378   -0.7673   -1.1227 C   0  0  0  0  0  0  0  0  0  0  0  0
    0.6889   -1.7477   -0.9758 O   0  0  0  0  0  0  0  0  0  0  0  0
    1.5108    0.5217    0.3738 C   0  0  0  0  0  0  0  0  0  0  0  0
    1.9972    1.8757    0.8297 C   0  0  0  0  0  0  0  0  0  0  0  0
    2.8253    2.6348    0.0028 C   0  0  0  0  0  0  0  0  0  0  0  0
    1.6181    2.3681    2.0785 C   0  0  0  0  0  0  0  0  0  0  0  0
    3.2743    3.8862    0.4248 C   0  0  0  0  0  0  0  0  0  0  0  0
    2.0671    3.6195    2.5004 C   0  0  0  0  0  0  0  0  0  0  0  0
    2.8952    4.3786    1.6735 C   0  0  0  0  0  0  0  0  0  0  0  0
   -1.6531    1.4091   -0.4852 H   0  0  0  0  0  0  0  0  0  0  0  0
    0.5081    1.2922   -1.4073 H   0  0  0  0  0  0  0  0  0  0  0  0
    2.3336   -0.0231   -0.1086 H   0  0  0  0  0  0  0  0  0  0  0  0
    1.2565   -0.0697    1.2633 H   0  0  0  0  0  0  0  0  0  0  0  0
    3.1257    2.2592   -0.9718 H   0  0  0  0  0  0  0  0  0  0  0  0
    0.9731    1.7838    2.7294 H   0  0  0  0  0  0  0  0  0  0  0  0
    3.9200    4.4766   -0.2188 H   0  0  0  0  0  0  0  0  0  0  0  0
    1.7726    4.0021    3.4732 H   0  0  0  0  0  0  0  0  0  0  0  0
    3.2460    5.3524    2.0024 H   0  0  0  0  0  0  0  0  0  0  0  0
   -1.2746   -0.7804   -1.7526 N   0  0  0  0  0  0  0  0  0  0  0  0
   -1.8520   -1.9666   -2.3428 C   0  0  2  0  0  0  0  0  0  0  0  0
   -0.8025   -2.6011   -3.2459 C   0  0  0  0  0  0  0  0  0  0  0  0
    0.1417   -1.9734   -3.7209 O   0  0  0  0  0  0  0  0  0  0  0  0
   -3.1143   -1.6374   -3.1243 C   0  0  0  0  0  0  0  0  0  0  0  0
   -1.8003    0.0873   -1.8011 H   0  0  0  0  0  0  0  0  0  0  0  0
   -2.0854   -2.6487   -1.5180 H   0  0  0  0  0  0  0  0  0  0  0  0
   -2.9002   -0.9550   -3.9550 H   0  0  0  0  0  0  0  0  0  0  0  0
   -3.5662   -2.5409   -3.5470 H   0  0  0  0  0  0  0  0  0  0  0  0
   -3.8567   -1.1542   -2.4801 H   0  0  0  0  0  0  0  0  0  0  0  0
   -1.0683   -3.9405   -3.4939 N   0  0  0  0  0  0  0  0  0  0  0  0
   -0.2256   -4.7602   -4.3328 C   0  0  0  0  0  0  0  0  0  0  0  0
   -1.8631   -4.3840   -3.0430 H   0  0  0  0  0  0  0  0  0  0  0  0
   -0.6040   -4.7395   -5.3655 H   0  0  0  0  0  0  0  0  0  0  0  0
    0.8029   -4.3706   -4.3115 H   0  0  0  0  0  0  0  0  0  0  0  0
   -0.2333   -5.7952   -3.9603 H   0  0  0  0  0  0  0  0  0  0  0  0
 25 27  1  0  0  0  0
 26 27  2  0  0  0  0
 23 25  2  0  0  0  0
 24 26  1  0  0  0  0
 22 23  1  0  0  0  0
 22 24  2  0  0  0  0
 21 22  1  0  0  0  0
  1  3  1  0  0  0  0
  1  7  1  0  0  0  0
  1  2  2  0  0  0  0
 38 39  1  0  0  0  0
 39 47  1  0  0  0  0
 39 40  2  0  0  0  0
  8  9  1  0  0  0  0
  9 17  1  0  0  0  0
  9 10  2  0  0  0  0
 18 19  1  0  0  0  0
 19 37  1  0  0  0  0
 19 20  2  0  0  0  0
 38 41  1  0  0  0  0
  8 11  1  0  0  0  0
 47 48  1  0  0  0  0
 18 21  1  0  0  0  0
 37 38  1  0  0  0  0
  7  8  1  0  0  0  0
 17 18  1  0  0  0  0
 27 36  1  0  0  0  0
 25 34  1  0  0  0  0
 26 35  1  0  0  0  0
 23 32  1  0  0  0  0
 24 33  1  0  0  0  0
  3  4  1  0  0  0  0
  3  5  1  0  0  0  0
  3  6  1  0  0  0  0
 41 44  1  0  0  0  0
 41 45  1  0  0  0  0
 41 46  1  0  0  0  0
 11 14  1  0  0  0  0
 11 15  1  0  0  0  0
 11 16  1  0  0  0  0
 48 50  1  0  0  0  0
 48 51  1  0  0  0  0
 48 52  1  0  0  0  0
 21 30  1  0  0  0  0
 21 31  1  0  0  0  0
 38 43  1  0  0  0  0
  8 13  1  0  0  0  0
 18 29  1  0  0  0  0
 47 49  1  0  0  0  0
  7 12  1  0  0  0  0
 37 42  1  0  0  0  0
 17 28  1  0  0  0  0
M  END
$$$$

  -OEChem-05262214473D

 52 52  0     1  0  0  0  0  0999 V2000
   -1.8248    0.3424    3.9102 C   0  0  0  0  0  0  0  0  0  0  0  0
   -0.8774   -0.2723    3.4345 O   0  0  0  0  0  0  0  0  0  0  0  0
   -2.2566    0.0600    5.3109 C   0  0  0  0  0  0  0  0  0  0  0  0
   -3.0163   -0.7363    5.3643 H   0  0  0  0  0  0  0  0  0  0  0  0
   -1.4254   -0.2876    5.9452 H   0  0  0  0  0  0  0  0  0  0  0  0
   -2.6947    0.9149    5.8505 H   0  0  0  0  0  0  0  0  0  0  0  0
   -2.5745    1.3149    3.2691 N   0  0  0  0  0  0  0  0  0  0  0  0
   -2.3276    1.7409    1.9167 C   0  0  2  0  0  0  0  0  0  0  0  0
   -0.9926    1.1555    1.4755 C   0  0  0  0  0  0  0  0  0  0  0  0
   -0.1206    0.8028    2.2668 O   0  0  0  0  0  0  0  0  0  0  0  0
   -2.3188    3.2577    1.8072 C   0  0  0  0  0  0  0  0  0  0  0  0
   -3.3395    1.7507    3.7809 H   0  0  0  0  0  0  0  0  0  0  0  0
   -3.1317    1.3224    1.3015 H   0  0  0  0  0  0  0  0  0  0  0  0
   -1.5198    3.6949    2.4169 H   0  0  0  0  0  0  0  0  0  0  0  0
   -2.1594    3.5799    0.7729 H   0  0  0  0  0  0  0  0  0  0  0  0
   -3.2690    3.6789    2.1530 H   0  0  0  0  0  0  0  0  0  0  0  0
   -0.8700    1.1124    0.0921 N   0  0  0  0  0  0  0  0  0  0  0  0
    0.3073    0.6116   -0.5716 C   0  0  2  0  0  0  0  0  0  0  0  0
   -0.0378   -0.7673   -1.1227 C   0  0  0  0  0  0  0  0  0  0  0  0
    0.5328   -1.7943   -0.7614 O   0  0  0  0  0  0  0  0  0  0  0  0
    1.5108    0.5217    0.3738 C   0  0  0  0  0  0  0  0  0  0  0  0
    1.9972    1.8757    0.8297 C   0  0  0  0  0  0  0  0  0  0  0  0
    2.8253    2.6348    0.0028 C   0  0  0  0  0  0  0  0  0  0  0  0
    1.6181    2.3681    2.0785 C   0  0  0  0  0  0  0  0  0  0  0  0
    3.2743    3.8862    0.4248 C   0  0  0  0  0  0  0  0  0  0  0  0
    2.0671    3.6195    2.5004 C   0  0  0  0  0  0  0  0  0  0  0  0
    2.8952    4.3786    1.6735 C   0  0  0  0  0  0  0  0  0  0  0  0
   -1.6531    1.4091   -0.4852 H   0  0  0  0  0  0  0  0  0  0  0  0
    0.5081    1.2922   -1.4073 H   0  0  0  0  0  0  0  0  0  0  0  0
    2.3336   -0.0231   -0.1086 H   0  0  0  0  0  0  0  0  0  0  0  0
    1.2565   -0.0697    1.2633 H   0  0  0  0  0  0  0  0  0  0  0  0
    3.1257    2.2592   -0.9718 H   0  0  0  0  0  0  0  0  0  0  0  0
    0.9731    1.7838    2.7294 H   0  0  0  0  0  0  0  0  0  0  0  0
    3.9200    4.4766   -0.2188 H   0  0  0  0  0  0  0  0  0  0  0  0
    1.7726    4.0021    3.4732 H   0  0  0  0  0  0  0  0  0  0  0  0
    3.2460    5.3524    2.0024 H   0  0  0  0  0  0  0  0  0  0  0  0
   -1.0902   -0.7172   -2.0263 N   0  0  0  0  0  0  0  0  0  0  0  0
   -1.6317   -1.8872   -2.6795 C   0  0  2  0  0  0  0  0  0  0  0  0
   -0.4711   -2.6715   -3.2771 C   0  0  0  0  0  0  0  0  0  0  0  0
    0.6156   -2.1626   -3.5442 O   0  0  0  0  0  0  0  0  0  0  0  0
   -2.6394   -1.5052   -3.7525 C   0  0  0  0  0  0  0  0  0  0  0  0
   -1.5005    0.1873   -2.2391 H   0  0  0  0  0  0  0  0  0  0  0  0
   -2.1170   -2.4873   -1.9021 H   0  0  0  0  0  0  0  0  0  0  0  0
   -2.1714   -0.9035   -4.5402 H   0  0  0  0  0  0  0  0  0  0  0  0
   -3.0697   -2.3934   -4.2268 H   0  0  0  0  0  0  0  0  0  0  0  0
   -3.4582   -0.9157   -3.3261 H   0  0  0  0  0  0  0  0  0  0  0  0
   -0.8056   -3.9969   -3.5172 N   0  0  0  0  0  0  0  0  0  0  0  0
    0.1215   -4.9431   -4.0928 C   0  0  0  0  0  0  0  0  0  0  0  0
   -1.7236   -4.3374   -3.2469 H   0  0  0  0  0  0  0  0  0  0  0  0
   -0.0038   -4.9617   -5.1854 H   0  0  0  0  0  0  0  0  0  0  0  0
    1.1510   -4.6434   -3.8469 H   0  0  0  0  0  0  0  0  0  0  0  0
   -0.0762   -5.9450   -3.6840 H   0  0  0  0  0  0  0  0  0  0  0  0
 25 27  1  0  0  0  0
 26 27  2  0  0  0  0
 23 25  2  0  0  0  0
 24 26  1  0  0  0  0
 22 23  1  0  0  0  0
 22 24  2  0  0  0  0
 21 22  1  0  0  0  0
  1  3  1  0  0  0  0
  1  7  1  0  0  0  0
  1  2  2  0  0  0  0
 38 39  1  0  0  0  0
 39 47  1  0  0  0  0
 39 40  2  0  0  0  0
  8  9  1  0  0  0  0
  9 17  1  0  0  0  0
  9 10  2  0  0  0  0
 18 19  1  0  0  0  0
 19 37  1  0  0  0  0
 19 20  2  0  0  0  0
 38 41  1  0  0  0  0
  8 11  1  0  0  0  0
 47 48  1  0  0  0  0
 18 21  1  0  0  0  0
 37 38  1  0  0  0  0
  7  8  1  0  0  0  0
 17 18  1  0  0  0  0
 27 36  1  0  0  0  0
 25 34  1  0  0  0  0
 26 35  1  0  0  0  0
 23 32  1  0  0  0  0
 24 33  1  0  0  0  0
  3  4  1  0  0  0  0
  3  5  1  0  0  0  0
  3  6  1  0  0  0  0
 41 44  1  0  0  0  0
 41 45  1  0  0  0  0
 41 46  1  0  0  0  0
 11 14  1  0  0  0  0
 11 15  1  0  0  0  0
 11 16  1  0  0  0  0
 48 50  1  0  0  0  0
 48 51  1  0  0  0  0
 48 52  1  0  0  0  0
 21 30  1  0  0  0  0
 21 31  1  0  0  0  0
 38 43  1  0  0  0  0
  8 13  1  0  0  0  0
 18 29  1  0  0  0  0
 47 49  1  0  0  0  0
  7 12  1  0  0  0  0
 37 42  1  0  0  0  0
 17 28  1  0  0  0  0
M  END
$$$$

  -OEChem-05262214473D

 52 52  0     1  0  0  0  0  0999 V2000
   -1.8248    0.3424    3.9102 C   0  0  0  0  0  0  0  0  0  0  0  0
   -0.8774   -0.2723    3.4345 O   0  0  0  0  0  0  0  0  0  0  0  0
   -2.2566    0.0600    5.3109 C   0  0  0  0  0  0  0  0  0  0  0  0
   -3.0163   -0.7363    5.3643 H   0  0  0  0  0  0  0  0  0  0  0  0
   -1.4254   -0.2876    5.9452 H   0  0  0  0  0  0  0  0  0  0  0  0
   -2.6947    0.9149    5.8505 H   0  0  0  0  0  0  0  0  0  0  0  0
   -2.5745    1.3149    3.2691 N   0  0  0  0  0  0  0  0  0  0  0  0
   -2.3276    1.7409    1.9167 C   0  0  2  0  0  0  0  0  0  0  0  0
   -0.9926    1.1555    1.4755 C   0  0  0  0  0  0  0  0  0  0  0  0
   -0.1206    0.8028    2.2668 O   0  0  0  0  0  0  0  0  0  0  0  0
   -2.3188    3.2577    1.8072 C   0  0  0  0  0  0  0  0  0  0  0  0
   -3.3395    1.7507    3.7809 H   0  0  0  0  0  0  0  0  0  0  0  0
   -3.1317    1.3224    1.3015 H   0  0  0  0  0  0  0  0  0  0  0  0
   -1.5198    3.6949    2.4169 H   0  0  0  0  0  0  0  0  0  0  0  0
   -2.1594    3.5799    0.7729 H   0  0  0  0  0  0  0  0  0  0  0  0
   -3.2690    3.6789    2.1530 H   0  0  0  0  0  0  0  0  0  0  0  0
   -0.8700    1.1124    0.0921 N   0  0  0  0  0  0  0  0  0  0  0  0
    0.3073    0.6116   -0.5716 C   0  0  2  0  0  0  0  0  0  0  0  0
   -0.0378   -0.7673   -1.1227 C   0  0  0  0  0  0  0  0  0  0  0  0
    0.3275   -1.8121   -0.5882 O   0  0  0  0  0  0  0  0  0  0  0  0
    1.5108    0.5217    0.3738 C   0  0  0  0  0  0  0  0  0  0  0  0
    1.9972    1.8757    0.8297 C   0  0  0  0  0  0  0  0  0  0  0  0
    2.8253    2.6348    0.0028 C   0  0  0  0  0  0  0  0  0  0  0  0
    1.6181    2.3681    2.0785 C   0  0  0  0  0  0  0  0  0  0  0  0
    3.2743    3.8862    0.4248 C   0  0  0  0  0  0  0  0  0  0  0  0
    2.0671    3.6195    2.5004 C   0  0  0  0  0  0  0  0  0  0  0  0
    2.8952    4.3786    1.6735 C   0  0  0  0  0  0  0  0  0  0  0  0
   -1.6531    1.4091   -0.4852 H   0  0  0  0  0  0  0  0  0  0  0  0
    0.5081    1.2922   -1.4073 H   0  0  0  0  0  0  0  0  0  0  0  0
    2.3336   -0.0231   -0.1086 H   0  0  0  0  0  0  0  0  0  0  0  0
    1.2565   -0.0697    1.2633 H   0  0  0  0  0  0  0  0  0  0  0  0
    3.1257    2.2592   -0.9718 H   0  0  0  0  0  0  0  0  0  0  0  0
    0.9731    1.7838    2.7294 H   0  0  0  0  0  0  0  0  0  0  0  0
    3.9200    4.4766   -0.2188 H   0  0  0  0  0  0  0  0  0  0  0  0
    1.7726    4.0021    3.4732 H   0  0  0  0  0  0  0  0  0  0  0  0
    3.2460    5.3524    2.0024 H   0  0  0  0  0  0  0  0  0  0  0  0
   -0.8422   -0.6894   -2.2512 N   0  0  0  0  0  0  0  0  0  0  0  0
   -1.3327   -1.8508   -2.9578 C   0  0  2  0  0  0  0  0  0  0  0  0
   -0.1502   -2.7725   -3.2256 C   0  0  0  0  0  0  0  0  0  0  0  0
    1.0142   -2.3794   -3.2515 O   0  0  0  0  0  0  0  0  0  0  0  0
   -2.0212   -1.4588   -4.2559 C   0  0  0  0  0  0  0  0  0  0  0  0
   -1.0990    0.2302   -2.5978 H   0  0  0  0  0  0  0  0  0  0  0  0
   -2.0424   -2.3509   -2.2899 H   0  0  0  0  0  0  0  0  0  0  0  0
   -1.3257   -0.9562   -4.9379 H   0  0  0  0  0  0  0  0  0  0  0  0
   -2.4172   -2.3372   -4.7759 H   0  0  0  0  0  0  0  0  0  0  0  0
   -2.8529   -0.7723   -4.0640 H   0  0  0  0  0  0  0  0  0  0  0  0
   -0.5516   -4.0774   -3.4749 N   0  0  0  0  0  0  0  0  0  0  0  0
    0.3835   -5.1381   -3.7689 C   0  0  0  0  0  0  0  0  0  0  0  0
   -1.5367   -4.3174   -3.4139 H   0  0  0  0  0  0  0  0  0  0  0  0
    0.5131   -5.2219   -4.8580 H   0  0  0  0  0  0  0  0  0  0  0  0
    1.3529   -4.9123   -3.3007 H   0  0  0  0  0  0  0  0  0  0  0  0
   -0.0031   -6.0882   -3.3716 H   0  0  0  0  0  0  0  0  0  0  0  0
 25 27  1  0  0  0  0
 26 27  2  0  0  0  0
 23 25  2  0  0  0  0
 24 26  1  0  0  0  0
 22 23  1  0  0  0  0
 22 24  2  0  0  0  0
 21 22  1  0  0  0  0
  1  3  1  0  0  0  0
  1  7  1  0  0  0  0
  1  2  2  0  0  0  0
 38 39  1  0  0  0  0
 39 47  1  0  0  0  0
 39 40  2  0  0  0  0
  8  9  1  0  0  0  0
  9 17  1  0  0  0  0
  9 10  2  0  0  0  0
 18 19  1  0  0  0  0
 19 37  1  0  0  0  0
 19 20  2  0  0  0  0
 38 41  1  0  0  0  0
  8 11  1  0  0  0  0
 47 48  1  0  0  0  0
 18 21  1  0  0  0  0
 37 38  1  0  0  0  0
  7  8  1  0  0  0  0
 17 18  1  0  0  0  0
 27 36  1  0  0  0  0
 25 34  1  0  0  0  0
 26 35  1  0  0  0  0
 23 32  1  0  0  0  0
 24 33  1  0  0  0  0
  3  4  1  0  0  0  0
  3  5  1  0  0  0  0
  3  6  1  0  0  0  0
 41 44  1  0  0  0  0
 41 45  1  0  0  0  0
 41 46  1  0  0  0  0
 11 14  1  0  0  0  0
 11 15  1  0  0  0  0
 11 16  1  0  0  0  0
 48 50  1  0  0  0  0
 48 51  1  0  0  0  0
 48 52  1  0  0  0  0
 21 30  1  0  0  0  0
 21 31  1  0  0  0  0
 38 43  1  0  0  0  0
  8 13  1  0  0  0  0
 18 29  1  0  0  0  0
 47 49  1  0  0  0  0
  7 12  1  0  0  0  0
 37 42  1  0  0  0  0
 17 28  1  0  0  0  0
M  END
$$$$

  -OEChem-05262214473D

 52 52  0     1  0  0  0  0  0999 V2000
   -1.8248    0.3424    3.9102 C   0  0  0  0  0  0  0  0  0  0  0  0
   -0.8774   -0.2723    3.4345 O   0  0  0  0  0  0  0  0  0  0  0  0
   -2.2566    0.0600    5.3109 C   0  0  0  0  0  0  0  0  0  0  0  0
   -3.0163   -0.7363    5.3643 H   0  0  0  0  0  0  0  0  0  0  0  0
   -1.4254   -0.2876    5.9452 H   0  0  0  0  0  0  0  0  0  0  0  0
   -2.6947    0.9149    5.8505 H   0  0  0  0  0  0  0  0  0  0  0  0
   -2.5745    1.3149    3.2691 N   0  0  0  0  0  0  0  0  0  0  0  0
   -2.3276    1.7409    1.9167 C   0  0  2  0  0  0  0  0  0  0  0  0
   -0.9926    1.1555    1.4755 C   0  0  0  0  0  0  0  0  0  0  0  0
   -0.1206    0.8028    2.2668 O   0  0  0  0  0  0  0  0  0  0  0  0
   -2.3188    3.2577    1.8072 C   0  0  0  0  0  0  0  0  0  0  0  0
   -3.3395    1.7507    3.7809 H   0  0  0  0  0  0  0  0  0  0  0  0
   -3.1317    1.3224    1.3015 H   0  0  0  0  0  0  0  0  0  0  0  0
   -1.5198    3.6949    2.4169 H   0  0  0  0  0  0  0  0  0  0  0  0
   -2.1594    3.5799    0.7729 H   0  0  0  0  0  0  0  0  0  0  0  0
   -3.2690    3.6789    2.1530 H   0  0  0  0  0  0  0  0  0  0  0  0
   -0.8700    1.1124    0.0921 N   0  0  0  0  0  0  0  0  0  0  0  0
    0.3073    0.6116   -0.5716 C   0  0  2  0  0  0  0  0  0  0  0  0
   -0.0378   -0.7673   -1.1227 C   0  0  0  0  0  0  0  0  0  0  0  0
    0.0870   -1.8000   -0.4680 O   0  0  0  0  0  0  0  0  0  0  0  0
    1.5108    0.5217    0.3738 C   0  0  0  0  0  0  0  0  0  0  0  0
    1.9972    1.8757    0.8297 C   0  0  0  0  0  0  0  0  0  0  0  0
    2.8253    2.6348    0.0028 C   0  0  0  0  0  0  0  0  0  0  0  0
    1.6181    2.3681    2.0785 C   0  0  0  0  0  0  0  0  0  0  0  0
    3.2743    3.8862    0.4248 C   0  0  0  0  0  0  0  0  0  0  0  0
    2.0671    3.6195    2.5004 C   0  0  0  0  0  0  0  0  0  0  0  0
    2.8952    4.3786    1.6735 C   0  0  0  0  0  0  0  0  0  0  0  0
   -1.6531    1.4091   -0.4852 H   0  0  0  0  0  0  0  0  0  0  0  0
    0.5081    1.2922   -1.4073 H   0  0  0  0  0  0  0  0  0  0  0  0
    2.3336   -0.0231   -0.1086 H   0  0  0  0  0  0  0  0  0  0  0  0
    1.2565   -0.0697    1.2633 H   0  0  0  0  0  0  0  0  0  0  0  0
    3.1257    2.2592   -0.9718 H   0  0  0  0  0  0  0  0  0  0  0  0
    0.9731    1.7838    2.7294 H   0  0  0  0  0  0  0  0  0  0  0  0
    3.9200    4.4766   -0.2188 H   0  0  0  0  0  0  0  0  0  0  0  0
    1.7726    4.0021    3.4732 H   0  0  0  0  0  0  0  0  0  0  0  0
    3.2460    5.3524    2.0024 H   0  0  0  0  0  0  0  0  0  0  0  0
   -0.5473   -0.6989   -2.4120 N   0  0  0  0  0  0  0  0  0  0  0  0
   -0.9753   -1.8599   -3.1588 C   0  0  2  0  0  0  0  0  0  0  0  0
    0.1382   -2.8969   -3.0948 C   0  0  0  0  0  0  0  0  0  0  0  0
    1.3105   -2.6090   -2.8627 O   0  0  0  0  0  0  0  0  0  0  0  0
   -1.3019   -1.5012   -4.6001 C   0  0  0  0  0  0  0  0  0  0  0  0
   -0.6232    0.2131   -2.8528 H   0  0  0  0  0  0  0  0  0  0  0  0
   -1.8669   -2.2489   -2.6550 H   0  0  0  0  0  0  0  0  0  0  0  0
   -0.4206   -1.1096   -5.1210 H   0  0  0  0  0  0  0  0  0  0  0  0
   -1.6532   -2.3762   -5.1569 H   0  0  0  0  0  0  0  0  0  0  0  0
   -2.0820   -0.7336   -4.6435 H   0  0  0  0  0  0  0  0  0  0  0  0
   -0.3238   -4.1764   -3.3699 N   0  0  0  0  0  0  0  0  0  0  0  0
    0.5425   -5.3320   -3.3833 C   0  0  0  0  0  0  0  0  0  0  0  0
   -1.3153   -4.3254   -3.5326 H   0  0  0  0  0  0  0  0  0  0  0  0
    0.9114   -5.5025   -4.4055 H   0  0  0  0  0  0  0  0  0  0  0  0
    1.3950   -5.1589   -2.7101 H   0  0  0  0  0  0  0  0  0  0  0  0
   -0.0191   -6.2150   -3.0443 H   0  0  0  0  0  0  0  0  0  0  0  0
 25 27  1  0  0  0  0
 26 27  2  0  0  0  0
 23 25  2  0  0  0  0
 24 26  1  0  0  0  0
 22 23  1  0  0  0  0
 22 24  2  0  0  0  0
 21 22  1  0  0  0  0
  1  3  1  0  0  0  0
  1  7  1  0  0  0  0
  1  2  2  0  0  0  0
 38 39  1  0  0  0  0
 39 47  1  0  0  0  0
 39 40  2  0  0  0  0
  8  9  1  0  0  0  0
  9 17  1  0  0  0  0
  9 10  2  0  0  0  0
 18 19  1  0  0  0  0
 19 37  1  0  0  0  0
 19 20  2  0  0  0  0
 38 41  1  0  0  0  0
  8 11  1  0  0  0  0
 47 48  1  0  0  0  0
 18 21  1  0  0  0  0
 37 38  1  0  0  0  0
  7  8  1  0  0  0  0
 17 18  1  0  0  0  0
 27 36  1  0  0  0  0
 25 34  1  0  0  0  0
 26 35  1  0  0  0  0
 23 32  1  0  0  0  0
 24 33  1  0  0  0  0
  3  4  1  0  0  0  0
  3  5  1  0  0  0  0
  3  6  1  0  0  0  0
 41 44  1  0  0  0  0
 41 45  1  0  0  0  0
 41 46  1  0  0  0  0
 11 14  1  0  0  0  0
 11 15  1  0  0  0  0
 11 16  1  0  0  0  0
 48 50  1  0  0  0  0
 48 51  1  0  0  0  0
 48 52  1  0  0  0  0
 21 30  1  0  0  0  0
 21 31  1  0  0  0  0
 38 43  1  0  0  0  0
  8 13  1  0  0  0  0
 18 29  1  0  0  0  0
 47 49  1  0  0  0  0
  7 12  1  0  0  0  0
 37 42  1  0  0  0  0
 17 28  1  0  0  0  0
M  END
$$$$

  -OEChem-05262214473D

 52 52  0     1  0  0  0  0  0999 V2000
   -1.8248    0.3424    3.9102 C   0  0  0  0  0  0  0  0  0  0  0  0
   -0.8774   -0.2723    3.4345 O   0  0  0  0  0  0  0  0  0  0  0  0
   -2.2566    0.0600    5.3109 C   0  0  0  0  0  0  0  0  0  0  0  0
   -3.0163   -0.7363    5.3643 H   0  0  0  0  0  0  0  0  0  0  0  0
   -1.4254   -0.2876    5.9452 H   0  0  0  0  0  0  0  0  0  0  0  0
   -2.6947    0.9149    5.8505 H   0  0  0  0  0  0  0  0  0  0  0  0
   -2.5745    1.3149    3.2691 N   0  0  0  0  0  0  0  0  0  0  0  0
   -2.3276    1.7409    1.9167 C   0  0  2  0  0  0  0  0  0  0  0  0
   -0.9926    1.1555    1.4755 C   0  0  0  0  0  0  0  0  0  0  0  0
   -0.1206    0.8028    2.2668 O   0  0  0  0  0  0  0  0  0  0  0  0
   -2.3188    3.2577    1.8072 C   0  0  0  0  0  0  0  0  0  0  0  0
   -3.3395    1.7507    3.7809 H   0  0  0  0  0  0  0  0  0  0  0  0
   -3.1317    1.3224    1.3015 H   0  0  0  0  0  0  0  0  0  0  0  0
   -1.5198    3.6949    2.4169 H   0  0  0  0  0  0  0  0  0  0  0  0
   -2.1594    3.5799    0.7729 H   0  0  0  0  0  0  0  0  0  0  0  0
   -3.2690    3.6789    2.1530 H   0  0  0  0  0  0  0  0  0  0  0  0
   -0.8700    1.1124    0.0921 N   0  0  0  0  0  0  0  0  0  0  0  0
    0.3073    0.6116   -0.5716 C   0  0  2  0  0  0  0  0  0  0  0  0
   -0.0378   -0.7673   -1.1227 C   0  0  0  0  0  0  0  0  0  0  0  0
   -0.1723   -1.7588   -0.4088 O   0  0  0  0  0  0  0  0  0  0  0  0
    1.5108    0.5217    0.3738 C   0  0  0  0  0  0  0  0  0  0  0  0
    1.9972    1.8757    0.8297 C   0  0  0  0  0  0  0  0  0  0  0  0
    2.8253    2.6348    0.0028 C   0  0  0  0  0  0  0  0  0  0  0  0
    1.6181    2.3681    2.0785 C   0  0  0  0  0  0  0  0  0  0  0  0
    3.2743    3.8862    0.4248 C   0  0  0  0  0  0  0  0  0  0  0  0
    2.0671    3.6195    2.5004 C   0  0  0  0  0  0  0  0  0  0  0  0
    2.8952    4.3786    1.6735 C   0  0  0  0  0  0  0  0  0  0  0  0
   -1.6531    1.4091   -0.4852 H   0  0  0  0  0  0  0  0  0  0  0  0
    0.5081    1.2922   -1.4073 H   0  0  0  0  0  0  0  0  0  0  0  0
    2.3336   -0.0231   -0.1086 H   0  0  0  0  0  0  0  0  0  0  0  0
    1.2565   -0.0697    1.2633 H   0  0  0  0  0  0  0  0  0  0  0  0
    3.1257    2.2592   -0.9718 H   0  0  0  0  0  0  0  0  0  0  0  0
    0.9731    1.7838    2.7294 H   0  0  0  0  0  0  0  0  0  0  0  0
    3.9200    4.4766   -0.2188 H   0  0  0  0  0  0  0  0  0  0  0  0
    1.7726    4.0021    3.4732 H   0  0  0  0  0  0  0  0  0  0  0  0
    3.2460    5.3524    2.0024 H   0  0  0  0  0  0  0  0  0  0  0  0
   -0.2258   -0.7451   -2.4977 N   0  0  0  0  0  0  0  0  0  0  0  0
   -0.5839   -1.9139   -3.2687 C   0  0  2  0  0  0  0  0  0  0  0  0
    0.3745   -3.0365   -2.8936 C   0  0  0  0  0  0  0  0  0  0  0  0
    1.4842   -2.8356   -2.4044 O   0  0  0  0  0  0  0  0  0  0  0  0
   -0.5305   -1.6297   -4.7617 C   0  0  0  0  0  0  0  0  0  0  0  0
   -0.1056    0.1370   -2.9868 H   0  0  0  0  0  0  0  0  0  0  0  0
   -1.6023   -2.1882   -2.9726 H   0  0  0  0  0  0  0  0  0  0  0  0
    0.4822   -1.3531   -5.0770 H   0  0  0  0  0  0  0  0  0  0  0  0
   -0.8296   -2.5077   -5.3437 H   0  0  0  0  0  0  0  0  0  0  0  0
   -1.1982   -0.8023   -5.0250 H   0  0  0  0  0  0  0  0  0  0  0  0
   -0.1375   -4.2872   -3.2093 N   0  0  0  0  0  0  0  0  0  0  0  0
    0.5877   -5.5116   -2.9623 C   0  0  0  0  0  0  0  0  0  0  0  0
   -1.0743   -4.3608   -3.5950 H   0  0  0  0  0  0  0  0  0  0  0  0
    1.1639   -5.7842   -3.8587 H   0  0  0  0  0  0  0  0  0  0  0  0
    1.2743   -5.3664   -2.1153 H   0  0  0  0  0  0  0  0  0  0  0  0
   -0.1230   -6.3168   -2.7244 H   0  0  0  0  0  0  0  0  0  0  0  0
 25 27  1  0  0  0  0
 26 27  2  0  0  0  0
 23 25  2  0  0  0  0
 24 26  1  0  0  0  0
 22 23  1  0  0  0  0
 22 24  2  0  0  0  0
 21 22  1  0  0  0  0
  1  3  1  0  0  0  0
  1  7  1  0  0  0  0
  1  2  2  0  0  0  0
 38 39  1  0  0  0  0
 39 47  1  0  0  0  0
 39 40  2  0  0  0  0
  8  9  1  0  0  0  0
  9 17  1  0  0  0  0
  9 10  2  0  0  0  0
 18 19  1  0  0  0  0
 19 37  1  0  0  0  0
 19 20  2  0  0  0  0
 38 41  1  0  0  0  0
  8 11  1  0  0  0  0
 47 48  1  0  0  0  0
 18 21  1  0  0  0  0
 37 38  1  0  0  0  0
  7  8  1  0  0  0  0
 17 18  1  0  0  0  0
 27 36  1  0  0  0  0
 25 34  1  0  0  0  0
 26 35  1  0  0  0  0
 23 32  1  0  0  0  0
 24 33  1  0  0  0  0
  3  4  1  0  0  0  0
  3  5  1  0  0  0  0
  3  6  1  0  0  0  0
 41 44  1  0  0  0  0
 41 45  1  0  0  0  0
 41 46  1  0  0  0  0
 11 14  1  0  0  0  0
 11 15  1  0  0  0  0
 11 16  1  0  0  0  0
 48 50  1  0  0  0  0
 48 51  1  0  0  0  0
 48 52  1  0  0  0  0
 21 30  1  0  0  0  0
 21 31  1  0  0  0  0
 38 43  1  0  0  0  0
  8 13  1  0  0  0  0
 18 29  1  0  0  0  0
 47 49  1  0  0  0  0
  7 12  1  0  0  0  0
 37 42  1  0  0  0  0
 17 28  1  0  0  0  0
M  END
$$$$

  -OEChem-05262214473D

 52 52  0     1  0  0  0  0  0999 V2000
   -1.8248    0.3424    3.9102 C   0  0  0  0  0  0  0  0  0  0  0  0
   -0.8774   -0.2723    3.4345 O   0  0  0  0  0  0  0  0  0  0  0  0
   -2.2566    0.0600    5.3109 C   0  0  0  0  0  0  0  0  0  0  0  0
   -3.0163   -0.7363    5.3643 H   0  0  0  0  0  0  0  0  0  0  0  0
   -1.4254   -0.2876    5.9452 H   0  0  0  0  0  0  0  0  0  0  0  0
   -2.6947    0.9149    5.8505 H   0  0  0  0  0  0  0  0  0  0  0  0
   -2.5745    1.3149    3.2691 N   0  0  0  0  0  0  0  0  0  0  0  0
   -2.3276    1.7409    1.9167 C   0  0  2  0  0  0  0  0  0  0  0  0
   -0.9926    1.1555    1.4755 C   0  0  0  0  0  0  0  0  0  0  0  0
   -0.1206    0.8028    2.2668 O   0  0  0  0  0  0  0  0  0  0  0  0
   -2.3188    3.2577    1.8072 C   0  0  0  0  0  0  0  0  0  0  0  0
   -3.3395    1.7507    3.7809 H   0  0  0  0  0  0  0  0  0  0  0  0
   -3.1317    1.3224    1.3015 H   0  0  0  0  0  0  0  0  0  0  0  0
   -1.5198    3.6949    2.4169 H   0  0  0  0  0  0  0  0  0  0  0  0
   -2.1594    3.5799    0.7729 H   0  0  0  0  0  0  0  0  0  0  0  0
   -3.2690    3.6789    2.1530 H   0  0  0  0  0  0  0  0  0  0  0  0
   -0.8700    1.1124    0.0921 N   0  0  0  0  0  0  0  0  0  0  0  0
    0.3073    0.6116   -0.5716 C   0  0  2  0  0  0  0  0  0  0  0  0
   -0.0378   -0.7673   -1.1227 C   0  0  0  0  0  0  0  0  0  0  0  0
   -0.4328   -1.6912   -0.4147 O   0  0  0  0  0  0  0  0  0  0  0  0
    1.5108    0.5217    0.3738 C   0  0  0  0  0  0  0  0  0  0  0  0
    1.9972    1.8757    0.8297 C   0  0  0  0  0  0  0  0  0  0  0  0
    2.8253    2.6348    0.0028 C   0  0  0  0  0  0  0  0  0  0  0  0
    1.6181    2.3681    2.0785 C   0  0  0  0  0  0  0  0  0  0  0  0
    3.2743    3.8862    0.4248 C   0  0  0  0  0  0  0  0  0  0  0  0
    2.0671    3.6195    2.5004 C   0  0  0  0  0  0  0  0  0  0  0  0
    2.8952    4.3786    1.6735 C   0  0  0  0  0  0  0  0  0  0  0  0
   -1.6531    1.4091   -0.4852 H   0  0  0  0  0  0  0  0  0  0  0  0
    0.5081    1.2922   -1.4073 H   0  0  0  0  0  0  0  0  0  0  0  0
    2.3336   -0.0231   -0.1086 H   0  0  0  0  0  0  0  0  0  0  0  0
    1.2565   -0.0697    1.2633 H   0  0  0  0  0  0  0  0  0  0  0  0
    3.1257    2.2592   -0.9718 H   0  0  0  0  0  0  0  0  0  0  0  0
    0.9731    1.7838    2.7294 H   0  0  0  0  0  0  0  0  0  0  0  0
    3.9200    4.4766   -0.2188 H   0  0  0  0  0  0  0  0  0  0  0  0
    1.7726    4.0021    3.4732 H   0  0  0  0  0  0  0  0  0  0  0  0
    3.2460    5.3524    2.0024 H   0  0  0  0  0  0  0  0  0  0  0  0
    0.1006   -0.8248   -2.5026 N   0  0  0  0  0  0  0  0  0  0  0  0
   -0.1852   -2.0092   -3.2801 C   0  0  2  0  0  0  0  0  0  0  0  0
    0.5427   -3.1816   -2.6358 C   0  0  0  0  0  0  0  0  0  0  0  0
    1.5235   -3.0440   -1.9078 O   0  0  0  0  0  0  0  0  0  0  0  0
    0.2404   -1.8354   -4.7297 C   0  0  0  0  0  0  0  0  0  0  0  0
    0.4187    0.0073   -2.9905 H   0  0  0  0  0  0  0  0  0  0  0  0
   -1.2667   -2.1729   -3.2210 H   0  0  0  0  0  0  0  0  0  0  0  0
    1.3211   -1.6702   -4.8089 H   0  0  0  0  0  0  0  0  0  0  0  0
   -0.0027   -2.7227   -5.3236 H   0  0  0  0  0  0  0  0  0  0  0  0
   -0.2616   -0.9737   -5.1827 H   0  0  0  0  0  0  0  0  0  0  0  0
   -0.0056   -4.4023   -3.0041 N   0  0  0  0  0  0  0  0  0  0  0  0
    0.5159   -5.6646   -2.5345 C   0  0  0  0  0  0  0  0  0  0  0  0
   -0.8302   -4.4211   -3.5968 H   0  0  0  0  0  0  0  0  0  0  0  0
    1.2535   -6.0480   -3.2549 H   0  0  0  0  0  0  0  0  0  0  0  0
    0.9990   -5.5207   -1.5568 H   0  0  0  0  0  0  0  0  0  0  0  0
   -0.3077   -6.3868   -2.4338 H   0  0  0  0  0  0  0  0  0  0  0  0
 25 27  1  0  0  0  0
 26 27  2  0  0  0  0
 23 25  2  0  0  0  0
 24 26  1  0  0  0  0
 22 23  1  0  0  0  0
 22 24  2  0  0  0  0
 21 22  1  0  0  0  0
  1  3  1  0  0  0  0
  1  7  1  0  0  0  0
  1  2  2  0  0  0  0
 38 39  1  0  0  0  0
 39 47  1  0  0  0  0
 39 40  2  0  0  0  0
  8  9  1  0  0  0  0
  9 17  1  0  0  0  0
  9 10  2  0  0  0  0
 18 19  1  0  0  0  0
 19 37  1  0  0  0  0
 19 20  2  0  0  0  0
 38 41  1  0  0  0  0
  8 11  1  0  0  0  0
 47 48  1  0  0  0  0
 18 21  1  0  0  0  0
 37 38  1  0  0  0  0
  7  8  1  0  0  0  0
 17 18  1  0  0  0  0
 27 36  1  0  0  0  0
 25 34  1  0  0  0  0
 26 35  1  0  0  0  0
 23 32  1  0  0  0  0
 24 33  1  0  0  0  0
  3  4  1  0  0  0  0
  3  5  1  0  0  0  0
  3  6  1  0  0  0  0
 41 44  1  0  0  0  0
 41 45  1  0  0  0  0
 41 46  1  0  0  0  0
 11 14  1  0  0  0  0
 11 15  1  0  0  0  0
 11 16  1  0  0  0  0
 48 50  1  0  0  0  0
 48 51  1  0  0  0  0
 48 52  1  0  0  0  0
 21 30  1  0  0  0  0
 21 31  1  0  0  0  0
 38 43  1  0  0  0  0
  8 13  1  0  0  0  0
 18 29  1  0  0  0  0
 47 49  1  0  0  0  0
  7 12  1  0  0  0  0
 37 42  1  0  0  0  0
 17 28  1  0  0  0  0
M  END
$$$$

  -OEChem-05262214473D

 52 52  0     1  0  0  0  0  0999 V2000
   -1.8248    0.3424    3.9102 C   0  0  0  0  0  0  0  0  0  0  0  0
   -0.8774   -0.2723    3.4345 O   0  0  0  0  0  0  0  0  0  0  0  0
   -2.2566    0.0600    5.3109 C   0  0  0  0  0  0  0  0  0  0  0  0
   -3.0163   -0.7363    5.3643 H   0  0  0  0  0  0  0  0  0  0  0  0
   -1.4254   -0.2876    5.9452 H   0  0  0  0  0  0  0  0  0  0  0  0
   -2.6947    0.9149    5.8505 H   0  0  0  0  0  0  0  0  0  0  0  0
   -2.5745    1.3149    3.2691 N   0  0  0  0  0  0  0  0  0  0  0  0
   -2.3276    1.7409    1.9167 C   0  0  2  0  0  0  0  0  0  0  0  0
   -0.9926    1.1555    1.4755 C   0  0  0  0  0  0  0  0  0  0  0  0
   -0.1206    0.8028    2.2668 O   0  0  0  0  0  0  0  0  0  0  0  0
   -2.3188    3.2577    1.8072 C   0  0  0  0  0  0  0  0  0  0  0  0
   -3.3395    1.7507    3.7809 H   0  0  0  0  0  0  0  0  0  0  0  0
   -3.1317    1.3224    1.3015 H   0  0  0  0  0  0  0  0  0  0  0  0
   -1.5198    3.6949    2.4169 H   0  0  0  0  0  0  0  0  0  0  0  0
   -2.1594    3.5799    0.7729 H   0  0  0  0  0  0  0  0  0  0  0  0
   -3.2690    3.6789    2.1530 H   0  0  0  0  0  0  0  0  0  0  0  0
   -0.8700    1.1124    0.0921 N   0  0  0  0  0  0  0  0  0  0  0  0
    0.3073    0.6116   -0.5716 C   0  0  2  0  0  0  0  0  0  0  0  0
   -0.0378   -0.7673   -1.1227 C   0  0  0  0  0  0  0  0  0  0  0  0
   -0.6767   -1.6019   -0.4854 O   0  0  0  0  0  0  0  0  0  0  0  0
    1.5108    0.5217    0.3738 C   0  0  0  0  0  0  0  0  0  0  0  0
    1.9972    1.8757    0.8297 C   0  0  0  0  0  0  0  0  0  0  0  0
    2.8253    2.6348    0.0028 C   0  0  0  0  0  0  0  0  0  0  0  0
    1.6181    2.3681    2.0785 C   0  0  0  0  0  0  0  0  0  0  0  0
    3.2743    3.8862    0.4248 C   0  0  0  0  0  0  0  0  0  0  0  0
    2.0671    3.6195    2.5004 C   0  0  0  0  0  0  0  0  0  0  0  0
    2.8952    4.3786    1.6735 C   0  0  0  0  0  0  0  0  0  0  0  0
   -1.6531    1.4091   -0.4852 H   0  0  0  0  0  0  0  0  0  0  0  0
    0.5081    1.2922   -1.4073 H   0  0  0  0  0  0  0  0  0  0  0  0
    2.3336   -0.0231   -0.1086 H   0  0  0  0  0  0  0  0  0  0  0  0
    1.2565   -0.0697    1.2633 H   0  0  0  0  0  0  0  0  0  0  0  0
    3.1257    2.2592   -0.9718 H   0  0  0  0  0  0  0  0  0  0  0  0
    0.9731    1.7838    2.7294 H   0  0  0  0  0  0  0  0  0  0  0  0
    3.9200    4.4766   -0.2188 H   0  0  0  0  0  0  0  0  0  0  0  0
    1.7726    4.0021    3.4732 H   0  0  0  0  0  0  0  0  0  0  0  0
    3.2460    5.3524    2.0024 H   0  0  0  0  0  0  0  0  0  0  0  0
    0.4095   -0.9327   -2.4262 N   0  0  0  0  0  0  0  0  0  0  0  0
    0.1937   -2.1391   -3.1921 C   0  0  2  0  0  0  0  0  0  0  0  0
    0.6311   -3.3224   -2.3389 C   0  0  0  0  0  0  0  0  0  0  0  0
    1.4257   -3.2198   -1.4066 O   0  0  0  0  0  0  0  0  0  0  0  0
    0.9583   -2.1044   -4.5062 C   0  0  0  0  0  0  0  0  0  0  0  0
    0.9139   -0.1673   -2.8638 H   0  0  0  0  0  0  0  0  0  0  0  0
   -0.8830   -2.2041   -3.3832 H   0  0  0  0  0  0  0  0  0  0  0  0
    2.0390   -2.0394   -4.3350 H   0  0  0  0  0  0  0  0  0  0  0  0
    0.7713   -3.0065   -5.0981 H   0  0  0  0  0  0  0  0  0  0  0  0
    0.6640   -1.2362   -5.1056 H   0  0  0  0  0  0  0  0  0  0  0  0
    0.0631   -4.5137   -2.7683 N   0  0  0  0  0  0  0  0  0  0  0  0
    0.3322   -5.7806   -2.1292 C   0  0  0  0  0  0  0  0  0  0  0  0
   -0.5997   -4.5024   -3.5379 H   0  0  0  0  0  0  0  0  0  0  0  0
    1.1740   -6.2758   -2.6353 H   0  0  0  0  0  0  0  0  0  0  0  0
    0.5880   -5.6113   -1.0728 H   0  0  0  0  0  0  0  0  0  0  0  0
   -0.5607   -6.4200   -2.1923 H   0  0  0  0  0  0  0  0  0  0  0  0
 25 27  1  0  0  0  0
 26 27  2  0  0  0  0
 23 25  2  0  0  0  0
 24 26  1  0  0  0  0
 22 23  1  0  0  0  0
 22 24  2  0  0  0  0
 21 22  1  0  0  0  0
  1  3  1  0  0  0  0
  1  7  1  0  0  0  0
  1  2  2  0  0  0  0
 38 39  1  0  0  0  0
 39 47  1  0  0  0  0
 39 40  2  0  0  0  0
  8  9  1  0  0  0  0
  9 17  1  0  0  0  0
  9 10  2  0  0  0  0
 18 19  1  0  0  0  0
 19 37  1  0  0  0  0
 19 20  2  0  0  0  0
 38 41  1  0  0  0  0
  8 11  1  0  0  0  0
 47 48  1  0  0  0  0
 18 21  1  0  0  0  0
 37 38  1  0  0  0  0
  7  8  1  0  0  0  0
 17 18  1  0  0  0  0
 27 36  1  0  0  0  0
 25 34  1  0  0  0  0
 26 35  1  0  0  0  0
 23 32  1  0  0  0  0
 24 33  1  0  0  0  0
  3  4  1  0  0  0  0
  3  5  1  0  0  0  0
  3  6  1  0  0  0  0
 41 44  1  0  0  0  0
 41 45  1  0  0  0  0
 41 46  1  0  0  0  0
 11 14  1  0  0  0  0
 11 15  1  0  0  0  0
 11 16  1  0  0  0  0
 48 50  1  0  0  0  0
 48 51  1  0  0  0  0
 48 52  1  0  0  0  0
 21 30  1  0  0  0  0
 21 31  1  0  0  0  0
 38 43  1  0  0  0  0
  8 13  1  0  0  0  0
 18 29  1  0  0  0  0
 47 49  1  0  0  0  0
  7 12  1  0  0  0  0
 37 42  1  0  0  0  0
 17 28  1  0  0  0  0
M  END
$$$$

  -OEChem-05262214473D

 52 52  0     1  0  0  0  0  0999 V2000
   -1.8248    0.3424    3.9102 C   0  0  0  0  0  0  0  0  0  0  0  0
   -0.8774   -0.2723    3.4345 O   0  0  0  0  0  0  0  0  0  0  0  0
   -2.2566    0.0600    5.3109 C   0  0  0  0  0  0  0  0  0  0  0  0
   -3.0163   -0.7363    5.3643 H   0  0  0  0  0  0  0  0  0  0  0  0
   -1.4254   -0.2876    5.9452 H   0  0  0  0  0  0  0  0  0  0  0  0
   -2.6947    0.9149    5.8505 H   0  0  0  0  0  0  0  0  0  0  0  0
   -2.5745    1.3149    3.2691 N   0  0  0  0  0  0  0  0  0  0  0  0
   -2.3276    1.7409    1.9167 C   0  0  2  0  0  0  0  0  0  0  0  0
   -0.9926    1.1555    1.4755 C   0  0  0  0  0  0  0  0  0  0  0  0
   -0.1206    0.8028    2.2668 O   0  0  0  0  0  0  0  0  0  0  0  0
   -2.3188    3.2577    1.8072 C   0  0  0  0  0  0  0  0  0  0  0  0
   -3.3395    1.7507    3.7809 H   0  0  0  0  0  0  0  0  0  0  0  0
   -3.1317    1.3224    1.3015 H   0  0  0  0  0  0  0  0  0  0  0  0
   -1.5198    3.6949    2.4169 H   0  0  0  0  0  0  0  0  0  0  0  0
   -2.1594    3.5799    0.7729 H   0  0  0  0  0  0  0  0  0  0  0  0
   -3.2690    3.6789    2.1530 H   0  0  0  0  0  0  0  0  0  0  0  0
   -0.8700    1.1124    0.0921 N   0  0  0  0  0  0  0  0  0  0  0  0
    0.3073    0.6116   -0.5716 C   0  0  2  0  0  0  0  0  0  0  0  0
   -0.0378   -0.7673   -1.1227 C   0  0  0  0  0  0  0  0  0  0  0  0
   -0.8873   -1.4970   -0.6160 O   0  0  0  0  0  0  0  0  0  0  0  0
    1.5108    0.5217    0.3738 C   0  0  0  0  0  0  0  0  0  0  0  0
    1.9972    1.8757    0.8297 C   0  0  0  0  0  0  0  0  0  0  0  0
    2.8253    2.6348    0.0028 C   0  0  0  0  0  0  0  0  0  0  0  0
    1.6181    2.3681    2.0785 C   0  0  0  0  0  0  0  0  0  0  0  0
    3.2743    3.8862    0.4248 C   0  0  0  0  0  0  0  0  0  0  0  0
    2.0671    3.6195    2.5004 C   0  0  0  0  0  0  0  0  0  0  0  0
    2.8952    4.3786    1.6735 C   0  0  0  0  0  0  0  0  0  0  0  0
   -1.6531    1.4091   -0.4852 H   0  0  0  0  0  0  0  0  0  0  0  0
    0.5081    1.2922   -1.4073 H   0  0  0  0  0  0  0  0  0  0  0  0
    2.3336   -0.0231   -0.1086 H   0  0  0  0  0  0  0  0  0  0  0  0
    1.2565   -0.0697    1.2633 H   0  0  0  0  0  0  0  0  0  0  0  0
    3.1257    2.2592   -0.9718 H   0  0  0  0  0  0  0  0  0  0  0  0
    0.9731    1.7838    2.7294 H   0  0  0  0  0  0  0  0  0  0  0  0
    3.9200    4.4766   -0.2188 H   0  0  0  0  0  0  0  0  0  0  0  0
    1.7726    4.0021    3.4732 H   0  0  0  0  0  0  0  0  0  0  0  0
    3.2460    5.3524    2.0024 H   0  0  0  0  0  0  0  0  0  0  0  0
    0.6799   -1.0613   -2.2738 N   0  0  0  0  0  0  0  0  0  0  0  0
    0.5270   -2.2950   -3.0109 C   0  0  2  0  0  0  0  0  0  0  0  0
    0.6339   -3.4493   -2.0232 C   0  0  0  0  0  0  0  0  0  0  0  0
    1.1975   -3.3511   -0.9352 O   0  0  0  0  0  0  0  0  0  0  0  0
    1.5743   -2.4184   -4.1066 C   0  0  0  0  0  0  0  0  0  0  0  0
    1.3461   -0.3748   -2.6153 H   0  0  0  0  0  0  0  0  0  0  0  0
   -0.4773   -2.2797   -3.4483 H   0  0  0  0  0  0  0  0  0  0  0  0
    2.5870   -2.4353   -3.6875 H   0  0  0  0  0  0  0  0  0  0  0  0
    1.4395   -3.3399   -4.6824 H   0  0  0  0  0  0  0  0  0  0  0  0
    1.5154   -1.5718   -4.7992 H   0  0  0  0  0  0  0  0  0  0  0  0
    0.0637   -4.6140   -2.5179 N   0  0  0  0  0  0  0  0  0  0  0  0
    0.0489   -5.8518   -1.7738 C   0  0  0  0  0  0  0  0  0  0  0  0
   -0.3985   -4.5990   -3.4222 H   0  0  0  0  0  0  0  0  0  0  0  0
    0.9308   -6.4520   -2.0421 H   0  0  0  0  0  0  0  0  0  0  0  0
    0.0692   -5.6320   -0.6962 H   0  0  0  0  0  0  0  0  0  0  0  0
   -0.8648   -6.4142   -2.0162 H   0  0  0  0  0  0  0  0  0  0  0  0
 25 27  1  0  0  0  0
 26 27  2  0  0  0  0
 23 25  2  0  0  0  0
 24 26  1  0  0  0  0
 22 23  1  0  0  0  0
 22 24  2  0  0  0  0
 21 22  1  0  0  0  0
  1  3  1  0  0  0  0
  1  7  1  0  0  0  0
  1  2  2  0  0  0  0
 38 39  1  0  0  0  0
 39 47  1  0  0  0  0
 39 40  2  0  0  0  0
  8  9  1  0  0  0  0
  9 17  1  0  0  0  0
  9 10  2  0  0  0  0
 18 19  1  0  0  0  0
 19 37  1  0  0  0  0
 19 20  2  0  0  0  0
 38 41  1  0  0  0  0
  8 11  1  0  0  0  0
 47 48  1  0  0  0  0
 18 21  1  0  0  0  0
 37 38  1  0  0  0  0
  7  8  1  0  0  0  0
 17 18  1  0  0  0  0
 27 36  1  0  0  0  0
 25 34  1  0  0  0  0
 26 35  1  0  0  0  0
 23 32  1  0  0  0  0
 24 33  1  0  0  0  0
  3  4  1  0  0  0  0
  3  5  1  0  0  0  0
  3  6  1  0  0  0  0
 41 44  1  0  0  0  0
 41 45  1  0  0  0  0
 41 46  1  0  0  0  0
 11 14  1  0  0  0  0
 11 15  1  0  0  0  0
 11 16  1  0  0  0  0
 48 50  1  0  0  0  0
 48 51  1  0  0  0  0
 48 52  1  0  0  0  0
 21 30  1  0  0  0  0
 21 31  1  0  0  0  0
 38 43  1  0  0  0  0
  8 13  1  0  0  0  0
 18 29  1  0  0  0  0
 47 49  1  0  0  0  0
  7 12  1  0  0  0  0
 37 42  1  0  0  0  0
 17 28  1  0  0  0  0
M  END
$$$$

  -OEChem-05262214473D

 52 52  0     1  0  0  0  0  0999 V2000
   -1.8248    0.3424    3.9102 C   0  0  0  0  0  0  0  0  0  0  0  0
   -0.8774   -0.2723    3.4345 O   0  0  0  0  0  0  0  0  0  0  0  0
   -2.2566    0.0600    5.3109 C   0  0  0  0  0  0  0  0  0  0  0  0
   -3.0163   -0.7363    5.3643 H   0  0  0  0  0  0  0  0  0  0  0  0
   -1.4254   -0.2876    5.9452 H   0  0  0  0  0  0  0  0  0  0  0  0
   -2.6947    0.9149    5.8505 H   0  0  0  0  0  0  0  0  0  0  0  0
   -2.5745    1.3149    3.2691 N   0  0  0  0  0  0  0  0  0  0  0  0
   -2.3276    1.7409    1.9167 C   0  0  2  0  0  0  0  0  0  0  0  0
   -0.9926    1.1555    1.4755 C   0  0  0  0  0  0  0  0  0  0  0  0
   -0.1206    0.8028    2.2668 O   0  0  0  0  0  0  0  0  0  0  0  0
   -2.3188    3.2577    1.8072 C   0  0  0  0  0  0  0  0  0  0  0  0
   -3.3395    1.7507    3.7809 H   0  0  0  0  0  0  0  0  0  0  0  0
   -3.1317    1.3224    1.3015 H   0  0  0  0  0  0  0  0  0  0  0  0
   -1.5198    3.6949    2.4169 H   0  0  0  0  0  0  0  0  0  0  0  0
   -2.1594    3.5799    0.7729 H   0  0  0  0  0  0  0  0  0  0  0  0
   -3.2690    3.6789    2.1530 H   0  0  0  0  0  0  0  0  0  0  0  0
   -0.8700    1.1124    0.0921 N   0  0  0  0  0  0  0  0  0  0  0  0
    0.3073    0.6116   -0.5716 C   0  0  2  0  0  0  0  0  0  0  0  0
   -0.0378   -0.7673   -1.1227 C   0  0  0  0  0  0  0  0  0  0  0  0
   -1.0504   -1.3835   -0.7976 O   0  0  0  0  0  0  0  0  0  0  0  0
    1.5108    0.5217    0.3738 C   0  0  0  0  0  0  0  0  0  0  0  0
    1.9972    1.8757    0.8297 C   0  0  0  0  0  0  0  0  0  0  0  0
    2.8253    2.6348    0.0028 C   0  0  0  0  0  0  0  0  0  0  0  0
    1.6181    2.3681    2.0785 C   0  0  0  0  0  0  0  0  0  0  0  0
    3.2743    3.8862    0.4248 C   0  0  0  0  0  0  0  0  0  0  0  0
    2.0671    3.6195    2.5004 C   0  0  0  0  0  0  0  0  0  0  0  0
    2.8952    4.3786    1.6735 C   0  0  0  0  0  0  0  0  0  0  0  0
   -1.6531    1.4091   -0.4852 H   0  0  0  0  0  0  0  0  0  0  0  0
    0.5081    1.2922   -1.4073 H   0  0  0  0  0  0  0  0  0  0  0  0
    2.3336   -0.0231   -0.1086 H   0  0  0  0  0  0  0  0  0  0  0  0
    1.2565   -0.0697    1.2633 H   0  0  0  0  0  0  0  0  0  0  0  0
    3.1257    2.2592   -0.9718 H   0  0  0  0  0  0  0  0  0  0  0  0
    0.9731    1.7838    2.7294 H   0  0  0  0  0  0  0  0  0  0  0  0
    3.9200    4.4766   -0.2188 H   0  0  0  0  0  0  0  0  0  0  0  0
    1.7726    4.0021    3.4732 H   0  0  0  0  0  0  0  0  0  0  0  0
    3.2460    5.3524    2.0024 H   0  0  0  0  0  0  0  0  0  0  0  0
    0.8934   -1.2019   -2.0557 N   0  0  0  0  0  0  0  0  0  0  0  0
    0.7918   -2.4661   -2.7487 C   0  0  2  0  0  0  0  0  0  0  0  0
    0.5508   -3.5537   -1.7101 C   0  0  0  0  0  0  0  0  0  0  0  0
    0.8544   -3.4290   -0.5255 O   0  0  0  0  0  0  0  0  0  0  0  0
    2.0464   -2.7558   -3.5580 C   0  0  0  0  0  0  0  0  0  0  0  0
    1.6861   -0.6012   -2.2619 H   0  0  0  0  0  0  0  0  0  0  0  0
   -0.0772   -2.3944   -3.4117 H   0  0  0  0  0  0  0  0  0  0  0  0
    2.9277   -2.8311   -2.9106 H   0  0  0  0  0  0  0  0  0  0  0  0
    1.9564   -3.7001   -4.1050 H   0  0  0  0  0  0  0  0  0  0  0  0
    2.2347   -1.9577   -4.2842 H   0  0  0  0  0  0  0  0  0  0  0  0
   -0.0036   -4.6962   -2.2700 N   0  0  0  0  0  0  0  0  0  0  0  0
   -0.3145   -5.8732   -1.4927 C   0  0  0  0  0  0  0  0  0  0  0  0
   -0.2402   -4.7044   -3.2577 H   0  0  0  0  0  0  0  0  0  0  0  0
    0.5406   -6.5648   -1.5157 H   0  0  0  0  0  0  0  0  0  0  0  0
   -0.5221   -5.5813   -0.4527 H   0  0  0  0  0  0  0  0  0  0  0  0
   -1.1992   -6.3699   -1.9177 H   0  0  0  0  0  0  0  0  0  0  0  0
 25 27  1  0  0  0  0
 26 27  2  0  0  0  0
 23 25  2  0  0  0  0
 24 26  1  0  0  0  0
 22 23  1  0  0  0  0
 22 24  2  0  0  0  0
 21 22  1  0  0  0  0
  1  3  1  0  0  0  0
  1  7  1  0  0  0  0
  1  2  2  0  0  0  0
 38 39  1  0  0  0  0
 39 47  1  0  0  0  0
 39 40  2  0  0  0  0
  8  9  1  0  0  0  0
  9 17  1  0  0  0  0
  9 10  2  0  0  0  0
 18 19  1  0  0  0  0
 19 37  1  0  0  0  0
 19 20  2  0  0  0  0
 38 41  1  0  0  0  0
  8 11  1  0  0  0  0
 47 48  1  0  0  0  0
 18 21  1  0  0  0  0
 37 38  1  0  0  0  0
  7  8  1  0  0  0  0
 17 18  1  0  0  0  0
 27 36  1  0  0  0  0
 25 34  1  0  0  0  0
 26 35  1  0  0  0  0
 23 32  1  0  0  0  0
 24 33  1  0  0  0  0
  3  4  1  0  0  0  0
  3  5  1  0  0  0  0
  3  6  1  0  0  0  0
 41 44  1  0  0  0  0
 41 45  1  0  0  0  0
 41 46  1  0  0  0  0
 11 14  1  0  0  0  0
 11 15  1  0  0  0  0
 11 16  1  0  0  0  0
 48 50  1  0  0  0  0
 48 51  1  0  0  0  0
 48 52  1  0  0  0  0
 21 30  1  0  0  0  0
 21 31  1  0  0  0  0
 38 43  1  0  0  0  0
  8 13  1  0  0  0  0
 18 29  1  0  0  0  0
 47 49  1  0  0  0  0
  7 12  1  0  0  0  0
 37 42  1  0  0  0  0
 17 28  1  0  0  0  0
M  END
$$$$

  -OEChem-05262214473D

 52 52  0     1  0  0  0  0  0999 V2000
   -1.8248    0.3424    3.9102 C   0  0  0  0  0  0  0  0  0  0  0  0
   -0.8774   -0.2723    3.4345 O   0  0  0  0  0  0  0  0  0  0  0  0
   -2.2566    0.0600    5.3109 C   0  0  0  0  0  0  0  0  0  0  0  0
   -3.0163   -0.7363    5.3643 H   0  0  0  0  0  0  0  0  0  0  0  0
   -1.4254   -0.2876    5.9452 H   0  0  0  0  0  0  0  0  0  0  0  0
   -2.6947    0.9149    5.8505 H   0  0  0  0  0  0  0  0  0  0  0  0
   -2.5745    1.3149    3.2691 N   0  0  0  0  0  0  0  0  0  0  0  0
   -2.3276    1.7409    1.9167 C   0  0  2  0  0  0  0  0  0  0  0  0
   -0.9926    1.1555    1.4755 C   0  0  0  0  0  0  0  0  0  0  0  0
   -0.1206    0.8028    2.2668 O   0  0  0  0  0  0  0  0  0  0  0  0
   -2.3188    3.2577    1.8072 C   0  0  0  0  0  0  0  0  0  0  0  0
   -3.3395    1.7507    3.7809 H   0  0  0  0  0  0  0  0  0  0  0  0
   -3.1317    1.3224    1.3015 H   0  0  0  0  0  0  0  0  0  0  0  0
   -1.5198    3.6949    2.4169 H   0  0  0  0  0  0  0  0  0  0  0  0
   -2.1594    3.5799    0.7729 H   0  0  0  0  0  0  0  0  0  0  0  0
   -3.2690    3.6789    2.1530 H   0  0  0  0  0  0  0  0  0  0  0  0
   -0.8700    1.1124    0.0921 N   0  0  0  0  0  0  0  0  0  0  0  0
    0.3073    0.6116   -0.5716 C   0  0  2  0  0  0  0  0  0  0  0  0
   -0.1283   -0.5680   -1.4336 C   0  0  0  0  0  0  0  0  0  0  0  0
   -1.2984   -0.9327   -1.5266 O   0  0  0  0  0  0  0  0  0  0  0  0
    1.3902    0.1746    0.4217 C   0  0  0  0  0  0  0  0  0  0  0  0
    1.9725    1.3315    1.1966 C   0  0  0  0  0  0  0  0  0  0  0  0
    2.9593    2.1314    0.6203 C   0  0  0  0  0  0  0  0  0  0  0  0
    1.5233    1.6008    2.4894 C   0  0  0  0  0  0  0  0  0  0  0  0
    3.4969    3.2006    1.3369 C   0  0  0  0  0  0  0  0  0  0  0  0
    2.0609    2.6699    3.2060 C   0  0  0  0  0  0  0  0  0  0  0  0
    3.0477    3.4699    2.6297 C   0  0  0  0  0  0  0  0  0  0  0  0
   -1.6531    1.4091   -0.4852 H   0  0  0  0  0  0  0  0  0  0  0  0
    0.6663    1.4181   -1.2218 H   0  0  0  0  0  0  0  0  0  0  0  0
    2.1936   -0.3606   -0.1025 H   0  0  0  0  0  0  0  0  0  0  0  0
    0.9826   -0.5495    1.1395 H   0  0  0  0  0  0  0  0  0  0  0  0
    3.3153    1.9292   -0.3864 H   0  0  0  0  0  0  0  0  0  0  0  0
    0.7547    0.9830    2.9463 H   0  0  0  0  0  0  0  0  0  0  0  0
    4.2660    3.8227    0.8885 H   0  0  0  0  0  0  0  0  0  0  0  0
    1.7117    2.8786    4.2128 H   0  0  0  0  0  0  0  0  0  0  0  0
    3.4674    4.3016    3.1880 H   0  0  0  0  0  0  0  0  0  0  0  0
    0.9377   -1.1298   -2.1224 N   0  0  0  0  0  0  0  0  0  0  0  0
    0.7969   -2.2474   -3.0279 C   0  0  2  0  0  0  0  0  0  0  0  0
    0.0096   -3.3366   -2.3116 C   0  0  0  0  0  0  0  0  0  0  0  0
   -0.0637   -3.4164   -1.0871 O   0  0  0  0  0  0  0  0  0  0  0  0
    2.1525   -2.7658   -3.4820 C   0  0  0  0  0  0  0  0  0  0  0  0
    1.8635   -0.7356   -1.9831 H   0  0  0  0  0  0  0  0  0  0  0  0
    0.2228   -1.8868   -3.8884 H   0  0  0  0  0  0  0  0  0  0  0  0
    2.7422   -3.1314   -2.6334 H   0  0  0  0  0  0  0  0  0  0  0  0
    2.0437   -3.5940   -4.1900 H   0  0  0  0  0  0  0  0  0  0  0  0
    2.7293   -1.9731   -3.9705 H   0  0  0  0  0  0  0  0  0  0  0  0
   -0.5660   -4.2344   -3.1998 N   0  0  0  0  0  0  0  0  0  0  0  0
   -1.3530   -5.3648   -2.7655 C   0  0  0  0  0  0  0  0  0  0  0  0
   -0.4693   -4.0801   -4.1991 H   0  0  0  0  0  0  0  0  0  0  0  0
   -0.7039   -6.2471   -2.6647 H   0  0  0  0  0  0  0  0  0  0  0  0
   -1.8160   -5.1375   -1.7939 H   0  0  0  0  0  0  0  0  0  0  0  0
   -2.1390   -5.5708   -3.5070 H   0  0  0  0  0  0  0  0  0  0  0  0
 25 27  1  0  0  0  0
 26 27  2  0  0  0  0
 23 25  2  0  0  0  0
 24 26  1  0  0  0  0
 22 23  1  0  0  0  0
 22 24  2  0  0  0  0
 21 22  1  0  0  0  0
  1  3  1  0  0  0  0
  1  7  1  0  0  0  0
  1  2  2  0  0  0  0
 38 39  1  0  0  0  0
 39 47  1  0  0  0  0
 39 40  2  0  0  0  0
  8  9  1  0  0  0  0
  9 17  1  0  0  0  0
  9 10  2  0  0  0  0
 18 19  1  0  0  0  0
 19 37  1  0  0  0  0
 19 20  2  0  0  0  0
 38 41  1  0  0  0  0
  8 11  1  0  0  0  0
 47 48  1  0  0  0  0
 18 21  1  0  0  0  0
 37 38  1  0  0  0  0
  7  8  1  0  0  0  0
 17 18  1  0  0  0  0
 27 36  1  0  0  0  0
 25 34  1  0  0  0  0
 26 35  1  0  0  0  0
 23 32  1  0  0  0  0
 24 33  1  0  0  0  0
  3  4  1  0  0  0  0
  3  5  1  0  0  0  0
  3  6  1  0  0  0  0
 41 44  1  0  0  0  0
 41 45  1  0  0  0  0
 41 46  1  0  0  0  0
 11 14  1  0  0  0  0
 11 15  1  0  0  0  0
 11 16  1  0  0  0  0
 48 50  1  0  0  0  0
 48 51  1  0  0  0  0
 48 52  1  0  0  0  0
 21 30  1  0  0  0  0
 21 31  1  0  0  0  0
 38 43  1  0  0  0  0
  8 13  1  0  0  0  0
 18 29  1  0  0  0  0
 47 49  1  0  0  0  0
  7 12  1  0  0  0  0
 37 42  1  0  0  0  0
 17 28  1  0  0  0  0
M  END
$$$$

  -OEChem-05262214473D

 52 52  0     1  0  0  0  0  0999 V2000
   -1.8248    0.3424    3.9102 C   0  0  0  0  0  0  0  0  0  0  0  0
   -0.8774   -0.2723    3.4345 O   0  0  0  0  0  0  0  0  0  0  0  0
   -2.2566    0.0600    5.3109 C   0  0  0  0  0  0  0  0  0  0  0  0
   -3.0163   -0.7363    5.3643 H   0  0  0  0  0  0  0  0  0  0  0  0
   -1.4254   -0.2876    5.9452 H   0  0  0  0  0  0  0  0  0  0  0  0
   -2.6947    0.9149    5.8505 H   0  0  0  0  0  0  0  0  0  0  0  0
   -2.5745    1.3149    3.2691 N   0  0  0  0  0  0  0  0  0  0  0  0
   -2.3276    1.7409    1.9167 C   0  0  2  0  0  0  0  0  0  0  0  0
   -0.9926    1.1555    1.4755 C   0  0  0  0  0  0  0  0  0  0  0  0
   -0.1206    0.8028    2.2668 O   0  0  0  0  0  0  0  0  0  0  0  0
   -2.3188    3.2577    1.8072 C   0  0  0  0  0  0  0  0  0  0  0  0
   -3.3395    1.7507    3.7809 H   0  0  0  0  0  0  0  0  0  0  0  0
   -3.1317    1.3224    1.3015 H   0  0  0  0  0  0  0  0  0  0  0  0
   -1.5198    3.6949    2.4169 H   0  0  0  0  0  0  0  0  0  0  0  0
   -2.1594    3.5799    0.7729 H   0  0  0  0  0  0  0  0  0  0  0  0
   -3.2690    3.6789    2.1530 H   0  0  0  0  0  0  0  0  0  0  0  0
   -0.8700    1.1124    0.0921 N   0  0  0  0  0  0  0  0  0  0  0  0
    0.3073    0.6116   -0.5716 C   0  0  2  0  0  0  0  0  0  0  0  0
   -0.1283   -0.5680   -1.4336 C   0  0  0  0  0  0  0  0  0  0  0  0
   -1.2998   -0.7735   -1.7437 O   0  0  0  0  0  0  0  0  0  0  0  0
    1.3902    0.1746    0.4217 C   0  0  0  0  0  0  0  0  0  0  0  0
    1.9725    1.3315    1.1966 C   0  0  0  0  0  0  0  0  0  0  0  0
    2.9593    2.1314    0.6203 C   0  0  0  0  0  0  0  0  0  0  0  0
    1.5233    1.6008    2.4894 C   0  0  0  0  0  0  0  0  0  0  0  0
    3.4969    3.2006    1.3369 C   0  0  0  0  0  0  0  0  0  0  0  0
    2.0609    2.6699    3.2060 C   0  0  0  0  0  0  0  0  0  0  0  0
    3.0477    3.4699    2.6297 C   0  0  0  0  0  0  0  0  0  0  0  0
   -1.6531    1.4091   -0.4852 H   0  0  0  0  0  0  0  0  0  0  0  0
    0.6663    1.4181   -1.2218 H   0  0  0  0  0  0  0  0  0  0  0  0
    2.1936   -0.3606   -0.1025 H   0  0  0  0  0  0  0  0  0  0  0  0
    0.9826   -0.5495    1.1395 H   0  0  0  0  0  0  0  0  0  0  0  0
    3.3153    1.9292   -0.3864 H   0  0  0  0  0  0  0  0  0  0  0  0
    0.7547    0.9830    2.9463 H   0  0  0  0  0  0  0  0  0  0  0  0
    4.2660    3.8227    0.8885 H   0  0  0  0  0  0  0  0  0  0  0  0
    1.7117    2.8786    4.2128 H   0  0  0  0  0  0  0  0  0  0  0  0
    3.4674    4.3016    3.1880 H   0  0  0  0  0  0  0  0  0  0  0  0
    0.9521   -1.3312   -1.8539 N   0  0  0  0  0  0  0  0  0  0  0  0
    0.8200   -2.4945   -2.7014 C   0  0  2  0  0  0  0  0  0  0  0  0
   -0.2498   -3.3959   -2.0994 C   0  0  0  0  0  0  0  0  0  0  0  0
   -0.5715   -3.3556   -0.9137 O   0  0  0  0  0  0  0  0  0  0  0  0
    2.1419   -3.2344   -2.8354 C   0  0  0  0  0  0  0  0  0  0  0  0
    1.8824   -1.0586   -1.5507 H   0  0  0  0  0  0  0  0  0  0  0  0
    0.4870   -2.1356   -3.6814 H   0  0  0  0  0  0  0  0  0  0  0  0
    2.4915   -3.6014   -1.8636 H   0  0  0  0  0  0  0  0  0  0  0  0
    2.0469   -4.0990   -3.5006 H   0  0  0  0  0  0  0  0  0  0  0  0
    2.9177   -2.5759   -3.2407 H   0  0  0  0  0  0  0  0  0  0  0  0
   -0.7725   -4.2804   -3.0325 N   0  0  0  0  0  0  0  0  0  0  0  0
   -1.7934   -5.2476   -2.7034 C   0  0  0  0  0  0  0  0  0  0  0  0
   -0.4605   -4.2305   -3.9978 H   0  0  0  0  0  0  0  0  0  0  0  0
   -1.3200   -6.1990   -2.4193 H   0  0  0  0  0  0  0  0  0  0  0  0
   -2.3962   -4.8727   -1.8630 H   0  0  0  0  0  0  0  0  0  0  0  0
   -2.4421   -5.4075   -3.5773 H   0  0  0  0  0  0  0  0  0  0  0  0
 25 27  1  0  0  0  0
 26 27  2  0  0  0  0
 23 25  2  0  0  0  0
 24 26  1  0  0  0  0
 22 23  1  0  0  0  0
 22 24  2  0  0  0  0
 21 22  1  0  0  0  0
  1  3  1  0  0  0  0
  1  7  1  0  0  0  0
  1  2  2  0  0  0  0
 38 39  1  0  0  0  0
 39 47  1  0  0  0  0
 39 40  2  0  0  0  0
  8  9  1  0  0  0  0
  9 17  1  0  0  0  0
  9 10  2  0  0  0  0
 18 19  1  0  0  0  0
 19 37  1  0  0  0  0
 19 20  2  0  0  0  0
 38 41  1  0  0  0  0
  8 11  1  0  0  0  0
 47 48  1  0  0  0  0
 18 21  1  0  0  0  0
 37 38  1  0  0  0  0
  7  8  1  0  0  0  0
 17 18  1  0  0  0  0
 27 36  1  0  0  0  0
 25 34  1  0  0  0  0
 26 35  1  0  0  0  0
 23 32  1  0  0  0  0
 24 33  1  0  0  0  0
  3  4  1  0  0  0  0
  3  5  1  0  0  0  0
  3  6  1  0  0  0  0
 41 44  1  0  0  0  0
 41 45  1  0  0  0  0
 41 46  1  0  0  0  0
 11 14  1  0  0  0  0
 11 15  1  0  0  0  0
 11 16  1  0  0  0  0
 48 50  1  0  0  0  0
 48 51  1  0  0  0  0
 48 52  1  0  0  0  0
 21 30  1  0  0  0  0
 21 31  1  0  0  0  0
 38 43  1  0  0  0  0
  8 13  1  0  0  0  0
 18 29  1  0  0  0  0
 47 49  1  0  0  0  0
  7 12  1  0  0  0  0
 37 42  1  0  0  0  0
 17 28  1  0  0  0  0
M  END
$$$$

  -OEChem-05262214473D

 52 52  0     1  0  0  0  0  0999 V2000
   -1.8248    0.3424    3.9102 C   0  0  0  0  0  0  0  0  0  0  0  0
   -0.8774   -0.2723    3.4345 O   0  0  0  0  0  0  0  0  0  0  0  0
   -2.2566    0.0600    5.3109 C   0  0  0  0  0  0  0  0  0  0  0  0
   -3.0163   -0.7363    5.3643 H   0  0  0  0  0  0  0  0  0  0  0  0
   -1.4254   -0.2876    5.9452 H   0  0  0  0  0  0  0  0  0  0  0  0
   -2.6947    0.9149    5.8505 H   0  0  0  0  0  0  0  0  0  0  0  0
   -2.5745    1.3149    3.2691 N   0  0  0  0  0  0  0  0  0  0  0  0
   -2.3276    1.7409    1.9167 C   0  0  2  0  0  0  0  0  0  0  0  0
   -0.9926    1.1555    1.4755 C   0  0  0  0  0  0  0  0  0  0  0  0
   -0.1206    0.8028    2.2668 O   0  0  0  0  0  0  0  0  0  0  0  0
   -2.3188    3.2577    1.8072 C   0  0  0  0  0  0  0  0  0  0  0  0
   -3.3395    1.7507    3.7809 H   0  0  0  0  0  0  0  0  0  0  0  0
   -3.1317    1.3224    1.3015 H   0  0  0  0  0  0  0  0  0  0  0  0
   -1.5198    3.6949    2.4169 H   0  0  0  0  0  0  0  0  0  0  0  0
   -2.1594    3.5799    0.7729 H   0  0  0  0  0  0  0  0  0  0  0  0
   -3.2690    3.6789    2.1530 H   0  0  0  0  0  0  0  0  0  0  0  0
   -0.8700    1.1124    0.0921 N   0  0  0  0  0  0  0  0  0  0  0  0
    0.3073    0.6116   -0.5716 C   0  0  2  0  0  0  0  0  0  0  0  0
   -0.1283   -0.5680   -1.4336 C   0  0  0  0  0  0  0  0  0  0  0  0
   -1.2344   -0.6357   -1.9654 O   0  0  0  0  0  0  0  0  0  0  0  0
    1.3902    0.1746    0.4217 C   0  0  0  0  0  0  0  0  0  0  0  0
    1.9725    1.3315    1.1966 C   0  0  0  0  0  0  0  0  0  0  0  0
    2.9593    2.1314    0.6203 C   0  0  0  0  0  0  0  0  0  0  0  0
    1.5233    1.6008    2.4894 C   0  0  0  0  0  0  0  0  0  0  0  0
    3.4969    3.2006    1.3369 C   0  0  0  0  0  0  0  0  0  0  0  0
    2.0609    2.6699    3.2060 C   0  0  0  0  0  0  0  0  0  0  0  0
    3.0477    3.4699    2.6297 C   0  0  0  0  0  0  0  0  0  0  0  0
   -1.6531    1.4091   -0.4852 H   0  0  0  0  0  0  0  0  0  0  0  0
    0.6663    1.4181   -1.2218 H   0  0  0  0  0  0  0  0  0  0  0  0
    2.1936   -0.3606   -0.1025 H   0  0  0  0  0  0  0  0  0  0  0  0
    0.9826   -0.5495    1.1395 H   0  0  0  0  0  0  0  0  0  0  0  0
    3.3153    1.9292   -0.3864 H   0  0  0  0  0  0  0  0  0  0  0  0
    0.7547    0.9830    2.9463 H   0  0  0  0  0  0  0  0  0  0  0  0
    4.2660    3.8227    0.8885 H   0  0  0  0  0  0  0  0  0  0  0  0
    1.7117    2.8786    4.2128 H   0  0  0  0  0  0  0  0  0  0  0  0
    3.4674    4.3016    3.1880 H   0  0  0  0  0  0  0  0  0  0  0  0
    0.8827   -1.5081   -1.5768 N   0  0  0  0  0  0  0  0  0  0  0  0
    0.7408   -2.7124   -2.3632 C   0  0  2  0  0  0  0  0  0  0  0  0
   -0.5514   -3.3996   -1.9420 C   0  0  0  0  0  0  0  0  0  0  0  0
   -1.0878   -3.2097   -0.8524 O   0  0  0  0  0  0  0  0  0  0  0  0
    1.9336   -3.6376   -2.1784 C   0  0  0  0  0  0  0  0  0  0  0  0
    1.7668   -1.3413   -1.1053 H   0  0  0  0  0  0  0  0  0  0  0  0
    0.6643   -2.3993   -3.4101 H   0  0  0  0  0  0  0  0  0  0  0  0
    2.0265   -3.9618   -1.1355 H   0  0  0  0  0  0  0  0  0  0  0  0
    1.8381   -4.5363   -2.7966 H   0  0  0  0  0  0  0  0  0  0  0  0
    2.8654   -3.1319   -2.4535 H   0  0  0  0  0  0  0  0  0  0  0  0
   -1.0122   -4.2823   -2.9088 N   0  0  0  0  0  0  0  0  0  0  0  0
   -2.2141   -5.0653   -2.7403 C   0  0  0  0  0  0  0  0  0  0  0  0
   -0.5142   -4.3622   -3.7905 H   0  0  0  0  0  0  0  0  0  0  0  0
   -1.9572   -6.0441   -2.3092 H   0  0  0  0  0  0  0  0  0  0  0  0
   -2.9040   -4.5372   -2.0656 H   0  0  0  0  0  0  0  0  0  0  0  0
   -2.6969   -5.2106   -3.7179 H   0  0  0  0  0  0  0  0  0  0  0  0
 25 27  1  0  0  0  0
 26 27  2  0  0  0  0
 23 25  2  0  0  0  0
 24 26  1  0  0  0  0
 22 23  1  0  0  0  0
 22 24  2  0  0  0  0
 21 22  1  0  0  0  0
  1  3  1  0  0  0  0
  1  7  1  0  0  0  0
  1  2  2  0  0  0  0
 38 39  1  0  0  0  0
 39 47  1  0  0  0  0
 39 40  2  0  0  0  0
  8  9  1  0  0  0  0
  9 17  1  0  0  0  0
  9 10  2  0  0  0  0
 18 19  1  0  0  0  0
 19 37  1  0  0  0  0
 19 20  2  0  0  0  0
 38 41  1  0  0  0  0
  8 11  1  0  0  0  0
 47 48  1  0  0  0  0
 18 21  1  0  0  0  0
 37 38  1  0  0  0  0
  7  8  1  0  0  0  0
 17 18  1  0  0  0  0
 27 36  1  0  0  0  0
 25 34  1  0  0  0  0
 26 35  1  0  0  0  0
 23 32  1  0  0  0  0
 24 33  1  0  0  0  0
  3  4  1  0  0  0  0
  3  5  1  0  0  0  0
  3  6  1  0  0  0  0
 41 44  1  0  0  0  0
 41 45  1  0  0  0  0
 41 46  1  0  0  0  0
 11 14  1  0  0  0  0
 11 15  1  0  0  0  0
 11 16  1  0  0  0  0
 48 50  1  0  0  0  0
 48 51  1  0  0  0  0
 48 52  1  0  0  0  0
 21 30  1  0  0  0  0
 21 31  1  0  0  0  0
 38 43  1  0  0  0  0
  8 13  1  0  0  0  0
 18 29  1  0  0  0  0
 47 49  1  0  0  0  0
  7 12  1  0  0  0  0
 37 42  1  0  0  0  0
 17 28  1  0  0  0  0
M  END
$$$$

  -OEChem-05262214473D

 52 52  0     1  0  0  0  0  0999 V2000
   -1.8248    0.3424    3.9102 C   0  0  0  0  0  0  0  0  0  0  0  0
   -0.8774   -0.2723    3.4345 O   0  0  0  0  0  0  0  0  0  0  0  0
   -2.2566    0.0600    5.3109 C   0  0  0  0  0  0  0  0  0  0  0  0
   -3.0163   -0.7363    5.3643 H   0  0  0  0  0  0  0  0  0  0  0  0
   -1.4254   -0.2876    5.9452 H   0  0  0  0  0  0  0  0  0  0  0  0
   -2.6947    0.9149    5.8505 H   0  0  0  0  0  0  0  0  0  0  0  0
   -2.5745    1.3149    3.2691 N   0  0  0  0  0  0  0  0  0  0  0  0
   -2.3276    1.7409    1.9167 C   0  0  2  0  0  0  0  0  0  0  0  0
   -0.9926    1.1555    1.4755 C   0  0  0  0  0  0  0  0  0  0  0  0
   -0.1206    0.8028    2.2668 O   0  0  0  0  0  0  0  0  0  0  0  0
   -2.3188    3.2577    1.8072 C   0  0  0  0  0  0  0  0  0  0  0  0
   -3.3395    1.7507    3.7809 H   0  0  0  0  0  0  0  0  0  0  0  0
   -3.1317    1.3224    1.3015 H   0  0  0  0  0  0  0  0  0  0  0  0
   -1.5198    3.6949    2.4169 H   0  0  0  0  0  0  0  0  0  0  0  0
   -2.1594    3.5799    0.7729 H   0  0  0  0  0  0  0  0  0  0  0  0
   -3.2690    3.6789    2.1530 H   0  0  0  0  0  0  0  0  0  0  0  0
   -0.8700    1.1124    0.0921 N   0  0  0  0  0  0  0  0  0  0  0  0
    0.3073    0.6116   -0.5716 C   0  0  2  0  0  0  0  0  0  0  0  0
   -0.1283   -0.5680   -1.4336 C   0  0  0  0  0  0  0  0  0  0  0  0
   -1.1066   -0.5285   -2.1767 O   0  0  0  0  0  0  0  0  0  0  0  0
    1.3902    0.1746    0.4217 C   0  0  0  0  0  0  0  0  0  0  0  0
    1.9725    1.3315    1.1966 C   0  0  0  0  0  0  0  0  0  0  0  0
    2.9593    2.1314    0.6203 C   0  0  0  0  0  0  0  0  0  0  0  0
    1.5233    1.6008    2.4894 C   0  0  0  0  0  0  0  0  0  0  0  0
    3.4969    3.2006    1.3369 C   0  0  0  0  0  0  0  0  0  0  0  0
    2.0609    2.6699    3.2060 C   0  0  0  0  0  0  0  0  0  0  0  0
    3.0477    3.4699    2.6297 C   0  0  0  0  0  0  0  0  0  0  0  0
   -1.6531    1.4091   -0.4852 H   0  0  0  0  0  0  0  0  0  0  0  0
    0.6663    1.4181   -1.2218 H   0  0  0  0  0  0  0  0  0  0  0  0
    2.1936   -0.3606   -0.1025 H   0  0  0  0  0  0  0  0  0  0  0  0
    0.9826   -0.5495    1.1395 H   0  0  0  0  0  0  0  0  0  0  0  0
    3.3153    1.9292   -0.3864 H   0  0  0  0  0  0  0  0  0  0  0  0
    0.7547    0.9830    2.9463 H   0  0  0  0  0  0  0  0  0  0  0  0
    4.2660    3.8227    0.8885 H   0  0  0  0  0  0  0  0  0  0  0  0
    1.7117    2.8786    4.2128 H   0  0  0  0  0  0  0  0  0  0  0  0
    3.4674    4.3016    3.1880 H   0  0  0  0  0  0  0  0  0  0  0  0
    0.7343   -1.6483   -1.3100 N   0  0  0  0  0  0  0  0  0  0  0  0
    0.5647   -2.8863   -2.0362 C   0  0  2  0  0  0  0  0  0  0  0  0
   -0.8749   -3.3473   -1.8501 C   0  0  0  0  0  0  0  0  0  0  0  0
   -1.5775   -2.9888   -0.9073 O   0  0  0  0  0  0  0  0  0  0  0  0
    1.5418   -3.9480   -1.5557 C   0  0  0  0  0  0  0  0  0  0  0  0
    1.5245   -1.5646   -0.6773 H   0  0  0  0  0  0  0  0  0  0  0  0
    0.7426   -2.6599   -3.0931 H   0  0  0  0  0  0  0  0  0  0  0  0
    1.3788   -4.1880   -0.4986 H   0  0  0  0  0  0  0  0  0  0  0  0
    1.4314   -4.8761   -2.1261 H   0  0  0  0  0  0  0  0  0  0  0  0
    2.5758   -3.6030   -1.6625 H   0  0  0  0  0  0  0  0  0  0  0  0
   -1.2688   -4.2399   -2.8372 N   0  0  0  0  0  0  0  0  0  0  0  0
   -2.5863   -4.8303   -2.8737 C   0  0  0  0  0  0  0  0  0  0  0  0
   -0.6270   -4.4661   -3.5913 H   0  0  0  0  0  0  0  0  0  0  0  0
   -2.5721   -5.7931   -2.3419 H   0  0  0  0  0  0  0  0  0  0  0  0
   -3.3048   -4.1538   -2.3877 H   0  0  0  0  0  0  0  0  0  0  0  0
   -2.8860   -4.9936   -3.9194 H   0  0  0  0  0  0  0  0  0  0  0  0
 25 27  1  0  0  0  0
 26 27  2  0  0  0  0
 23 25  2  0  0  0  0
 24 26  1  0  0  0  0
 22 23  1  0  0  0  0
 22 24  2  0  0  0  0
 21 22  1  0  0  0  0
  1  3  1  0  0  0  0
  1  7  1  0  0  0  0
  1  2  2  0  0  0  0
 38 39  1  0  0  0  0
 39 47  1  0  0  0  0
 39 40  2  0  0  0  0
  8  9  1  0  0  0  0
  9 17  1  0  0  0  0
  9 10  2  0  0  0  0
 18 19  1  0  0  0  0
 19 37  1  0  0  0  0
 19 20  2  0  0  0  0
 38 41  1  0  0  0  0
  8 11  1  0  0  0  0
 47 48  1  0  0  0  0
 18 21  1  0  0  0  0
 37 38  1  0  0  0  0
  7  8  1  0  0  0  0
 17 18  1  0  0  0  0
 27 36  1  0  0  0  0
 25 34  1  0  0  0  0
 26 35  1  0  0  0  0
 23 32  1  0  0  0  0
 24 33  1  0  0  0  0
  3  4  1  0  0  0  0
  3  5  1  0  0  0  0
  3  6  1  0  0  0  0
 41 44  1  0  0  0  0
 41 45  1  0  0  0  0
 41 46  1  0  0  0  0
 11 14  1  0  0  0  0
 11 15  1  0  0  0  0
 11 16  1  0  0  0  0
 48 50  1  0  0  0  0
 48 51  1  0  0  0  0
 48 52  1  0  0  0  0
 21 30  1  0  0  0  0
 21 31  1  0  0  0  0
 38 43  1  0  0  0  0
  8 13  1  0  0  0  0
 18 29  1  0  0  0  0
 47 49  1  0  0  0  0
  7 12  1  0  0  0  0
 37 42  1  0  0  0  0
 17 28  1  0  0  0  0
M  END
$$$$

  -OEChem-05262214473D

 52 52  0     1  0  0  0  0  0999 V2000
   -1.8248    0.3424    3.9102 C   0  0  0  0  0  0  0  0  0  0  0  0
   -0.8774   -0.2723    3.4345 O   0  0  0  0  0  0  0  0  0  0  0  0
   -2.2566    0.0600    5.3109 C   0  0  0  0  0  0  0  0  0  0  0  0
   -3.0163   -0.7363    5.3643 H   0  0  0  0  0  0  0  0  0  0  0  0
   -1.4254   -0.2876    5.9452 H   0  0  0  0  0  0  0  0  0  0  0  0
   -2.6947    0.9149    5.8505 H   0  0  0  0  0  0  0  0  0  0  0  0
   -2.5745    1.3149    3.2691 N   0  0  0  0  0  0  0  0  0  0  0  0
   -2.3276    1.7409    1.9167 C   0  0  2  0  0  0  0  0  0  0  0  0
   -0.9926    1.1555    1.4755 C   0  0  0  0  0  0  0  0  0  0  0  0
   -0.1206    0.8028    2.2668 O   0  0  0  0  0  0  0  0  0  0  0  0
   -2.3188    3.2577    1.8072 C   0  0  0  0  0  0  0  0  0  0  0  0
   -3.3395    1.7507    3.7809 H   0  0  0  0  0  0  0  0  0  0  0  0
   -3.1317    1.3224    1.3015 H   0  0  0  0  0  0  0  0  0  0  0  0
   -1.5198    3.6949    2.4169 H   0  0  0  0  0  0  0  0  0  0  0  0
   -2.1594    3.5799    0.7729 H   0  0  0  0  0  0  0  0  0  0  0  0
   -3.2690    3.6789    2.1530 H   0  0  0  0  0  0  0  0  0  0  0  0
   -0.8700    1.1124    0.0921 N   0  0  0  0  0  0  0  0  0  0  0  0
    0.3073    0.6116   -0.5716 C   0  0  2  0  0  0  0  0  0  0  0  0
   -0.1283   -0.5680   -1.4336 C   0  0  0  0  0  0  0  0  0  0  0  0
   -0.9252   -0.4592   -2.3631 O   0  0  0  0  0  0  0  0  0  0  0  0
    1.3902    0.1746    0.4217 C   0  0  0  0  0  0  0  0  0  0  0  0
    1.9725    1.3315    1.1966 C   0  0  0  0  0  0  0  0  0  0  0  0
    2.9593    2.1314    0.6203 C   0  0  0  0  0  0  0  0  0  0  0  0
    1.5233    1.6008    2.4894 C   0  0  0  0  0  0  0  0  0  0  0  0
    3.4969    3.2006    1.3369 C   0  0  0  0  0  0  0  0  0  0  0  0
    2.0609    2.6699    3.2060 C   0  0  0  0  0  0  0  0  0  0  0  0
    3.0477    3.4699    2.6297 C   0  0  0  0  0  0  0  0  0  0  0  0
   -1.6531    1.4091   -0.4852 H   0  0  0  0  0  0  0  0  0  0  0  0
    0.6663    1.4181   -1.2218 H   0  0  0  0  0  0  0  0  0  0  0  0
    2.1936   -0.3606   -0.1025 H   0  0  0  0  0  0  0  0  0  0  0  0
    0.9826   -0.5495    1.1395 H   0  0  0  0  0  0  0  0  0  0  0  0
    3.3153    1.9292   -0.3864 H   0  0  0  0  0  0  0  0  0  0  0  0
    0.7547    0.9830    2.9463 H   0  0  0  0  0  0  0  0  0  0  0  0
    4.2660    3.8227    0.8885 H   0  0  0  0  0  0  0  0  0  0  0  0
    1.7117    2.8786    4.2128 H   0  0  0  0  0  0  0  0  0  0  0  0
    3.4674    4.3016    3.1880 H   0  0  0  0  0  0  0  0  0  0  0  0
    0.5170   -1.7423   -1.0716 N   0  0  0  0  0  0  0  0  0  0  0  0
    0.3036   -3.0044   -1.7427 C   0  0  2  0  0  0  0  0  0  0  0  0
   -1.1981   -3.2426   -1.8300 C   0  0  0  0  0  0  0  0  0  0  0  0
   -2.0071   -2.7078   -1.0748 O   0  0  0  0  0  0  0  0  0  0  0  0
    0.9932   -4.1444   -1.0096 C   0  0  0  0  0  0  0  0  0  0  0  0
    1.1722   -1.7132   -0.2959 H   0  0  0  0  0  0  0  0  0  0  0  0
    0.7167   -2.8997   -2.7519 H   0  0  0  0  0  0  0  0  0  0  0  0
    0.5926   -4.2646    0.0035 H   0  0  0  0  0  0  0  0  0  0  0  0
    0.8545   -5.0952   -1.5348 H   0  0  0  0  0  0  0  0  0  0  0  0
    2.0688   -3.9572   -0.9216 H   0  0  0  0  0  0  0  0  0  0  0  0
   -1.5247   -4.1561   -2.8225 N   0  0  0  0  0  0  0  0  0  0  0  0
   -2.8848   -4.5588   -3.0944 C   0  0  0  0  0  0  0  0  0  0  0  0
   -0.7910   -4.5353   -3.4137 H   0  0  0  0  0  0  0  0  0  0  0  0
   -3.1227   -5.4632   -2.5152 H   0  0  0  0  0  0  0  0  0  0  0  0
   -3.5713   -3.7486   -2.8075 H   0  0  0  0  0  0  0  0  0  0  0  0
   -2.9966   -4.7711   -4.1679 H   0  0  0  0  0  0  0  0  0  0  0  0
 25 27  1  0  0  0  0
 26 27  2  0  0  0  0
 23 25  2  0  0  0  0
 24 26  1  0  0  0  0
 22 23  1  0  0  0  0
 22 24  2  0  0  0  0
 21 22  1  0  0  0  0
  1  3  1  0  0  0  0
  1  7  1  0  0  0  0
  1  2  2  0  0  0  0
 38 39  1  0  0  0  0
 39 47  1  0  0  0  0
 39 40  2  0  0  0  0
  8  9  1  0  0  0  0
  9 17  1  0  0  0  0
  9 10  2  0  0  0  0
 18 19  1  0  0  0  0
 19 37  1  0  0  0  0
 19 20  2  0  0  0  0
 38 41  1  0  0  0  0
  8 11  1  0  0  0  0
 47 48  1  0  0  0  0
 18 21  1  0  0  0  0
 37 38  1  0  0  0  0
  7  8  1  0  0  0  0
 17 18  1  0  0  0  0
 27 36  1  0  0  0  0
 25 34  1  0  0  0  0
 26 35  1  0  0  0  0
 23 32  1  0  0  0  0
 24 33  1  0  0  0  0
  3  4  1  0  0  0  0
  3  5  1  0  0  0  0
  3  6  1  0  0  0  0
 41 44  1  0  0  0  0
 41 45  1  0  0  0  0
 41 46  1  0  0  0  0
 11 14  1  0  0  0  0
 11 15  1  0  0  0  0
 11 16  1  0  0  0  0
 48 50  1  0  0  0  0
 48 51  1  0  0  0  0
 48 52  1  0  0  0  0
 21 30  1  0  0  0  0
 21 31  1  0  0  0  0
 38 43  1  0  0  0  0
  8 13  1  0  0  0  0
 18 29  1  0  0  0  0
 47 49  1  0  0  0  0
  7 12  1  0  0  0  0
 37 42  1  0  0  0  0
 17 28  1  0  0  0  0
M  END
$$$$

  -OEChem-05262214473D

 52 52  0     1  0  0  0  0  0999 V2000
   -1.8248    0.3424    3.9102 C   0  0  0  0  0  0  0  0  0  0  0  0
   -0.8774   -0.2723    3.4345 O   0  0  0  0  0  0  0  0  0  0  0  0
   -2.2566    0.0600    5.3109 C   0  0  0  0  0  0  0  0  0  0  0  0
   -3.0163   -0.7363    5.3643 H   0  0  0  0  0  0  0  0  0  0  0  0
   -1.4254   -0.2876    5.9452 H   0  0  0  0  0  0  0  0  0  0  0  0
   -2.6947    0.9149    5.8505 H   0  0  0  0  0  0  0  0  0  0  0  0
   -2.5745    1.3149    3.2691 N   0  0  0  0  0  0  0  0  0  0  0  0
   -2.3276    1.7409    1.9167 C   0  0  2  0  0  0  0  0  0  0  0  0
   -0.9926    1.1555    1.4755 C   0  0  0  0  0  0  0  0  0  0  0  0
   -0.1206    0.8028    2.2668 O   0  0  0  0  0  0  0  0  0  0  0  0
   -2.3188    3.2577    1.8072 C   0  0  0  0  0  0  0  0  0  0  0  0
   -3.3395    1.7507    3.7809 H   0  0  0  0  0  0  0  0  0  0  0  0
   -3.1317    1.3224    1.3015 H   0  0  0  0  0  0  0  0  0  0  0  0
   -1.5198    3.6949    2.4169 H   0  0  0  0  0  0  0  0  0  0  0  0
   -2.1594    3.5799    0.7729 H   0  0  0  0  0  0  0  0  0  0  0  0
   -3.2690    3.6789    2.1530 H   0  0  0  0  0  0  0  0  0  0  0  0
   -0.8700    1.1124    0.0921 N   0  0  0  0  0  0  0  0  0  0  0  0
    0.3073    0.6116   -0.5716 C   0  0  2  0  0  0  0  0  0  0  0  0
   -0.1283   -0.5680   -1.4336 C   0  0  0  0  0  0  0  0  0  0  0  0
   -0.7025   -0.4327   -2.5119 O   0  0  0  0  0  0  0  0  0  0  0  0
    1.3902    0.1746    0.4217 C   0  0  0  0  0  0  0  0  0  0  0  0
    1.9725    1.3315    1.1966 C   0  0  0  0  0  0  0  0  0  0  0  0
    2.9593    2.1314    0.6203 C   0  0  0  0  0  0  0  0  0  0  0  0
    1.5233    1.6008    2.4894 C   0  0  0  0  0  0  0  0  0  0  0  0
    3.4969    3.2006    1.3369 C   0  0  0  0  0  0  0  0  0  0  0  0
    2.0609    2.6699    3.2060 C   0  0  0  0  0  0  0  0  0  0  0  0
    3.0477    3.4699    2.6297 C   0  0  0  0  0  0  0  0  0  0  0  0
   -1.6531    1.4091   -0.4852 H   0  0  0  0  0  0  0  0  0  0  0  0
    0.6663    1.4181   -1.2218 H   0  0  0  0  0  0  0  0  0  0  0  0
    2.1936   -0.3606   -0.1025 H   0  0  0  0  0  0  0  0  0  0  0  0
    0.9826   -0.5495    1.1395 H   0  0  0  0  0  0  0  0  0  0  0  0
    3.3153    1.9292   -0.3864 H   0  0  0  0  0  0  0  0  0  0  0  0
    0.7547    0.9830    2.9463 H   0  0  0  0  0  0  0  0  0  0  0  0
    4.2660    3.8227    0.8885 H   0  0  0  0  0  0  0  0  0  0  0  0
    1.7117    2.8786    4.2128 H   0  0  0  0  0  0  0  0  0  0  0  0
    3.4674    4.3016    3.1880 H   0  0  0  0  0  0  0  0  0  0  0  0
    0.2456   -1.7836   -0.8779 N   0  0  0  0  0  0  0  0  0  0  0  0
   -0.0246   -3.0585   -1.5029 C   0  0  2  0  0  0  0  0  0  0  0  0
   -1.4989   -3.0928   -1.8830 C   0  0  0  0  0  0  0  0  0  0  0  0
   -2.3475   -2.3858   -1.3433 O   0  0  0  0  0  0  0  0  0  0  0  0
    0.3252   -4.2135   -0.5775 C   0  0  0  0  0  0  0  0  0  0  0  0
    0.7337   -1.7770    0.0129 H   0  0  0  0  0  0  0  0  0  0  0  0
    0.5882   -3.1022   -2.4099 H   0  0  0  0  0  0  0  0  0  0  0  0
   -0.2787   -4.1864    0.3368 H   0  0  0  0  0  0  0  0  0  0  0  0
    0.1468   -5.1787   -1.0629 H   0  0  0  0  0  0  0  0  0  0  0  0
    1.3789   -4.1703   -0.2813 H   0  0  0  0  0  0  0  0  0  0  0  0
   -1.7626   -4.0366   -2.8658 N   0  0  0  0  0  0  0  0  0  0  0  0
   -3.0892   -4.2692   -3.3875 C   0  0  0  0  0  0  0  0  0  0  0  0
   -0.9951   -4.5650   -3.2699 H   0  0  0  0  0  0  0  0  0  0  0  0
   -3.5716   -5.0767   -2.8173 H   0  0  0  0  0  0  0  0  0  0  0  0
   -3.6854   -3.3493   -3.2963 H   0  0  0  0  0  0  0  0  0  0  0  0
   -3.0211   -4.5585   -4.4466 H   0  0  0  0  0  0  0  0  0  0  0  0
 25 27  1  0  0  0  0
 26 27  2  0  0  0  0
 23 25  2  0  0  0  0
 24 26  1  0  0  0  0
 22 23  1  0  0  0  0
 22 24  2  0  0  0  0
 21 22  1  0  0  0  0
  1  3  1  0  0  0  0
  1  7  1  0  0  0  0
  1  2  2  0  0  0  0
 38 39  1  0  0  0  0
 39 47  1  0  0  0  0
 39 40  2  0  0  0  0
  8  9  1  0  0  0  0
  9 17  1  0  0  0  0
  9 10  2  0  0  0  0
 18 19  1  0  0  0  0
 19 37  1  0  0  0  0
 19 20  2  0  0  0  0
 38 41  1  0  0  0  0
  8 11  1  0  0  0  0
 47 48  1  0  0  0  0
 18 21  1  0  0  0  0
 37 38  1  0  0  0  0
  7  8  1  0  0  0  0
 17 18  1  0  0  0  0
 27 36  1  0  0  0  0
 25 34  1  0  0  0  0
 26 35  1  0  0  0  0
 23 32  1  0  0  0  0
 24 33  1  0  0  0  0
  3  4  1  0  0  0  0
  3  5  1  0  0  0  0
  3  6  1  0  0  0  0
 41 44  1  0  0  0  0
 41 45  1  0  0  0  0
 41 46  1  0  0  0  0
 11 14  1  0  0  0  0
 11 15  1  0  0  0  0
 11 16  1  0  0  0  0
 48 50  1  0  0  0  0
 48 51  1  0  0  0  0
 48 52  1  0  0  0  0
 21 30  1  0  0  0  0
 21 31  1  0  0  0  0
 38 43  1  0  0  0  0
  8 13  1  0  0  0  0
 18 29  1  0  0  0  0
 47 49  1  0  0  0  0
  7 12  1  0  0  0  0
 37 42  1  0  0  0  0
 17 28  1  0  0  0  0
M  END
$$$$

  -OEChem-05262214473D

 52 52  0     1  0  0  0  0  0999 V2000
   -1.8248    0.3424    3.9102 C   0  0  0  0  0  0  0  0  0  0  0  0
   -0.8774   -0.2723    3.4345 O   0  0  0  0  0  0  0  0  0  0  0  0
   -2.2566    0.0600    5.3109 C   0  0  0  0  0  0  0  0  0  0  0  0
   -3.0163   -0.7363    5.3643 H   0  0  0  0  0  0  0  0  0  0  0  0
   -1.4254   -0.2876    5.9452 H   0  0  0  0  0  0  0  0  0  0  0  0
   -2.6947    0.9149    5.8505 H   0  0  0  0  0  0  0  0  0  0  0  0
   -2.5745    1.3149    3.2691 N   0  0  0  0  0  0  0  0  0  0  0  0
   -2.3276    1.7409    1.9167 C   0  0  2  0  0  0  0  0  0  0  0  0
   -0.9926    1.1555    1.4755 C   0  0  0  0  0  0  0  0  0  0  0  0
   -0.1206    0.8028    2.2668 O   0  0  0  0  0  0  0  0  0  0  0  0
   -2.3188    3.2577    1.8072 C   0  0  0  0  0  0  0  0  0  0  0  0
   -3.3395    1.7507    3.7809 H   0  0  0  0  0  0  0  0  0  0  0  0
   -3.1317    1.3224    1.3015 H   0  0  0  0  0  0  0  0  0  0  0  0
   -1.5198    3.6949    2.4169 H   0  0  0  0  0  0  0  0  0  0  0  0
   -2.1594    3.5799    0.7729 H   0  0  0  0  0  0  0  0  0  0  0  0
   -3.2690    3.6789    2.1530 H   0  0  0  0  0  0  0  0  0  0  0  0
   -0.8700    1.1124    0.0921 N   0  0  0  0  0  0  0  0  0  0  0  0
    0.3073    0.6116   -0.5716 C   0  0  2  0  0  0  0  0  0  0  0  0
   -0.1283   -0.5680   -1.4336 C   0  0  0  0  0  0  0  0  0  0  0  0
   -0.4537   -0.4506   -2.6131 O   0  0  0  0  0  0  0  0  0  0  0  0
    1.3902    0.1746    0.4217 C   0  0  0  0  0  0  0  0  0  0  0  0
    1.9725    1.3315    1.1966 C   0  0  0  0  0  0  0  0  0  0  0  0
    2.9593    2.1314    0.6203 C   0  0  0  0  0  0  0  0  0  0  0  0
    1.5233    1.6008    2.4894 C   0  0  0  0  0  0  0  0  0  0  0  0
    3.4969    3.2006    1.3369 C   0  0  0  0  0  0  0  0  0  0  0  0
    2.0609    2.6699    3.2060 C   0  0  0  0  0  0  0  0  0  0  0  0
    3.0477    3.4699    2.6297 C   0  0  0  0  0  0  0  0  0  0  0  0
   -1.6531    1.4091   -0.4852 H   0  0  0  0  0  0  0  0  0  0  0  0
    0.6663    1.4181   -1.2218 H   0  0  0  0  0  0  0  0  0  0  0  0
    2.1936   -0.3606   -0.1025 H   0  0  0  0  0  0  0  0  0  0  0  0
    0.9826   -0.5495    1.1395 H   0  0  0  0  0  0  0  0  0  0  0  0
    3.3153    1.9292   -0.3864 H   0  0  0  0  0  0  0  0  0  0  0  0
    0.7547    0.9830    2.9463 H   0  0  0  0  0  0  0  0  0  0  0  0
    4.2660    3.8227    0.8885 H   0  0  0  0  0  0  0  0  0  0  0  0
    1.7117    2.8786    4.2128 H   0  0  0  0  0  0  0  0  0  0  0  0
    3.4674    4.3016    3.1880 H   0  0  0  0  0  0  0  0  0  0  0  0
   -0.0614   -1.7695   -0.7420 N   0  0  0  0  0  0  0  0  0  0  0  0
   -0.3975   -3.0450   -1.3329 C   0  0  2  0  0  0  0  0  0  0  0  0
   -1.7570   -2.9079   -2.0056 C   0  0  0  0  0  0  0  0  0  0  0  0
   -2.5753   -2.0449   -1.6947 O   0  0  0  0  0  0  0  0  0  0  0  0
   -0.4167   -4.1506   -0.2888 C   0  0  0  0  0  0  0  0  0  0  0  0
    0.2390   -1.7516    0.2281 H   0  0  0  0  0  0  0  0  0  0  0  0
    0.3659   -3.2537   -2.0902 H   0  0  0  0  0  0  0  0  0  0  0  0
   -1.1756   -3.9588    0.4785 H   0  0  0  0  0  0  0  0  0  0  0  0
   -0.6434   -5.1209   -0.7427 H   0  0  0  0  0  0  0  0  0  0  0  0
    0.5530   -4.2279    0.2148 H   0  0  0  0  0  0  0  0  0  0  0  0
   -1.9663   -3.8895   -2.9641 N   0  0  0  0  0  0  0  0  0  0  0  0
   -3.1855   -3.9812   -3.7329 C   0  0  0  0  0  0  0  0  0  0  0  0
   -1.2253   -4.5532   -3.1697 H   0  0  0  0  0  0  0  0  0  0  0  0
   -3.8882   -4.6600   -3.2275 H   0  0  0  0  0  0  0  0  0  0  0  0
   -3.6393   -2.9830   -3.8208 H   0  0  0  0  0  0  0  0  0  0  0  0
   -2.9578   -4.3701   -4.7364 H   0  0  0  0  0  0  0  0  0  0  0  0
 25 27  1  0  0  0  0
 26 27  2  0  0  0  0
 23 25  2  0  0  0  0
 24 26  1  0  0  0  0
 22 23  1  0  0  0  0
 22 24  2  0  0  0  0
 21 22  1  0  0  0  0
  1  3  1  0  0  0  0
  1  7  1  0  0  0  0
  1  2  2  0  0  0  0
 38 39  1  0  0  0  0
 39 47  1  0  0  0  0
 39 40  2  0  0  0  0
  8  9  1  0  0  0  0
  9 17  1  0  0  0  0
  9 10  2  0  0  0  0
 18 19  1  0  0  0  0
 19 37  1  0  0  0  0
 19 20  2  0  0  0  0
 38 41  1  0  0  0  0
  8 11  1  0  0  0  0
 47 48  1  0  0  0  0
 18 21  1  0  0  0  0
 37 38  1  0  0  0  0
  7  8  1  0  0  0  0
 17 18  1  0  0  0  0
 27 36  1  0  0  0  0
 25 34  1  0  0  0  0
 26 35  1  0  0  0  0
 23 32  1  0  0  0  0
 24 33  1  0  0  0  0
  3  4  1  0  0  0  0
  3  5  1  0  0  0  0
  3  6  1  0  0  0  0
 41 44  1  0  0  0  0
 41 45  1  0  0  0  0
 41 46  1  0  0  0  0
 11 14  1  0  0  0  0
 11 15  1  0  0  0  0
 11 16  1  0  0  0  0
 48 50  1  0  0  0  0
 48 51  1  0  0  0  0
 48 52  1  0  0  0  0
 21 30  1  0  0  0  0
 21 31  1  0  0  0  0
 38 43  1  0  0  0  0
  8 13  1  0  0  0  0
 18 29  1  0  0  0  0
 47 49  1  0  0  0  0
  7 12  1  0  0  0  0
 37 42  1  0  0  0  0
 17 28  1  0  0  0  0
M  END
$$$$

  -OEChem-05262214473D

 52 52  0     1  0  0  0  0  0999 V2000
   -1.8248    0.3424    3.9102 C   0  0  0  0  0  0  0  0  0  0  0  0
   -0.8774   -0.2723    3.4345 O   0  0  0  0  0  0  0  0  0  0  0  0
   -2.2566    0.0600    5.3109 C   0  0  0  0  0  0  0  0  0  0  0  0
   -3.0163   -0.7363    5.3643 H   0  0  0  0  0  0  0  0  0  0  0  0
   -1.4254   -0.2876    5.9452 H   0  0  0  0  0  0  0  0  0  0  0  0
   -2.6947    0.9149    5.8505 H   0  0  0  0  0  0  0  0  0  0  0  0
   -2.5745    1.3149    3.2691 N   0  0  0  0  0  0  0  0  0  0  0  0
   -2.3276    1.7409    1.9167 C   0  0  2  0  0  0  0  0  0  0  0  0
   -0.9926    1.1555    1.4755 C   0  0  0  0  0  0  0  0  0  0  0  0
   -0.1206    0.8028    2.2668 O   0  0  0  0  0  0  0  0  0  0  0  0
   -2.3188    3.2577    1.8072 C   0  0  0  0  0  0  0  0  0  0  0  0
   -3.3395    1.7507    3.7809 H   0  0  0  0  0  0  0  0  0  0  0  0
   -3.1317    1.3224    1.3015 H   0  0  0  0  0  0  0  0  0  0  0  0
   -1.5198    3.6949    2.4169 H   0  0  0  0  0  0  0  0  0  0  0  0
   -2.1594    3.5799    0.7729 H   0  0  0  0  0  0  0  0  0  0  0  0
   -3.2690    3.6789    2.1530 H   0  0  0  0  0  0  0  0  0  0  0  0
   -0.8700    1.1124    0.0921 N   0  0  0  0  0  0  0  0  0  0  0  0
    0.3073    0.6116   -0.5716 C   0  0  2  0  0  0  0  0  0  0  0  0
   -0.1283   -0.5680   -1.4336 C   0  0  0  0  0  0  0  0  0  0  0  0
   -0.1957   -0.5119   -2.6596 O   0  0  0  0  0  0  0  0  0  0  0  0
    1.3902    0.1746    0.4217 C   0  0  0  0  0  0  0  0  0  0  0  0
    1.9725    1.3315    1.1966 C   0  0  0  0  0  0  0  0  0  0  0  0
    2.9593    2.1314    0.6203 C   0  0  0  0  0  0  0  0  0  0  0  0
    1.5233    1.6008    2.4894 C   0  0  0  0  0  0  0  0  0  0  0  0
    3.4969    3.2006    1.3369 C   0  0  0  0  0  0  0  0  0  0  0  0
    2.0609    2.6699    3.2060 C   0  0  0  0  0  0  0  0  0  0  0  0
    3.0477    3.4699    2.6297 C   0  0  0  0  0  0  0  0  0  0  0  0
   -1.6531    1.4091   -0.4852 H   0  0  0  0  0  0  0  0  0  0  0  0
    0.6663    1.4181   -1.2218 H   0  0  0  0  0  0  0  0  0  0  0  0
    2.1936   -0.3606   -0.1025 H   0  0  0  0  0  0  0  0  0  0  0  0
    0.9826   -0.5495    1.1395 H   0  0  0  0  0  0  0  0  0  0  0  0
    3.3153    1.9292   -0.3864 H   0  0  0  0  0  0  0  0  0  0  0  0
    0.7547    0.9830    2.9463 H   0  0  0  0  0  0  0  0  0  0  0  0
    4.2660    3.8227    0.8885 H   0  0  0  0  0  0  0  0  0  0  0  0
    1.7117    2.8786    4.2128 H   0  0  0  0  0  0  0  0  0  0  0  0
    3.4674    4.3016    3.1880 H   0  0  0  0  0  0  0  0  0  0  0  0
   -0.3830   -1.7009   -0.6734 N   0  0  0  0  0  0  0  0  0  0  0  0
   -0.7899   -2.9648   -1.2444 C   0  0  2  0  0  0  0  0  0  0  0  0
   -1.9547   -2.7007   -2.1893 C   0  0  0  0  0  0  0  0  0  0  0  0
   -2.6751   -1.7082   -2.1050 O   0  0  0  0  0  0  0  0  0  0  0  0
   -1.1818   -3.9598   -0.1632 C   0  0  0  0  0  0  0  0  0  0  0  0
   -0.2783   -1.6387    0.3351 H   0  0  0  0  0  0  0  0  0  0  0  0
    0.0651   -3.3440   -1.8147 H   0  0  0  0  0  0  0  0  0  0  0  0
   -2.0369   -3.5971    0.4188 H   0  0  0  0  0  0  0  0  0  0  0  0
   -1.4624   -4.9258   -0.5959 H   0  0  0  0  0  0  0  0  0  0  0  0
   -0.3525   -4.1259    0.5328 H   0  0  0  0  0  0  0  0  0  0  0  0
   -2.1218   -3.7250   -3.1107 N   0  0  0  0  0  0  0  0  0  0  0  0
   -3.1673   -3.7144   -4.1072 C   0  0  0  0  0  0  0  0  0  0  0  0
   -1.4661   -4.5007   -3.1199 H   0  0  0  0  0  0  0  0  0  0  0  0
   -4.0508   -4.2415   -3.7180 H   0  0  0  0  0  0  0  0  0  0  0  0
   -3.4361   -2.6747   -4.3454 H   0  0  0  0  0  0  0  0  0  0  0  0
   -2.8111   -4.2188   -5.0175 H   0  0  0  0  0  0  0  0  0  0  0  0
 25 27  1  0  0  0  0
 26 27  2  0  0  0  0
 23 25  2  0  0  0  0
 24 26  1  0  0  0  0
 22 23  1  0  0  0  0
 22 24  2  0  0  0  0
 21 22  1  0  0  0  0
  1  3  1  0  0  0  0
  1  7  1  0  0  0  0
  1  2  2  0  0  0  0
 38 39  1  0  0  0  0
 39 47  1  0  0  0  0
 39 40  2  0  0  0  0
  8  9  1  0  0  0  0
  9 17  1  0  0  0  0
  9 10  2  0  0  0  0
 18 19  1  0  0  0  0
 19 37  1  0  0  0  0
 19 20  2  0  0  0  0
 38 41  1  0  0  0  0
  8 11  1  0  0  0  0
 47 48  1  0  0  0  0
 18 21  1  0  0  0  0
 37 38  1  0  0  0  0
  7  8  1  0  0  0  0
 17 18  1  0  0  0  0
 27 36  1  0  0  0  0
 25 34  1  0  0  0  0
 26 35  1  0  0  0  0
 23 32  1  0  0  0  0
 24 33  1  0  0  0  0
  3  4  1  0  0  0  0
  3  5  1  0  0  0  0
  3  6  1  0  0  0  0
 41 44  1  0  0  0  0
 41 45  1  0  0  0  0
 41 46  1  0  0  0  0
 11 14  1  0  0  0  0
 11 15  1  0  0  0  0
 11 16  1  0  0  0  0
 48 50  1  0  0  0  0
 48 51  1  0  0  0  0
 48 52  1  0  0  0  0
 21 30  1  0  0  0  0
 21 31  1  0  0  0  0
 38 43  1  0  0  0  0
  8 13  1  0  0  0  0
 18 29  1  0  0  0  0
 47 49  1  0  0  0  0
  7 12  1  0  0  0  0
 37 42  1  0  0  0  0
 17 28  1  0  0  0  0
M  END
$$$$

  -OEChem-05262214473D

 52 52  0     1  0  0  0  0  0999 V2000
   -1.8248    0.3424    3.9102 C   0  0  0  0  0  0  0  0  0  0  0  0
   -0.8774   -0.2723    3.4345 O   0  0  0  0  0  0  0  0  0  0  0  0
   -2.2566    0.0600    5.3109 C   0  0  0  0  0  0  0  0  0  0  0  0
   -3.0163   -0.7363    5.3643 H   0  0  0  0  0  0  0  0  0  0  0  0
   -1.4254   -0.2876    5.9452 H   0  0  0  0  0  0  0  0  0  0  0  0
   -2.6947    0.9149    5.8505 H   0  0  0  0  0  0  0  0  0  0  0  0
   -2.5745    1.3149    3.2691 N   0  0  0  0  0  0  0  0  0  0  0  0
   -2.3276    1.7409    1.9167 C   0  0  2  0  0  0  0  0  0  0  0  0
   -0.9926    1.1555    1.4755 C   0  0  0  0  0  0  0  0  0  0  0  0
   -0.1206    0.8028    2.2668 O   0  0  0  0  0  0  0  0  0  0  0  0
   -2.3188    3.2577    1.8072 C   0  0  0  0  0  0  0  0  0  0  0  0
   -3.3395    1.7507    3.7809 H   0  0  0  0  0  0  0  0  0  0  0  0
   -3.1317    1.3224    1.3015 H   0  0  0  0  0  0  0  0  0  0  0  0
   -1.5198    3.6949    2.4169 H   0  0  0  0  0  0  0  0  0  0  0  0
   -2.1594    3.5799    0.7729 H   0  0  0  0  0  0  0  0  0  0  0  0
   -3.2690    3.6789    2.1530 H   0  0  0  0  0  0  0  0  0  0  0  0
   -0.8700    1.1124    0.0921 N   0  0  0  0  0  0  0  0  0  0  0  0
    0.3073    0.6116   -0.5716 C   0  0  2  0  0  0  0  0  0  0  0  0
   -0.1283   -0.5680   -1.4336 C   0  0  0  0  0  0  0  0  0  0  0  0
    0.0538   -0.6122   -2.6484 O   0  0  0  0  0  0  0  0  0  0  0  0
    1.3902    0.1746    0.4217 C   0  0  0  0  0  0  0  0  0  0  0  0
    1.9725    1.3315    1.1966 C   0  0  0  0  0  0  0  0  0  0  0  0
    2.9593    2.1314    0.6203 C   0  0  0  0  0  0  0  0  0  0  0  0
    1.5233    1.6008    2.4894 C   0  0  0  0  0  0  0  0  0  0  0  0
    3.4969    3.2006    1.3369 C   0  0  0  0  0  0  0  0  0  0  0  0
    2.0609    2.6699    3.2060 C   0  0  0  0  0  0  0  0  0  0  0  0
    3.0477    3.4699    2.6297 C   0  0  0  0  0  0  0  0  0  0  0  0
   -1.6531    1.4091   -0.4852 H   0  0  0  0  0  0  0  0  0  0  0  0
    0.6663    1.4181   -1.2218 H   0  0  0  0  0  0  0  0  0  0  0  0
    2.1936   -0.3606   -0.1025 H   0  0  0  0  0  0  0  0  0  0  0  0
    0.9826   -0.5495    1.1395 H   0  0  0  0  0  0  0  0  0  0  0  0
    3.3153    1.9292   -0.3864 H   0  0  0  0  0  0  0  0  0  0  0  0
    0.7547    0.9830    2.9463 H   0  0  0  0  0  0  0  0  0  0  0  0
    4.2660    3.8227    0.8885 H   0  0  0  0  0  0  0  0  0  0  0  0
    1.7117    2.8786    4.2128 H   0  0  0  0  0  0  0  0  0  0  0  0
    3.4674    4.3016    3.1880 H   0  0  0  0  0  0  0  0  0  0  0  0
   -0.6975   -1.5825   -0.6765 N   0  0  0  0  0  0  0  0  0  0  0  0
   -1.1748   -2.8233   -1.2434 C   0  0  2  0  0  0  0  0  0  0  0  0
   -2.0785   -2.4851   -2.4217 C   0  0  0  0  0  0  0  0  0  0  0  0
   -2.6401   -1.3988   -2.5462 O   0  0  0  0  0  0  0  0  0  0  0  0
   -1.9182   -3.6543   -0.2092 C   0  0  0  0  0  0  0  0  0  0  0  0
   -0.7828   -1.4461    0.3264 H   0  0  0  0  0  0  0  0  0  0  0  0
   -0.2939   -3.3667   -1.6022 H   0  0  0  0  0  0  0  0  0  0  0  0
   -2.8041   -3.1262    0.1620 H   0  0  0  0  0  0  0  0  0  0  0  0
   -2.2544   -4.6066   -0.6325 H   0  0  0  0  0  0  0  0  0  0  0  0
   -1.2759   -3.8714    0.6511 H   0  0  0  0  0  0  0  0  0  0  0  0
   -2.2186   -3.5541   -3.2957 N   0  0  0  0  0  0  0  0  0  0  0  0
   -3.0356   -3.4871   -4.4847 C   0  0  0  0  0  0  0  0  0  0  0  0
   -1.7010   -4.4111   -3.1239 H   0  0  0  0  0  0  0  0  0  0  0  0
   -4.0484   -3.8498   -4.2552 H   0  0  0  0  0  0  0  0  0  0  0  0
   -3.0897   -2.4455   -4.8341 H   0  0  0  0  0  0  0  0  0  0  0  0
   -2.5909   -4.1149   -5.2709 H   0  0  0  0  0  0  0  0  0  0  0  0
 25 27  1  0  0  0  0
 26 27  2  0  0  0  0
 23 25  2  0  0  0  0
 24 26  1  0  0  0  0
 22 23  1  0  0  0  0
 22 24  2  0  0  0  0
 21 22  1  0  0  0  0
  1  3  1  0  0  0  0
  1  7  1  0  0  0  0
  1  2  2  0  0  0  0
 38 39  1  0  0  0  0
 39 47  1  0  0  0  0
 39 40  2  0  0  0  0
  8  9  1  0  0  0  0
  9 17  1  0  0  0  0
  9 10  2  0  0  0  0
 18 19  1  0  0  0  0
 19 37  1  0  0  0  0
 19 20  2  0  0  0  0
 38 41  1  0  0  0  0
  8 11  1  0  0  0  0
 47 48  1  0  0  0  0
 18 21  1  0  0  0  0
 37 38  1  0  0  0  0
  7  8  1  0  0  0  0
 17 18  1  0  0  0  0
 27 36  1  0  0  0  0
 25 34  1  0  0  0  0
 26 35  1  0  0  0  0
 23 32  1  0  0  0  0
 24 33  1  0  0  0  0
  3  4  1  0  0  0  0
  3  5  1  0  0  0  0
  3  6  1  0  0  0  0
 41 44  1  0  0  0  0
 41 45  1  0  0  0  0
 41 46  1  0  0  0  0
 11 14  1  0  0  0  0
 11 15  1  0  0  0  0
 11 16  1  0  0  0  0
 48 50  1  0  0  0  0
 48 51  1  0  0  0  0
 48 52  1  0  0  0  0
 21 30  1  0  0  0  0
 21 31  1  0  0  0  0
 38 43  1  0  0  0  0
  8 13  1  0  0  0  0
 18 29  1  0  0  0  0
 47 49  1  0  0  0  0
  7 12  1  0  0  0  0
 37 42  1  0  0  0  0
 17 28  1  0  0  0  0
M  END
$$$$

  -OEChem-05262214473D

 52 52  0     1  0  0  0  0  0999 V2000
   -1.8248    0.3424    3.9102 C   0  0  0  0  0  0  0  0  0  0  0  0
   -0.8774   -0.2723    3.4345 O   0  0  0  0  0  0  0  0  0  0  0  0
   -2.2566    0.0600    5.3109 C   0  0  0  0  0  0  0  0  0  0  0  0
   -3.0163   -0.7363    5.3643 H   0  0  0  0  0  0  0  0  0  0  0  0
   -1.4254   -0.2876    5.9452 H   0  0  0  0  0  0  0  0  0  0  0  0
   -2.6947    0.9149    5.8505 H   0  0  0  0  0  0  0  0  0  0  0  0
   -2.5745    1.3149    3.2691 N   0  0  0  0  0  0  0  0  0  0  0  0
   -2.3276    1.7409    1.9167 C   0  0  2  0  0  0  0  0  0  0  0  0
   -0.9926    1.1555    1.4755 C   0  0  0  0  0  0  0  0  0  0  0  0
   -0.1206    0.8028    2.2668 O   0  0  0  0  0  0  0  0  0  0  0  0
   -2.3188    3.2577    1.8072 C   0  0  0  0  0  0  0  0  0  0  0  0
   -3.3395    1.7507    3.7809 H   0  0  0  0  0  0  0  0  0  0  0  0
   -3.1317    1.3224    1.3015 H   0  0  0  0  0  0  0  0  0  0  0  0
   -1.5198    3.6949    2.4169 H   0  0  0  0  0  0  0  0  0  0  0  0
   -2.1594    3.5799    0.7729 H   0  0  0  0  0  0  0  0  0  0  0  0
   -3.2690    3.6789    2.1530 H   0  0  0  0  0  0  0  0  0  0  0  0
   -0.8700    1.1124    0.0921 N   0  0  0  0  0  0  0  0  0  0  0  0
    0.3073    0.6116   -0.5716 C   0  0  2  0  0  0  0  0  0  0  0  0
   -0.1283   -0.5680   -1.4336 C   0  0  0  0  0  0  0  0  0  0  0  0
    0.2779   -0.7448   -2.5802 O   0  0  0  0  0  0  0  0  0  0  0  0
    1.3902    0.1746    0.4217 C   0  0  0  0  0  0  0  0  0  0  0  0
    1.9725    1.3315    1.1966 C   0  0  0  0  0  0  0  0  0  0  0  0
    2.9593    2.1314    0.6203 C   0  0  0  0  0  0  0  0  0  0  0  0
    1.5233    1.6008    2.4894 C   0  0  0  0  0  0  0  0  0  0  0  0
    3.4969    3.2006    1.3369 C   0  0  0  0  0  0  0  0  0  0  0  0
    2.0609    2.6699    3.2060 C   0  0  0  0  0  0  0  0  0  0  0  0
    3.0477    3.4699    2.6297 C   0  0  0  0  0  0  0  0  0  0  0  0
   -1.6531    1.4091   -0.4852 H   0  0  0  0  0  0  0  0  0  0  0  0
    0.6663    1.4181   -1.2218 H   0  0  0  0  0  0  0  0  0  0  0  0
    2.1936   -0.3606   -0.1025 H   0  0  0  0  0  0  0  0  0  0  0  0
    0.9826   -0.5495    1.1395 H   0  0  0  0  0  0  0  0  0  0  0  0
    3.3153    1.9292   -0.3864 H   0  0  0  0  0  0  0  0  0  0  0  0
    0.7547    0.9830    2.9463 H   0  0  0  0  0  0  0  0  0  0  0  0
    4.2660    3.8227    0.8885 H   0  0  0  0  0  0  0  0  0  0  0  0
    1.7117    2.8786    4.2128 H   0  0  0  0  0  0  0  0  0  0  0  0
    3.4674    4.3016    3.1880 H   0  0  0  0  0  0  0  0  0  0  0  0
   -0.9832   -1.4224   -0.7513 N   0  0  0  0  0  0  0  0  0  0  0  0
   -1.5262   -2.6303   -1.3300 C   0  0  2  0  0  0  0  0  0  0  0  0
   -2.1201   -2.2760   -2.6869 C   0  0  0  0  0  0  0  0  0  0  0  0
   -2.4727   -1.1376   -2.9882 O   0  0  0  0  0  0  0  0  0  0  0  0
   -2.5756   -3.2549   -0.4236 C   0  0  0  0  0  0  0  0  0  0  0  0
   -1.2402   -1.1868    0.2028 H   0  0  0  0  0  0  0  0  0  0  0  0
   -0.6865   -3.3204   -1.4671 H   0  0  0  0  0  0  0  0  0  0  0  0
   -3.4247   -2.5780   -0.2745 H   0  0  0  0  0  0  0  0  0  0  0  0
   -2.9653   -4.1850   -0.8501 H   0  0  0  0  0  0  0  0  0  0  0  0
   -2.1543   -3.4817    0.5617 H   0  0  0  0  0  0  0  0  0  0  0  0
   -2.2500   -3.3886   -3.5063 N   0  0  0  0  0  0  0  0  0  0  0  0
   -2.7996   -3.3147   -4.8399 C   0  0  0  0  0  0  0  0  0  0  0  0
   -1.9139   -4.2904   -3.1814 H   0  0  0  0  0  0  0  0  0  0  0  0
   -3.8812   -3.5115   -4.8027 H   0  0  0  0  0  0  0  0  0  0  0  0
   -2.6237   -2.3109   -5.2538 H   0  0  0  0  0  0  0  0  0  0  0  0
   -2.3123   -4.0655   -5.4793 H   0  0  0  0  0  0  0  0  0  0  0  0
 25 27  1  0  0  0  0
 26 27  2  0  0  0  0
 23 25  2  0  0  0  0
 24 26  1  0  0  0  0
 22 23  1  0  0  0  0
 22 24  2  0  0  0  0
 21 22  1  0  0  0  0
  1  3  1  0  0  0  0
  1  7  1  0  0  0  0
  1  2  2  0  0  0  0
 38 39  1  0  0  0  0
 39 47  1  0  0  0  0
 39 40  2  0  0  0  0
  8  9  1  0  0  0  0
  9 17  1  0  0  0  0
  9 10  2  0  0  0  0
 18 19  1  0  0  0  0
 19 37  1  0  0  0  0
 19 20  2  0  0  0  0
 38 41  1  0  0  0  0
  8 11  1  0  0  0  0
 47 48  1  0  0  0  0
 18 21  1  0  0  0  0
 37 38  1  0  0  0  0
  7  8  1  0  0  0  0
 17 18  1  0  0  0  0
 27 36  1  0  0  0  0
 25 34  1  0  0  0  0
 26 35  1  0  0  0  0
 23 32  1  0  0  0  0
 24 33  1  0  0  0  0
  3  4  1  0  0  0  0
  3  5  1  0  0  0  0
  3  6  1  0  0  0  0
 41 44  1  0  0  0  0
 41 45  1  0  0  0  0
 41 46  1  0  0  0  0
 11 14  1  0  0  0  0
 11 15  1  0  0  0  0
 11 16  1  0  0  0  0
 48 50  1  0  0  0  0
 48 51  1  0  0  0  0
 48 52  1  0  0  0  0
 21 30  1  0  0  0  0
 21 31  1  0  0  0  0
 38 43  1  0  0  0  0
  8 13  1  0  0  0  0
 18 29  1  0  0  0  0
 47 49  1  0  0  0  0
  7 12  1  0  0  0  0
 37 42  1  0  0  0  0
 17 28  1  0  0  0  0
M  END
$$$$

  -OEChem-05262214473D

 52 52  0     1  0  0  0  0  0999 V2000
   -1.8248    0.3424    3.9102 C   0  0  0  0  0  0  0  0  0  0  0  0
   -0.8774   -0.2723    3.4345 O   0  0  0  0  0  0  0  0  0  0  0  0
   -2.2566    0.0600    5.3109 C   0  0  0  0  0  0  0  0  0  0  0  0
   -3.0163   -0.7363    5.3643 H   0  0  0  0  0  0  0  0  0  0  0  0
   -1.4254   -0.2876    5.9452 H   0  0  0  0  0  0  0  0  0  0  0  0
   -2.6947    0.9149    5.8505 H   0  0  0  0  0  0  0  0  0  0  0  0
   -2.5745    1.3149    3.2691 N   0  0  0  0  0  0  0  0  0  0  0  0
   -2.3276    1.7409    1.9167 C   0  0  2  0  0  0  0  0  0  0  0  0
   -0.9926    1.1555    1.4755 C   0  0  0  0  0  0  0  0  0  0  0  0
   -0.1206    0.8028    2.2668 O   0  0  0  0  0  0  0  0  0  0  0  0
   -2.3188    3.2577    1.8072 C   0  0  0  0  0  0  0  0  0  0  0  0
   -3.3395    1.7507    3.7809 H   0  0  0  0  0  0  0  0  0  0  0  0
   -3.1317    1.3224    1.3015 H   0  0  0  0  0  0  0  0  0  0  0  0
   -1.5198    3.6949    2.4169 H   0  0  0  0  0  0  0  0  0  0  0  0
   -2.1594    3.5799    0.7729 H   0  0  0  0  0  0  0  0  0  0  0  0
   -3.2690    3.6789    2.1530 H   0  0  0  0  0  0  0  0  0  0  0  0
   -0.8700    1.1124    0.0921 N   0  0  0  0  0  0  0  0  0  0  0  0
    0.3073    0.6116   -0.5716 C   0  0  2  0  0  0  0  0  0  0  0  0
   -0.1283   -0.5680   -1.4336 C   0  0  0  0  0  0  0  0  0  0  0  0
    0.4612   -0.9007   -2.4596 O   0  0  0  0  0  0  0  0  0  0  0  0
    1.3902    0.1746    0.4217 C   0  0  0  0  0  0  0  0  0  0  0  0
    1.9725    1.3315    1.1966 C   0  0  0  0  0  0  0  0  0  0  0  0
    2.9593    2.1314    0.6203 C   0  0  0  0  0  0  0  0  0  0  0  0
    1.5233    1.6008    2.4894 C   0  0  0  0  0  0  0  0  0  0  0  0
    3.4969    3.2006    1.3369 C   0  0  0  0  0  0  0  0  0  0  0  0
    2.0609    2.6699    3.2060 C   0  0  0  0  0  0  0  0  0  0  0  0
    3.0477    3.4699    2.6297 C   0  0  0  0  0  0  0  0  0  0  0  0
   -1.6531    1.4091   -0.4852 H   0  0  0  0  0  0  0  0  0  0  0  0
    0.6663    1.4181   -1.2218 H   0  0  0  0  0  0  0  0  0  0  0  0
    2.1936   -0.3606   -0.1025 H   0  0  0  0  0  0  0  0  0  0  0  0
    0.9826   -0.5495    1.1395 H   0  0  0  0  0  0  0  0  0  0  0  0
    3.3153    1.9292   -0.3864 H   0  0  0  0  0  0  0  0  0  0  0  0
    0.7547    0.9830    2.9463 H   0  0  0  0  0  0  0  0  0  0  0  0
    4.2660    3.8227    0.8885 H   0  0  0  0  0  0  0  0  0  0  0  0
    1.7117    2.8786    4.2128 H   0  0  0  0  0  0  0  0  0  0  0  0
    3.4674    4.3016    3.1880 H   0  0  0  0  0  0  0  0  0  0  0  0
   -1.2208   -1.2314   -0.8926 N   0  0  0  0  0  0  0  0  0  0  0  0
   -1.8199   -2.3989   -1.4982 C   0  0  2  0  0  0  0  0  0  0  0  0
   -2.0765   -2.0875   -2.9668 C   0  0  0  0  0  0  0  0  0  0  0  0
   -2.1842   -0.9425   -3.4009 O   0  0  0  0  0  0  0  0  0  0  0  0
   -3.1091   -2.7887   -0.7920 C   0  0  0  0  0  0  0  0  0  0  0  0
   -1.6193   -0.8786   -0.0274 H   0  0  0  0  0  0  0  0  0  0  0  0
   -1.0861   -3.2083   -1.4187 H   0  0  0  0  0  0  0  0  0  0  0  0
   -3.8566   -1.9899   -0.8610 H   0  0  0  0  0  0  0  0  0  0  0  0
   -3.5467   -3.6899   -1.2339 H   0  0  0  0  0  0  0  0  0  0  0  0
   -2.9279   -2.9833    0.2706 H   0  0  0  0  0  0  0  0  0  0  0  0
   -2.2140   -3.2397   -3.7283 N   0  0  0  0  0  0  0  0  0  0  0  0
   -2.4753   -3.2090   -5.1484 C   0  0  0  0  0  0  0  0  0  0  0  0
   -2.0904   -4.1469   -3.2886 H   0  0  0  0  0  0  0  0  0  0  0  0
   -3.5606   -3.2496   -5.3230 H   0  0  0  0  0  0  0  0  0  0  0  0
   -2.0698   -2.2801   -5.5758 H   0  0  0  0  0  0  0  0  0  0  0  0
   -1.9942   -4.0740   -5.6284 H   0  0  0  0  0  0  0  0  0  0  0  0
 25 27  1  0  0  0  0
 26 27  2  0  0  0  0
 23 25  2  0  0  0  0
 24 26  1  0  0  0  0
 22 23  1  0  0  0  0
 22 24  2  0  0  0  0
 21 22  1  0  0  0  0
  1  3  1  0  0  0  0
  1  7  1  0  0  0  0
  1  2  2  0  0  0  0
 38 39  1  0  0  0  0
 39 47  1  0  0  0  0
 39 40  2  0  0  0  0
  8  9  1  0  0  0  0
  9 17  1  0  0  0  0
  9 10  2  0  0  0  0
 18 19  1  0  0  0  0
 19 37  1  0  0  0  0
 19 20  2  0  0  0  0
 38 41  1  0  0  0  0
  8 11  1  0  0  0  0
 47 48  1  0  0  0  0
 18 21  1  0  0  0  0
 37 38  1  0  0  0  0
  7  8  1  0  0  0  0
 17 18  1  0  0  0  0
 27 36  1  0  0  0  0
 25 34  1  0  0  0  0
 26 35  1  0  0  0  0
 23 32  1  0  0  0  0
 24 33  1  0  0  0  0
  3  4  1  0  0  0  0
  3  5  1  0  0  0  0
  3  6  1  0  0  0  0
 41 44  1  0  0  0  0
 41 45  1  0  0  0  0
 41 46  1  0  0  0  0
 11 14  1  0  0  0  0
 11 15  1  0  0  0  0
 11 16  1  0  0  0  0
 48 50  1  0  0  0  0
 48 51  1  0  0  0  0
 48 52  1  0  0  0  0
 21 30  1  0  0  0  0
 21 31  1  0  0  0  0
 38 43  1  0  0  0  0
  8 13  1  0  0  0  0
 18 29  1  0  0  0  0
 47 49  1  0  0  0  0
  7 12  1  0  0  0  0
 37 42  1  0  0  0  0
 17 28  1  0  0  0  0
M  END
$$$$

  -OEChem-05262214473D

 52 52  0     1  0  0  0  0  0999 V2000
   -1.8248    0.3424    3.9102 C   0  0  0  0  0  0  0  0  0  0  0  0
   -0.8774   -0.2723    3.4345 O   0  0  0  0  0  0  0  0  0  0  0  0
   -2.2566    0.0600    5.3109 C   0  0  0  0  0  0  0  0  0  0  0  0
   -3.0163   -0.7363    5.3643 H   0  0  0  0  0  0  0  0  0  0  0  0
   -1.4254   -0.2876    5.9452 H   0  0  0  0  0  0  0  0  0  0  0  0
   -2.6947    0.9149    5.8505 H   0  0  0  0  0  0  0  0  0  0  0  0
   -2.5745    1.3149    3.2691 N   0  0  0  0  0  0  0  0  0  0  0  0
   -2.3276    1.7409    1.9167 C   0  0  2  0  0  0  0  0  0  0  0  0
   -0.9926    1.1555    1.4755 C   0  0  0  0  0  0  0  0  0  0  0  0
   -0.1206    0.8028    2.2668 O   0  0  0  0  0  0  0  0  0  0  0  0
   -2.3188    3.2577    1.8072 C   0  0  0  0  0  0  0  0  0  0  0  0
   -3.3395    1.7507    3.7809 H   0  0  0  0  0  0  0  0  0  0  0  0
   -3.1317    1.3224    1.3015 H   0  0  0  0  0  0  0  0  0  0  0  0
   -1.5198    3.6949    2.4169 H   0  0  0  0  0  0  0  0  0  0  0  0
   -2.1594    3.5799    0.7729 H   0  0  0  0  0  0  0  0  0  0  0  0
   -3.2690    3.6789    2.1530 H   0  0  0  0  0  0  0  0  0  0  0  0
   -0.8700    1.1124    0.0921 N   0  0  0  0  0  0  0  0  0  0  0  0
    0.3073    0.6116   -0.5716 C   0  0  2  0  0  0  0  0  0  0  0  0
   -0.1283   -0.5680   -1.4336 C   0  0  0  0  0  0  0  0  0  0  0  0
    0.5914   -1.0691   -2.2949 O   0  0  0  0  0  0  0  0  0  0  0  0
    1.3902    0.1746    0.4217 C   0  0  0  0  0  0  0  0  0  0  0  0
    1.9725    1.3315    1.1966 C   0  0  0  0  0  0  0  0  0  0  0  0
    2.9593    2.1314    0.6203 C   0  0  0  0  0  0  0  0  0  0  0  0
    1.5233    1.6008    2.4894 C   0  0  0  0  0  0  0  0  0  0  0  0
    3.4969    3.2006    1.3369 C   0  0  0  0  0  0  0  0  0  0  0  0
    2.0609    2.6699    3.2060 C   0  0  0  0  0  0  0  0  0  0  0  0
    3.0477    3.4699    2.6297 C   0  0  0  0  0  0  0  0  0  0  0  0
   -1.6531    1.4091   -0.4852 H   0  0  0  0  0  0  0  0  0  0  0  0
    0.6663    1.4181   -1.2218 H   0  0  0  0  0  0  0  0  0  0  0  0
    2.1936   -0.3606   -0.1025 H   0  0  0  0  0  0  0  0  0  0  0  0
    0.9826   -0.5495    1.1395 H   0  0  0  0  0  0  0  0  0  0  0  0
    3.3153    1.9292   -0.3864 H   0  0  0  0  0  0  0  0  0  0  0  0
    0.7547    0.9830    2.9463 H   0  0  0  0  0  0  0  0  0  0  0  0
    4.2660    3.8227    0.8885 H   0  0  0  0  0  0  0  0  0  0  0  0
    1.7117    2.8786    4.2128 H   0  0  0  0  0  0  0  0  0  0  0  0
    3.4674    4.3016    3.1880 H   0  0  0  0  0  0  0  0  0  0  0  0
   -1.3941   -1.0226   -1.0907 N   0  0  0  0  0  0  0  0  0  0  0  0
   -2.0361   -2.1448   -1.7367 C   0  0  2  0  0  0  0  0  0  0  0  0
   -1.9507   -1.9325   -3.2424 C   0  0  0  0  0  0  0  0  0  0  0  0
   -1.7944   -0.8268   -3.7562 O   0  0  0  0  0  0  0  0  0  0  0  0
   -3.4825   -2.2875   -1.2891 C   0  0  0  0  0  0  0  0  0  0  0  0
   -1.8943   -0.5425   -0.3485 H   0  0  0  0  0  0  0  0  0  0  0  0
   -1.4653   -3.0379   -1.4602 H   0  0  0  0  0  0  0  0  0  0  0  0
   -4.0702   -1.4021   -1.5575 H   0  0  0  0  0  0  0  0  0  0  0  0
   -3.9590   -3.1550   -1.7576 H   0  0  0  0  0  0  0  0  0  0  0  0
   -3.5438   -2.4102   -0.2024 H   0  0  0  0  0  0  0  0  0  0  0  0
   -2.1129   -3.1175   -3.9465 N   0  0  0  0  0  0  0  0  0  0  0  0
   -2.0848   -3.1772   -5.3893 C   0  0  0  0  0  0  0  0  0  0  0  0
   -2.2184   -3.9905   -3.4380 H   0  0  0  0  0  0  0  0  0  0  0  0
   -3.1083   -3.0821   -5.7808 H   0  0  0  0  0  0  0  0  0  0  0  0
   -1.4658   -2.3553   -5.7782 H   0  0  0  0  0  0  0  0  0  0  0  0
   -1.6584   -4.1398   -5.7081 H   0  0  0  0  0  0  0  0  0  0  0  0
 25 27  1  0  0  0  0
 26 27  2  0  0  0  0
 23 25  2  0  0  0  0
 24 26  1  0  0  0  0
 22 23  1  0  0  0  0
 22 24  2  0  0  0  0
 21 22  1  0  0  0  0
  1  3  1  0  0  0  0
  1  7  1  0  0  0  0
  1  2  2  0  0  0  0
 38 39  1  0  0  0  0
 39 47  1  0  0  0  0
 39 40  2  0  0  0  0
  8  9  1  0  0  0  0
  9 17  1  0  0  0  0
  9 10  2  0  0  0  0
 18 19  1  0  0  0  0
 19 37  1  0  0  0  0
 19 20  2  0  0  0  0
 38 41  1  0  0  0  0
  8 11  1  0  0  0  0
 47 48  1  0  0  0  0
 18 21  1  0  0  0  0
 37 38  1  0  0  0  0
  7  8  1  0  0  0  0
 17 18  1  0  0  0  0
 27 36  1  0  0  0  0
 25 34  1  0  0  0  0
 26 35  1  0  0  0  0
 23 32  1  0  0  0  0
 24 33  1  0  0  0  0
  3  4  1  0  0  0  0
  3  5  1  0  0  0  0
  3  6  1  0  0  0  0
 41 44  1  0  0  0  0
 41 45  1  0  0  0  0
 41 46  1  0  0  0  0
 11 14  1  0  0  0  0
 11 15  1  0  0  0  0
 11 16  1  0  0  0  0
 48 50  1  0  0  0  0
 48 51  1  0  0  0  0
 48 52  1  0  0  0  0
 21 30  1  0  0  0  0
 21 31  1  0  0  0  0
 38 43  1  0  0  0  0
  8 13  1  0  0  0  0
 18 29  1  0  0  0  0
 47 49  1  0  0  0  0
  7 12  1  0  0  0  0
 37 42  1  0  0  0  0
 17 28  1  0  0  0  0
M  END
$$$$

  -OEChem-05262214473D

 52 52  0     1  0  0  0  0  0999 V2000
   -1.8248    0.3424    3.9102 C   0  0  0  0  0  0  0  0  0  0  0  0
   -0.8774   -0.2723    3.4345 O   0  0  0  0  0  0  0  0  0  0  0  0
   -2.2566    0.0600    5.3109 C   0  0  0  0  0  0  0  0  0  0  0  0
   -3.0163   -0.7363    5.3643 H   0  0  0  0  0  0  0  0  0  0  0  0
   -1.4254   -0.2876    5.9452 H   0  0  0  0  0  0  0  0  0  0  0  0
   -2.6947    0.9149    5.8505 H   0  0  0  0  0  0  0  0  0  0  0  0
   -2.5745    1.3149    3.2691 N   0  0  0  0  0  0  0  0  0  0  0  0
   -2.3276    1.7409    1.9167 C   0  0  2  0  0  0  0  0  0  0  0  0
   -0.9926    1.1555    1.4755 C   0  0  0  0  0  0  0  0  0  0  0  0
   -0.1206    0.8028    2.2668 O   0  0  0  0  0  0  0  0  0  0  0  0
   -2.3188    3.2577    1.8072 C   0  0  0  0  0  0  0  0  0  0  0  0
   -3.3395    1.7507    3.7809 H   0  0  0  0  0  0  0  0  0  0  0  0
   -3.1317    1.3224    1.3015 H   0  0  0  0  0  0  0  0  0  0  0  0
   -1.5198    3.6949    2.4169 H   0  0  0  0  0  0  0  0  0  0  0  0
   -2.1594    3.5799    0.7729 H   0  0  0  0  0  0  0  0  0  0  0  0
   -3.2690    3.6789    2.1530 H   0  0  0  0  0  0  0  0  0  0  0  0
   -0.8700    1.1124    0.0921 N   0  0  0  0  0  0  0  0  0  0  0  0
    0.3073    0.6116   -0.5716 C   0  0  2  0  0  0  0  0  0  0  0  0
   -0.1283   -0.5680   -1.4336 C   0  0  0  0  0  0  0  0  0  0  0  0
    0.6595   -1.2387   -2.0972 O   0  0  0  0  0  0  0  0  0  0  0  0
    1.3902    0.1746    0.4217 C   0  0  0  0  0  0  0  0  0  0  0  0
    1.9725    1.3315    1.1966 C   0  0  0  0  0  0  0  0  0  0  0  0
    2.9593    2.1314    0.6203 C   0  0  0  0  0  0  0  0  0  0  0  0
    1.5233    1.6008    2.4894 C   0  0  0  0  0  0  0  0  0  0  0  0
    3.4969    3.2006    1.3369 C   0  0  0  0  0  0  0  0  0  0  0  0
    2.0609    2.6699    3.2060 C   0  0  0  0  0  0  0  0  0  0  0  0
    3.0477    3.4699    2.6297 C   0  0  0  0  0  0  0  0  0  0  0  0
   -1.6531    1.4091   -0.4852 H   0  0  0  0  0  0  0  0  0  0  0  0
    0.6663    1.4181   -1.2218 H   0  0  0  0  0  0  0  0  0  0  0  0
    2.1936   -0.3606   -0.1025 H   0  0  0  0  0  0  0  0  0  0  0  0
    0.9826   -0.5495    1.1395 H   0  0  0  0  0  0  0  0  0  0  0  0
    3.3153    1.9292   -0.3864 H   0  0  0  0  0  0  0  0  0  0  0  0
    0.7547    0.9830    2.9463 H   0  0  0  0  0  0  0  0  0  0  0  0
    4.2660    3.8227    0.8885 H   0  0  0  0  0  0  0  0  0  0  0  0
    1.7117    2.8786    4.2128 H   0  0  0  0  0  0  0  0  0  0  0  0
    3.4674    4.3016    3.1880 H   0  0  0  0  0  0  0  0  0  0  0  0
   -1.4912   -0.8102   -1.3323 N   0  0  0  0  0  0  0  0  0  0  0  0
   -2.1600   -1.8853   -2.0292 C   0  0  2  0  0  0  0  0  0  0  0  0
   -1.7514   -1.8216   -3.4949 C   0  0  0  0  0  0  0  0  0  0  0  0
   -1.3297   -0.7984   -4.0299 O   0  0  0  0  0  0  0  0  0  0  0  0
   -3.6703   -1.7856   -1.8811 C   0  0  0  0  0  0  0  0  0  0  0  0
   -2.0465   -0.2013   -0.7385 H   0  0  0  0  0  0  0  0  0  0  0  0
   -1.7983   -2.8209   -1.5889 H   0  0  0  0  0  0  0  0  0  0  0  0
   -4.0511   -0.8545   -2.3165 H   0  0  0  0  0  0  0  0  0  0  0  0
   -4.1741   -2.6166   -2.3855 H   0  0  0  0  0  0  0  0  0  0  0  0
   -3.9602   -1.8015   -0.8249 H   0  0  0  0  0  0  0  0  0  0  0  0
   -1.9537   -3.0305   -4.1461 N   0  0  0  0  0  0  0  0  0  0  0  0
   -1.6546   -3.2215   -5.5461 C   0  0  0  0  0  0  0  0  0  0  0  0
   -2.2893   -3.8316   -3.6195 H   0  0  0  0  0  0  0  0  0  0  0  0
   -2.5553   -3.0204   -6.1447 H   0  0  0  0  0  0  0  0  0  0  0  0
   -0.8528   -2.5312   -5.8471 H   0  0  0  0  0  0  0  0  0  0  0  0
   -1.3276   -4.2584   -5.7129 H   0  0  0  0  0  0  0  0  0  0  0  0
 25 27  1  0  0  0  0
 26 27  2  0  0  0  0
 23 25  2  0  0  0  0
 24 26  1  0  0  0  0
 22 23  1  0  0  0  0
 22 24  2  0  0  0  0
 21 22  1  0  0  0  0
  1  3  1  0  0  0  0
  1  7  1  0  0  0  0
  1  2  2  0  0  0  0
 38 39  1  0  0  0  0
 39 47  1  0  0  0  0
 39 40  2  0  0  0  0
  8  9  1  0  0  0  0
  9 17  1  0  0  0  0
  9 10  2  0  0  0  0
 18 19  1  0  0  0  0
 19 37  1  0  0  0  0
 19 20  2  0  0  0  0
 38 41  1  0  0  0  0
  8 11  1  0  0  0  0
 47 48  1  0  0  0  0
 18 21  1  0  0  0  0
 37 38  1  0  0  0  0
  7  8  1  0  0  0  0
 17 18  1  0  0  0  0
 27 36  1  0  0  0  0
 25 34  1  0  0  0  0
 26 35  1  0  0  0  0
 23 32  1  0  0  0  0
 24 33  1  0  0  0  0
  3  4  1  0  0  0  0
  3  5  1  0  0  0  0
  3  6  1  0  0  0  0
 41 44  1  0  0  0  0
 41 45  1  0  0  0  0
 41 46  1  0  0  0  0
 11 14  1  0  0  0  0
 11 15  1  0  0  0  0
 11 16  1  0  0  0  0
 48 50  1  0  0  0  0
 48 51  1  0  0  0  0
 48 52  1  0  0  0  0
 21 30  1  0  0  0  0
 21 31  1  0  0  0  0
 38 43  1  0  0  0  0
  8 13  1  0  0  0  0
 18 29  1  0  0  0  0
 47 49  1  0  0  0  0
  7 12  1  0  0  0  0
 37 42  1  0  0  0  0
 17 28  1  0  0  0  0
M  END
$$$$

  -OEChem-05262214473D

 52 52  0     1  0  0  0  0  0999 V2000
   -1.8248    0.3424    3.9102 C   0  0  0  0  0  0  0  0  0  0  0  0
   -0.8774   -0.2723    3.4345 O   0  0  0  0  0  0  0  0  0  0  0  0
   -2.2566    0.0600    5.3109 C   0  0  0  0  0  0  0  0  0  0  0  0
   -3.0163   -0.7363    5.3643 H   0  0  0  0  0  0  0  0  0  0  0  0
   -1.4254   -0.2876    5.9452 H   0  0  0  0  0  0  0  0  0  0  0  0
   -2.6947    0.9149    5.8505 H   0  0  0  0  0  0  0  0  0  0  0  0
   -2.5745    1.3149    3.2691 N   0  0  0  0  0  0  0  0  0  0  0  0
   -2.3276    1.7409    1.9167 C   0  0  2  0  0  0  0  0  0  0  0  0
   -0.9926    1.1555    1.4755 C   0  0  0  0  0  0  0  0  0  0  0  0
   -0.1206    0.8028    2.2668 O   0  0  0  0  0  0  0  0  0  0  0  0
   -2.3188    3.2577    1.8072 C   0  0  0  0  0  0  0  0  0  0  0  0
   -3.3395    1.7507    3.7809 H   0  0  0  0  0  0  0  0  0  0  0  0
   -3.1317    1.3224    1.3015 H   0  0  0  0  0  0  0  0  0  0  0  0
   -1.5198    3.6949    2.4169 H   0  0  0  0  0  0  0  0  0  0  0  0
   -2.1594    3.5799    0.7729 H   0  0  0  0  0  0  0  0  0  0  0  0
   -3.2690    3.6789    2.1530 H   0  0  0  0  0  0  0  0  0  0  0  0
   -0.8700    1.1124    0.0921 N   0  0  0  0  0  0  0  0  0  0  0  0
    0.3073    0.6116   -0.5716 C   0  0  2  0  0  0  0  0  0  0  0  0
   -0.1283   -0.5680   -1.4336 C   0  0  0  0  0  0  0  0  0  0  0  0
    0.6609   -1.3978   -1.8801 O   0  0  0  0  0  0  0  0  0  0  0  0
    1.3902    0.1746    0.4217 C   0  0  0  0  0  0  0  0  0  0  0  0
    1.9725    1.3315    1.1966 C   0  0  0  0  0  0  0  0  0  0  0  0
    2.9593    2.1314    0.6203 C   0  0  0  0  0  0  0  0  0  0  0  0
    1.5233    1.6008    2.4894 C   0  0  0  0  0  0  0  0  0  0  0  0
    3.4969    3.2006    1.3369 C   0  0  0  0  0  0  0  0  0  0  0  0
    2.0609    2.6699    3.2060 C   0  0  0  0  0  0  0  0  0  0  0  0
    3.0477    3.4699    2.6297 C   0  0  0  0  0  0  0  0  0  0  0  0
   -1.6531    1.4091   -0.4852 H   0  0  0  0  0  0  0  0  0  0  0  0
    0.6663    1.4181   -1.2218 H   0  0  0  0  0  0  0  0  0  0  0  0
    2.1936   -0.3606   -0.1025 H   0  0  0  0  0  0  0  0  0  0  0  0
    0.9826   -0.5495    1.1395 H   0  0  0  0  0  0  0  0  0  0  0  0
    3.3153    1.9292   -0.3864 H   0  0  0  0  0  0  0  0  0  0  0  0
    0.7547    0.9830    2.9463 H   0  0  0  0  0  0  0  0  0  0  0  0
    4.2660    3.8227    0.8885 H   0  0  0  0  0  0  0  0  0  0  0  0
    1.7117    2.8786    4.2128 H   0  0  0  0  0  0  0  0  0  0  0  0
    3.4674    4.3016    3.1880 H   0  0  0  0  0  0  0  0  0  0  0  0
   -1.5055   -0.6087   -1.6008 N   0  0  0  0  0  0  0  0  0  0  0  0
   -2.1831   -1.6382   -2.3556 C   0  0  2  0  0  0  0  0  0  0  0  0
   -1.4921   -1.7624   -3.7071 C   0  0  0  0  0  0  0  0  0  0  0  0
   -0.8219   -0.8592   -4.2033 O   0  0  0  0  0  0  0  0  0  0  0  0
   -3.6596   -1.3170   -2.5276 C   0  0  0  0  0  0  0  0  0  0  0  0
   -2.0654    0.1217   -1.1710 H   0  0  0  0  0  0  0  0  0  0  0  0
   -2.0624   -2.5721   -1.7959 H   0  0  0  0  0  0  0  0  0  0  0  0
   -3.8005   -0.3845   -3.0862 H   0  0  0  0  0  0  0  0  0  0  0  0
   -4.1774   -2.1116   -3.0750 H   0  0  0  0  0  0  0  0  0  0  0  0
   -4.1486   -1.1987   -1.5547 H   0  0  0  0  0  0  0  0  0  0  0  0
   -1.7472   -2.9844   -4.3134 N   0  0  0  0  0  0  0  0  0  0  0  0
   -1.2142   -3.3387   -5.6082 C   0  0  0  0  0  0  0  0  0  0  0  0
   -2.2981   -3.6813   -3.8208 H   0  0  0  0  0  0  0  0  0  0  0  0
   -1.9392   -3.0685   -6.3901 H   0  0  0  0  0  0  0  0  0  0  0  0
   -0.2727   -2.7959   -5.7780 H   0  0  0  0  0  0  0  0  0  0  0  0
   -1.0245   -4.4217   -5.6426 H   0  0  0  0  0  0  0  0  0  0  0  0
 25 27  1  0  0  0  0
 26 27  2  0  0  0  0
 23 25  2  0  0  0  0
 24 26  1  0  0  0  0
 22 23  1  0  0  0  0
 22 24  2  0  0  0  0
 21 22  1  0  0  0  0
  1  3  1  0  0  0  0
  1  7  1  0  0  0  0
  1  2  2  0  0  0  0
 38 39  1  0  0  0  0
 39 47  1  0  0  0  0
 39 40  2  0  0  0  0
  8  9  1  0  0  0  0
  9 17  1  0  0  0  0
  9 10  2  0  0  0  0
 18 19  1  0  0  0  0
 19 37  1  0  0  0  0
 19 20  2  0  0  0  0
 38 41  1  0  0  0  0
  8 11  1  0  0  0  0
 47 48  1  0  0  0  0
 18 21  1  0  0  0  0
 37 38  1  0  0  0  0
  7  8  1  0  0  0  0
 17 18  1  0  0  0  0
 27 36  1  0  0  0  0
 25 34  1  0  0  0  0
 26 35  1  0  0  0  0
 23 32  1  0  0  0  0
 24 33  1  0  0  0  0
  3  4  1  0  0  0  0
  3  5  1  0  0  0  0
  3  6  1  0  0  0  0
 41 44  1  0  0  0  0
 41 45  1  0  0  0  0
 41 46  1  0  0  0  0
 11 14  1  0  0  0  0
 11 15  1  0  0  0  0
 11 16  1  0  0  0  0
 48 50  1  0  0  0  0
 48 51  1  0  0  0  0
 48 52  1  0  0  0  0
 21 30  1  0  0  0  0
 21 31  1  0  0  0  0
 38 43  1  0  0  0  0
  8 13  1  0  0  0  0
 18 29  1  0  0  0  0
 47 49  1  0  0  0  0
  7 12  1  0  0  0  0
 37 42  1  0  0  0  0
 17 28  1  0  0  0  0
M  END
$$$$

  -OEChem-05262214473D

 52 52  0     1  0  0  0  0  0999 V2000
   -1.8248    0.3424    3.9102 C   0  0  0  0  0  0  0  0  0  0  0  0
   -0.8774   -0.2723    3.4345 O   0  0  0  0  0  0  0  0  0  0  0  0
   -2.2566    0.0600    5.3109 C   0  0  0  0  0  0  0  0  0  0  0  0
   -3.0163   -0.7363    5.3643 H   0  0  0  0  0  0  0  0  0  0  0  0
   -1.4254   -0.2876    5.9452 H   0  0  0  0  0  0  0  0  0  0  0  0
   -2.6947    0.9149    5.8505 H   0  0  0  0  0  0  0  0  0  0  0  0
   -2.5745    1.3149    3.2691 N   0  0  0  0  0  0  0  0  0  0  0  0
   -2.3276    1.7409    1.9167 C   0  0  2  0  0  0  0  0  0  0  0  0
   -0.9926    1.1555    1.4755 C   0  0  0  0  0  0  0  0  0  0  0  0
   -0.1206    0.8028    2.2668 O   0  0  0  0  0  0  0  0  0  0  0  0
   -2.3188    3.2577    1.8072 C   0  0  0  0  0  0  0  0  0  0  0  0
   -3.3395    1.7507    3.7809 H   0  0  0  0  0  0  0  0  0  0  0  0
   -3.1317    1.3224    1.3015 H   0  0  0  0  0  0  0  0  0  0  0  0
   -1.5198    3.6949    2.4169 H   0  0  0  0  0  0  0  0  0  0  0  0
   -2.1594    3.5799    0.7729 H   0  0  0  0  0  0  0  0  0  0  0  0
   -3.2690    3.6789    2.1530 H   0  0  0  0  0  0  0  0  0  0  0  0
   -0.8700    1.1124    0.0921 N   0  0  0  0  0  0  0  0  0  0  0  0
    0.3073    0.6116   -0.5716 C   0  0  2  0  0  0  0  0  0  0  0  0
   -0.1283   -0.5680   -1.4336 C   0  0  0  0  0  0  0  0  0  0  0  0
    0.5955   -1.5357   -1.6584 O   0  0  0  0  0  0  0  0  0  0  0  0
    1.3902    0.1746    0.4217 C   0  0  0  0  0  0  0  0  0  0  0  0
    1.9725    1.3315    1.1966 C   0  0  0  0  0  0  0  0  0  0  0  0
    2.9593    2.1314    0.6203 C   0  0  0  0  0  0  0  0  0  0  0  0
    1.5233    1.6008    2.4894 C   0  0  0  0  0  0  0  0  0  0  0  0
    3.4969    3.2006    1.3369 C   0  0  0  0  0  0  0  0  0  0  0  0
    2.0609    2.6699    3.2060 C   0  0  0  0  0  0  0  0  0  0  0  0
    3.0477    3.4699    2.6297 C   0  0  0  0  0  0  0  0  0  0  0  0
   -1.6531    1.4091   -0.4852 H   0  0  0  0  0  0  0  0  0  0  0  0
    0.6663    1.4181   -1.2218 H   0  0  0  0  0  0  0  0  0  0  0  0
    2.1936   -0.3606   -0.1025 H   0  0  0  0  0  0  0  0  0  0  0  0
    0.9826   -0.5495    1.1395 H   0  0  0  0  0  0  0  0  0  0  0  0
    3.3153    1.9292   -0.3864 H   0  0  0  0  0  0  0  0  0  0  0  0
    0.7547    0.9830    2.9463 H   0  0  0  0  0  0  0  0  0  0  0  0
    4.2660    3.8227    0.8885 H   0  0  0  0  0  0  0  0  0  0  0  0
    1.7117    2.8786    4.2128 H   0  0  0  0  0  0  0  0  0  0  0  0
    3.4674    4.3016    3.1880 H   0  0  0  0  0  0  0  0  0  0  0  0
   -1.4361   -0.4319   -1.8779 N   0  0  0  0  0  0  0  0  0  0  0  0
   -2.1039   -1.4202   -2.6939 C   0  0  2  0  0  0  0  0  0  0  0  0
   -1.1904   -1.7587   -3.8645 C   0  0  0  0  0  0  0  0  0  0  0  0
   -0.3056   -1.0050   -4.2647 O   0  0  0  0  0  0  0  0  0  0  0  0
   -3.4513   -0.9138   -3.1847 C   0  0  0  0  0  0  0  0  0  0  0  0
   -1.9498    0.4045   -1.6164 H   0  0  0  0  0  0  0  0  0  0  0  0
   -2.2397   -2.3084   -2.0672 H   0  0  0  0  0  0  0  0  0  0  0  0
   -3.3355   -0.0241   -3.8144 H   0  0  0  0  0  0  0  0  0  0  0  0
   -3.9685   -1.6743   -3.7790 H   0  0  0  0  0  0  0  0  0  0  0  0
   -4.0963   -0.6428   -2.3419 H   0  0  0  0  0  0  0  0  0  0  0  0
   -1.5075   -2.9825   -4.4371 N   0  0  0  0  0  0  0  0  0  0  0  0
   -0.7936   -3.5210   -5.5713 C   0  0  0  0  0  0  0  0  0  0  0  0
   -2.2444   -3.5496   -4.0282 H   0  0  0  0  0  0  0  0  0  0  0  0
   -1.3020   -3.2234   -6.5002 H   0  0  0  0  0  0  0  0  0  0  0  0
    0.2351   -3.1315   -5.5755 H   0  0  0  0  0  0  0  0  0  0  0  0
   -0.7698   -4.6186   -5.5019 H   0  0  0  0  0  0  0  0  0  0  0  0
 25 27  1  0  0  0  0
 26 27  2  0  0  0  0
 23 25  2  0  0  0  0
 24 26  1  0  0  0  0
 22 23  1  0  0  0  0
 22 24  2  0  0  0  0
 21 22  1  0  0  0  0
  1  3  1  0  0  0  0
  1  7  1  0  0  0  0
  1  2  2  0  0  0  0
 38 39  1  0  0  0  0
 39 47  1  0  0  0  0
 39 40  2  0  0  0  0
  8  9  1  0  0  0  0
  9 17  1  0  0  0  0
  9 10  2  0  0  0  0
 18 19  1  0  0  0  0
 19 37  1  0  0  0  0
 19 20  2  0  0  0  0
 38 41  1  0  0  0  0
  8 11  1  0  0  0  0
 47 48  1  0  0  0  0
 18 21  1  0  0  0  0
 37 38  1  0  0  0  0
  7  8  1  0  0  0  0
 17 18  1  0  0  0  0
 27 36  1  0  0  0  0
 25 34  1  0  0  0  0
 26 35  1  0  0  0  0
 23 32  1  0  0  0  0
 24 33  1  0  0  0  0
  3  4  1  0  0  0  0
  3  5  1  0  0  0  0
  3  6  1  0  0  0  0
 41 44  1  0  0  0  0
 41 45  1  0  0  0  0
 41 46  1  0  0  0  0
 11 14  1  0  0  0  0
 11 15  1  0  0  0  0
 11 16  1  0  0  0  0
 48 50  1  0  0  0  0
 48 51  1  0  0  0  0
 48 52  1  0  0  0  0
 21 30  1  0  0  0  0
 21 31  1  0  0  0  0
 38 43  1  0  0  0  0
  8 13  1  0  0  0  0
 18 29  1  0  0  0  0
 47 49  1  0  0  0  0
  7 12  1  0  0  0  0
 37 42  1  0  0  0  0
 17 28  1  0  0  0  0
M  END
$$$$

  -OEChem-05262214473D

 52 52  0     1  0  0  0  0  0999 V2000
   -1.8248    0.3424    3.9102 C   0  0  0  0  0  0  0  0  0  0  0  0
   -0.8774   -0.2723    3.4345 O   0  0  0  0  0  0  0  0  0  0  0  0
   -2.2566    0.0600    5.3109 C   0  0  0  0  0  0  0  0  0  0  0  0
   -3.0163   -0.7363    5.3643 H   0  0  0  0  0  0  0  0  0  0  0  0
   -1.4254   -0.2876    5.9452 H   0  0  0  0  0  0  0  0  0  0  0  0
   -2.6947    0.9149    5.8505 H   0  0  0  0  0  0  0  0  0  0  0  0
   -2.5745    1.3149    3.2691 N   0  0  0  0  0  0  0  0  0  0  0  0
   -2.3276    1.7409    1.9167 C   0  0  2  0  0  0  0  0  0  0  0  0
   -0.9926    1.1555    1.4755 C   0  0  0  0  0  0  0  0  0  0  0  0
   -0.1206    0.8028    2.2668 O   0  0  0  0  0  0  0  0  0  0  0  0
   -2.3188    3.2577    1.8072 C   0  0  0  0  0  0  0  0  0  0  0  0
   -3.3395    1.7507    3.7809 H   0  0  0  0  0  0  0  0  0  0  0  0
   -3.1317    1.3224    1.3015 H   0  0  0  0  0  0  0  0  0  0  0  0
   -1.5198    3.6949    2.4169 H   0  0  0  0  0  0  0  0  0  0  0  0
   -2.1594    3.5799    0.7729 H   0  0  0  0  0  0  0  0  0  0  0  0
   -3.2690    3.6789    2.1530 H   0  0  0  0  0  0  0  0  0  0  0  0
   -0.8700    1.1124    0.0921 N   0  0  0  0  0  0  0  0  0  0  0  0
    0.3073    0.6116   -0.5716 C   0  0  2  0  0  0  0  0  0  0  0  0
   -0.1283   -0.5680   -1.4336 C   0  0  0  0  0  0  0  0  0  0  0  0
    0.4677   -1.6429   -1.4471 O   0  0  0  0  0  0  0  0  0  0  0  0
    1.3902    0.1746    0.4217 C   0  0  0  0  0  0  0  0  0  0  0  0
    1.9725    1.3315    1.1966 C   0  0  0  0  0  0  0  0  0  0  0  0
    2.9593    2.1314    0.6203 C   0  0  0  0  0  0  0  0  0  0  0  0
    1.5233    1.6008    2.4894 C   0  0  0  0  0  0  0  0  0  0  0  0
    3.4969    3.2006    1.3369 C   0  0  0  0  0  0  0  0  0  0  0  0
    2.0609    2.6699    3.2060 C   0  0  0  0  0  0  0  0  0  0  0  0
    3.0477    3.4699    2.6297 C   0  0  0  0  0  0  0  0  0  0  0  0
   -1.6531    1.4091   -0.4852 H   0  0  0  0  0  0  0  0  0  0  0  0
    0.6663    1.4181   -1.2218 H   0  0  0  0  0  0  0  0  0  0  0  0
    2.1936   -0.3606   -0.1025 H   0  0  0  0  0  0  0  0  0  0  0  0
    0.9826   -0.5495    1.1395 H   0  0  0  0  0  0  0  0  0  0  0  0
    3.3153    1.9292   -0.3864 H   0  0  0  0  0  0  0  0  0  0  0  0
    0.7547    0.9830    2.9463 H   0  0  0  0  0  0  0  0  0  0  0  0
    4.2660    3.8227    0.8885 H   0  0  0  0  0  0  0  0  0  0  0  0
    1.7117    2.8786    4.2128 H   0  0  0  0  0  0  0  0  0  0  0  0
    3.4674    4.3016    3.1880 H   0  0  0  0  0  0  0  0  0  0  0  0
   -1.2877   -0.2916   -2.1447 N   0  0  0  0  0  0  0  0  0  0  0  0
   -1.9278   -1.2463   -3.0209 C   0  0  2  0  0  0  0  0  0  0  0  0
   -0.8669   -1.8110   -3.9564 C   0  0  0  0  0  0  0  0  0  0  0  0
    0.1841   -1.2260   -4.2097 O   0  0  0  0  0  0  0  0  0  0  0  0
   -3.0595   -0.6034   -3.8074 C   0  0  0  0  0  0  0  0  0  0  0  0
   -1.7075    0.6278   -2.0443 H   0  0  0  0  0  0  0  0  0  0  0  0
   -2.3181   -2.0478   -2.3842 H   0  0  0  0  0  0  0  0  0  0  0  0
   -2.6878    0.2021   -4.4512 H   0  0  0  0  0  0  0  0  0  0  0  0
   -3.5618   -1.3345   -4.4495 H   0  0  0  0  0  0  0  0  0  0  0  0
   -3.8067   -0.1716   -3.1329 H   0  0  0  0  0  0  0  0  0  0  0  0
   -1.2509   -3.0249   -4.5087 N   0  0  0  0  0  0  0  0  0  0  0  0
   -0.4213   -3.7559   -5.4379 C   0  0  0  0  0  0  0  0  0  0  0  0
   -2.1316   -3.4456   -4.2274 H   0  0  0  0  0  0  0  0  0  0  0  0
   -0.6871   -3.4744   -6.4675 H   0  0  0  0  0  0  0  0  0  0  0  0
    0.6359   -3.5149   -5.2533 H   0  0  0  0  0  0  0  0  0  0  0  0
   -0.5806   -4.8356   -5.3005 H   0  0  0  0  0  0  0  0  0  0  0  0
 25 27  1  0  0  0  0
 26 27  2  0  0  0  0
 23 25  2  0  0  0  0
 24 26  1  0  0  0  0
 22 23  1  0  0  0  0
 22 24  2  0  0  0  0
 21 22  1  0  0  0  0
  1  3  1  0  0  0  0
  1  7  1  0  0  0  0
  1  2  2  0  0  0  0
 38 39  1  0  0  0  0
 39 47  1  0  0  0  0
 39 40  2  0  0  0  0
  8  9  1  0  0  0  0
  9 17  1  0  0  0  0
  9 10  2  0  0  0  0
 18 19  1  0  0  0  0
 19 37  1  0  0  0  0
 19 20  2  0  0  0  0
 38 41  1  0  0  0  0
  8 11  1  0  0  0  0
 47 48  1  0  0  0  0
 18 21  1  0  0  0  0
 37 38  1  0  0  0  0
  7  8  1  0  0  0  0
 17 18  1  0  0  0  0
 27 36  1  0  0  0  0
 25 34  1  0  0  0  0
 26 35  1  0  0  0  0
 23 32  1  0  0  0  0
 24 33  1  0  0  0  0
  3  4  1  0  0  0  0
  3  5  1  0  0  0  0
  3  6  1  0  0  0  0
 41 44  1  0  0  0  0
 41 45  1  0  0  0  0
 41 46  1  0  0  0  0
 11 14  1  0  0  0  0
 11 15  1  0  0  0  0
 11 16  1  0  0  0  0
 48 50  1  0  0  0  0
 48 51  1  0  0  0  0
 48 52  1  0  0  0  0
 21 30  1  0  0  0  0
 21 31  1  0  0  0  0
 38 43  1  0  0  0  0
  8 13  1  0  0  0  0
 18 29  1  0  0  0  0
 47 49  1  0  0  0  0
  7 12  1  0  0  0  0
 37 42  1  0  0  0  0
 17 28  1  0  0  0  0
M  END
$$$$

  -OEChem-05262214473D

 52 52  0     1  0  0  0  0  0999 V2000
   -1.8248    0.3424    3.9102 C   0  0  0  0  0  0  0  0  0  0  0  0
   -0.8774   -0.2723    3.4345 O   0  0  0  0  0  0  0  0  0  0  0  0
   -2.2566    0.0600    5.3109 C   0  0  0  0  0  0  0  0  0  0  0  0
   -3.0163   -0.7363    5.3643 H   0  0  0  0  0  0  0  0  0  0  0  0
   -1.4254   -0.2876    5.9452 H   0  0  0  0  0  0  0  0  0  0  0  0
   -2.6947    0.9149    5.8505 H   0  0  0  0  0  0  0  0  0  0  0  0
   -2.5745    1.3149    3.2691 N   0  0  0  0  0  0  0  0  0  0  0  0
   -2.3276    1.7409    1.9167 C   0  0  2  0  0  0  0  0  0  0  0  0
   -0.9926    1.1555    1.4755 C   0  0  0  0  0  0  0  0  0  0  0  0
   -0.1206    0.8028    2.2668 O   0  0  0  0  0  0  0  0  0  0  0  0
   -2.3188    3.2577    1.8072 C   0  0  0  0  0  0  0  0  0  0  0  0
   -3.3395    1.7507    3.7809 H   0  0  0  0  0  0  0  0  0  0  0  0
   -3.1317    1.3224    1.3015 H   0  0  0  0  0  0  0  0  0  0  0  0
   -1.5198    3.6949    2.4169 H   0  0  0  0  0  0  0  0  0  0  0  0
   -2.1594    3.5799    0.7729 H   0  0  0  0  0  0  0  0  0  0  0  0
   -3.2690    3.6789    2.1530 H   0  0  0  0  0  0  0  0  0  0  0  0
   -0.8700    1.1124    0.0921 N   0  0  0  0  0  0  0  0  0  0  0  0
    0.3073    0.6116   -0.5716 C   0  0  2  0  0  0  0  0  0  0  0  0
   -0.1283   -0.5680   -1.4336 C   0  0  0  0  0  0  0  0  0  0  0  0
    0.2863   -1.7122   -1.2607 O   0  0  0  0  0  0  0  0  0  0  0  0
    1.3902    0.1746    0.4217 C   0  0  0  0  0  0  0  0  0  0  0  0
    1.9725    1.3315    1.1966 C   0  0  0  0  0  0  0  0  0  0  0  0
    2.9593    2.1314    0.6203 C   0  0  0  0  0  0  0  0  0  0  0  0
    1.5233    1.6008    2.4894 C   0  0  0  0  0  0  0  0  0  0  0  0
    3.4969    3.2006    1.3369 C   0  0  0  0  0  0  0  0  0  0  0  0
    2.0609    2.6699    3.2060 C   0  0  0  0  0  0  0  0  0  0  0  0
    3.0477    3.4699    2.6297 C   0  0  0  0  0  0  0  0  0  0  0  0
   -1.6531    1.4091   -0.4852 H   0  0  0  0  0  0  0  0  0  0  0  0
    0.6663    1.4181   -1.2218 H   0  0  0  0  0  0  0  0  0  0  0  0
    2.1936   -0.3606   -0.1025 H   0  0  0  0  0  0  0  0  0  0  0  0
    0.9826   -0.5495    1.1395 H   0  0  0  0  0  0  0  0  0  0  0  0
    3.3153    1.9292   -0.3864 H   0  0  0  0  0  0  0  0  0  0  0  0
    0.7547    0.9830    2.9463 H   0  0  0  0  0  0  0  0  0  0  0  0
    4.2660    3.8227    0.8885 H   0  0  0  0  0  0  0  0  0  0  0  0
    1.7117    2.8786    4.2128 H   0  0  0  0  0  0  0  0  0  0  0  0
    3.4674    4.3016    3.1880 H   0  0  0  0  0  0  0  0  0  0  0  0
   -1.0704   -0.1977   -2.3831 N   0  0  0  0  0  0  0  0  0  0  0  0
   -1.6668   -1.1283   -3.3143 C   0  0  2  0  0  0  0  0  0  0  0  0
   -0.5438   -1.9156   -3.9765 C   0  0  0  0  0  0  0  0  0  0  0  0
    0.6137   -1.5070   -4.0423 O   0  0  0  0  0  0  0  0  0  0  0  0
   -2.5109   -0.4070   -4.3534 C   0  0  0  0  0  0  0  0  0  0  0  0
   -1.3552    0.7764   -2.4257 H   0  0  0  0  0  0  0  0  0  0  0  0
   -2.2921   -1.8081   -2.7253 H   0  0  0  0  0  0  0  0  0  0  0  0
   -1.9015    0.2787   -4.9534 H   0  0  0  0  0  0  0  0  0  0  0  0
   -2.9850   -1.1154   -5.0408 H   0  0  0  0  0  0  0  0  0  0  0  0
   -3.2997    0.1826   -3.8738 H   0  0  0  0  0  0  0  0  0  0  0  0
   -0.9950   -3.1088   -4.5234 N   0  0  0  0  0  0  0  0  0  0  0  0
   -0.1229   -4.0275   -5.2172 C   0  0  0  0  0  0  0  0  0  0  0  0
   -1.9676   -3.3764   -4.4050 H   0  0  0  0  0  0  0  0  0  0  0  0
   -0.1365   -3.8043   -6.2942 H   0  0  0  0  0  0  0  0  0  0  0  0
    0.9025   -3.9201   -4.8336 H   0  0  0  0  0  0  0  0  0  0  0  0
   -0.4701   -5.0581   -5.0520 H   0  0  0  0  0  0  0  0  0  0  0  0
 25 27  1  0  0  0  0
 26 27  2  0  0  0  0
 23 25  2  0  0  0  0
 24 26  1  0  0  0  0
 22 23  1  0  0  0  0
 22 24  2  0  0  0  0
 21 22  1  0  0  0  0
  1  3  1  0  0  0  0
  1  7  1  0  0  0  0
  1  2  2  0  0  0  0
 38 39  1  0  0  0  0
 39 47  1  0  0  0  0
 39 40  2  0  0  0  0
  8  9  1  0  0  0  0
  9 17  1  0  0  0  0
  9 10  2  0  0  0  0
 18 19  1  0  0  0  0
 19 37  1  0  0  0  0
 19 20  2  0  0  0  0
 38 41  1  0  0  0  0
  8 11  1  0  0  0  0
 47 48  1  0  0  0  0
 18 21  1  0  0  0  0
 37 38  1  0  0  0  0
  7  8  1  0  0  0  0
 17 18  1  0  0  0  0
 27 36  1  0  0  0  0
 25 34  1  0  0  0  0
 26 35  1  0  0  0  0
 23 32  1  0  0  0  0
 24 33  1  0  0  0  0
  3  4  1  0  0  0  0
  3  5  1  0  0  0  0
  3  6  1  0  0  0  0
 41 44  1  0  0  0  0
 41 45  1  0  0  0  0
 41 46  1  0  0  0  0
 11 14  1  0  0  0  0
 11 15  1  0  0  0  0
 11 16  1  0  0  0  0
 48 50  1  0  0  0  0
 48 51  1  0  0  0  0
 48 52  1  0  0  0  0
 21 30  1  0  0  0  0
 21 31  1  0  0  0  0
 38 43  1  0  0  0  0
  8 13  1  0  0  0  0
 18 29  1  0  0  0  0
 47 49  1  0  0  0  0
  7 12  1  0  0  0  0
 37 42  1  0  0  0  0
 17 28  1  0  0  0  0
M  END
$$$$

  -OEChem-05262214473D

 52 52  0     1  0  0  0  0  0999 V2000
   -1.8248    0.3424    3.9102 C   0  0  0  0  0  0  0  0  0  0  0  0
   -0.8774   -0.2723    3.4345 O   0  0  0  0  0  0  0  0  0  0  0  0
   -2.2566    0.0600    5.3109 C   0  0  0  0  0  0  0  0  0  0  0  0
   -3.0163   -0.7363    5.3643 H   0  0  0  0  0  0  0  0  0  0  0  0
   -1.4254   -0.2876    5.9452 H   0  0  0  0  0  0  0  0  0  0  0  0
   -2.6947    0.9149    5.8505 H   0  0  0  0  0  0  0  0  0  0  0  0
   -2.5745    1.3149    3.2691 N   0  0  0  0  0  0  0  0  0  0  0  0
   -2.3276    1.7409    1.9167 C   0  0  2  0  0  0  0  0  0  0  0  0
   -0.9926    1.1555    1.4755 C   0  0  0  0  0  0  0  0  0  0  0  0
   -0.1206    0.8028    2.2668 O   0  0  0  0  0  0  0  0  0  0  0  0
   -2.3188    3.2577    1.8072 C   0  0  0  0  0  0  0  0  0  0  0  0
   -3.3395    1.7507    3.7809 H   0  0  0  0  0  0  0  0  0  0  0  0
   -3.1317    1.3224    1.3015 H   0  0  0  0  0  0  0  0  0  0  0  0
   -1.5198    3.6949    2.4169 H   0  0  0  0  0  0  0  0  0  0  0  0
   -2.1594    3.5799    0.7729 H   0  0  0  0  0  0  0  0  0  0  0  0
   -3.2690    3.6789    2.1530 H   0  0  0  0  0  0  0  0  0  0  0  0
   -0.8700    1.1124    0.0921 N   0  0  0  0  0  0  0  0  0  0  0  0
    0.3073    0.6116   -0.5716 C   0  0  2  0  0  0  0  0  0  0  0  0
   -0.1283   -0.5680   -1.4336 C   0  0  0  0  0  0  0  0  0  0  0  0
    0.0636   -1.7387   -1.1119 O   0  0  0  0  0  0  0  0  0  0  0  0
    1.3902    0.1746    0.4217 C   0  0  0  0  0  0  0  0  0  0  0  0
    1.9725    1.3315    1.1966 C   0  0  0  0  0  0  0  0  0  0  0  0
    2.9593    2.1314    0.6203 C   0  0  0  0  0  0  0  0  0  0  0  0
    1.5233    1.6008    2.4894 C   0  0  0  0  0  0  0  0  0  0  0  0
    3.4969    3.2006    1.3369 C   0  0  0  0  0  0  0  0  0  0  0  0
    2.0609    2.6699    3.2060 C   0  0  0  0  0  0  0  0  0  0  0  0
    3.0477    3.4699    2.6297 C   0  0  0  0  0  0  0  0  0  0  0  0
   -1.6531    1.4091   -0.4852 H   0  0  0  0  0  0  0  0  0  0  0  0
    0.6663    1.4181   -1.2218 H   0  0  0  0  0  0  0  0  0  0  0  0
    2.1936   -0.3606   -0.1025 H   0  0  0  0  0  0  0  0  0  0  0  0
    0.9826   -0.5495    1.1395 H   0  0  0  0  0  0  0  0  0  0  0  0
    3.3153    1.9292   -0.3864 H   0  0  0  0  0  0  0  0  0  0  0  0
    0.7547    0.9830    2.9463 H   0  0  0  0  0  0  0  0  0  0  0  0
    4.2660    3.8227    0.8885 H   0  0  0  0  0  0  0  0  0  0  0  0
    1.7117    2.8786    4.2128 H   0  0  0  0  0  0  0  0  0  0  0  0
    3.4674    4.3016    3.1880 H   0  0  0  0  0  0  0  0  0  0  0  0
   -0.7990   -0.1563   -2.5768 N   0  0  0  0  0  0  0  0  0  0  0  0
   -1.3386   -1.0742   -3.5542 C   0  0  2  0  0  0  0  0  0  0  0  0
   -0.2429   -2.0655   -3.9235 C   0  0  0  0  0  0  0  0  0  0  0  0
    0.9540   -1.8289   -3.7737 O   0  0  0  0  0  0  0  0  0  0  0  0
   -1.8429   -0.3379   -4.7855 C   0  0  0  0  0  0  0  0  0  0  0  0
   -0.9167    0.8402   -2.7346 H   0  0  0  0  0  0  0  0  0  0  0  0
   -2.1636   -1.6055   -3.0674 H   0  0  0  0  0  0  0  0  0  0  0  0
   -1.0302    0.2005   -5.2866 H   0  0  0  0  0  0  0  0  0  0  0  0
   -2.2773   -1.0319   -5.5126 H   0  0  0  0  0  0  0  0  0  0  0  0
   -2.6097    0.3957   -4.5141 H   0  0  0  0  0  0  0  0  0  0  0  0
   -0.7571   -3.2282   -4.4801 N   0  0  0  0  0  0  0  0  0  0  0  0
    0.0815   -4.3171   -4.9241 C   0  0  0  0  0  0  0  0  0  0  0  0
   -1.7635   -3.3467   -4.5487 H   0  0  0  0  0  0  0  0  0  0  0  0
    0.3124   -4.1908   -5.9922 H   0  0  0  0  0  0  0  0  0  0  0  0
    1.0166   -4.3194   -4.3447 H   0  0  0  0  0  0  0  0  0  0  0  0
   -0.4456   -5.2707   -4.7733 H   0  0  0  0  0  0  0  0  0  0  0  0
 25 27  1  0  0  0  0
 26 27  2  0  0  0  0
 23 25  2  0  0  0  0
 24 26  1  0  0  0  0
 22 23  1  0  0  0  0
 22 24  2  0  0  0  0
 21 22  1  0  0  0  0
  1  3  1  0  0  0  0
  1  7  1  0  0  0  0
  1  2  2  0  0  0  0
 38 39  1  0  0  0  0
 39 47  1  0  0  0  0
 39 40  2  0  0  0  0
  8  9  1  0  0  0  0
  9 17  1  0  0  0  0
  9 10  2  0  0  0  0
 18 19  1  0  0  0  0
 19 37  1  0  0  0  0
 19 20  2  0  0  0  0
 38 41  1  0  0  0  0
  8 11  1  0  0  0  0
 47 48  1  0  0  0  0
 18 21  1  0  0  0  0
 37 38  1  0  0  0  0
  7  8  1  0  0  0  0
 17 18  1  0  0  0  0
 27 36  1  0  0  0  0
 25 34  1  0  0  0  0
 26 35  1  0  0  0  0
 23 32  1  0  0  0  0
 24 33  1  0  0  0  0
  3  4  1  0  0  0  0
  3  5  1  0  0  0  0
  3  6  1  0  0  0  0
 41 44  1  0  0  0  0
 41 45  1  0  0  0  0
 41 46  1  0  0  0  0
 11 14  1  0  0  0  0
 11 15  1  0  0  0  0
 11 16  1  0  0  0  0
 48 50  1  0  0  0  0
 48 51  1  0  0  0  0
 48 52  1  0  0  0  0
 21 30  1  0  0  0  0
 21 31  1  0  0  0  0
 38 43  1  0  0  0  0
  8 13  1  0  0  0  0
 18 29  1  0  0  0  0
 47 49  1  0  0  0  0
  7 12  1  0  0  0  0
 37 42  1  0  0  0  0
 17 28  1  0  0  0  0
M  END
$$$$

  -OEChem-05262214473D

 52 52  0     1  0  0  0  0  0999 V2000
   -1.8248    0.3424    3.9102 C   0  0  0  0  0  0  0  0  0  0  0  0
   -0.8774   -0.2723    3.4345 O   0  0  0  0  0  0  0  0  0  0  0  0
   -2.2566    0.0600    5.3109 C   0  0  0  0  0  0  0  0  0  0  0  0
   -3.0163   -0.7363    5.3643 H   0  0  0  0  0  0  0  0  0  0  0  0
   -1.4254   -0.2876    5.9452 H   0  0  0  0  0  0  0  0  0  0  0  0
   -2.6947    0.9149    5.8505 H   0  0  0  0  0  0  0  0  0  0  0  0
   -2.5745    1.3149    3.2691 N   0  0  0  0  0  0  0  0  0  0  0  0
   -2.3276    1.7409    1.9167 C   0  0  2  0  0  0  0  0  0  0  0  0
   -0.9926    1.1555    1.4755 C   0  0  0  0  0  0  0  0  0  0  0  0
   -0.1206    0.8028    2.2668 O   0  0  0  0  0  0  0  0  0  0  0  0
   -2.3188    3.2577    1.8072 C   0  0  0  0  0  0  0  0  0  0  0  0
   -3.3395    1.7507    3.7809 H   0  0  0  0  0  0  0  0  0  0  0  0
   -3.1317    1.3224    1.3015 H   0  0  0  0  0  0  0  0  0  0  0  0
   -1.5198    3.6949    2.4169 H   0  0  0  0  0  0  0  0  0  0  0  0
   -2.1594    3.5799    0.7729 H   0  0  0  0  0  0  0  0  0  0  0  0
   -3.2690    3.6789    2.1530 H   0  0  0  0  0  0  0  0  0  0  0  0
   -0.8700    1.1124    0.0921 N   0  0  0  0  0  0  0  0  0  0  0  0
    0.3073    0.6116   -0.5716 C   0  0  2  0  0  0  0  0  0  0  0  0
   -0.1283   -0.5680   -1.4336 C   0  0  0  0  0  0  0  0  0  0  0  0
   -0.1852   -1.7207   -1.0107 O   0  0  0  0  0  0  0  0  0  0  0  0
    1.3902    0.1746    0.4217 C   0  0  0  0  0  0  0  0  0  0  0  0
    1.9725    1.3315    1.1966 C   0  0  0  0  0  0  0  0  0  0  0  0
    2.9593    2.1314    0.6203 C   0  0  0  0  0  0  0  0  0  0  0  0
    1.5233    1.6008    2.4894 C   0  0  0  0  0  0  0  0  0  0  0  0
    3.4969    3.2006    1.3369 C   0  0  0  0  0  0  0  0  0  0  0  0
    2.0609    2.6699    3.2060 C   0  0  0  0  0  0  0  0  0  0  0  0
    3.0477    3.4699    2.6297 C   0  0  0  0  0  0  0  0  0  0  0  0
   -1.6531    1.4091   -0.4852 H   0  0  0  0  0  0  0  0  0  0  0  0
    0.6663    1.4181   -1.2218 H   0  0  0  0  0  0  0  0  0  0  0  0
    2.1936   -0.3606   -0.1025 H   0  0  0  0  0  0  0  0  0  0  0  0
    0.9826   -0.5495    1.1395 H   0  0  0  0  0  0  0  0  0  0  0  0
    3.3153    1.9292   -0.3864 H   0  0  0  0  0  0  0  0  0  0  0  0
    0.7547    0.9830    2.9463 H   0  0  0  0  0  0  0  0  0  0  0  0
    4.2660    3.8227    0.8885 H   0  0  0  0  0  0  0  0  0  0  0  0
    1.7117    2.8786    4.2128 H   0  0  0  0  0  0  0  0  0  0  0  0
    3.4674    4.3016    3.1880 H   0  0  0  0  0  0  0  0  0  0  0  0
   -0.4920   -0.1704   -2.7127 N   0  0  0  0  0  0  0  0  0  0  0  0
   -0.9656   -1.0877   -3.7242 C   0  0  2  0  0  0  0  0  0  0  0  0
    0.0152   -2.2503   -3.8010 C   0  0  0  0  0  0  0  0  0  0  0  0
    1.1819   -2.1698   -3.4223 O   0  0  0  0  0  0  0  0  0  0  0  0
   -1.1011   -0.4008   -5.0742 C   0  0  0  0  0  0  0  0  0  0  0  0
   -0.4219    0.8148   -2.9498 H   0  0  0  0  0  0  0  0  0  0  0  0
   -1.9414   -1.4540   -3.3871 H   0  0  0  0  0  0  0  0  0  0  0  0
   -0.1334   -0.0272   -5.4283 H   0  0  0  0  0  0  0  0  0  0  0  0
   -1.4870   -1.0897   -5.8329 H   0  0  0  0  0  0  0  0  0  0  0  0
   -1.7839    0.4532   -5.0102 H   0  0  0  0  0  0  0  0  0  0  0  0
   -0.5534   -3.3753   -4.3818 N   0  0  0  0  0  0  0  0  0  0  0  0
    0.1779   -4.6051   -4.5787 C   0  0  0  0  0  0  0  0  0  0  0  0
   -1.5333   -3.3585   -4.6489 H   0  0  0  0  0  0  0  0  0  0  0  0
    0.6289   -4.6075   -5.5819 H   0  0  0  0  0  0  0  0  0  0  0  0
    0.9705   -4.6857   -3.8202 H   0  0  0  0  0  0  0  0  0  0  0  0
   -0.5089   -5.4591   -4.4835 H   0  0  0  0  0  0  0  0  0  0  0  0
 25 27  1  0  0  0  0
 26 27  2  0  0  0  0
 23 25  2  0  0  0  0
 24 26  1  0  0  0  0
 22 23  1  0  0  0  0
 22 24  2  0  0  0  0
 21 22  1  0  0  0  0
  1  3  1  0  0  0  0
  1  7  1  0  0  0  0
  1  2  2  0  0  0  0
 38 39  1  0  0  0  0
 39 47  1  0  0  0  0
 39 40  2  0  0  0  0
  8  9  1  0  0  0  0
  9 17  1  0  0  0  0
  9 10  2  0  0  0  0
 18 19  1  0  0  0  0
 19 37  1  0  0  0  0
 19 20  2  0  0  0  0
 38 41  1  0  0  0  0
  8 11  1  0  0  0  0
 47 48  1  0  0  0  0
 18 21  1  0  0  0  0
 37 38  1  0  0  0  0
  7  8  1  0  0  0  0
 17 18  1  0  0  0  0
 27 36  1  0  0  0  0
 25 34  1  0  0  0  0
 26 35  1  0  0  0  0
 23 32  1  0  0  0  0
 24 33  1  0  0  0  0
  3  4  1  0  0  0  0
  3  5  1  0  0  0  0
  3  6  1  0  0  0  0
 41 44  1  0  0  0  0
 41 45  1  0  0  0  0
 41 46  1  0  0  0  0
 11 14  1  0  0  0  0
 11 15  1  0  0  0  0
 11 16  1  0  0  0  0
 48 50  1  0  0  0  0
 48 51  1  0  0  0  0
 48 52  1  0  0  0  0
 21 30  1  0  0  0  0
 21 31  1  0  0  0  0
 38 43  1  0  0  0  0
  8 13  1  0  0  0  0
 18 29  1  0  0  0  0
 47 49  1  0  0  0  0
  7 12  1  0  0  0  0
 37 42  1  0  0  0  0
 17 28  1  0  0  0  0
M  END
$$$$

  -OEChem-05262214473D

 52 52  0     1  0  0  0  0  0999 V2000
   -1.8248    0.3424    3.9102 C   0  0  0  0  0  0  0  0  0  0  0  0
   -0.8774   -0.2723    3.4345 O   0  0  0  0  0  0  0  0  0  0  0  0
   -2.2566    0.0600    5.3109 C   0  0  0  0  0  0  0  0  0  0  0  0
   -3.0163   -0.7363    5.3643 H   0  0  0  0  0  0  0  0  0  0  0  0
   -1.4254   -0.2876    5.9452 H   0  0  0  0  0  0  0  0  0  0  0  0
   -2.6947    0.9149    5.8505 H   0  0  0  0  0  0  0  0  0  0  0  0
   -2.5745    1.3149    3.2691 N   0  0  0  0  0  0  0  0  0  0  0  0
   -2.3276    1.7409    1.9167 C   0  0  2  0  0  0  0  0  0  0  0  0
   -0.9926    1.1555    1.4755 C   0  0  0  0  0  0  0  0  0  0  0  0
   -0.1206    0.8028    2.2668 O   0  0  0  0  0  0  0  0  0  0  0  0
   -2.3188    3.2577    1.8072 C   0  0  0  0  0  0  0  0  0  0  0  0
   -3.3395    1.7507    3.7809 H   0  0  0  0  0  0  0  0  0  0  0  0
   -3.1317    1.3224    1.3015 H   0  0  0  0  0  0  0  0  0  0  0  0
   -1.5198    3.6949    2.4169 H   0  0  0  0  0  0  0  0  0  0  0  0
   -2.1594    3.5799    0.7729 H   0  0  0  0  0  0  0  0  0  0  0  0
   -3.2690    3.6789    2.1530 H   0  0  0  0  0  0  0  0  0  0  0  0
   -0.8700    1.1124    0.0921 N   0  0  0  0  0  0  0  0  0  0  0  0
    0.3073    0.6116   -0.5716 C   0  0  2  0  0  0  0  0  0  0  0  0
   -0.1283   -0.5680   -1.4336 C   0  0  0  0  0  0  0  0  0  0  0  0
   -0.4431   -1.6595   -0.9642 O   0  0  0  0  0  0  0  0  0  0  0  0
    1.3902    0.1746    0.4217 C   0  0  0  0  0  0  0  0  0  0  0  0
    1.9725    1.3315    1.1966 C   0  0  0  0  0  0  0  0  0  0  0  0
    2.9593    2.1314    0.6203 C   0  0  0  0  0  0  0  0  0  0  0  0
    1.5233    1.6008    2.4894 C   0  0  0  0  0  0  0  0  0  0  0  0
    3.4969    3.2006    1.3369 C   0  0  0  0  0  0  0  0  0  0  0  0
    2.0609    2.6699    3.2060 C   0  0  0  0  0  0  0  0  0  0  0  0
    3.0477    3.4699    2.6297 C   0  0  0  0  0  0  0  0  0  0  0  0
   -1.6531    1.4091   -0.4852 H   0  0  0  0  0  0  0  0  0  0  0  0
    0.6663    1.4181   -1.2218 H   0  0  0  0  0  0  0  0  0  0  0  0
    2.1936   -0.3606   -0.1025 H   0  0  0  0  0  0  0  0  0  0  0  0
    0.9826   -0.5495    1.1395 H   0  0  0  0  0  0  0  0  0  0  0  0
    3.3153    1.9292   -0.3864 H   0  0  0  0  0  0  0  0  0  0  0  0
    0.7547    0.9830    2.9463 H   0  0  0  0  0  0  0  0  0  0  0  0
    4.2660    3.8227    0.8885 H   0  0  0  0  0  0  0  0  0  0  0  0
    1.7117    2.8786    4.2128 H   0  0  0  0  0  0  0  0  0  0  0  0
    3.4674    4.3016    3.1880 H   0  0  0  0  0  0  0  0  0  0  0  0
   -0.1704   -0.2390   -2.7813 N   0  0  0  0  0  0  0  0  0  0  0  0
   -0.5732   -1.1679   -3.8127 C   0  0  2  0  0  0  0  0  0  0  0  0
    0.2129   -2.4576   -3.6172 C   0  0  0  0  0  0  0  0  0  0  0  0
    1.2817   -2.5065   -3.0120 O   0  0  0  0  0  0  0  0  0  0  0  0
   -0.3359   -0.5916   -5.1999 C   0  0  0  0  0  0  0  0  0  0  0  0
    0.0953    0.7019   -3.0567 H   0  0  0  0  0  0  0  0  0  0  0  0
   -1.6405   -1.3638   -3.6626 H   0  0  0  0  0  0  0  0  0  0  0  0
    0.7280   -0.3888   -5.3687 H   0  0  0  0  0  0  0  0  0  0  0  0
   -0.6680   -1.2849   -5.9797 H   0  0  0  0  0  0  0  0  0  0  0  0
   -0.8784    0.3513   -5.3282 H   0  0  0  0  0  0  0  0  0  0  0  0
   -0.3979   -3.5398   -4.2352 N   0  0  0  0  0  0  0  0  0  0  0  0
    0.1596   -4.8718   -4.2044 C   0  0  0  0  0  0  0  0  0  0  0  0
   -1.2925   -3.4111   -4.6987 H   0  0  0  0  0  0  0  0  0  0  0  0
    0.7916   -5.0260   -5.0915 H   0  0  0  0  0  0  0  0  0  0  0  0
    0.7673   -4.9940   -3.2957 H   0  0  0  0  0  0  0  0  0  0  0  0
   -0.6556   -5.6104   -4.2024 H   0  0  0  0  0  0  0  0  0  0  0  0
 25 27  1  0  0  0  0
 26 27  2  0  0  0  0
 23 25  2  0  0  0  0
 24 26  1  0  0  0  0
 22 23  1  0  0  0  0
 22 24  2  0  0  0  0
 21 22  1  0  0  0  0
  1  3  1  0  0  0  0
  1  7  1  0  0  0  0
  1  2  2  0  0  0  0
 38 39  1  0  0  0  0
 39 47  1  0  0  0  0
 39 40  2  0  0  0  0
  8  9  1  0  0  0  0
  9 17  1  0  0  0  0
  9 10  2  0  0  0  0
 18 19  1  0  0  0  0
 19 37  1  0  0  0  0
 19 20  2  0  0  0  0
 38 41  1  0  0  0  0
  8 11  1  0  0  0  0
 47 48  1  0  0  0  0
 18 21  1  0  0  0  0
 37 38  1  0  0  0  0
  7  8  1  0  0  0  0
 17 18  1  0  0  0  0
 27 36  1  0  0  0  0
 25 34  1  0  0  0  0
 26 35  1  0  0  0  0
 23 32  1  0  0  0  0
 24 33  1  0  0  0  0
  3  4  1  0  0  0  0
  3  5  1  0  0  0  0
  3  6  1  0  0  0  0
 41 44  1  0  0  0  0
 41 45  1  0  0  0  0
 41 46  1  0  0  0  0
 11 14  1  0  0  0  0
 11 15  1  0  0  0  0
 11 16  1  0  0  0  0
 48 50  1  0  0  0  0
 48 51  1  0  0  0  0
 48 52  1  0  0  0  0
 21 30  1  0  0  0  0
 21 31  1  0  0  0  0
 38 43  1  0  0  0  0
  8 13  1  0  0  0  0
 18 29  1  0  0  0  0
 47 49  1  0  0  0  0
  7 12  1  0  0  0  0
 37 42  1  0  0  0  0
 17 28  1  0  0  0  0
M  END
$$$$

  -OEChem-05262214473D

 52 52  0     1  0  0  0  0  0999 V2000
   -1.8248    0.3424    3.9102 C   0  0  0  0  0  0  0  0  0  0  0  0
   -0.8774   -0.2723    3.4345 O   0  0  0  0  0  0  0  0  0  0  0  0
   -2.2566    0.0600    5.3109 C   0  0  0  0  0  0  0  0  0  0  0  0
   -3.0163   -0.7363    5.3643 H   0  0  0  0  0  0  0  0  0  0  0  0
   -1.4254   -0.2876    5.9452 H   0  0  0  0  0  0  0  0  0  0  0  0
   -2.6947    0.9149    5.8505 H   0  0  0  0  0  0  0  0  0  0  0  0
   -2.5745    1.3149    3.2691 N   0  0  0  0  0  0  0  0  0  0  0  0
   -2.3276    1.7409    1.9167 C   0  0  2  0  0  0  0  0  0  0  0  0
   -0.9926    1.1555    1.4755 C   0  0  0  0  0  0  0  0  0  0  0  0
   -0.1206    0.8028    2.2668 O   0  0  0  0  0  0  0  0  0  0  0  0
   -2.3188    3.2577    1.8072 C   0  0  0  0  0  0  0  0  0  0  0  0
   -3.3395    1.7507    3.7809 H   0  0  0  0  0  0  0  0  0  0  0  0
   -3.1317    1.3224    1.3015 H   0  0  0  0  0  0  0  0  0  0  0  0
   -1.5198    3.6949    2.4169 H   0  0  0  0  0  0  0  0  0  0  0  0
   -2.1594    3.5799    0.7729 H   0  0  0  0  0  0  0  0  0  0  0  0
   -3.2690    3.6789    2.1530 H   0  0  0  0  0  0  0  0  0  0  0  0
   -0.8700    1.1124    0.0921 N   0  0  0  0  0  0  0  0  0  0  0  0
    0.3073    0.6116   -0.5716 C   0  0  2  0  0  0  0  0  0  0  0  0
   -0.1283   -0.5680   -1.4336 C   0  0  0  0  0  0  0  0  0  0  0  0
   -0.6927   -1.5591   -0.9754 O   0  0  0  0  0  0  0  0  0  0  0  0
    1.3902    0.1746    0.4217 C   0  0  0  0  0  0  0  0  0  0  0  0
    1.9725    1.3315    1.1966 C   0  0  0  0  0  0  0  0  0  0  0  0
    2.9593    2.1314    0.6203 C   0  0  0  0  0  0  0  0  0  0  0  0
    1.5233    1.6008    2.4894 C   0  0  0  0  0  0  0  0  0  0  0  0
    3.4969    3.2006    1.3369 C   0  0  0  0  0  0  0  0  0  0  0  0
    2.0609    2.6699    3.2060 C   0  0  0  0  0  0  0  0  0  0  0  0
    3.0477    3.4699    2.6297 C   0  0  0  0  0  0  0  0  0  0  0  0
   -1.6531    1.4091   -0.4852 H   0  0  0  0  0  0  0  0  0  0  0  0
    0.6663    1.4181   -1.2218 H   0  0  0  0  0  0  0  0  0  0  0  0
    2.1936   -0.3606   -0.1025 H   0  0  0  0  0  0  0  0  0  0  0  0
    0.9826   -0.5495    1.1395 H   0  0  0  0  0  0  0  0  0  0  0  0
    3.3153    1.9292   -0.3864 H   0  0  0  0  0  0  0  0  0  0  0  0
    0.7547    0.9830    2.9463 H   0  0  0  0  0  0  0  0  0  0  0  0
    4.2660    3.8227    0.8885 H   0  0  0  0  0  0  0  0  0  0  0  0
    1.7117    2.8786    4.2128 H   0  0  0  0  0  0  0  0  0  0  0  0
    3.4674    4.3016    3.1880 H   0  0  0  0  0  0  0  0  0  0  0  0
    0.1440   -0.3574   -2.7782 N   0  0  0  0  0  0  0  0  0  0  0  0
   -0.1883   -1.3093   -3.8137 C   0  0  2  0  0  0  0  0  0  0  0  0
    0.3367   -2.6731   -3.3849 C   0  0  0  0  0  0  0  0  0  0  0  0
    1.2467   -2.8160   -2.5709 O   0  0  0  0  0  0  0  0  0  0  0  0
    0.4005   -0.8971   -5.1539 C   0  0  0  0  0  0  0  0  0  0  0  0
    0.5998    0.5093   -3.0480 H   0  0  0  0  0  0  0  0  0  0  0  0
   -1.2816   -1.3410   -3.8751 H   0  0  0  0  0  0  0  0  0  0  0  0
    1.4951   -0.8598   -5.1118 H   0  0  0  0  0  0  0  0  0  0  0  0
    0.1240   -1.6041   -5.9430 H   0  0  0  0  0  0  0  0  0  0  0  0
    0.0450    0.0968   -5.4465 H   0  0  0  0  0  0  0  0  0  0  0  0
   -0.3011   -3.7107   -4.0503 N   0  0  0  0  0  0  0  0  0  0  0  0
    0.0279   -5.0992   -3.8269 C   0  0  0  0  0  0  0  0  0  0  0  0
   -1.0576   -3.5007   -4.6948 H   0  0  0  0  0  0  0  0  0  0  0  0
    0.7892   -5.4177   -4.5542 H   0  0  0  0  0  0  0  0  0  0  0  0
    0.4209   -5.2232   -2.8069 H   0  0  0  0  0  0  0  0  0  0  0  0
   -0.8758   -5.7143   -3.9490 H   0  0  0  0  0  0  0  0  0  0  0  0
 25 27  1  0  0  0  0
 26 27  2  0  0  0  0
 23 25  2  0  0  0  0
 24 26  1  0  0  0  0
 22 23  1  0  0  0  0
 22 24  2  0  0  0  0
 21 22  1  0  0  0  0
  1  3  1  0  0  0  0
  1  7  1  0  0  0  0
  1  2  2  0  0  0  0
 38 39  1  0  0  0  0
 39 47  1  0  0  0  0
 39 40  2  0  0  0  0
  8  9  1  0  0  0  0
  9 17  1  0  0  0  0
  9 10  2  0  0  0  0
 18 19  1  0  0  0  0
 19 37  1  0  0  0  0
 19 20  2  0  0  0  0
 38 41  1  0  0  0  0
  8 11  1  0  0  0  0
 47 48  1  0  0  0  0
 18 21  1  0  0  0  0
 37 38  1  0  0  0  0
  7  8  1  0  0  0  0
 17 18  1  0  0  0  0
 27 36  1  0  0  0  0
 25 34  1  0  0  0  0
 26 35  1  0  0  0  0
 23 32  1  0  0  0  0
 24 33  1  0  0  0  0
  3  4  1  0  0  0  0
  3  5  1  0  0  0  0
  3  6  1  0  0  0  0
 41 44  1  0  0  0  0
 41 45  1  0  0  0  0
 41 46  1  0  0  0  0
 11 14  1  0  0  0  0
 11 15  1  0  0  0  0
 11 16  1  0  0  0  0
 48 50  1  0  0  0  0
 48 51  1  0  0  0  0
 48 52  1  0  0  0  0
 21 30  1  0  0  0  0
 21 31  1  0  0  0  0
 38 43  1  0  0  0  0
  8 13  1  0  0  0  0
 18 29  1  0  0  0  0
 47 49  1  0  0  0  0
  7 12  1  0  0  0  0
 37 42  1  0  0  0  0
 17 28  1  0  0  0  0
M  END
$$$$

  -OEChem-05262214473D

 52 52  0     1  0  0  0  0  0999 V2000
   -1.8248    0.3424    3.9102 C   0  0  0  0  0  0  0  0  0  0  0  0
   -0.8774   -0.2723    3.4345 O   0  0  0  0  0  0  0  0  0  0  0  0
   -2.2566    0.0600    5.3109 C   0  0  0  0  0  0  0  0  0  0  0  0
   -3.0163   -0.7363    5.3643 H   0  0  0  0  0  0  0  0  0  0  0  0
   -1.4254   -0.2876    5.9452 H   0  0  0  0  0  0  0  0  0  0  0  0
   -2.6947    0.9149    5.8505 H   0  0  0  0  0  0  0  0  0  0  0  0
   -2.5745    1.3149    3.2691 N   0  0  0  0  0  0  0  0  0  0  0  0
   -2.3276    1.7409    1.9167 C   0  0  2  0  0  0  0  0  0  0  0  0
   -0.9926    1.1555    1.4755 C   0  0  0  0  0  0  0  0  0  0  0  0
   -0.1206    0.8028    2.2668 O   0  0  0  0  0  0  0  0  0  0  0  0
   -2.3188    3.2577    1.8072 C   0  0  0  0  0  0  0  0  0  0  0  0
   -3.3395    1.7507    3.7809 H   0  0  0  0  0  0  0  0  0  0  0  0
   -3.1317    1.3224    1.3015 H   0  0  0  0  0  0  0  0  0  0  0  0
   -1.5198    3.6949    2.4169 H   0  0  0  0  0  0  0  0  0  0  0  0
   -2.1594    3.5799    0.7729 H   0  0  0  0  0  0  0  0  0  0  0  0
   -3.2690    3.6789    2.1530 H   0  0  0  0  0  0  0  0  0  0  0  0
   -0.8700    1.1124    0.0921 N   0  0  0  0  0  0  0  0  0  0  0  0
    0.3073    0.6116   -0.5716 C   0  0  2  0  0  0  0  0  0  0  0  0
   -0.1283   -0.5680   -1.4336 C   0  0  0  0  0  0  0  0  0  0  0  0
   -0.9167   -1.4265   -1.0436 O   0  0  0  0  0  0  0  0  0  0  0  0
    1.3902    0.1746    0.4217 C   0  0  0  0  0  0  0  0  0  0  0  0
    1.9725    1.3315    1.1966 C   0  0  0  0  0  0  0  0  0  0  0  0
    2.9593    2.1314    0.6203 C   0  0  0  0  0  0  0  0  0  0  0  0
    1.5233    1.6008    2.4894 C   0  0  0  0  0  0  0  0  0  0  0  0
    3.4969    3.2006    1.3369 C   0  0  0  0  0  0  0  0  0  0  0  0
    2.0609    2.6699    3.2060 C   0  0  0  0  0  0  0  0  0  0  0  0
    3.0477    3.4699    2.6297 C   0  0  0  0  0  0  0  0  0  0  0  0
   -1.6531    1.4091   -0.4852 H   0  0  0  0  0  0  0  0  0  0  0  0
    0.6663    1.4181   -1.2218 H   0  0  0  0  0  0  0  0  0  0  0  0
    2.1936   -0.3606   -0.1025 H   0  0  0  0  0  0  0  0  0  0  0  0
    0.9826   -0.5495    1.1395 H   0  0  0  0  0  0  0  0  0  0  0  0
    3.3153    1.9292   -0.3864 H   0  0  0  0  0  0  0  0  0  0  0  0
    0.7547    0.9830    2.9463 H   0  0  0  0  0  0  0  0  0  0  0  0
    4.2660    3.8227    0.8885 H   0  0  0  0  0  0  0  0  0  0  0  0
    1.7117    2.8786    4.2128 H   0  0  0  0  0  0  0  0  0  0  0  0
    3.4674    4.3016    3.1880 H   0  0  0  0  0  0  0  0  0  0  0  0
    0.4298   -0.5176   -2.7034 N   0  0  0  0  0  0  0  0  0  0  0  0
    0.1630   -1.5023   -3.7271 C   0  0  2  0  0  0  0  0  0  0  0  0
    0.3782   -2.8823   -3.1197 C   0  0  0  0  0  0  0  0  0  0  0  0
    1.0793   -3.0771   -2.1289 O   0  0  0  0  0  0  0  0  0  0  0  0
    1.0578   -1.2966   -4.9394 C   0  0  0  0  0  0  0  0  0  0  0  0
    1.0572    0.2500   -2.9244 H   0  0  0  0  0  0  0  0  0  0  0  0
   -0.8889   -1.3873   -4.0102 H   0  0  0  0  0  0  0  0  0  0  0  0
    2.1158   -1.4080   -4.6753 H   0  0  0  0  0  0  0  0  0  0  0  0
    0.8349   -2.0256   -5.7254 H   0  0  0  0  0  0  0  0  0  0  0  0
    0.9234   -0.2929   -5.3571 H   0  0  0  0  0  0  0  0  0  0  0  0
   -0.2697   -3.8762   -3.8396 N   0  0  0  0  0  0  0  0  0  0  0  0
   -0.2081   -5.2715   -3.4717 C   0  0  0  0  0  0  0  0  0  0  0  0
   -0.8447   -3.6214   -4.6372 H   0  0  0  0  0  0  0  0  0  0  0  0
    0.6220   -5.7560   -4.0067 H   0  0  0  0  0  0  0  0  0  0  0  0
   -0.0452   -5.3578   -2.3873 H   0  0  0  0  0  0  0  0  0  0  0  0
   -1.1544   -5.7637   -3.7406 H   0  0  0  0  0  0  0  0  0  0  0  0
 25 27  1  0  0  0  0
 26 27  2  0  0  0  0
 23 25  2  0  0  0  0
 24 26  1  0  0  0  0
 22 23  1  0  0  0  0
 22 24  2  0  0  0  0
 21 22  1  0  0  0  0
  1  3  1  0  0  0  0
  1  7  1  0  0  0  0
  1  2  2  0  0  0  0
 38 39  1  0  0  0  0
 39 47  1  0  0  0  0
 39 40  2  0  0  0  0
  8  9  1  0  0  0  0
  9 17  1  0  0  0  0
  9 10  2  0  0  0  0
 18 19  1  0  0  0  0
 19 37  1  0  0  0  0
 19 20  2  0  0  0  0
 38 41  1  0  0  0  0
  8 11  1  0  0  0  0
 47 48  1  0  0  0  0
 18 21  1  0  0  0  0
 37 38  1  0  0  0  0
  7  8  1  0  0  0  0
 17 18  1  0  0  0  0
 27 36  1  0  0  0  0
 25 34  1  0  0  0  0
 26 35  1  0  0  0  0
 23 32  1  0  0  0  0
 24 33  1  0  0  0  0
  3  4  1  0  0  0  0
  3  5  1  0  0  0  0
  3  6  1  0  0  0  0
 41 44  1  0  0  0  0
 41 45  1  0  0  0  0
 41 46  1  0  0  0  0
 11 14  1  0  0  0  0
 11 15  1  0  0  0  0
 11 16  1  0  0  0  0
 48 50  1  0  0  0  0
 48 51  1  0  0  0  0
 48 52  1  0  0  0  0
 21 30  1  0  0  0  0
 21 31  1  0  0  0  0
 38 43  1  0  0  0  0
  8 13  1  0  0  0  0
 18 29  1  0  0  0  0
 47 49  1  0  0  0  0
  7 12  1  0  0  0  0
 37 42  1  0  0  0  0
 17 28  1  0  0  0  0
M  END
$$$$

  -OEChem-05262214473D

 52 52  0     1  0  0  0  0  0999 V2000
   -1.8248    0.3424    3.9102 C   0  0  0  0  0  0  0  0  0  0  0  0
   -0.8774   -0.2723    3.4345 O   0  0  0  0  0  0  0  0  0  0  0  0
   -2.2566    0.0600    5.3109 C   0  0  0  0  0  0  0  0  0  0  0  0
   -3.0163   -0.7363    5.3643 H   0  0  0  0  0  0  0  0  0  0  0  0
   -1.4254   -0.2876    5.9452 H   0  0  0  0  0  0  0  0  0  0  0  0
   -2.6947    0.9149    5.8505 H   0  0  0  0  0  0  0  0  0  0  0  0
   -2.5745    1.3149    3.2691 N   0  0  0  0  0  0  0  0  0  0  0  0
   -2.3276    1.7409    1.9167 C   0  0  2  0  0  0  0  0  0  0  0  0
   -0.9926    1.1555    1.4755 C   0  0  0  0  0  0  0  0  0  0  0  0
   -0.1206    0.8028    2.2668 O   0  0  0  0  0  0  0  0  0  0  0  0
   -2.3188    3.2577    1.8072 C   0  0  0  0  0  0  0  0  0  0  0  0
   -3.3395    1.7507    3.7809 H   0  0  0  0  0  0  0  0  0  0  0  0
   -3.1317    1.3224    1.3015 H   0  0  0  0  0  0  0  0  0  0  0  0
   -1.5198    3.6949    2.4169 H   0  0  0  0  0  0  0  0  0  0  0  0
   -2.1594    3.5799    0.7729 H   0  0  0  0  0  0  0  0  0  0  0  0
   -3.2690    3.6789    2.1530 H   0  0  0  0  0  0  0  0  0  0  0  0
   -0.8700    1.1124    0.0921 N   0  0  0  0  0  0  0  0  0  0  0  0
    0.3073    0.6116   -0.5716 C   0  0  2  0  0  0  0  0  0  0  0  0
   -0.1283   -0.5680   -1.4336 C   0  0  0  0  0  0  0  0  0  0  0  0
   -1.1001   -1.2707   -1.1642 O   0  0  0  0  0  0  0  0  0  0  0  0
    1.3902    0.1746    0.4217 C   0  0  0  0  0  0  0  0  0  0  0  0
    1.9725    1.3315    1.1966 C   0  0  0  0  0  0  0  0  0  0  0  0
    2.9593    2.1314    0.6203 C   0  0  0  0  0  0  0  0  0  0  0  0
    1.5233    1.6008    2.4894 C   0  0  0  0  0  0  0  0  0  0  0  0
    3.4969    3.2006    1.3369 C   0  0  0  0  0  0  0  0  0  0  0  0
    2.0609    2.6699    3.2060 C   0  0  0  0  0  0  0  0  0  0  0  0
    3.0477    3.4699    2.6297 C   0  0  0  0  0  0  0  0  0  0  0  0
   -1.6531    1.4091   -0.4852 H   0  0  0  0  0  0  0  0  0  0  0  0
    0.6663    1.4181   -1.2218 H   0  0  0  0  0  0  0  0  0  0  0  0
    2.1936   -0.3606   -0.1025 H   0  0  0  0  0  0  0  0  0  0  0  0
    0.9826   -0.5495    1.1395 H   0  0  0  0  0  0  0  0  0  0  0  0
    3.3153    1.9292   -0.3864 H   0  0  0  0  0  0  0  0  0  0  0  0
    0.7547    0.9830    2.9463 H   0  0  0  0  0  0  0  0  0  0  0  0
    4.2660    3.8227    0.8885 H   0  0  0  0  0  0  0  0  0  0  0  0
    1.7117    2.8786    4.2128 H   0  0  0  0  0  0  0  0  0  0  0  0
    3.4674    4.3016    3.1880 H   0  0  0  0  0  0  0  0  0  0  0  0
    0.6674   -0.7086   -2.5621 N   0  0  0  0  0  0  0  0  0  0  0  0
    0.4568   -1.7338   -3.5588 C   0  0  2  0  0  0  0  0  0  0  0  0
    0.3346   -3.0708   -2.8397 C   0  0  0  0  0  0  0  0  0  0  0  0
    0.7908   -3.2722   -1.7161 O   0  0  0  0  0  0  0  0  0  0  0  0
    1.5914   -1.7627   -4.5711 C   0  0  0  0  0  0  0  0  0  0  0  0
    1.4363   -0.0582   -2.6942 H   0  0  0  0  0  0  0  0  0  0  0  0
   -0.4894   -1.4995   -4.0586 H   0  0  0  0  0  0  0  0  0  0  0  0
    2.5476   -1.9960   -4.0888 H   0  0  0  0  0  0  0  0  0  0  0  0
    1.4163   -2.5207   -5.3417 H   0  0  0  0  0  0  0  0  0  0  0  0
    1.6970   -0.7913   -5.0660 H   0  0  0  0  0  0  0  0  0  0  0  0
   -0.3058   -4.0252   -3.6176 N   0  0  0  0  0  0  0  0  0  0  0  0
   -0.5324   -5.3772   -3.1632 C   0  0  0  0  0  0  0  0  0  0  0  0
   -0.6682   -3.7648   -4.5301 H   0  0  0  0  0  0  0  0  0  0  0  0
    0.3013   -6.0179   -3.4864 H   0  0  0  0  0  0  0  0  0  0  0  0
   -0.5991   -5.3886   -2.0653 H   0  0  0  0  0  0  0  0  0  0  0  0
   -1.4724   -5.7552   -3.5915 H   0  0  0  0  0  0  0  0  0  0  0  0
 25 27  1  0  0  0  0
 26 27  2  0  0  0  0
 23 25  2  0  0  0  0
 24 26  1  0  0  0  0
 22 23  1  0  0  0  0
 22 24  2  0  0  0  0
 21 22  1  0  0  0  0
  1  3  1  0  0  0  0
  1  7  1  0  0  0  0
  1  2  2  0  0  0  0
 38 39  1  0  0  0  0
 39 47  1  0  0  0  0
 39 40  2  0  0  0  0
  8  9  1  0  0  0  0
  9 17  1  0  0  0  0
  9 10  2  0  0  0  0
 18 19  1  0  0  0  0
 19 37  1  0  0  0  0
 19 20  2  0  0  0  0
 38 41  1  0  0  0  0
  8 11  1  0  0  0  0
 47 48  1  0  0  0  0
 18 21  1  0  0  0  0
 37 38  1  0  0  0  0
  7  8  1  0  0  0  0
 17 18  1  0  0  0  0
 27 36  1  0  0  0  0
 25 34  1  0  0  0  0
 26 35  1  0  0  0  0
 23 32  1  0  0  0  0
 24 33  1  0  0  0  0
  3  4  1  0  0  0  0
  3  5  1  0  0  0  0
  3  6  1  0  0  0  0
 41 44  1  0  0  0  0
 41 45  1  0  0  0  0
 41 46  1  0  0  0  0
 11 14  1  0  0  0  0
 11 15  1  0  0  0  0
 11 16  1  0  0  0  0
 48 50  1  0  0  0  0
 48 51  1  0  0  0  0
 48 52  1  0  0  0  0
 21 30  1  0  0  0  0
 21 31  1  0  0  0  0
 38 43  1  0  0  0  0
  8 13  1  0  0  0  0
 18 29  1  0  0  0  0
 47 49  1  0  0  0  0
  7 12  1  0  0  0  0
 37 42  1  0  0  0  0
 17 28  1  0  0  0  0
M  END
$$$$

  -OEChem-05262214473D

 52 52  0     1  0  0  0  0  0999 V2000
   -1.8248    0.3424    3.9102 C   0  0  0  0  0  0  0  0  0  0  0  0
   -0.8774   -0.2723    3.4345 O   0  0  0  0  0  0  0  0  0  0  0  0
   -2.2566    0.0600    5.3109 C   0  0  0  0  0  0  0  0  0  0  0  0
   -3.0163   -0.7363    5.3643 H   0  0  0  0  0  0  0  0  0  0  0  0
   -1.4254   -0.2876    5.9452 H   0  0  0  0  0  0  0  0  0  0  0  0
   -2.6947    0.9149    5.8505 H   0  0  0  0  0  0  0  0  0  0  0  0
   -2.5745    1.3149    3.2691 N   0  0  0  0  0  0  0  0  0  0  0  0
   -2.3276    1.7409    1.9167 C   0  0  2  0  0  0  0  0  0  0  0  0
   -0.9926    1.1555    1.4755 C   0  0  0  0  0  0  0  0  0  0  0  0
   -0.1206    0.8028    2.2668 O   0  0  0  0  0  0  0  0  0  0  0  0
   -2.3188    3.2577    1.8072 C   0  0  0  0  0  0  0  0  0  0  0  0
   -3.3395    1.7507    3.7809 H   0  0  0  0  0  0  0  0  0  0  0  0
   -3.1317    1.3224    1.3015 H   0  0  0  0  0  0  0  0  0  0  0  0
   -1.5198    3.6949    2.4169 H   0  0  0  0  0  0  0  0  0  0  0  0
   -2.1594    3.5799    0.7729 H   0  0  0  0  0  0  0  0  0  0  0  0
   -3.2690    3.6789    2.1530 H   0  0  0  0  0  0  0  0  0  0  0  0
   -0.8700    1.1124    0.0921 N   0  0  0  0  0  0  0  0  0  0  0  0
    0.3073    0.6116   -0.5716 C   0  0  2  0  0  0  0  0  0  0  0  0
   -0.1283   -0.5680   -1.4336 C   0  0  0  0  0  0  0  0  0  0  0  0
   -1.2303   -1.1023   -1.3290 O   0  0  0  0  0  0  0  0  0  0  0  0
    1.3902    0.1746    0.4217 C   0  0  0  0  0  0  0  0  0  0  0  0
    1.9725    1.3315    1.1966 C   0  0  0  0  0  0  0  0  0  0  0  0
    2.9593    2.1314    0.6203 C   0  0  0  0  0  0  0  0  0  0  0  0
    1.5233    1.6008    2.4894 C   0  0  0  0  0  0  0  0  0  0  0  0
    3.4969    3.2006    1.3369 C   0  0  0  0  0  0  0  0  0  0  0  0
    2.0609    2.6699    3.2060 C   0  0  0  0  0  0  0  0  0  0  0  0
    3.0477    3.4699    2.6297 C   0  0  0  0  0  0  0  0  0  0  0  0
   -1.6531    1.4091   -0.4852 H   0  0  0  0  0  0  0  0  0  0  0  0
    0.6663    1.4181   -1.2218 H   0  0  0  0  0  0  0  0  0  0  0  0
    2.1936   -0.3606   -0.1025 H   0  0  0  0  0  0  0  0  0  0  0  0
    0.9826   -0.5495    1.1395 H   0  0  0  0  0  0  0  0  0  0  0  0
    3.3153    1.9292   -0.3864 H   0  0  0  0  0  0  0  0  0  0  0  0
    0.7547    0.9830    2.9463 H   0  0  0  0  0  0  0  0  0  0  0  0
    4.2660    3.8227    0.8885 H   0  0  0  0  0  0  0  0  0  0  0  0
    1.7117    2.8786    4.2128 H   0  0  0  0  0  0  0  0  0  0  0  0
    3.4674    4.3016    3.1880 H   0  0  0  0  0  0  0  0  0  0  0  0
    0.8406   -0.9174   -2.3640 N   0  0  0  0  0  0  0  0  0  0  0  0
    0.6730   -1.9879   -3.3203 C   0  0  2  0  0  0  0  0  0  0  0  0
    0.2089   -3.2257   -2.5641 C   0  0  0  0  0  0  0  0  0  0  0  0
    0.4009   -3.3879   -1.3608 O   0  0  0  0  0  0  0  0  0  0  0  0
    1.9647   -2.2639   -4.0740 C   0  0  0  0  0  0  0  0  0  0  0  0
    1.7113   -0.3943   -2.3732 H   0  0  0  0  0  0  0  0  0  0  0  0
   -0.1102   -1.6698   -4.0170 H   0  0  0  0  0  0  0  0  0  0  0  0
    2.7613   -2.5839   -3.3924 H   0  0  0  0  0  0  0  0  0  0  0  0
    1.8286   -3.0557   -4.8180 H   0  0  0  0  0  0  0  0  0  0  0  0
    2.3129   -1.3644   -4.5930 H   0  0  0  0  0  0  0  0  0  0  0  0
   -0.4068   -4.1473   -3.3994 N   0  0  0  0  0  0  0  0  0  0  0  0
   -0.9229   -5.4090   -2.9223 C   0  0  0  0  0  0  0  0  0  0  0  0
   -0.5402   -3.9213   -4.3807 H   0  0  0  0  0  0  0  0  0  0  0  0
   -0.1509   -6.1854   -3.0286 H   0  0  0  0  0  0  0  0  0  0  0  0
   -1.2031   -5.3134   -1.8629 H   0  0  0  0  0  0  0  0  0  0  0  0
   -1.8083   -5.6894   -3.5118 H   0  0  0  0  0  0  0  0  0  0  0  0
 25 27  1  0  0  0  0
 26 27  2  0  0  0  0
 23 25  2  0  0  0  0
 24 26  1  0  0  0  0
 22 23  1  0  0  0  0
 22 24  2  0  0  0  0
 21 22  1  0  0  0  0
  1  3  1  0  0  0  0
  1  7  1  0  0  0  0
  1  2  2  0  0  0  0
 38 39  1  0  0  0  0
 39 47  1  0  0  0  0
 39 40  2  0  0  0  0
  8  9  1  0  0  0  0
  9 17  1  0  0  0  0
  9 10  2  0  0  0  0
 18 19  1  0  0  0  0
 19 37  1  0  0  0  0
 19 20  2  0  0  0  0
 38 41  1  0  0  0  0
  8 11  1  0  0  0  0
 47 48  1  0  0  0  0
 18 21  1  0  0  0  0
 37 38  1  0  0  0  0
  7  8  1  0  0  0  0
 17 18  1  0  0  0  0
 27 36  1  0  0  0  0
 25 34  1  0  0  0  0
 26 35  1  0  0  0  0
 23 32  1  0  0  0  0
 24 33  1  0  0  0  0
  3  4  1  0  0  0  0
  3  5  1  0  0  0  0
  3  6  1  0  0  0  0
 41 44  1  0  0  0  0
 41 45  1  0  0  0  0
 41 46  1  0  0  0  0
 11 14  1  0  0  0  0
 11 15  1  0  0  0  0
 11 16  1  0  0  0  0
 48 50  1  0  0  0  0
 48 51  1  0  0  0  0
 48 52  1  0  0  0  0
 21 30  1  0  0  0  0
 21 31  1  0  0  0  0
 38 43  1  0  0  0  0
  8 13  1  0  0  0  0
 18 29  1  0  0  0  0
 47 49  1  0  0  0  0
  7 12  1  0  0  0  0
 37 42  1  0  0  0  0
 17 28  1  0  0  0  0
M  END
$$$$

  -OEChem-05262214473D

 52 52  0     1  0  0  0  0  0999 V2000
   -1.8248    0.3424    3.9102 C   0  0  0  0  0  0  0  0  0  0  0  0
   -0.8774   -0.2723    3.4345 O   0  0  0  0  0  0  0  0  0  0  0  0
   -2.2566    0.0600    5.3109 C   0  0  0  0  0  0  0  0  0  0  0  0
   -3.0163   -0.7363    5.3643 H   0  0  0  0  0  0  0  0  0  0  0  0
   -1.4254   -0.2876    5.9452 H   0  0  0  0  0  0  0  0  0  0  0  0
   -2.6947    0.9149    5.8505 H   0  0  0  0  0  0  0  0  0  0  0  0
   -2.5745    1.3149    3.2691 N   0  0  0  0  0  0  0  0  0  0  0  0
   -2.3276    1.7409    1.9167 C   0  0  2  0  0  0  0  0  0  0  0  0
   -0.9926    1.1555    1.4755 C   0  0  0  0  0  0  0  0  0  0  0  0
   -0.1206    0.8028    2.2668 O   0  0  0  0  0  0  0  0  0  0  0  0
   -2.3188    3.2577    1.8072 C   0  0  0  0  0  0  0  0  0  0  0  0
   -3.3395    1.7507    3.7809 H   0  0  0  0  0  0  0  0  0  0  0  0
   -3.1317    1.3224    1.3015 H   0  0  0  0  0  0  0  0  0  0  0  0
   -1.5198    3.6949    2.4169 H   0  0  0  0  0  0  0  0  0  0  0  0
   -2.1594    3.5799    0.7729 H   0  0  0  0  0  0  0  0  0  0  0  0
   -3.2690    3.6789    2.1530 H   0  0  0  0  0  0  0  0  0  0  0  0
   -0.8700    1.1124    0.0921 N   0  0  0  0  0  0  0  0  0  0  0  0
    0.3073    0.6116   -0.5716 C   0  0  2  0  0  0  0  0  0  0  0  0
   -0.1639   -0.2990   -1.6998 C   0  0  0  0  0  0  0  0  0  0  0  0
   -1.3512   -0.4828   -1.9597 O   0  0  0  0  0  0  0  0  0  0  0  0
    1.2280   -0.1564    0.3838 C   0  0  0  0  0  0  0  0  0  0  0  0
    1.8508    0.7312    1.4336 C   0  0  0  0  0  0  0  0  0  0  0  0
    2.9732    1.4987    1.1224 C   0  0  0  0  0  0  0  0  0  0  0  0
    1.3033    0.7840    2.7155 C   0  0  0  0  0  0  0  0  0  0  0  0
    3.5482    2.3189    2.0931 C   0  0  0  0  0  0  0  0  0  0  0  0
    1.8783    1.6043    3.6861 C   0  0  0  0  0  0  0  0  0  0  0  0
    3.0007    2.3718    3.3749 C   0  0  0  0  0  0  0  0  0  0  0  0
   -1.6531    1.4091   -0.4852 H   0  0  0  0  0  0  0  0  0  0  0  0
    0.8173    1.4816   -1.0018 H   0  0  0  0  0  0  0  0  0  0  0  0
    2.0175   -0.6711   -0.1804 H   0  0  0  0  0  0  0  0  0  0  0  0
    0.6720   -0.9541    0.8938 H   0  0  0  0  0  0  0  0  0  0  0  0
    3.4064    1.4640    0.1263 H   0  0  0  0  0  0  0  0  0  0  0  0
    0.4289    0.1896    2.9669 H   0  0  0  0  0  0  0  0  0  0  0  0
    4.4228    2.9157    1.8509 H   0  0  0  0  0  0  0  0  0  0  0  0
    1.4524    1.6443    4.6843 H   0  0  0  0  0  0  0  0  0  0  0  0
    3.4493    3.0095    4.1310 H   0  0  0  0  0  0  0  0  0  0  0  0
    0.8992   -0.8394   -2.4098 N   0  0  0  0  0  0  0  0  0  0  0  0
    0.7306   -1.7189   -3.5442 C   0  0  2  0  0  0  0  0  0  0  0  0
   -0.2406   -2.8216   -3.1441 C   0  0  0  0  0  0  0  0  0  0  0  0
   -0.4476   -3.1417   -1.9754 O   0  0  0  0  0  0  0  0  0  0  0  0
    2.0608   -2.3030   -3.9940 C   0  0  0  0  0  0  0  0  0  0  0  0
    1.8433   -0.6050   -2.1174 H   0  0  0  0  0  0  0  0  0  0  0  0
    0.2910   -1.1179   -4.3477 H   0  0  0  0  0  0  0  0  0  0  0  0
    2.5165   -2.9084   -3.2020 H   0  0  0  0  0  0  0  0  0  0  0  0
    1.9352   -2.9465   -4.8710 H   0  0  0  0  0  0  0  0  0  0  0  0
    2.7680   -1.5077   -4.2530 H   0  0  0  0  0  0  0  0  0  0  0  0
   -0.8167   -3.4353   -4.2475 N   0  0  0  0  0  0  0  0  0  0  0  0
   -1.7633   -4.5200   -4.1307 C   0  0  0  0  0  0  0  0  0  0  0  0
   -0.6016   -3.0924   -5.1791 H   0  0  0  0  0  0  0  0  0  0  0  0
   -1.2285   -5.4802   -4.1739 H   0  0  0  0  0  0  0  0  0  0  0  0
   -2.2959   -4.4399   -3.1716 H   0  0  0  0  0  0  0  0  0  0  0  0
   -2.4867   -4.4658   -4.9576 H   0  0  0  0  0  0  0  0  0  0  0  0
 25 27  1  0  0  0  0
 26 27  2  0  0  0  0
 23 25  2  0  0  0  0
 24 26  1  0  0  0  0
 22 23  1  0  0  0  0
 22 24  2  0  0  0  0
 21 22  1  0  0  0  0
  1  3  1  0  0  0  0
  1  7  1  0  0  0  0
  1  2  2  0  0  0  0
 38 39  1  0  0  0  0
 39 47  1  0  0  0  0
 39 40  2  0  0  0  0
  8  9  1  0  0  0  0
  9 17  1  0  0  0  0
  9 10  2  0  0  0  0
 18 19  1  0  0  0  0
 19 37  1  0  0  0  0
 19 20  2  0  0  0  0
 38 41  1  0  0  0  0
  8 11  1  0  0  0  0
 47 48  1  0  0  0  0
 18 21  1  0  0  0  0
 37 38  1  0  0  0  0
  7  8  1  0  0  0  0
 17 18  1  0  0  0  0
 27 36  1  0  0  0  0
 25 34  1  0  0  0  0
 26 35  1  0  0  0  0
 23 32  1  0  0  0  0
 24 33  1  0  0  0  0
  3  4  1  0  0  0  0
  3  5  1  0  0  0  0
  3  6  1  0  0  0  0
 41 44  1  0  0  0  0
 41 45  1  0  0  0  0
 41 46  1  0  0  0  0
 11 14  1  0  0  0  0
 11 15  1  0  0  0  0
 11 16  1  0  0  0  0
 48 50  1  0  0  0  0
 48 51  1  0  0  0  0
 48 52  1  0  0  0  0
 21 30  1  0  0  0  0
 21 31  1  0  0  0  0
 38 43  1  0  0  0  0
  8 13  1  0  0  0  0
 18 29  1  0  0  0  0
 47 49  1  0  0  0  0
  7 12  1  0  0  0  0
 37 42  1  0  0  0  0
 17 28  1  0  0  0  0
M  END
$$$$

  -OEChem-05262214473D

 52 52  0     1  0  0  0  0  0999 V2000
   -1.8248    0.3424    3.9102 C   0  0  0  0  0  0  0  0  0  0  0  0
   -0.8774   -0.2723    3.4345 O   0  0  0  0  0  0  0  0  0  0  0  0
   -2.2566    0.0600    5.3109 C   0  0  0  0  0  0  0  0  0  0  0  0
   -3.0163   -0.7363    5.3643 H   0  0  0  0  0  0  0  0  0  0  0  0
   -1.4254   -0.2876    5.9452 H   0  0  0  0  0  0  0  0  0  0  0  0
   -2.6947    0.9149    5.8505 H   0  0  0  0  0  0  0  0  0  0  0  0
   -2.5745    1.3149    3.2691 N   0  0  0  0  0  0  0  0  0  0  0  0
   -2.3276    1.7409    1.9167 C   0  0  2  0  0  0  0  0  0  0  0  0
   -0.9926    1.1555    1.4755 C   0  0  0  0  0  0  0  0  0  0  0  0
   -0.1206    0.8028    2.2668 O   0  0  0  0  0  0  0  0  0  0  0  0
   -2.3188    3.2577    1.8072 C   0  0  0  0  0  0  0  0  0  0  0  0
   -3.3395    1.7507    3.7809 H   0  0  0  0  0  0  0  0  0  0  0  0
   -3.1317    1.3224    1.3015 H   0  0  0  0  0  0  0  0  0  0  0  0
   -1.5198    3.6949    2.4169 H   0  0  0  0  0  0  0  0  0  0  0  0
   -2.1594    3.5799    0.7729 H   0  0  0  0  0  0  0  0  0  0  0  0
   -3.2690    3.6789    2.1530 H   0  0  0  0  0  0  0  0  0  0  0  0
   -0.8700    1.1124    0.0921 N   0  0  0  0  0  0  0  0  0  0  0  0
    0.3073    0.6116   -0.5716 C   0  0  2  0  0  0  0  0  0  0  0  0
   -0.1639   -0.2990   -1.6998 C   0  0  0  0  0  0  0  0  0  0  0  0
   -1.3128   -0.2836   -2.1365 O   0  0  0  0  0  0  0  0  0  0  0  0
    1.2280   -0.1564    0.3838 C   0  0  0  0  0  0  0  0  0  0  0  0
    1.8508    0.7312    1.4336 C   0  0  0  0  0  0  0  0  0  0  0  0
    2.9732    1.4987    1.1224 C   0  0  0  0  0  0  0  0  0  0  0  0
    1.3033    0.7840    2.7155 C   0  0  0  0  0  0  0  0  0  0  0  0
    3.5482    2.3189    2.0931 C   0  0  0  0  0  0  0  0  0  0  0  0
    1.8783    1.6043    3.6861 C   0  0  0  0  0  0  0  0  0  0  0  0
    3.0007    2.3718    3.3749 C   0  0  0  0  0  0  0  0  0  0  0  0
   -1.6531    1.4091   -0.4852 H   0  0  0  0  0  0  0  0  0  0  0  0
    0.8173    1.4816   -1.0018 H   0  0  0  0  0  0  0  0  0  0  0  0
    2.0175   -0.6711   -0.1804 H   0  0  0  0  0  0  0  0  0  0  0  0
    0.6720   -0.9541    0.8938 H   0  0  0  0  0  0  0  0  0  0  0  0
    3.4064    1.4640    0.1263 H   0  0  0  0  0  0  0  0  0  0  0  0
    0.4289    0.1896    2.9669 H   0  0  0  0  0  0  0  0  0  0  0  0
    4.4228    2.9157    1.8509 H   0  0  0  0  0  0  0  0  0  0  0  0
    1.4524    1.6443    4.6843 H   0  0  0  0  0  0  0  0  0  0  0  0
    3.4493    3.0095    4.1310 H   0  0  0  0  0  0  0  0  0  0  0  0
    0.8638   -1.0920   -2.1911 N   0  0  0  0  0  0  0  0  0  0  0  0
    0.6929   -2.0288   -3.2783 C   0  0  2  0  0  0  0  0  0  0  0  0
   -0.5253   -2.8894   -2.9705 C   0  0  0  0  0  0  0  0  0  0  0  0
   -0.9608   -3.0530   -1.8326 O   0  0  0  0  0  0  0  0  0  0  0  0
    1.9325   -2.8893   -3.4673 C   0  0  0  0  0  0  0  0  0  0  0  0
    1.7822   -1.0098   -1.7651 H   0  0  0  0  0  0  0  0  0  0  0  0
    0.5036   -1.4360   -4.1798 H   0  0  0  0  0  0  0  0  0  0  0  0
    2.1382   -3.4905   -2.5741 H   0  0  0  0  0  0  0  0  0  0  0  0
    1.8123   -3.5788   -4.3094 H   0  0  0  0  0  0  0  0  0  0  0  0
    2.8133   -2.2670   -3.6590 H   0  0  0  0  0  0  0  0  0  0  0  0
   -1.0431   -3.4878   -4.1106 N   0  0  0  0  0  0  0  0  0  0  0  0
   -2.1922   -4.3623   -4.0788 C   0  0  0  0  0  0  0  0  0  0  0  0
   -0.6300   -3.2808   -5.0151 H   0  0  0  0  0  0  0  0  0  0  0  0
   -1.8575   -5.4047   -3.9721 H   0  0  0  0  0  0  0  0  0  0  0  0
   -2.8334   -4.0941   -3.2262 H   0  0  0  0  0  0  0  0  0  0  0  0
   -2.7613   -4.2539   -5.0139 H   0  0  0  0  0  0  0  0  0  0  0  0
 25 27  1  0  0  0  0
 26 27  2  0  0  0  0
 23 25  2  0  0  0  0
 24 26  1  0  0  0  0
 22 23  1  0  0  0  0
 22 24  2  0  0  0  0
 21 22  1  0  0  0  0
  1  3  1  0  0  0  0
  1  7  1  0  0  0  0
  1  2  2  0  0  0  0
 38 39  1  0  0  0  0
 39 47  1  0  0  0  0
 39 40  2  0  0  0  0
  8  9  1  0  0  0  0
  9 17  1  0  0  0  0
  9 10  2  0  0  0  0
 18 19  1  0  0  0  0
 19 37  1  0  0  0  0
 19 20  2  0  0  0  0
 38 41  1  0  0  0  0
  8 11  1  0  0  0  0
 47 48  1  0  0  0  0
 18 21  1  0  0  0  0
 37 38  1  0  0  0  0
  7  8  1  0  0  0  0
 17 18  1  0  0  0  0
 27 36  1  0  0  0  0
 25 34  1  0  0  0  0
 26 35  1  0  0  0  0
 23 32  1  0  0  0  0
 24 33  1  0  0  0  0
  3  4  1  0  0  0  0
  3  5  1  0  0  0  0
  3  6  1  0  0  0  0
 41 44  1  0  0  0  0
 41 45  1  0  0  0  0
 41 46  1  0  0  0  0
 11 14  1  0  0  0  0
 11 15  1  0  0  0  0
 11 16  1  0  0  0  0
 48 50  1  0  0  0  0
 48 51  1  0  0  0  0
 48 52  1  0  0  0  0
 21 30  1  0  0  0  0
 21 31  1  0  0  0  0
 38 43  1  0  0  0  0
  8 13  1  0  0  0  0
 18 29  1  0  0  0  0
 47 49  1  0  0  0  0
  7 12  1  0  0  0  0
 37 42  1  0  0  0  0
 17 28  1  0  0  0  0
M  END
$$$$

  -OEChem-05262214473D

 52 52  0     1  0  0  0  0  0999 V2000
   -1.8248    0.3424    3.9102 C   0  0  0  0  0  0  0  0  0  0  0  0
   -0.8774   -0.2723    3.4345 O   0  0  0  0  0  0  0  0  0  0  0  0
   -2.2566    0.0600    5.3109 C   0  0  0  0  0  0  0  0  0  0  0  0
   -3.0163   -0.7363    5.3643 H   0  0  0  0  0  0  0  0  0  0  0  0
   -1.4254   -0.2876    5.9452 H   0  0  0  0  0  0  0  0  0  0  0  0
   -2.6947    0.9149    5.8505 H   0  0  0  0  0  0  0  0  0  0  0  0
   -2.5745    1.3149    3.2691 N   0  0  0  0  0  0  0  0  0  0  0  0
   -2.3276    1.7409    1.9167 C   0  0  2  0  0  0  0  0  0  0  0  0
   -0.9926    1.1555    1.4755 C   0  0  0  0  0  0  0  0  0  0  0  0
   -0.1206    0.8028    2.2668 O   0  0  0  0  0  0  0  0  0  0  0  0
   -2.3188    3.2577    1.8072 C   0  0  0  0  0  0  0  0  0  0  0  0
   -3.3395    1.7507    3.7809 H   0  0  0  0  0  0  0  0  0  0  0  0
   -3.1317    1.3224    1.3015 H   0  0  0  0  0  0  0  0  0  0  0  0
   -1.5198    3.6949    2.4169 H   0  0  0  0  0  0  0  0  0  0  0  0
   -2.1594    3.5799    0.7729 H   0  0  0  0  0  0  0  0  0  0  0  0
   -3.2690    3.6789    2.1530 H   0  0  0  0  0  0  0  0  0  0  0  0
   -0.8700    1.1124    0.0921 N   0  0  0  0  0  0  0  0  0  0  0  0
    0.3073    0.6116   -0.5716 C   0  0  2  0  0  0  0  0  0  0  0  0
   -0.1639   -0.2990   -1.6998 C   0  0  0  0  0  0  0  0  0  0  0  0
   -1.2103   -0.1126   -2.3174 O   0  0  0  0  0  0  0  0  0  0  0  0
    1.2280   -0.1564    0.3838 C   0  0  0  0  0  0  0  0  0  0  0  0
    1.8508    0.7312    1.4336 C   0  0  0  0  0  0  0  0  0  0  0  0
    2.9732    1.4987    1.1224 C   0  0  0  0  0  0  0  0  0  0  0  0
    1.3033    0.7840    2.7155 C   0  0  0  0  0  0  0  0  0  0  0  0
    3.5482    2.3189    2.0931 C   0  0  0  0  0  0  0  0  0  0  0  0
    1.8783    1.6043    3.6861 C   0  0  0  0  0  0  0  0  0  0  0  0
    3.0007    2.3718    3.3749 C   0  0  0  0  0  0  0  0  0  0  0  0
   -1.6531    1.4091   -0.4852 H   0  0  0  0  0  0  0  0  0  0  0  0
    0.8173    1.4816   -1.0018 H   0  0  0  0  0  0  0  0  0  0  0  0
    2.0175   -0.6711   -0.1804 H   0  0  0  0  0  0  0  0  0  0  0  0
    0.6720   -0.9541    0.8938 H   0  0  0  0  0  0  0  0  0  0  0  0
    3.4064    1.4640    0.1263 H   0  0  0  0  0  0  0  0  0  0  0  0
    0.4289    0.1896    2.9669 H   0  0  0  0  0  0  0  0  0  0  0  0
    4.4228    2.9157    1.8509 H   0  0  0  0  0  0  0  0  0  0  0  0
    1.4524    1.6443    4.6843 H   0  0  0  0  0  0  0  0  0  0  0  0
    3.4493    3.0095    4.1310 H   0  0  0  0  0  0  0  0  0  0  0  0
    0.7473   -1.3117   -1.9652 N   0  0  0  0  0  0  0  0  0  0  0  0
    0.5560   -2.2997   -3.0025 C   0  0  2  0  0  0  0  0  0  0  0  0
   -0.8402   -2.8865   -2.8413 C   0  0  0  0  0  0  0  0  0  0  0  0
   -1.4616   -2.8577   -1.7811 O   0  0  0  0  0  0  0  0  0  0  0  0
    1.6149   -3.3889   -2.9314 C   0  0  0  0  0  0  0  0  0  0  0  0
    1.5912   -1.3610   -1.4019 H   0  0  0  0  0  0  0  0  0  0  0  0
    0.6221   -1.7705   -3.9594 H   0  0  0  0  0  0  0  0  0  0  0  0
    1.5642   -3.9302   -1.9796 H   0  0  0  0  0  0  0  0  0  0  0  0
    1.4856   -4.1211   -3.7352 H   0  0  0  0  0  0  0  0  0  0  0  0
    2.6198   -2.9617   -3.0176 H   0  0  0  0  0  0  0  0  0  0  0  0
   -1.2930   -3.4843   -4.0091 N   0  0  0  0  0  0  0  0  0  0  0  0
   -2.5843   -4.1236   -4.1076 C   0  0  0  0  0  0  0  0  0  0  0  0
   -0.7189   -3.4443   -4.8461 H   0  0  0  0  0  0  0  0  0  0  0  0
   -2.4819   -5.1950   -3.8806 H   0  0  0  0  0  0  0  0  0  0  0  0
   -3.2779   -3.6615   -3.3897 H   0  0  0  0  0  0  0  0  0  0  0  0
   -2.9771   -4.0011   -5.1278 H   0  0  0  0  0  0  0  0  0  0  0  0
 25 27  1  0  0  0  0
 26 27  2  0  0  0  0
 23 25  2  0  0  0  0
 24 26  1  0  0  0  0
 22 23  1  0  0  0  0
 22 24  2  0  0  0  0
 21 22  1  0  0  0  0
  1  3  1  0  0  0  0
  1  7  1  0  0  0  0
  1  2  2  0  0  0  0
 38 39  1  0  0  0  0
 39 47  1  0  0  0  0
 39 40  2  0  0  0  0
  8  9  1  0  0  0  0
  9 17  1  0  0  0  0
  9 10  2  0  0  0  0
 18 19  1  0  0  0  0
 19 37  1  0  0  0  0
 19 20  2  0  0  0  0
 38 41  1  0  0  0  0
  8 11  1  0  0  0  0
 47 48  1  0  0  0  0
 18 21  1  0  0  0  0
 37 38  1  0  0  0  0
  7  8  1  0  0  0  0
 17 18  1  0  0  0  0
 27 36  1  0  0  0  0
 25 34  1  0  0  0  0
 26 35  1  0  0  0  0
 23 32  1  0  0  0  0
 24 33  1  0  0  0  0
  3  4  1  0  0  0  0
  3  5  1  0  0  0  0
  3  6  1  0  0  0  0
 41 44  1  0  0  0  0
 41 45  1  0  0  0  0
 41 46  1  0  0  0  0
 11 14  1  0  0  0  0
 11 15  1  0  0  0  0
 11 16  1  0  0  0  0
 48 50  1  0  0  0  0
 48 51  1  0  0  0  0
 48 52  1  0  0  0  0
 21 30  1  0  0  0  0
 21 31  1  0  0  0  0
 38 43  1  0  0  0  0
  8 13  1  0  0  0  0
 18 29  1  0  0  0  0
 47 49  1  0  0  0  0
  7 12  1  0  0  0  0
 37 42  1  0  0  0  0
 17 28  1  0  0  0  0
M  END
$$$$

  -OEChem-05262214473D

 52 52  0     1  0  0  0  0  0999 V2000
   -1.8248    0.3424    3.9102 C   0  0  0  0  0  0  0  0  0  0  0  0
   -0.8774   -0.2723    3.4345 O   0  0  0  0  0  0  0  0  0  0  0  0
   -2.2566    0.0600    5.3109 C   0  0  0  0  0  0  0  0  0  0  0  0
   -3.0163   -0.7363    5.3643 H   0  0  0  0  0  0  0  0  0  0  0  0
   -1.4254   -0.2876    5.9452 H   0  0  0  0  0  0  0  0  0  0  0  0
   -2.6947    0.9149    5.8505 H   0  0  0  0  0  0  0  0  0  0  0  0
   -2.5745    1.3149    3.2691 N   0  0  0  0  0  0  0  0  0  0  0  0
   -2.3276    1.7409    1.9167 C   0  0  2  0  0  0  0  0  0  0  0  0
   -0.9926    1.1555    1.4755 C   0  0  0  0  0  0  0  0  0  0  0  0
   -0.1206    0.8028    2.2668 O   0  0  0  0  0  0  0  0  0  0  0  0
   -2.3188    3.2577    1.8072 C   0  0  0  0  0  0  0  0  0  0  0  0
   -3.3395    1.7507    3.7809 H   0  0  0  0  0  0  0  0  0  0  0  0
   -3.1317    1.3224    1.3015 H   0  0  0  0  0  0  0  0  0  0  0  0
   -1.5198    3.6949    2.4169 H   0  0  0  0  0  0  0  0  0  0  0  0
   -2.1594    3.5799    0.7729 H   0  0  0  0  0  0  0  0  0  0  0  0
   -3.2690    3.6789    2.1530 H   0  0  0  0  0  0  0  0  0  0  0  0
   -0.8700    1.1124    0.0921 N   0  0  0  0  0  0  0  0  0  0  0  0
    0.3073    0.6116   -0.5716 C   0  0  2  0  0  0  0  0  0  0  0  0
   -0.1639   -0.2990   -1.6998 C   0  0  0  0  0  0  0  0  0  0  0  0
   -1.0505    0.0185   -2.4899 O   0  0  0  0  0  0  0  0  0  0  0  0
    1.2280   -0.1564    0.3838 C   0  0  0  0  0  0  0  0  0  0  0  0
    1.8508    0.7312    1.4336 C   0  0  0  0  0  0  0  0  0  0  0  0
    2.9732    1.4987    1.1224 C   0  0  0  0  0  0  0  0  0  0  0  0
    1.3033    0.7840    2.7155 C   0  0  0  0  0  0  0  0  0  0  0  0
    3.5482    2.3189    2.0931 C   0  0  0  0  0  0  0  0  0  0  0  0
    1.8783    1.6043    3.6861 C   0  0  0  0  0  0  0  0  0  0  0  0
    3.0007    2.3718    3.3749 C   0  0  0  0  0  0  0  0  0  0  0  0
   -1.6531    1.4091   -0.4852 H   0  0  0  0  0  0  0  0  0  0  0  0
    0.8173    1.4816   -1.0018 H   0  0  0  0  0  0  0  0  0  0  0  0
    2.0175   -0.6711   -0.1804 H   0  0  0  0  0  0  0  0  0  0  0  0
    0.6720   -0.9541    0.8938 H   0  0  0  0  0  0  0  0  0  0  0  0
    3.4064    1.4640    0.1263 H   0  0  0  0  0  0  0  0  0  0  0  0
    0.4289    0.1896    2.9669 H   0  0  0  0  0  0  0  0  0  0  0  0
    4.4228    2.9157    1.8509 H   0  0  0  0  0  0  0  0  0  0  0  0
    1.4524    1.6443    4.6843 H   0  0  0  0  0  0  0  0  0  0  0  0
    3.4493    3.0095    4.1310 H   0  0  0  0  0  0  0  0  0  0  0  0
    0.5578   -1.4835   -1.7473 N   0  0  0  0  0  0  0  0  0  0  0  0
    0.3292   -2.5130   -2.7356 C   0  0  2  0  0  0  0  0  0  0  0  0
   -1.1636   -2.8130   -2.7655 C   0  0  0  0  0  0  0  0  0  0  0  0
   -1.9159   -2.5689   -1.8244 O   0  0  0  0  0  0  0  0  0  0  0  0
    1.1296   -3.7678   -2.4229 C   0  0  0  0  0  0  0  0  0  0  0  0
    1.2833   -1.6345   -1.0526 H   0  0  0  0  0  0  0  0  0  0  0  0
    0.6385   -2.0987   -3.7013 H   0  0  0  0  0  0  0  0  0  0  0  0
    0.8336   -4.1973   -1.4588 H   0  0  0  0  0  0  0  0  0  0  0  0
    0.9774   -4.5364   -3.1878 H   0  0  0  0  0  0  0  0  0  0  0  0
    2.2007   -3.5443   -2.3723 H   0  0  0  0  0  0  0  0  0  0  0  0
   -1.5494   -3.4248   -3.9500 N   0  0  0  0  0  0  0  0  0  0  0  0
   -2.9129   -3.8203   -4.2152 C   0  0  0  0  0  0  0  0  0  0  0  0
   -0.8622   -3.5717   -4.6834 H   0  0  0  0  0  0  0  0  0  0  0  0
   -3.0589   -4.8656   -3.9054 H   0  0  0  0  0  0  0  0  0  0  0  0
   -3.5991   -3.1716   -3.6509 H   0  0  0  0  0  0  0  0  0  0  0  0
   -3.1196   -3.7246   -5.2913 H   0  0  0  0  0  0  0  0  0  0  0  0
 25 27  1  0  0  0  0
 26 27  2  0  0  0  0
 23 25  2  0  0  0  0
 24 26  1  0  0  0  0
 22 23  1  0  0  0  0
 22 24  2  0  0  0  0
 21 22  1  0  0  0  0
  1  3  1  0  0  0  0
  1  7  1  0  0  0  0
  1  2  2  0  0  0  0
 38 39  1  0  0  0  0
 39 47  1  0  0  0  0
 39 40  2  0  0  0  0
  8  9  1  0  0  0  0
  9 17  1  0  0  0  0
  9 10  2  0  0  0  0
 18 19  1  0  0  0  0
 19 37  1  0  0  0  0
 19 20  2  0  0  0  0
 38 41  1  0  0  0  0
  8 11  1  0  0  0  0
 47 48  1  0  0  0  0
 18 21  1  0  0  0  0
 37 38  1  0  0  0  0
  7  8  1  0  0  0  0
 17 18  1  0  0  0  0
 27 36  1  0  0  0  0
 25 34  1  0  0  0  0
 26 35  1  0  0  0  0
 23 32  1  0  0  0  0
 24 33  1  0  0  0  0
  3  4  1  0  0  0  0
  3  5  1  0  0  0  0
  3  6  1  0  0  0  0
 41 44  1  0  0  0  0
 41 45  1  0  0  0  0
 41 46  1  0  0  0  0
 11 14  1  0  0  0  0
 11 15  1  0  0  0  0
 11 16  1  0  0  0  0
 48 50  1  0  0  0  0
 48 51  1  0  0  0  0
 48 52  1  0  0  0  0
 21 30  1  0  0  0  0
 21 31  1  0  0  0  0
 38 43  1  0  0  0  0
  8 13  1  0  0  0  0
 18 29  1  0  0  0  0
 47 49  1  0  0  0  0
  7 12  1  0  0  0  0
 37 42  1  0  0  0  0
 17 28  1  0  0  0  0
M  END
$$$$

  -OEChem-05262214473D

 52 52  0     1  0  0  0  0  0999 V2000
   -1.8248    0.3424    3.9102 C   0  0  0  0  0  0  0  0  0  0  0  0
   -0.8774   -0.2723    3.4345 O   0  0  0  0  0  0  0  0  0  0  0  0
   -2.2566    0.0600    5.3109 C   0  0  0  0  0  0  0  0  0  0  0  0
   -3.0163   -0.7363    5.3643 H   0  0  0  0  0  0  0  0  0  0  0  0
   -1.4254   -0.2876    5.9452 H   0  0  0  0  0  0  0  0  0  0  0  0
   -2.6947    0.9149    5.8505 H   0  0  0  0  0  0  0  0  0  0  0  0
   -2.5745    1.3149    3.2691 N   0  0  0  0  0  0  0  0  0  0  0  0
   -2.3276    1.7409    1.9167 C   0  0  2  0  0  0  0  0  0  0  0  0
   -0.9926    1.1555    1.4755 C   0  0  0  0  0  0  0  0  0  0  0  0
   -0.1206    0.8028    2.2668 O   0  0  0  0  0  0  0  0  0  0  0  0
   -2.3188    3.2577    1.8072 C   0  0  0  0  0  0  0  0  0  0  0  0
   -3.3395    1.7507    3.7809 H   0  0  0  0  0  0  0  0  0  0  0  0
   -3.1317    1.3224    1.3015 H   0  0  0  0  0  0  0  0  0  0  0  0
   -1.5198    3.6949    2.4169 H   0  0  0  0  0  0  0  0  0  0  0  0
   -2.1594    3.5799    0.7729 H   0  0  0  0  0  0  0  0  0  0  0  0
   -3.2690    3.6789    2.1530 H   0  0  0  0  0  0  0  0  0  0  0  0
   -0.8700    1.1124    0.0921 N   0  0  0  0  0  0  0  0  0  0  0  0
    0.3073    0.6116   -0.5716 C   0  0  2  0  0  0  0  0  0  0  0  0
   -0.1639   -0.2990   -1.6998 C   0  0  0  0  0  0  0  0  0  0  0  0
   -0.8444    0.1007   -2.6423 O   0  0  0  0  0  0  0  0  0  0  0  0
    1.2280   -0.1564    0.3838 C   0  0  0  0  0  0  0  0  0  0  0  0
    1.8508    0.7312    1.4336 C   0  0  0  0  0  0  0  0  0  0  0  0
    2.9732    1.4987    1.1224 C   0  0  0  0  0  0  0  0  0  0  0  0
    1.3033    0.7840    2.7155 C   0  0  0  0  0  0  0  0  0  0  0  0
    3.5482    2.3189    2.0931 C   0  0  0  0  0  0  0  0  0  0  0  0
    1.8783    1.6043    3.6861 C   0  0  0  0  0  0  0  0  0  0  0  0
    3.0007    2.3718    3.3749 C   0  0  0  0  0  0  0  0  0  0  0  0
   -1.6531    1.4091   -0.4852 H   0  0  0  0  0  0  0  0  0  0  0  0
    0.8173    1.4816   -1.0018 H   0  0  0  0  0  0  0  0  0  0  0  0
    2.0175   -0.6711   -0.1804 H   0  0  0  0  0  0  0  0  0  0  0  0
    0.6720   -0.9541    0.8938 H   0  0  0  0  0  0  0  0  0  0  0  0
    3.4064    1.4640    0.1263 H   0  0  0  0  0  0  0  0  0  0  0  0
    0.4289    0.1896    2.9669 H   0  0  0  0  0  0  0  0  0  0  0  0
    4.4228    2.9157    1.8509 H   0  0  0  0  0  0  0  0  0  0  0  0
    1.4524    1.6443    4.6843 H   0  0  0  0  0  0  0  0  0  0  0  0
    3.4493    3.0095    4.1310 H   0  0  0  0  0  0  0  0  0  0  0  0
    0.3082   -1.5958   -1.5525 N   0  0  0  0  0  0  0  0  0  0  0  0
    0.0280   -2.6543   -2.4958 C   0  0  2  0  0  0  0  0  0  0  0  0
   -1.4738   -2.6740   -2.7482 C   0  0  0  0  0  0  0  0  0  0  0  0
   -2.2927   -2.2065   -1.9596 O   0  0  0  0  0  0  0  0  0  0  0  0
    0.5096   -4.0001   -1.9764 C   0  0  0  0  0  0  0  0  0  0  0  0
    0.8794   -1.8118   -0.7408 H   0  0  0  0  0  0  0  0  0  0  0  0
    0.5515   -2.3981   -3.4233 H   0  0  0  0  0  0  0  0  0  0  0  0
   -0.0038   -4.2737   -1.0474 H   0  0  0  0  0  0  0  0  0  0  0  0
    0.3223   -4.7964   -2.7043 H   0  0  0  0  0  0  0  0  0  0  0  0
    1.5845   -3.9751   -1.7672 H   0  0  0  0  0  0  0  0  0  0  0  0
   -1.7948   -3.3136   -3.9373 N   0  0  0  0  0  0  0  0  0  0  0  0
   -3.1556   -3.4730   -4.3941 C   0  0  0  0  0  0  0  0  0  0  0  0
   -1.0501   -3.6542   -4.5383 H   0  0  0  0  0  0  0  0  0  0  0  0
   -3.5494   -4.4389   -4.0449 H   0  0  0  0  0  0  0  0  0  0  0  0
   -3.7751   -2.6577   -3.9921 H   0  0  0  0  0  0  0  0  0  0  0  0
   -3.1791   -3.4434   -5.4935 H   0  0  0  0  0  0  0  0  0  0  0  0
 25 27  1  0  0  0  0
 26 27  2  0  0  0  0
 23 25  2  0  0  0  0
 24 26  1  0  0  0  0
 22 23  1  0  0  0  0
 22 24  2  0  0  0  0
 21 22  1  0  0  0  0
  1  3  1  0  0  0  0
  1  7  1  0  0  0  0
  1  2  2  0  0  0  0
 38 39  1  0  0  0  0
 39 47  1  0  0  0  0
 39 40  2  0  0  0  0
  8  9  1  0  0  0  0
  9 17  1  0  0  0  0
  9 10  2  0  0  0  0
 18 19  1  0  0  0  0
 19 37  1  0  0  0  0
 19 20  2  0  0  0  0
 38 41  1  0  0  0  0
  8 11  1  0  0  0  0
 47 48  1  0  0  0  0
 18 21  1  0  0  0  0
 37 38  1  0  0  0  0
  7  8  1  0  0  0  0
 17 18  1  0  0  0  0
 27 36  1  0  0  0  0
 25 34  1  0  0  0  0
 26 35  1  0  0  0  0
 23 32  1  0  0  0  0
 24 33  1  0  0  0  0
  3  4  1  0  0  0  0
  3  5  1  0  0  0  0
  3  6  1  0  0  0  0
 41 44  1  0  0  0  0
 41 45  1  0  0  0  0
 41 46  1  0  0  0  0
 11 14  1  0  0  0  0
 11 15  1  0  0  0  0
 11 16  1  0  0  0  0
 48 50  1  0  0  0  0
 48 51  1  0  0  0  0
 48 52  1  0  0  0  0
 21 30  1  0  0  0  0
 21 31  1  0  0  0  0
 38 43  1  0  0  0  0
  8 13  1  0  0  0  0
 18 29  1  0  0  0  0
 47 49  1  0  0  0  0
  7 12  1  0  0  0  0
 37 42  1  0  0  0  0
 17 28  1  0  0  0  0
M  END
$$$$

  -OEChem-05262214473D

 52 52  0     1  0  0  0  0  0999 V2000
   -1.8248    0.3424    3.9102 C   0  0  0  0  0  0  0  0  0  0  0  0
   -0.8774   -0.2723    3.4345 O   0  0  0  0  0  0  0  0  0  0  0  0
   -2.2566    0.0600    5.3109 C   0  0  0  0  0  0  0  0  0  0  0  0
   -3.0163   -0.7363    5.3643 H   0  0  0  0  0  0  0  0  0  0  0  0
   -1.4254   -0.2876    5.9452 H   0  0  0  0  0  0  0  0  0  0  0  0
   -2.6947    0.9149    5.8505 H   0  0  0  0  0  0  0  0  0  0  0  0
   -2.5745    1.3149    3.2691 N   0  0  0  0  0  0  0  0  0  0  0  0
   -2.3276    1.7409    1.9167 C   0  0  2  0  0  0  0  0  0  0  0  0
   -0.9926    1.1555    1.4755 C   0  0  0  0  0  0  0  0  0  0  0  0
   -0.1206    0.8028    2.2668 O   0  0  0  0  0  0  0  0  0  0  0  0
   -2.3188    3.2577    1.8072 C   0  0  0  0  0  0  0  0  0  0  0  0
   -3.3395    1.7507    3.7809 H   0  0  0  0  0  0  0  0  0  0  0  0
   -3.1317    1.3224    1.3015 H   0  0  0  0  0  0  0  0  0  0  0  0
   -1.5198    3.6949    2.4169 H   0  0  0  0  0  0  0  0  0  0  0  0
   -2.1594    3.5799    0.7729 H   0  0  0  0  0  0  0  0  0  0  0  0
   -3.2690    3.6789    2.1530 H   0  0  0  0  0  0  0  0  0  0  0  0
   -0.8700    1.1124    0.0921 N   0  0  0  0  0  0  0  0  0  0  0  0
    0.3073    0.6116   -0.5716 C   0  0  2  0  0  0  0  0  0  0  0  0
   -0.1639   -0.2990   -1.6998 C   0  0  0  0  0  0  0  0  0  0  0  0
   -0.6060    0.1284   -2.7642 O   0  0  0  0  0  0  0  0  0  0  0  0
    1.2280   -0.1564    0.3838 C   0  0  0  0  0  0  0  0  0  0  0  0
    1.8508    0.7312    1.4336 C   0  0  0  0  0  0  0  0  0  0  0  0
    2.9732    1.4987    1.1224 C   0  0  0  0  0  0  0  0  0  0  0  0
    1.3033    0.7840    2.7155 C   0  0  0  0  0  0  0  0  0  0  0  0
    3.5482    2.3189    2.0931 C   0  0  0  0  0  0  0  0  0  0  0  0
    1.8783    1.6043    3.6861 C   0  0  0  0  0  0  0  0  0  0  0  0
    3.0007    2.3718    3.3749 C   0  0  0  0  0  0  0  0  0  0  0  0
   -1.6531    1.4091   -0.4852 H   0  0  0  0  0  0  0  0  0  0  0  0
    0.8173    1.4816   -1.0018 H   0  0  0  0  0  0  0  0  0  0  0  0
    2.0175   -0.6711   -0.1804 H   0  0  0  0  0  0  0  0  0  0  0  0
    0.6720   -0.9541    0.8938 H   0  0  0  0  0  0  0  0  0  0  0  0
    3.4064    1.4640    0.1263 H   0  0  0  0  0  0  0  0  0  0  0  0
    0.4289    0.1896    2.9669 H   0  0  0  0  0  0  0  0  0  0  0  0
    4.4228    2.9157    1.8509 H   0  0  0  0  0  0  0  0  0  0  0  0
    1.4524    1.6443    4.6843 H   0  0  0  0  0  0  0  0  0  0  0  0
    3.4493    3.0095    4.1310 H   0  0  0  0  0  0  0  0  0  0  0  0
    0.0155   -1.6408   -1.3938 N   0  0  0  0  0  0  0  0  0  0  0  0
   -0.3270   -2.7139   -2.2994 C   0  0  2  0  0  0  0  0  0  0  0  0
   -1.7494   -2.4790   -2.7905 C   0  0  0  0  0  0  0  0  0  0  0  0
   -2.5663   -1.7950   -2.1774 O   0  0  0  0  0  0  0  0  0  0  0  0
   -0.2028   -4.0700   -1.6224 C   0  0  0  0  0  0  0  0  0  0  0  0
    0.4072   -1.8808   -0.4879 H   0  0  0  0  0  0  0  0  0  0  0  0
    0.3672   -2.6485   -3.1442 H   0  0  0  0  0  0  0  0  0  0  0  0
   -0.8908   -4.1543   -0.7733 H   0  0  0  0  0  0  0  0  0  0  0  0
   -0.4349   -4.8834   -2.3178 H   0  0  0  0  0  0  0  0  0  0  0  0
    0.8132   -4.2249   -1.2435 H   0  0  0  0  0  0  0  0  0  0  0  0
   -2.0125   -3.1581   -3.9719 N   0  0  0  0  0  0  0  0  0  0  0  0
   -3.2958   -3.1053   -4.6323 C   0  0  0  0  0  0  0  0  0  0  0  0
   -1.2699   -3.6863   -4.4206 H   0  0  0  0  0  0  0  0  0  0  0  0
   -3.9198   -3.9439   -4.2897 H   0  0  0  0  0  0  0  0  0  0  0  0
   -3.7939   -2.1550   -4.3900 H   0  0  0  0  0  0  0  0  0  0  0  0
   -3.1513   -3.1766   -5.7204 H   0  0  0  0  0  0  0  0  0  0  0  0
 25 27  1  0  0  0  0
 26 27  2  0  0  0  0
 23 25  2  0  0  0  0
 24 26  1  0  0  0  0
 22 23  1  0  0  0  0
 22 24  2  0  0  0  0
 21 22  1  0  0  0  0
  1  3  1  0  0  0  0
  1  7  1  0  0  0  0
  1  2  2  0  0  0  0
 38 39  1  0  0  0  0
 39 47  1  0  0  0  0
 39 40  2  0  0  0  0
  8  9  1  0  0  0  0
  9 17  1  0  0  0  0
  9 10  2  0  0  0  0
 18 19  1  0  0  0  0
 19 37  1  0  0  0  0
 19 20  2  0  0  0  0
 38 41  1  0  0  0  0
  8 11  1  0  0  0  0
 47 48  1  0  0  0  0
 18 21  1  0  0  0  0
 37 38  1  0  0  0  0
  7  8  1  0  0  0  0
 17 18  1  0  0  0  0
 27 36  1  0  0  0  0
 25 34  1  0  0  0  0
 26 35  1  0  0  0  0
 23 32  1  0  0  0  0
 24 33  1  0  0  0  0
  3  4  1  0  0  0  0
  3  5  1  0  0  0  0
  3  6  1  0  0  0  0
 41 44  1  0  0  0  0
 41 45  1  0  0  0  0
 41 46  1  0  0  0  0
 11 14  1  0  0  0  0
 11 15  1  0  0  0  0
 11 16  1  0  0  0  0
 48 50  1  0  0  0  0
 48 51  1  0  0  0  0
 48 52  1  0  0  0  0
 21 30  1  0  0  0  0
 21 31  1  0  0  0  0
 38 43  1  0  0  0  0
  8 13  1  0  0  0  0
 18 29  1  0  0  0  0
 47 49  1  0  0  0  0
  7 12  1  0  0  0  0
 37 42  1  0  0  0  0
 17 28  1  0  0  0  0
M  END
$$$$

  -OEChem-05262214473D

 52 52  0     1  0  0  0  0  0999 V2000
   -1.8248    0.3424    3.9102 C   0  0  0  0  0  0  0  0  0  0  0  0
   -0.8774   -0.2723    3.4345 O   0  0  0  0  0  0  0  0  0  0  0  0
   -2.2566    0.0600    5.3109 C   0  0  0  0  0  0  0  0  0  0  0  0
   -3.0163   -0.7363    5.3643 H   0  0  0  0  0  0  0  0  0  0  0  0
   -1.4254   -0.2876    5.9452 H   0  0  0  0  0  0  0  0  0  0  0  0
   -2.6947    0.9149    5.8505 H   0  0  0  0  0  0  0  0  0  0  0  0
   -2.5745    1.3149    3.2691 N   0  0  0  0  0  0  0  0  0  0  0  0
   -2.3276    1.7409    1.9167 C   0  0  2  0  0  0  0  0  0  0  0  0
   -0.9926    1.1555    1.4755 C   0  0  0  0  0  0  0  0  0  0  0  0
   -0.1206    0.8028    2.2668 O   0  0  0  0  0  0  0  0  0  0  0  0
   -2.3188    3.2577    1.8072 C   0  0  0  0  0  0  0  0  0  0  0  0
   -3.3395    1.7507    3.7809 H   0  0  0  0  0  0  0  0  0  0  0  0
   -3.1317    1.3224    1.3015 H   0  0  0  0  0  0  0  0  0  0  0  0
   -1.5198    3.6949    2.4169 H   0  0  0  0  0  0  0  0  0  0  0  0
   -2.1594    3.5799    0.7729 H   0  0  0  0  0  0  0  0  0  0  0  0
   -3.2690    3.6789    2.1530 H   0  0  0  0  0  0  0  0  0  0  0  0
   -0.8700    1.1124    0.0921 N   0  0  0  0  0  0  0  0  0  0  0  0
    0.3073    0.6116   -0.5716 C   0  0  2  0  0  0  0  0  0  0  0  0
   -0.1639   -0.2990   -1.6998 C   0  0  0  0  0  0  0  0  0  0  0  0
   -0.3516    0.0997   -2.8473 O   0  0  0  0  0  0  0  0  0  0  0  0
    1.2280   -0.1564    0.3838 C   0  0  0  0  0  0  0  0  0  0  0  0
    1.8508    0.7312    1.4336 C   0  0  0  0  0  0  0  0  0  0  0  0
    2.9732    1.4987    1.1224 C   0  0  0  0  0  0  0  0  0  0  0  0
    1.3033    0.7840    2.7155 C   0  0  0  0  0  0  0  0  0  0  0  0
    3.5482    2.3189    2.0931 C   0  0  0  0  0  0  0  0  0  0  0  0
    1.8783    1.6043    3.6861 C   0  0  0  0  0  0  0  0  0  0  0  0
    3.0007    2.3718    3.3749 C   0  0  0  0  0  0  0  0  0  0  0  0
   -1.6531    1.4091   -0.4852 H   0  0  0  0  0  0  0  0  0  0  0  0
    0.8173    1.4816   -1.0018 H   0  0  0  0  0  0  0  0  0  0  0  0
    2.0175   -0.6711   -0.1804 H   0  0  0  0  0  0  0  0  0  0  0  0
    0.6720   -0.9541    0.8938 H   0  0  0  0  0  0  0  0  0  0  0  0
    3.4064    1.4640    0.1263 H   0  0  0  0  0  0  0  0  0  0  0  0
    0.4289    0.1896    2.9669 H   0  0  0  0  0  0  0  0  0  0  0  0
    4.4228    2.9157    1.8509 H   0  0  0  0  0  0  0  0  0  0  0  0
    1.4524    1.6443    4.6843 H   0  0  0  0  0  0  0  0  0  0  0  0
    3.4493    3.0095    4.1310 H   0  0  0  0  0  0  0  0  0  0  0  0
   -0.3004   -1.6156   -1.2823 N   0  0  0  0  0  0  0  0  0  0  0  0
   -0.7117   -2.6878   -2.1598 C   0  0  2  0  0  0  0  0  0  0  0  0
   -1.9717   -2.2411   -2.8895 C   0  0  0  0  0  0  0  0  0  0  0  0
   -2.7181   -1.3625   -2.4630 O   0  0  0  0  0  0  0  0  0  0  0  0
   -0.9590   -3.9728   -1.3850 C   0  0  0  0  0  0  0  0  0  0  0  0
   -0.1012   -1.8367   -0.3111 H   0  0  0  0  0  0  0  0  0  0  0  0
    0.0980   -2.8327   -2.8832 H   0  0  0  0  0  0  0  0  0  0  0  0
   -1.7671   -3.8470   -0.6553 H   0  0  0  0  0  0  0  0  0  0  0  0
   -1.2428   -4.7915   -2.0546 H   0  0  0  0  0  0  0  0  0  0  0  0
   -0.0606   -4.2765   -0.8369 H   0  0  0  0  0  0  0  0  0  0  0  0
   -2.1876   -2.9690   -4.0514 N   0  0  0  0  0  0  0  0  0  0  0  0
   -3.3241   -2.7424   -4.9134 C   0  0  0  0  0  0  0  0  0  0  0  0
   -1.5066   -3.6659   -4.3382 H   0  0  0  0  0  0  0  0  0  0  0  0
   -4.1450   -3.4145   -4.6230 H   0  0  0  0  0  0  0  0  0  0  0  0
   -3.6543   -1.6975   -4.8175 H   0  0  0  0  0  0  0  0  0  0  0  0
   -3.0384   -2.9423   -5.9567 H   0  0  0  0  0  0  0  0  0  0  0  0
 25 27  1  0  0  0  0
 26 27  2  0  0  0  0
 23 25  2  0  0  0  0
 24 26  1  0  0  0  0
 22 23  1  0  0  0  0
 22 24  2  0  0  0  0
 21 22  1  0  0  0  0
  1  3  1  0  0  0  0
  1  7  1  0  0  0  0
  1  2  2  0  0  0  0
 38 39  1  0  0  0  0
 39 47  1  0  0  0  0
 39 40  2  0  0  0  0
  8  9  1  0  0  0  0
  9 17  1  0  0  0  0
  9 10  2  0  0  0  0
 18 19  1  0  0  0  0
 19 37  1  0  0  0  0
 19 20  2  0  0  0  0
 38 41  1  0  0  0  0
  8 11  1  0  0  0  0
 47 48  1  0  0  0  0
 18 21  1  0  0  0  0
 37 38  1  0  0  0  0
  7  8  1  0  0  0  0
 17 18  1  0  0  0  0
 27 36  1  0  0  0  0
 25 34  1  0  0  0  0
 26 35  1  0  0  0  0
 23 32  1  0  0  0  0
 24 33  1  0  0  0  0
  3  4  1  0  0  0  0
  3  5  1  0  0  0  0
  3  6  1  0  0  0  0
 41 44  1  0  0  0  0
 41 45  1  0  0  0  0
 41 46  1  0  0  0  0
 11 14  1  0  0  0  0
 11 15  1  0  0  0  0
 11 16  1  0  0  0  0
 48 50  1  0  0  0  0
 48 51  1  0  0  0  0
 48 52  1  0  0  0  0
 21 30  1  0  0  0  0
 21 31  1  0  0  0  0
 38 43  1  0  0  0  0
  8 13  1  0  0  0  0
 18 29  1  0  0  0  0
 47 49  1  0  0  0  0
  7 12  1  0  0  0  0
 37 42  1  0  0  0  0
 17 28  1  0  0  0  0
M  END
$$$$

  -OEChem-05262214473D

 52 52  0     1  0  0  0  0  0999 V2000
   -1.8248    0.3424    3.9102 C   0  0  0  0  0  0  0  0  0  0  0  0
   -0.8774   -0.2723    3.4345 O   0  0  0  0  0  0  0  0  0  0  0  0
   -2.2566    0.0600    5.3109 C   0  0  0  0  0  0  0  0  0  0  0  0
   -3.0163   -0.7363    5.3643 H   0  0  0  0  0  0  0  0  0  0  0  0
   -1.4254   -0.2876    5.9452 H   0  0  0  0  0  0  0  0  0  0  0  0
   -2.6947    0.9149    5.8505 H   0  0  0  0  0  0  0  0  0  0  0  0
   -2.5745    1.3149    3.2691 N   0  0  0  0  0  0  0  0  0  0  0  0
   -2.3276    1.7409    1.9167 C   0  0  2  0  0  0  0  0  0  0  0  0
   -0.9926    1.1555    1.4755 C   0  0  0  0  0  0  0  0  0  0  0  0
   -0.1206    0.8028    2.2668 O   0  0  0  0  0  0  0  0  0  0  0  0
   -2.3188    3.2577    1.8072 C   0  0  0  0  0  0  0  0  0  0  0  0
   -3.3395    1.7507    3.7809 H   0  0  0  0  0  0  0  0  0  0  0  0
   -3.1317    1.3224    1.3015 H   0  0  0  0  0  0  0  0  0  0  0  0
   -1.5198    3.6949    2.4169 H   0  0  0  0  0  0  0  0  0  0  0  0
   -2.1594    3.5799    0.7729 H   0  0  0  0  0  0  0  0  0  0  0  0
   -3.2690    3.6789    2.1530 H   0  0  0  0  0  0  0  0  0  0  0  0
   -0.8700    1.1124    0.0921 N   0  0  0  0  0  0  0  0  0  0  0  0
    0.3073    0.6116   -0.5716 C   0  0  2  0  0  0  0  0  0  0  0  0
   -0.1639   -0.2990   -1.6998 C   0  0  0  0  0  0  0  0  0  0  0  0
   -0.0985    0.0167   -2.8860 O   0  0  0  0  0  0  0  0  0  0  0  0
    1.2280   -0.1564    0.3838 C   0  0  0  0  0  0  0  0  0  0  0  0
    1.8508    0.7312    1.4336 C   0  0  0  0  0  0  0  0  0  0  0  0
    2.9732    1.4987    1.1224 C   0  0  0  0  0  0  0  0  0  0  0  0
    1.3033    0.7840    2.7155 C   0  0  0  0  0  0  0  0  0  0  0  0
    3.5482    2.3189    2.0931 C   0  0  0  0  0  0  0  0  0  0  0  0
    1.8783    1.6043    3.6861 C   0  0  0  0  0  0  0  0  0  0  0  0
    3.0007    2.3718    3.3749 C   0  0  0  0  0  0  0  0  0  0  0  0
   -1.6531    1.4091   -0.4852 H   0  0  0  0  0  0  0  0  0  0  0  0
    0.8173    1.4816   -1.0018 H   0  0  0  0  0  0  0  0  0  0  0  0
    2.0175   -0.6711   -0.1804 H   0  0  0  0  0  0  0  0  0  0  0  0
    0.6720   -0.9541    0.8938 H   0  0  0  0  0  0  0  0  0  0  0  0
    3.4064    1.4640    0.1263 H   0  0  0  0  0  0  0  0  0  0  0  0
    0.4289    0.1896    2.9669 H   0  0  0  0  0  0  0  0  0  0  0  0
    4.4228    2.9157    1.8509 H   0  0  0  0  0  0  0  0  0  0  0  0
    1.4524    1.6443    4.6843 H   0  0  0  0  0  0  0  0  0  0  0  0
    3.4493    3.0095    4.1310 H   0  0  0  0  0  0  0  0  0  0  0  0
   -0.6180   -1.5217   -1.2254 N   0  0  0  0  0  0  0  0  0  0  0  0
   -1.0999   -2.5777   -2.0865 C   0  0  2  0  0  0  0  0  0  0  0  0
   -2.1256   -1.9768   -3.0386 C   0  0  0  0  0  0  0  0  0  0  0  0
   -2.7378   -0.9386   -2.7969 O   0  0  0  0  0  0  0  0  0  0  0  0
   -1.7075   -3.7151   -1.2804 C   0  0  0  0  0  0  0  0  0  0  0  0
   -0.6112   -1.6826   -0.2225 H   0  0  0  0  0  0  0  0  0  0  0  0
   -0.2376   -2.9382   -2.6578 H   0  0  0  0  0  0  0  0  0  0  0  0
   -2.5730   -3.3730   -0.7013 H   0  0  0  0  0  0  0  0  0  0  0  0
   -2.0463   -4.5268   -1.9326 H   0  0  0  0  0  0  0  0  0  0  0  0
   -0.9773   -4.1264   -0.5751 H   0  0  0  0  0  0  0  0  0  0  0  0
   -2.3083   -2.7591   -4.1703 N   0  0  0  0  0  0  0  0  0  0  0  0
   -3.2383   -2.4089   -5.2184 C   0  0  0  0  0  0  0  0  0  0  0  0
   -1.7440   -3.5942   -4.2970 H   0  0  0  0  0  0  0  0  0  0  0  0
   -4.2096   -2.8866   -5.0220 H   0  0  0  0  0  0  0  0  0  0  0  0
   -3.3658   -1.3167   -5.2454 H   0  0  0  0  0  0  0  0  0  0  0  0
   -2.8479   -2.7566   -6.1862 H   0  0  0  0  0  0  0  0  0  0  0  0
 25 27  1  0  0  0  0
 26 27  2  0  0  0  0
 23 25  2  0  0  0  0
 24 26  1  0  0  0  0
 22 23  1  0  0  0  0
 22 24  2  0  0  0  0
 21 22  1  0  0  0  0
  1  3  1  0  0  0  0
  1  7  1  0  0  0  0
  1  2  2  0  0  0  0
 38 39  1  0  0  0  0
 39 47  1  0  0  0  0
 39 40  2  0  0  0  0
  8  9  1  0  0  0  0
  9 17  1  0  0  0  0
  9 10  2  0  0  0  0
 18 19  1  0  0  0  0
 19 37  1  0  0  0  0
 19 20  2  0  0  0  0
 38 41  1  0  0  0  0
  8 11  1  0  0  0  0
 47 48  1  0  0  0  0
 18 21  1  0  0  0  0
 37 38  1  0  0  0  0
  7  8  1  0  0  0  0
 17 18  1  0  0  0  0
 27 36  1  0  0  0  0
 25 34  1  0  0  0  0
 26 35  1  0  0  0  0
 23 32  1  0  0  0  0
 24 33  1  0  0  0  0
  3  4  1  0  0  0  0
  3  5  1  0  0  0  0
  3  6  1  0  0  0  0
 41 44  1  0  0  0  0
 41 45  1  0  0  0  0
 41 46  1  0  0  0  0
 11 14  1  0  0  0  0
 11 15  1  0  0  0  0
 11 16  1  0  0  0  0
 48 50  1  0  0  0  0
 48 51  1  0  0  0  0
 48 52  1  0  0  0  0
 21 30  1  0  0  0  0
 21 31  1  0  0  0  0
 38 43  1  0  0  0  0
  8 13  1  0  0  0  0
 18 29  1  0  0  0  0
 47 49  1  0  0  0  0
  7 12  1  0  0  0  0
 37 42  1  0  0  0  0
 17 28  1  0  0  0  0
M  END
$$$$

  -OEChem-05262214473D

 52 52  0     1  0  0  0  0  0999 V2000
   -1.8248    0.3424    3.9102 C   0  0  0  0  0  0  0  0  0  0  0  0
   -0.8774   -0.2723    3.4345 O   0  0  0  0  0  0  0  0  0  0  0  0
   -2.2566    0.0600    5.3109 C   0  0  0  0  0  0  0  0  0  0  0  0
   -3.0163   -0.7363    5.3643 H   0  0  0  0  0  0  0  0  0  0  0  0
   -1.4254   -0.2876    5.9452 H   0  0  0  0  0  0  0  0  0  0  0  0
   -2.6947    0.9149    5.8505 H   0  0  0  0  0  0  0  0  0  0  0  0
   -2.5745    1.3149    3.2691 N   0  0  0  0  0  0  0  0  0  0  0  0
   -2.3276    1.7409    1.9167 C   0  0  2  0  0  0  0  0  0  0  0  0
   -0.9926    1.1555    1.4755 C   0  0  0  0  0  0  0  0  0  0  0  0
   -0.1206    0.8028    2.2668 O   0  0  0  0  0  0  0  0  0  0  0  0
   -2.3188    3.2577    1.8072 C   0  0  0  0  0  0  0  0  0  0  0  0
   -3.3395    1.7507    3.7809 H   0  0  0  0  0  0  0  0  0  0  0  0
   -3.1317    1.3224    1.3015 H   0  0  0  0  0  0  0  0  0  0  0  0
   -1.5198    3.6949    2.4169 H   0  0  0  0  0  0  0  0  0  0  0  0
   -2.1594    3.5799    0.7729 H   0  0  0  0  0  0  0  0  0  0  0  0
   -3.2690    3.6789    2.1530 H   0  0  0  0  0  0  0  0  0  0  0  0
   -0.8700    1.1124    0.0921 N   0  0  0  0  0  0  0  0  0  0  0  0
    0.3073    0.6116   -0.5716 C   0  0  2  0  0  0  0  0  0  0  0  0
   -0.1639   -0.2990   -1.6998 C   0  0  0  0  0  0  0  0  0  0  0  0
    0.1360   -0.1151   -2.8776 O   0  0  0  0  0  0  0  0  0  0  0  0
    1.2280   -0.1564    0.3838 C   0  0  0  0  0  0  0  0  0  0  0  0
    1.8508    0.7312    1.4336 C   0  0  0  0  0  0  0  0  0  0  0  0
    2.9732    1.4987    1.1224 C   0  0  0  0  0  0  0  0  0  0  0  0
    1.3033    0.7840    2.7155 C   0  0  0  0  0  0  0  0  0  0  0  0
    3.5482    2.3189    2.0931 C   0  0  0  0  0  0  0  0  0  0  0  0
    1.8783    1.6043    3.6861 C   0  0  0  0  0  0  0  0  0  0  0  0
    3.0007    2.3718    3.3749 C   0  0  0  0  0  0  0  0  0  0  0  0
   -1.6531    1.4091   -0.4852 H   0  0  0  0  0  0  0  0  0  0  0  0
    0.8173    1.4816   -1.0018 H   0  0  0  0  0  0  0  0  0  0  0  0
    2.0175   -0.6711   -0.1804 H   0  0  0  0  0  0  0  0  0  0  0  0
    0.6720   -0.9541    0.8938 H   0  0  0  0  0  0  0  0  0  0  0  0
    3.4064    1.4640    0.1263 H   0  0  0  0  0  0  0  0  0  0  0  0
    0.4289    0.1896    2.9669 H   0  0  0  0  0  0  0  0  0  0  0  0
    4.4228    2.9157    1.8509 H   0  0  0  0  0  0  0  0  0  0  0  0
    1.4524    1.6443    4.6843 H   0  0  0  0  0  0  0  0  0  0  0  0
    3.4493    3.0095    4.1310 H   0  0  0  0  0  0  0  0  0  0  0  0
   -0.9156   -1.3657   -1.2270 N   0  0  0  0  0  0  0  0  0  0  0  0
   -1.4651   -2.3911   -2.0846 C   0  0  2  0  0  0  0  0  0  0  0  0
   -2.2005   -1.7039   -3.2276 C   0  0  0  0  0  0  0  0  0  0  0  0
   -2.6240   -0.5521   -3.1564 O   0  0  0  0  0  0  0  0  0  0  0  0
   -2.3974   -3.3144   -1.3157 C   0  0  0  0  0  0  0  0  0  0  0  0
   -1.0880   -1.4289   -0.2280 H   0  0  0  0  0  0  0  0  0  0  0  0
   -0.6168   -2.9578   -2.4836 H   0  0  0  0  0  0  0  0  0  0  0  0
   -3.2535   -2.7644   -0.9082 H   0  0  0  0  0  0  0  0  0  0  0  0
   -2.7905   -4.1076   -1.9601 H   0  0  0  0  0  0  0  0  0  0  0  0
   -1.8745   -3.7849   -0.4760 H   0  0  0  0  0  0  0  0  0  0  0  0
   -2.3662   -2.5428   -4.3207 N   0  0  0  0  0  0  0  0  0  0  0  0
   -3.0445   -2.1276   -5.5263 C   0  0  0  0  0  0  0  0  0  0  0  0
   -1.9660   -3.4761   -4.2995 H   0  0  0  0  0  0  0  0  0  0  0  0
   -4.1091   -2.3962   -5.4597 H   0  0  0  0  0  0  0  0  0  0  0  0
   -2.9480   -1.0383   -5.6446 H   0  0  0  0  0  0  0  0  0  0  0  0
   -2.5928   -2.6320   -6.3933 H   0  0  0  0  0  0  0  0  0  0  0  0
 25 27  1  0  0  0  0
 26 27  2  0  0  0  0
 23 25  2  0  0  0  0
 24 26  1  0  0  0  0
 22 23  1  0  0  0  0
 22 24  2  0  0  0  0
 21 22  1  0  0  0  0
  1  3  1  0  0  0  0
  1  7  1  0  0  0  0
  1  2  2  0  0  0  0
 38 39  1  0  0  0  0
 39 47  1  0  0  0  0
 39 40  2  0  0  0  0
  8  9  1  0  0  0  0
  9 17  1  0  0  0  0
  9 10  2  0  0  0  0
 18 19  1  0  0  0  0
 19 37  1  0  0  0  0
 19 20  2  0  0  0  0
 38 41  1  0  0  0  0
  8 11  1  0  0  0  0
 47 48  1  0  0  0  0
 18 21  1  0  0  0  0
 37 38  1  0  0  0  0
  7  8  1  0  0  0  0
 17 18  1  0  0  0  0
 27 36  1  0  0  0  0
 25 34  1  0  0  0  0
 26 35  1  0  0  0  0
 23 32  1  0  0  0  0
 24 33  1  0  0  0  0
  3  4  1  0  0  0  0
  3  5  1  0  0  0  0
  3  6  1  0  0  0  0
 41 44  1  0  0  0  0
 41 45  1  0  0  0  0
 41 46  1  0  0  0  0
 11 14  1  0  0  0  0
 11 15  1  0  0  0  0
 11 16  1  0  0  0  0
 48 50  1  0  0  0  0
 48 51  1  0  0  0  0
 48 52  1  0  0  0  0
 21 30  1  0  0  0  0
 21 31  1  0  0  0  0
 38 43  1  0  0  0  0
  8 13  1  0  0  0  0
 18 29  1  0  0  0  0
 47 49  1  0  0  0  0
  7 12  1  0  0  0  0
 37 42  1  0  0  0  0
 17 28  1  0  0  0  0
M  END
$$$$

  -OEChem-05262214473D

 52 52  0     1  0  0  0  0  0999 V2000
   -1.8248    0.3424    3.9102 C   0  0  0  0  0  0  0  0  0  0  0  0
   -0.8774   -0.2723    3.4345 O   0  0  0  0  0  0  0  0  0  0  0  0
   -2.2566    0.0600    5.3109 C   0  0  0  0  0  0  0  0  0  0  0  0
   -3.0163   -0.7363    5.3643 H   0  0  0  0  0  0  0  0  0  0  0  0
   -1.4254   -0.2876    5.9452 H   0  0  0  0  0  0  0  0  0  0  0  0
   -2.6947    0.9149    5.8505 H   0  0  0  0  0  0  0  0  0  0  0  0
   -2.5745    1.3149    3.2691 N   0  0  0  0  0  0  0  0  0  0  0  0
   -2.3276    1.7409    1.9167 C   0  0  2  0  0  0  0  0  0  0  0  0
   -0.9926    1.1555    1.4755 C   0  0  0  0  0  0  0  0  0  0  0  0
   -0.1206    0.8028    2.2668 O   0  0  0  0  0  0  0  0  0  0  0  0
   -2.3188    3.2577    1.8072 C   0  0  0  0  0  0  0  0  0  0  0  0
   -3.3395    1.7507    3.7809 H   0  0  0  0  0  0  0  0  0  0  0  0
   -3.1317    1.3224    1.3015 H   0  0  0  0  0  0  0  0  0  0  0  0
   -1.5198    3.6949    2.4169 H   0  0  0  0  0  0  0  0  0  0  0  0
   -2.1594    3.5799    0.7729 H   0  0  0  0  0  0  0  0  0  0  0  0
   -3.2690    3.6789    2.1530 H   0  0  0  0  0  0  0  0  0  0  0  0
   -0.8700    1.1124    0.0921 N   0  0  0  0  0  0  0  0  0  0  0  0
    0.3073    0.6116   -0.5716 C   0  0  2  0  0  0  0  0  0  0  0  0
   -0.1639   -0.2990   -1.6998 C   0  0  0  0  0  0  0  0  0  0  0  0
    0.3360   -0.2867   -2.8227 O   0  0  0  0  0  0  0  0  0  0  0  0
    1.2280   -0.1564    0.3838 C   0  0  0  0  0  0  0  0  0  0  0  0
    1.8508    0.7312    1.4336 C   0  0  0  0  0  0  0  0  0  0  0  0
    2.9732    1.4987    1.1224 C   0  0  0  0  0  0  0  0  0  0  0  0
    1.3033    0.7840    2.7155 C   0  0  0  0  0  0  0  0  0  0  0  0
    3.5482    2.3189    2.0931 C   0  0  0  0  0  0  0  0  0  0  0  0
    1.8783    1.6043    3.6861 C   0  0  0  0  0  0  0  0  0  0  0  0
    3.0007    2.3718    3.3749 C   0  0  0  0  0  0  0  0  0  0  0  0
   -1.6531    1.4091   -0.4852 H   0  0  0  0  0  0  0  0  0  0  0  0
    0.8173    1.4816   -1.0018 H   0  0  0  0  0  0  0  0  0  0  0  0
    2.0175   -0.6711   -0.1804 H   0  0  0  0  0  0  0  0  0  0  0  0
    0.6720   -0.9541    0.8938 H   0  0  0  0  0  0  0  0  0  0  0  0
    3.4064    1.4640    0.1263 H   0  0  0  0  0  0  0  0  0  0  0  0
    0.4289    0.1896    2.9669 H   0  0  0  0  0  0  0  0  0  0  0  0
    4.4228    2.9157    1.8509 H   0  0  0  0  0  0  0  0  0  0  0  0
    1.4524    1.6443    4.6843 H   0  0  0  0  0  0  0  0  0  0  0  0
    3.4493    3.0095    4.1310 H   0  0  0  0  0  0  0  0  0  0  0  0
   -1.1728   -1.1581   -1.2871 N   0  0  0  0  0  0  0  0  0  0  0  0
   -1.7825   -2.1407   -2.1541 C   0  0  2  0  0  0  0  0  0  0  0  0
   -2.1914   -1.4410   -3.4435 C   0  0  0  0  0  0  0  0  0  0  0  0
   -2.3844   -0.2293   -3.5170 O   0  0  0  0  0  0  0  0  0  0  0  0
   -2.9815   -2.7980   -1.4884 C   0  0  0  0  0  0  0  0  0  0  0  0
   -1.4992   -1.0931   -0.3274 H   0  0  0  0  0  0  0  0  0  0  0  0
   -1.0138   -2.8901   -2.3724 H   0  0  0  0  0  0  0  0  0  0  0  0
   -3.7622   -2.0627   -1.2620 H   0  0  0  0  0  0  0  0  0  0  0  0
   -3.4248   -3.5623   -2.1352 H   0  0  0  0  0  0  0  0  0  0  0  0
   -2.6911   -3.2753   -0.5462 H   0  0  0  0  0  0  0  0  0  0  0  0
   -2.3575   -2.3348   -4.4922 N   0  0  0  0  0  0  0  0  0  0  0  0
   -2.7558   -1.9177   -5.8164 C   0  0  0  0  0  0  0  0  0  0  0  0
   -2.1574   -3.3198   -4.3457 H   0  0  0  0  0  0  0  0  0  0  0  0
   -3.8505   -1.9768   -5.9062 H   0  0  0  0  0  0  0  0  0  0  0  0
   -2.4294   -0.8813   -5.9879 H   0  0  0  0  0  0  0  0  0  0  0  0
   -2.2905   -2.5771   -6.5638 H   0  0  0  0  0  0  0  0  0  0  0  0
 25 27  1  0  0  0  0
 26 27  2  0  0  0  0
 23 25  2  0  0  0  0
 24 26  1  0  0  0  0
 22 23  1  0  0  0  0
 22 24  2  0  0  0  0
 21 22  1  0  0  0  0
  1  3  1  0  0  0  0
  1  7  1  0  0  0  0
  1  2  2  0  0  0  0
 38 39  1  0  0  0  0
 39 47  1  0  0  0  0
 39 40  2  0  0  0  0
  8  9  1  0  0  0  0
  9 17  1  0  0  0  0
  9 10  2  0  0  0  0
 18 19  1  0  0  0  0
 19 37  1  0  0  0  0
 19 20  2  0  0  0  0
 38 41  1  0  0  0  0
  8 11  1  0  0  0  0
 47 48  1  0  0  0  0
 18 21  1  0  0  0  0
 37 38  1  0  0  0  0
  7  8  1  0  0  0  0
 17 18  1  0  0  0  0
 27 36  1  0  0  0  0
 25 34  1  0  0  0  0
 26 35  1  0  0  0  0
 23 32  1  0  0  0  0
 24 33  1  0  0  0  0
  3  4  1  0  0  0  0
  3  5  1  0  0  0  0
  3  6  1  0  0  0  0
 41 44  1  0  0  0  0
 41 45  1  0  0  0  0
 41 46  1  0  0  0  0
 11 14  1  0  0  0  0
 11 15  1  0  0  0  0
 11 16  1  0  0  0  0
 48 50  1  0  0  0  0
 48 51  1  0  0  0  0
 48 52  1  0  0  0  0
 21 30  1  0  0  0  0
 21 31  1  0  0  0  0
 38 43  1  0  0  0  0
  8 13  1  0  0  0  0
 18 29  1  0  0  0  0
 47 49  1  0  0  0  0
  7 12  1  0  0  0  0
 37 42  1  0  0  0  0
 17 28  1  0  0  0  0
M  END
$$$$

  -OEChem-05262214473D

 52 52  0     1  0  0  0  0  0999 V2000
   -1.8248    0.3424    3.9102 C   0  0  0  0  0  0  0  0  0  0  0  0
   -0.8774   -0.2723    3.4345 O   0  0  0  0  0  0  0  0  0  0  0  0
   -2.2566    0.0600    5.3109 C   0  0  0  0  0  0  0  0  0  0  0  0
   -3.0163   -0.7363    5.3643 H   0  0  0  0  0  0  0  0  0  0  0  0
   -1.4254   -0.2876    5.9452 H   0  0  0  0  0  0  0  0  0  0  0  0
   -2.6947    0.9149    5.8505 H   0  0  0  0  0  0  0  0  0  0  0  0
   -2.5745    1.3149    3.2691 N   0  0  0  0  0  0  0  0  0  0  0  0
   -2.3276    1.7409    1.9167 C   0  0  2  0  0  0  0  0  0  0  0  0
   -0.9926    1.1555    1.4755 C   0  0  0  0  0  0  0  0  0  0  0  0
   -0.1206    0.8028    2.2668 O   0  0  0  0  0  0  0  0  0  0  0  0
   -2.3188    3.2577    1.8072 C   0  0  0  0  0  0  0  0  0  0  0  0
   -3.3395    1.7507    3.7809 H   0  0  0  0  0  0  0  0  0  0  0  0
   -3.1317    1.3224    1.3015 H   0  0  0  0  0  0  0  0  0  0  0  0
   -1.5198    3.6949    2.4169 H   0  0  0  0  0  0  0  0  0  0  0  0
   -2.1594    3.5799    0.7729 H   0  0  0  0  0  0  0  0  0  0  0  0
   -3.2690    3.6789    2.1530 H   0  0  0  0  0  0  0  0  0  0  0  0
   -0.8700    1.1124    0.0921 N   0  0  0  0  0  0  0  0  0  0  0  0
    0.3073    0.6116   -0.5716 C   0  0  2  0  0  0  0  0  0  0  0  0
   -0.1639   -0.2990   -1.6998 C   0  0  0  0  0  0  0  0  0  0  0  0
    0.4879   -0.4863   -2.7250 O   0  0  0  0  0  0  0  0  0  0  0  0
    1.2280   -0.1564    0.3838 C   0  0  0  0  0  0  0  0  0  0  0  0
    1.8508    0.7312    1.4336 C   0  0  0  0  0  0  0  0  0  0  0  0
    2.9732    1.4987    1.1224 C   0  0  0  0  0  0  0  0  0  0  0  0
    1.3033    0.7840    2.7155 C   0  0  0  0  0  0  0  0  0  0  0  0
    3.5482    2.3189    2.0931 C   0  0  0  0  0  0  0  0  0  0  0  0
    1.8783    1.6043    3.6861 C   0  0  0  0  0  0  0  0  0  0  0  0
    3.0007    2.3718    3.3749 C   0  0  0  0  0  0  0  0  0  0  0  0
   -1.6531    1.4091   -0.4852 H   0  0  0  0  0  0  0  0  0  0  0  0
    0.8173    1.4816   -1.0018 H   0  0  0  0  0  0  0  0  0  0  0  0
    2.0175   -0.6711   -0.1804 H   0  0  0  0  0  0  0  0  0  0  0  0
    0.6720   -0.9541    0.8938 H   0  0  0  0  0  0  0  0  0  0  0  0
    3.4064    1.4640    0.1263 H   0  0  0  0  0  0  0  0  0  0  0  0
    0.4289    0.1896    2.9669 H   0  0  0  0  0  0  0  0  0  0  0  0
    4.4228    2.9157    1.8509 H   0  0  0  0  0  0  0  0  0  0  0  0
    1.4524    1.6443    4.6843 H   0  0  0  0  0  0  0  0  0  0  0  0
    3.4493    3.0095    4.1310 H   0  0  0  0  0  0  0  0  0  0  0  0
   -1.3723   -0.9132   -1.4015 N   0  0  0  0  0  0  0  0  0  0  0  0
   -2.0303   -1.8437   -2.2903 C   0  0  2  0  0  0  0  0  0  0  0  0
   -2.0989   -1.2062   -3.6717 C   0  0  0  0  0  0  0  0  0  0  0  0
   -2.0354    0.0078   -3.8541 O   0  0  0  0  0  0  0  0  0  0  0  0
   -3.4201   -2.2012   -1.7869 C   0  0  0  0  0  0  0  0  0  0  0  0
   -1.8166   -0.6978   -0.5138 H   0  0  0  0  0  0  0  0  0  0  0  0
   -1.4015   -2.7398   -2.3318 H   0  0  0  0  0  0  0  0  0  0  0  0
   -4.0645   -1.3158   -1.7385 H   0  0  0  0  0  0  0  0  0  0  0  0
   -3.9060   -2.9280   -2.4461 H   0  0  0  0  0  0  0  0  0  0  0  0
   -3.3714   -2.6322   -0.7811 H   0  0  0  0  0  0  0  0  0  0  0  0
   -2.2828   -2.1493   -4.6732 N   0  0  0  0  0  0  0  0  0  0  0  0
   -2.3919   -1.7934   -6.0687 C   0  0  0  0  0  0  0  0  0  0  0  0
   -2.3051   -3.1358   -4.4325 H   0  0  0  0  0  0  0  0  0  0  0  0
   -3.4514   -1.6570   -6.3311 H   0  0  0  0  0  0  0  0  0  0  0  0
   -1.8453   -0.8565   -6.2518 H   0  0  0  0  0  0  0  0  0  0  0  0
   -1.9617   -2.5956   -6.6862 H   0  0  0  0  0  0  0  0  0  0  0  0
 25 27  1  0  0  0  0
 26 27  2  0  0  0  0
 23 25  2  0  0  0  0
 24 26  1  0  0  0  0
 22 23  1  0  0  0  0
 22 24  2  0  0  0  0
 21 22  1  0  0  0  0
  1  3  1  0  0  0  0
  1  7  1  0  0  0  0
  1  2  2  0  0  0  0
 38 39  1  0  0  0  0
 39 47  1  0  0  0  0
 39 40  2  0  0  0  0
  8  9  1  0  0  0  0
  9 17  1  0  0  0  0
  9 10  2  0  0  0  0
 18 19  1  0  0  0  0
 19 37  1  0  0  0  0
 19 20  2  0  0  0  0
 38 41  1  0  0  0  0
  8 11  1  0  0  0  0
 47 48  1  0  0  0  0
 18 21  1  0  0  0  0
 37 38  1  0  0  0  0
  7  8  1  0  0  0  0
 17 18  1  0  0  0  0
 27 36  1  0  0  0  0
 25 34  1  0  0  0  0
 26 35  1  0  0  0  0
 23 32  1  0  0  0  0
 24 33  1  0  0  0  0
  3  4  1  0  0  0  0
  3  5  1  0  0  0  0
  3  6  1  0  0  0  0
 41 44  1  0  0  0  0
 41 45  1  0  0  0  0
 41 46  1  0  0  0  0
 11 14  1  0  0  0  0
 11 15  1  0  0  0  0
 11 16  1  0  0  0  0
 48 50  1  0  0  0  0
 48 51  1  0  0  0  0
 48 52  1  0  0  0  0
 21 30  1  0  0  0  0
 21 31  1  0  0  0  0
 38 43  1  0  0  0  0
  8 13  1  0  0  0  0
 18 29  1  0  0  0  0
 47 49  1  0  0  0  0
  7 12  1  0  0  0  0
 37 42  1  0  0  0  0
 17 28  1  0  0  0  0
M  END
$$$$

  -OEChem-05262214473D

 52 52  0     1  0  0  0  0  0999 V2000
   -1.8248    0.3424    3.9102 C   0  0  0  0  0  0  0  0  0  0  0  0
   -0.8774   -0.2723    3.4345 O   0  0  0  0  0  0  0  0  0  0  0  0
   -2.2566    0.0600    5.3109 C   0  0  0  0  0  0  0  0  0  0  0  0
   -3.0163   -0.7363    5.3643 H   0  0  0  0  0  0  0  0  0  0  0  0
   -1.4254   -0.2876    5.9452 H   0  0  0  0  0  0  0  0  0  0  0  0
   -2.6947    0.9149    5.8505 H   0  0  0  0  0  0  0  0  0  0  0  0
   -2.5745    1.3149    3.2691 N   0  0  0  0  0  0  0  0  0  0  0  0
   -2.3276    1.7409    1.9167 C   0  0  2  0  0  0  0  0  0  0  0  0
   -0.9926    1.1555    1.4755 C   0  0  0  0  0  0  0  0  0  0  0  0
   -0.1206    0.8028    2.2668 O   0  0  0  0  0  0  0  0  0  0  0  0
   -2.3188    3.2577    1.8072 C   0  0  0  0  0  0  0  0  0  0  0  0
   -3.3395    1.7507    3.7809 H   0  0  0  0  0  0  0  0  0  0  0  0
   -3.1317    1.3224    1.3015 H   0  0  0  0  0  0  0  0  0  0  0  0
   -1.5198    3.6949    2.4169 H   0  0  0  0  0  0  0  0  0  0  0  0
   -2.1594    3.5799    0.7729 H   0  0  0  0  0  0  0  0  0  0  0  0
   -3.2690    3.6789    2.1530 H   0  0  0  0  0  0  0  0  0  0  0  0
   -0.8700    1.1124    0.0921 N   0  0  0  0  0  0  0  0  0  0  0  0
    0.3073    0.6116   -0.5716 C   0  0  2  0  0  0  0  0  0  0  0  0
   -0.1639   -0.2990   -1.6998 C   0  0  0  0  0  0  0  0  0  0  0  0
    0.5812   -0.7004   -2.5912 O   0  0  0  0  0  0  0  0  0  0  0  0
    1.2280   -0.1564    0.3838 C   0  0  0  0  0  0  0  0  0  0  0  0
    1.8508    0.7312    1.4336 C   0  0  0  0  0  0  0  0  0  0  0  0
    2.9732    1.4987    1.1224 C   0  0  0  0  0  0  0  0  0  0  0  0
    1.3033    0.7840    2.7155 C   0  0  0  0  0  0  0  0  0  0  0  0
    3.5482    2.3189    2.0931 C   0  0  0  0  0  0  0  0  0  0  0  0
    1.8783    1.6043    3.6861 C   0  0  0  0  0  0  0  0  0  0  0  0
    3.0007    2.3718    3.3749 C   0  0  0  0  0  0  0  0  0  0  0  0
   -1.6531    1.4091   -0.4852 H   0  0  0  0  0  0  0  0  0  0  0  0
    0.8173    1.4816   -1.0018 H   0  0  0  0  0  0  0  0  0  0  0  0
    2.0175   -0.6711   -0.1804 H   0  0  0  0  0  0  0  0  0  0  0  0
    0.6720   -0.9541    0.8938 H   0  0  0  0  0  0  0  0  0  0  0  0
    3.4064    1.4640    0.1263 H   0  0  0  0  0  0  0  0  0  0  0  0
    0.4289    0.1896    2.9669 H   0  0  0  0  0  0  0  0  0  0  0  0
    4.4228    2.9157    1.8509 H   0  0  0  0  0  0  0  0  0  0  0  0
    1.4524    1.6443    4.6843 H   0  0  0  0  0  0  0  0  0  0  0  0
    3.4493    3.0095    4.1310 H   0  0  0  0  0  0  0  0  0  0  0  0
   -1.5004   -0.6475   -1.5624 N   0  0  0  0  0  0  0  0  0  0  0  0
   -2.1917   -1.5202   -2.4839 C   0  0  2  0  0  0  0  0  0  0  0  0
   -1.9293   -1.0153   -3.8966 C   0  0  0  0  0  0  0  0  0  0  0  0
   -1.6008    0.1430   -4.1447 O   0  0  0  0  0  0  0  0  0  0  0  0
   -3.6833   -1.5646   -2.1908 C   0  0  0  0  0  0  0  0  0  0  0  0
   -2.0187   -0.2702   -0.7745 H   0  0  0  0  0  0  0  0  0  0  0  0
   -1.7535   -2.5171   -2.3645 H   0  0  0  0  0  0  0  0  0  0  0  0
   -4.1398   -0.5746   -2.3053 H   0  0  0  0  0  0  0  0  0  0  0  0
   -4.2013   -2.2481   -2.8716 H   0  0  0  0  0  0  0  0  0  0  0  0
   -3.8690   -1.8995   -1.1646 H   0  0  0  0  0  0  0  0  0  0  0  0
   -2.1471   -1.9988   -4.8512 N   0  0  0  0  0  0  0  0  0  0  0  0
   -1.9775   -1.7632   -6.2661 C   0  0  0  0  0  0  0  0  0  0  0  0
   -2.3993   -2.9368   -4.5538 H   0  0  0  0  0  0  0  0  0  0  0  0
   -2.9389   -1.4585   -6.7053 H   0  0  0  0  0  0  0  0  0  0  0  0
   -1.2356   -0.9655   -6.4185 H   0  0  0  0  0  0  0  0  0  0  0  0
   -1.6286   -2.6863   -6.7522 H   0  0  0  0  0  0  0  0  0  0  0  0
 25 27  1  0  0  0  0
 26 27  2  0  0  0  0
 23 25  2  0  0  0  0
 24 26  1  0  0  0  0
 22 23  1  0  0  0  0
 22 24  2  0  0  0  0
 21 22  1  0  0  0  0
  1  3  1  0  0  0  0
  1  7  1  0  0  0  0
  1  2  2  0  0  0  0
 38 39  1  0  0  0  0
 39 47  1  0  0  0  0
 39 40  2  0  0  0  0
  8  9  1  0  0  0  0
  9 17  1  0  0  0  0
  9 10  2  0  0  0  0
 18 19  1  0  0  0  0
 19 37  1  0  0  0  0
 19 20  2  0  0  0  0
 38 41  1  0  0  0  0
  8 11  1  0  0  0  0
 47 48  1  0  0  0  0
 18 21  1  0  0  0  0
 37 38  1  0  0  0  0
  7  8  1  0  0  0  0
 17 18  1  0  0  0  0
 27 36  1  0  0  0  0
 25 34  1  0  0  0  0
 26 35  1  0  0  0  0
 23 32  1  0  0  0  0
 24 33  1  0  0  0  0
  3  4  1  0  0  0  0
  3  5  1  0  0  0  0
  3  6  1  0  0  0  0
 41 44  1  0  0  0  0
 41 45  1  0  0  0  0
 41 46  1  0  0  0  0
 11 14  1  0  0  0  0
 11 15  1  0  0  0  0
 11 16  1  0  0  0  0
 48 50  1  0  0  0  0
 48 51  1  0  0  0  0
 48 52  1  0  0  0  0
 21 30  1  0  0  0  0
 21 31  1  0  0  0  0
 38 43  1  0  0  0  0
  8 13  1  0  0  0  0
 18 29  1  0  0  0  0
 47 49  1  0  0  0  0
  7 12  1  0  0  0  0
 37 42  1  0  0  0  0
 17 28  1  0  0  0  0
M  END
$$$$

  -OEChem-05262214473D

 52 52  0     1  0  0  0  0  0999 V2000
   -1.8248    0.3424    3.9102 C   0  0  0  0  0  0  0  0  0  0  0  0
   -0.8774   -0.2723    3.4345 O   0  0  0  0  0  0  0  0  0  0  0  0
   -2.2566    0.0600    5.3109 C   0  0  0  0  0  0  0  0  0  0  0  0
   -3.0163   -0.7363    5.3643 H   0  0  0  0  0  0  0  0  0  0  0  0
   -1.4254   -0.2876    5.9452 H   0  0  0  0  0  0  0  0  0  0  0  0
   -2.6947    0.9149    5.8505 H   0  0  0  0  0  0  0  0  0  0  0  0
   -2.5745    1.3149    3.2691 N   0  0  0  0  0  0  0  0  0  0  0  0
   -2.3276    1.7409    1.9167 C   0  0  2  0  0  0  0  0  0  0  0  0
   -0.9926    1.1555    1.4755 C   0  0  0  0  0  0  0  0  0  0  0  0
   -0.1206    0.8028    2.2668 O   0  0  0  0  0  0  0  0  0  0  0  0
   -2.3188    3.2577    1.8072 C   0  0  0  0  0  0  0  0  0  0  0  0
   -3.3395    1.7507    3.7809 H   0  0  0  0  0  0  0  0  0  0  0  0
   -3.1317    1.3224    1.3015 H   0  0  0  0  0  0  0  0  0  0  0  0
   -1.5198    3.6949    2.4169 H   0  0  0  0  0  0  0  0  0  0  0  0
   -2.1594    3.5799    0.7729 H   0  0  0  0  0  0  0  0  0  0  0  0
   -3.2690    3.6789    2.1530 H   0  0  0  0  0  0  0  0  0  0  0  0
   -0.8700    1.1124    0.0921 N   0  0  0  0  0  0  0  0  0  0  0  0
    0.3073    0.6116   -0.5716 C   0  0  2  0  0  0  0  0  0  0  0  0
   -0.1639   -0.2990   -1.6998 C   0  0  0  0  0  0  0  0  0  0  0  0
    0.6097   -0.9144   -2.4304 O   0  0  0  0  0  0  0  0  0  0  0  0
    1.2280   -0.1564    0.3838 C   0  0  0  0  0  0  0  0  0  0  0  0
    1.8508    0.7312    1.4336 C   0  0  0  0  0  0  0  0  0  0  0  0
    2.9732    1.4987    1.1224 C   0  0  0  0  0  0  0  0  0  0  0  0
    1.3033    0.7840    2.7155 C   0  0  0  0  0  0  0  0  0  0  0  0
    3.5482    2.3189    2.0931 C   0  0  0  0  0  0  0  0  0  0  0  0
    1.8783    1.6043    3.6861 C   0  0  0  0  0  0  0  0  0  0  0  0
    3.0007    2.3718    3.3749 C   0  0  0  0  0  0  0  0  0  0  0  0
   -1.6531    1.4091   -0.4852 H   0  0  0  0  0  0  0  0  0  0  0  0
    0.8173    1.4816   -1.0018 H   0  0  0  0  0  0  0  0  0  0  0  0
    2.0175   -0.6711   -0.1804 H   0  0  0  0  0  0  0  0  0  0  0  0
    0.6720   -0.9541    0.8938 H   0  0  0  0  0  0  0  0  0  0  0  0
    3.4064    1.4640    0.1263 H   0  0  0  0  0  0  0  0  0  0  0  0
    0.4289    0.1896    2.9669 H   0  0  0  0  0  0  0  0  0  0  0  0
    4.4228    2.9157    1.8509 H   0  0  0  0  0  0  0  0  0  0  0  0
    1.4524    1.6443    4.6843 H   0  0  0  0  0  0  0  0  0  0  0  0
    3.4493    3.0095    4.1310 H   0  0  0  0  0  0  0  0  0  0  0  0
   -1.5483   -0.3792   -1.7589 N   0  0  0  0  0  0  0  0  0  0  0  0
   -2.2557   -1.1924   -2.7218 C   0  0  2  0  0  0  0  0  0  0  0  0
   -1.6942   -0.8814   -4.1029 C   0  0  0  0  0  0  0  0  0  0  0  0
   -1.1102    0.1671   -4.3691 O   0  0  0  0  0  0  0  0  0  0  0  0
   -3.7531   -0.9315   -2.6725 C   0  0  0  0  0  0  0  0  0  0  0  0
   -2.0916    0.1608   -1.0918 H   0  0  0  0  0  0  0  0  0  0  0  0
   -2.0458   -2.2372   -2.4683 H   0  0  0  0  0  0  0  0  0  0  0  0
   -3.9829    0.1104   -2.9237 H   0  0  0  0  0  0  0  0  0  0  0  0
   -4.2905   -1.5689   -3.3825 H   0  0  0  0  0  0  0  0  0  0  0  0
   -4.1500   -1.1272   -1.6705 H   0  0  0  0  0  0  0  0  0  0  0  0
   -1.9596   -1.8938   -5.0143 N   0  0  0  0  0  0  0  0  0  0  0  0
   -1.5410   -1.8292   -6.3951 C   0  0  0  0  0  0  0  0  0  0  0  0
   -2.4333   -2.7362   -4.7015 H   0  0  0  0  0  0  0  0  0  0  0  0
   -2.3480   -1.3948   -7.0035 H   0  0  0  0  0  0  0  0  0  0  0  0
   -0.6418   -1.2010   -6.4765 H   0  0  0  0  0  0  0  0  0  0  0  0
   -1.3141   -2.8429   -6.7571 H   0  0  0  0  0  0  0  0  0  0  0  0
 25 27  1  0  0  0  0
 26 27  2  0  0  0  0
 23 25  2  0  0  0  0
 24 26  1  0  0  0  0
 22 23  1  0  0  0  0
 22 24  2  0  0  0  0
 21 22  1  0  0  0  0
  1  3  1  0  0  0  0
  1  7  1  0  0  0  0
  1  2  2  0  0  0  0
 38 39  1  0  0  0  0
 39 47  1  0  0  0  0
 39 40  2  0  0  0  0
  8  9  1  0  0  0  0
  9 17  1  0  0  0  0
  9 10  2  0  0  0  0
 18 19  1  0  0  0  0
 19 37  1  0  0  0  0
 19 20  2  0  0  0  0
 38 41  1  0  0  0  0
  8 11  1  0  0  0  0
 47 48  1  0  0  0  0
 18 21  1  0  0  0  0
 37 38  1  0  0  0  0
  7  8  1  0  0  0  0
 17 18  1  0  0  0  0
 27 36  1  0  0  0  0
 25 34  1  0  0  0  0
 26 35  1  0  0  0  0
 23 32  1  0  0  0  0
 24 33  1  0  0  0  0
  3  4  1  0  0  0  0
  3  5  1  0  0  0  0
  3  6  1  0  0  0  0
 41 44  1  0  0  0  0
 41 45  1  0  0  0  0
 41 46  1  0  0  0  0
 11 14  1  0  0  0  0
 11 15  1  0  0  0  0
 11 16  1  0  0  0  0
 48 50  1  0  0  0  0
 48 51  1  0  0  0  0
 48 52  1  0  0  0  0
 21 30  1  0  0  0  0
 21 31  1  0  0  0  0
 38 43  1  0  0  0  0
  8 13  1  0  0  0  0
 18 29  1  0  0  0  0
 47 49  1  0  0  0  0
  7 12  1  0  0  0  0
 37 42  1  0  0  0  0
 17 28  1  0  0  0  0
M  END
$$$$

  -OEChem-05262214473D

 52 52  0     1  0  0  0  0  0999 V2000
   -1.8248    0.3424    3.9102 C   0  0  0  0  0  0  0  0  0  0  0  0
   -0.8774   -0.2723    3.4345 O   0  0  0  0  0  0  0  0  0  0  0  0
   -2.2566    0.0600    5.3109 C   0  0  0  0  0  0  0  0  0  0  0  0
   -3.0163   -0.7363    5.3643 H   0  0  0  0  0  0  0  0  0  0  0  0
   -1.4254   -0.2876    5.9452 H   0  0  0  0  0  0  0  0  0  0  0  0
   -2.6947    0.9149    5.8505 H   0  0  0  0  0  0  0  0  0  0  0  0
   -2.5745    1.3149    3.2691 N   0  0  0  0  0  0  0  0  0  0  0  0
   -2.3276    1.7409    1.9167 C   0  0  2  0  0  0  0  0  0  0  0  0
   -0.9926    1.1555    1.4755 C   0  0  0  0  0  0  0  0  0  0  0  0
   -0.1206    0.8028    2.2668 O   0  0  0  0  0  0  0  0  0  0  0  0
   -2.3188    3.2577    1.8072 C   0  0  0  0  0  0  0  0  0  0  0  0
   -3.3395    1.7507    3.7809 H   0  0  0  0  0  0  0  0  0  0  0  0
   -3.1317    1.3224    1.3015 H   0  0  0  0  0  0  0  0  0  0  0  0
   -1.5198    3.6949    2.4169 H   0  0  0  0  0  0  0  0  0  0  0  0
   -2.1594    3.5799    0.7729 H   0  0  0  0  0  0  0  0  0  0  0  0
   -3.2690    3.6789    2.1530 H   0  0  0  0  0  0  0  0  0  0  0  0
   -0.8700    1.1124    0.0921 N   0  0  0  0  0  0  0  0  0  0  0  0
    0.3073    0.6116   -0.5716 C   0  0  2  0  0  0  0  0  0  0  0  0
   -0.1639   -0.2990   -1.6998 C   0  0  0  0  0  0  0  0  0  0  0  0
    0.5713   -1.1137   -2.2535 O   0  0  0  0  0  0  0  0  0  0  0  0
    1.2280   -0.1564    0.3838 C   0  0  0  0  0  0  0  0  0  0  0  0
    1.8508    0.7312    1.4336 C   0  0  0  0  0  0  0  0  0  0  0  0
    2.9732    1.4987    1.1224 C   0  0  0  0  0  0  0  0  0  0  0  0
    1.3033    0.7840    2.7155 C   0  0  0  0  0  0  0  0  0  0  0  0
    3.5482    2.3189    2.0931 C   0  0  0  0  0  0  0  0  0  0  0  0
    1.8783    1.6043    3.6861 C   0  0  0  0  0  0  0  0  0  0  0  0
    3.0007    2.3718    3.3749 C   0  0  0  0  0  0  0  0  0  0  0  0
   -1.6531    1.4091   -0.4852 H   0  0  0  0  0  0  0  0  0  0  0  0
    0.8173    1.4816   -1.0018 H   0  0  0  0  0  0  0  0  0  0  0  0
    2.0175   -0.6711   -0.1804 H   0  0  0  0  0  0  0  0  0  0  0  0
    0.6720   -0.9541    0.8938 H   0  0  0  0  0  0  0  0  0  0  0  0
    3.4064    1.4640    0.1263 H   0  0  0  0  0  0  0  0  0  0  0  0
    0.4289    0.1896    2.9669 H   0  0  0  0  0  0  0  0  0  0  0  0
    4.4228    2.9157    1.8509 H   0  0  0  0  0  0  0  0  0  0  0  0
    1.4524    1.6443    4.6843 H   0  0  0  0  0  0  0  0  0  0  0  0
    3.4493    3.0095    4.1310 H   0  0  0  0  0  0  0  0  0  0  0  0
   -1.5129   -0.1266   -1.9776 N   0  0  0  0  0  0  0  0  0  0  0  0
   -2.2180   -0.8824   -2.9877 C   0  0  2  0  0  0  0  0  0  0  0  0
   -1.4095   -0.8136   -4.2765 C   0  0  0  0  0  0  0  0  0  0  0  0
   -0.5970    0.0784   -4.5119 O   0  0  0  0  0  0  0  0  0  0  0  0
   -3.6249   -0.3452   -3.1993 C   0  0  0  0  0  0  0  0  0  0  0  0
   -2.0305    0.5656   -1.4441 H   0  0  0  0  0  0  0  0  0  0  0  0
   -2.2584   -1.9192   -2.6362 H   0  0  0  0  0  0  0  0  0  0  0  0
   -3.6046    0.6925   -3.5515 H   0  0  0  0  0  0  0  0  0  0  0  0
   -4.1675   -0.9365   -3.9442 H   0  0  0  0  0  0  0  0  0  0  0  0
   -4.1953   -0.3678   -2.2645 H   0  0  0  0  0  0  0  0  0  0  0  0
   -1.7332   -1.8413   -5.1513 N   0  0  0  0  0  0  0  0  0  0  0  0
   -1.1121   -1.9870   -6.4470 C   0  0  0  0  0  0  0  0  0  0  0  0
   -2.4049   -2.5477   -4.8655 H   0  0  0  0  0  0  0  0  0  0  0  0
   -1.7189   -1.4704   -7.2053 H   0  0  0  0  0  0  0  0  0  0  0  0
   -0.1043   -1.5468   -6.4219 H   0  0  0  0  0  0  0  0  0  0  0  0
   -1.0396   -3.0548   -6.7007 H   0  0  0  0  0  0  0  0  0  0  0  0
 25 27  1  0  0  0  0
 26 27  2  0  0  0  0
 23 25  2  0  0  0  0
 24 26  1  0  0  0  0
 22 23  1  0  0  0  0
 22 24  2  0  0  0  0
 21 22  1  0  0  0  0
  1  3  1  0  0  0  0
  1  7  1  0  0  0  0
  1  2  2  0  0  0  0
 38 39  1  0  0  0  0
 39 47  1  0  0  0  0
 39 40  2  0  0  0  0
  8  9  1  0  0  0  0
  9 17  1  0  0  0  0
  9 10  2  0  0  0  0
 18 19  1  0  0  0  0
 19 37  1  0  0  0  0
 19 20  2  0  0  0  0
 38 41  1  0  0  0  0
  8 11  1  0  0  0  0
 47 48  1  0  0  0  0
 18 21  1  0  0  0  0
 37 38  1  0  0  0  0
  7  8  1  0  0  0  0
 17 18  1  0  0  0  0
 27 36  1  0  0  0  0
 25 34  1  0  0  0  0
 26 35  1  0  0  0  0
 23 32  1  0  0  0  0
 24 33  1  0  0  0  0
  3  4  1  0  0  0  0
  3  5  1  0  0  0  0
  3  6  1  0  0  0  0
 41 44  1  0  0  0  0
 41 45  1  0  0  0  0
 41 46  1  0  0  0  0
 11 14  1  0  0  0  0
 11 15  1  0  0  0  0
 11 16  1  0  0  0  0
 48 50  1  0  0  0  0
 48 51  1  0  0  0  0
 48 52  1  0  0  0  0
 21 30  1  0  0  0  0
 21 31  1  0  0  0  0
 38 43  1  0  0  0  0
  8 13  1  0  0  0  0
 18 29  1  0  0  0  0
 47 49  1  0  0  0  0
  7 12  1  0  0  0  0
 37 42  1  0  0  0  0
 17 28  1  0  0  0  0
M  END
$$$$

  -OEChem-05262214473D

 52 52  0     1  0  0  0  0  0999 V2000
   -1.8248    0.3424    3.9102 C   0  0  0  0  0  0  0  0  0  0  0  0
   -0.8774   -0.2723    3.4345 O   0  0  0  0  0  0  0  0  0  0  0  0
   -2.2566    0.0600    5.3109 C   0  0  0  0  0  0  0  0  0  0  0  0
   -3.0163   -0.7363    5.3643 H   0  0  0  0  0  0  0  0  0  0  0  0
   -1.4254   -0.2876    5.9452 H   0  0  0  0  0  0  0  0  0  0  0  0
   -2.6947    0.9149    5.8505 H   0  0  0  0  0  0  0  0  0  0  0  0
   -2.5745    1.3149    3.2691 N   0  0  0  0  0  0  0  0  0  0  0  0
   -2.3276    1.7409    1.9167 C   0  0  2  0  0  0  0  0  0  0  0  0
   -0.9926    1.1555    1.4755 C   0  0  0  0  0  0  0  0  0  0  0  0
   -0.1206    0.8028    2.2668 O   0  0  0  0  0  0  0  0  0  0  0  0
   -2.3188    3.2577    1.8072 C   0  0  0  0  0  0  0  0  0  0  0  0
   -3.3395    1.7507    3.7809 H   0  0  0  0  0  0  0  0  0  0  0  0
   -3.1317    1.3224    1.3015 H   0  0  0  0  0  0  0  0  0  0  0  0
   -1.5198    3.6949    2.4169 H   0  0  0  0  0  0  0  0  0  0  0  0
   -2.1594    3.5799    0.7729 H   0  0  0  0  0  0  0  0  0  0  0  0
   -3.2690    3.6789    2.1530 H   0  0  0  0  0  0  0  0  0  0  0  0
   -0.8700    1.1124    0.0921 N   0  0  0  0  0  0  0  0  0  0  0  0
    0.3073    0.6116   -0.5716 C   0  0  2  0  0  0  0  0  0  0  0  0
   -0.1639   -0.2990   -1.6998 C   0  0  0  0  0  0  0  0  0  0  0  0
    0.4687   -1.2847   -2.0727 O   0  0  0  0  0  0  0  0  0  0  0  0
    1.2280   -0.1564    0.3838 C   0  0  0  0  0  0  0  0  0  0  0  0
    1.8508    0.7312    1.4336 C   0  0  0  0  0  0  0  0  0  0  0  0
    2.9732    1.4987    1.1224 C   0  0  0  0  0  0  0  0  0  0  0  0
    1.3033    0.7840    2.7155 C   0  0  0  0  0  0  0  0  0  0  0  0
    3.5482    2.3189    2.0931 C   0  0  0  0  0  0  0  0  0  0  0  0
    1.8783    1.6043    3.6861 C   0  0  0  0  0  0  0  0  0  0  0  0
    3.0007    2.3718    3.3749 C   0  0  0  0  0  0  0  0  0  0  0  0
   -1.6531    1.4091   -0.4852 H   0  0  0  0  0  0  0  0  0  0  0  0
    0.8173    1.4816   -1.0018 H   0  0  0  0  0  0  0  0  0  0  0  0
    2.0175   -0.6711   -0.1804 H   0  0  0  0  0  0  0  0  0  0  0  0
    0.6720   -0.9541    0.8938 H   0  0  0  0  0  0  0  0  0  0  0  0
    3.4064    1.4640    0.1263 H   0  0  0  0  0  0  0  0  0  0  0  0
    0.4289    0.1896    2.9669 H   0  0  0  0  0  0  0  0  0  0  0  0
    4.4228    2.9157    1.8509 H   0  0  0  0  0  0  0  0  0  0  0  0
    1.4524    1.6443    4.6843 H   0  0  0  0  0  0  0  0  0  0  0  0
    3.4493    3.0095    4.1310 H   0  0  0  0  0  0  0  0  0  0  0  0
   -1.3964    0.0931   -2.2035 N   0  0  0  0  0  0  0  0  0  0  0  0
   -2.0811   -0.6116   -3.2635 C   0  0  2  0  0  0  0  0  0  0  0  0
   -1.0946   -0.8165   -4.4056 C   0  0  0  0  0  0  0  0  0  0  0  0
   -0.0962   -0.1169   -4.5634 O   0  0  0  0  0  0  0  0  0  0  0  0
   -3.3073    0.1544   -3.7352 C   0  0  0  0  0  0  0  0  0  0  0  0
   -1.8395    0.9168   -1.8073 H   0  0  0  0  0  0  0  0  0  0  0  0
   -2.3769   -1.5847   -2.8567 H   0  0  0  0  0  0  0  0  0  0  0  0
   -3.0306    1.1322   -4.1461 H   0  0  0  0  0  0  0  0  0  0  0  0
   -3.8408   -0.3943   -4.5183 H   0  0  0  0  0  0  0  0  0  0  0  0
   -4.0018    0.3268   -2.9059 H   0  0  0  0  0  0  0  0  0  0  0  0
   -1.4834   -1.8449   -5.2527 N   0  0  0  0  0  0  0  0  0  0  0  0
   -0.7200   -2.2256   -6.4182 C   0  0  0  0  0  0  0  0  0  0  0  0
   -2.3160   -2.3842   -5.0346 H   0  0  0  0  0  0  0  0  0  0  0  0
   -1.0946   -1.6801   -7.2968 H   0  0  0  0  0  0  0  0  0  0  0  0
    0.3402   -1.9794   -6.2584 H   0  0  0  0  0  0  0  0  0  0  0  0
   -0.8237   -3.3076   -6.5869 H   0  0  0  0  0  0  0  0  0  0  0  0
 25 27  1  0  0  0  0
 26 27  2  0  0  0  0
 23 25  2  0  0  0  0
 24 26  1  0  0  0  0
 22 23  1  0  0  0  0
 22 24  2  0  0  0  0
 21 22  1  0  0  0  0
  1  3  1  0  0  0  0
  1  7  1  0  0  0  0
  1  2  2  0  0  0  0
 38 39  1  0  0  0  0
 39 47  1  0  0  0  0
 39 40  2  0  0  0  0
  8  9  1  0  0  0  0
  9 17  1  0  0  0  0
  9 10  2  0  0  0  0
 18 19  1  0  0  0  0
 19 37  1  0  0  0  0
 19 20  2  0  0  0  0
 38 41  1  0  0  0  0
  8 11  1  0  0  0  0
 47 48  1  0  0  0  0
 18 21  1  0  0  0  0
 37 38  1  0  0  0  0
  7  8  1  0  0  0  0
 17 18  1  0  0  0  0
 27 36  1  0  0  0  0
 25 34  1  0  0  0  0
 26 35  1  0  0  0  0
 23 32  1  0  0  0  0
 24 33  1  0  0  0  0
  3  4  1  0  0  0  0
  3  5  1  0  0  0  0
  3  6  1  0  0  0  0
 41 44  1  0  0  0  0
 41 45  1  0  0  0  0
 41 46  1  0  0  0  0
 11 14  1  0  0  0  0
 11 15  1  0  0  0  0
 11 16  1  0  0  0  0
 48 50  1  0  0  0  0
 48 51  1  0  0  0  0
 48 52  1  0  0  0  0
 21 30  1  0  0  0  0
 21 31  1  0  0  0  0
 38 43  1  0  0  0  0
  8 13  1  0  0  0  0
 18 29  1  0  0  0  0
 47 49  1  0  0  0  0
  7 12  1  0  0  0  0
 37 42  1  0  0  0  0
 17 28  1  0  0  0  0
M  END
$$$$

  -OEChem-05262214473D

 52 52  0     1  0  0  0  0  0999 V2000
   -1.8248    0.3424    3.9102 C   0  0  0  0  0  0  0  0  0  0  0  0
   -0.8774   -0.2723    3.4345 O   0  0  0  0  0  0  0  0  0  0  0  0
   -2.2566    0.0600    5.3109 C   0  0  0  0  0  0  0  0  0  0  0  0
   -3.0163   -0.7363    5.3643 H   0  0  0  0  0  0  0  0  0  0  0  0
   -1.4254   -0.2876    5.9452 H   0  0  0  0  0  0  0  0  0  0  0  0
   -2.6947    0.9149    5.8505 H   0  0  0  0  0  0  0  0  0  0  0  0
   -2.5745    1.3149    3.2691 N   0  0  0  0  0  0  0  0  0  0  0  0
   -2.3276    1.7409    1.9167 C   0  0  2  0  0  0  0  0  0  0  0  0
   -0.9926    1.1555    1.4755 C   0  0  0  0  0  0  0  0  0  0  0  0
   -0.1206    0.8028    2.2668 O   0  0  0  0  0  0  0  0  0  0  0  0
   -2.3188    3.2577    1.8072 C   0  0  0  0  0  0  0  0  0  0  0  0
   -3.3395    1.7507    3.7809 H   0  0  0  0  0  0  0  0  0  0  0  0
   -3.1317    1.3224    1.3015 H   0  0  0  0  0  0  0  0  0  0  0  0
   -1.5198    3.6949    2.4169 H   0  0  0  0  0  0  0  0  0  0  0  0
   -2.1594    3.5799    0.7729 H   0  0  0  0  0  0  0  0  0  0  0  0
   -3.2690    3.6789    2.1530 H   0  0  0  0  0  0  0  0  0  0  0  0
   -0.8700    1.1124    0.0921 N   0  0  0  0  0  0  0  0  0  0  0  0
    0.3073    0.6116   -0.5716 C   0  0  2  0  0  0  0  0  0  0  0  0
   -0.1639   -0.2990   -1.6998 C   0  0  0  0  0  0  0  0  0  0  0  0
    0.3090   -1.4157   -1.9002 O   0  0  0  0  0  0  0  0  0  0  0  0
    1.2280   -0.1564    0.3838 C   0  0  0  0  0  0  0  0  0  0  0  0
    1.8508    0.7312    1.4336 C   0  0  0  0  0  0  0  0  0  0  0  0
    2.9732    1.4987    1.1224 C   0  0  0  0  0  0  0  0  0  0  0  0
    1.3033    0.7840    2.7155 C   0  0  0  0  0  0  0  0  0  0  0  0
    3.5482    2.3189    2.0931 C   0  0  0  0  0  0  0  0  0  0  0  0
    1.8783    1.6043    3.6861 C   0  0  0  0  0  0  0  0  0  0  0  0
    3.0007    2.3718    3.3749 C   0  0  0  0  0  0  0  0  0  0  0  0
   -1.6531    1.4091   -0.4852 H   0  0  0  0  0  0  0  0  0  0  0  0
    0.8173    1.4816   -1.0018 H   0  0  0  0  0  0  0  0  0  0  0  0
    2.0175   -0.6711   -0.1804 H   0  0  0  0  0  0  0  0  0  0  0  0
    0.6720   -0.9541    0.8938 H   0  0  0  0  0  0  0  0  0  0  0  0
    3.4064    1.4640    0.1263 H   0  0  0  0  0  0  0  0  0  0  0  0
    0.4289    0.1896    2.9669 H   0  0  0  0  0  0  0  0  0  0  0  0
    4.4228    2.9157    1.8509 H   0  0  0  0  0  0  0  0  0  0  0  0
    1.4524    1.6443    4.6843 H   0  0  0  0  0  0  0  0  0  0  0  0
    3.4493    3.0095    4.1310 H   0  0  0  0  0  0  0  0  0  0  0  0
   -1.2069    0.2649   -2.4214 N   0  0  0  0  0  0  0  0  0  0  0  0
   -1.8543   -0.3982   -3.5304 C   0  0  2  0  0  0  0  0  0  0  0  0
   -0.7712   -0.8900   -4.4815 C   0  0  0  0  0  0  0  0  0  0  0  0
    0.3580   -0.4057   -4.5201 O   0  0  0  0  0  0  0  0  0  0  0  0
   -2.8219    0.5333   -4.2437 C   0  0  0  0  0  0  0  0  0  0  0  0
   -1.5316    1.1903   -2.1567 H   0  0  0  0  0  0  0  0  0  0  0  0
   -2.3933   -1.2565   -3.1147 H   0  0  0  0  0  0  0  0  0  0  0  0
   -2.3000    1.3993   -4.6668 H   0  0  0  0  0  0  0  0  0  0  0  0
   -3.3326    0.0210   -5.0657 H   0  0  0  0  0  0  0  0  0  0  0  0
   -3.5827    0.9094   -3.5512 H   0  0  0  0  0  0  0  0  0  0  0  0
   -1.2270   -1.9043   -5.3118 N   0  0  0  0  0  0  0  0  0  0  0  0
   -0.3914   -2.5289   -6.3106 C   0  0  0  0  0  0  0  0  0  0  0  0
   -2.1727   -2.2569   -5.1972 H   0  0  0  0  0  0  0  0  0  0  0  0
   -0.5175   -2.0095   -7.2720 H   0  0  0  0  0  0  0  0  0  0  0  0
    0.6614   -2.4693   -5.9972 H   0  0  0  0  0  0  0  0  0  0  0  0
   -0.6812   -3.5840   -6.4233 H   0  0  0  0  0  0  0  0  0  0  0  0
 25 27  1  0  0  0  0
 26 27  2  0  0  0  0
 23 25  2  0  0  0  0
 24 26  1  0  0  0  0
 22 23  1  0  0  0  0
 22 24  2  0  0  0  0
 21 22  1  0  0  0  0
  1  3  1  0  0  0  0
  1  7  1  0  0  0  0
  1  2  2  0  0  0  0
 38 39  1  0  0  0  0
 39 47  1  0  0  0  0
 39 40  2  0  0  0  0
  8  9  1  0  0  0  0
  9 17  1  0  0  0  0
  9 10  2  0  0  0  0
 18 19  1  0  0  0  0
 19 37  1  0  0  0  0
 19 20  2  0  0  0  0
 38 41  1  0  0  0  0
  8 11  1  0  0  0  0
 47 48  1  0  0  0  0
 18 21  1  0  0  0  0
 37 38  1  0  0  0  0
  7  8  1  0  0  0  0
 17 18  1  0  0  0  0
 27 36  1  0  0  0  0
 25 34  1  0  0  0  0
 26 35  1  0  0  0  0
 23 32  1  0  0  0  0
 24 33  1  0  0  0  0
  3  4  1  0  0  0  0
  3  5  1  0  0  0  0
  3  6  1  0  0  0  0
 41 44  1  0  0  0  0
 41 45  1  0  0  0  0
 41 46  1  0  0  0  0
 11 14  1  0  0  0  0
 11 15  1  0  0  0  0
 11 16  1  0  0  0  0
 48 50  1  0  0  0  0
 48 51  1  0  0  0  0
 48 52  1  0  0  0  0
 21 30  1  0  0  0  0
 21 31  1  0  0  0  0
 38 43  1  0  0  0  0
  8 13  1  0  0  0  0
 18 29  1  0  0  0  0
 47 49  1  0  0  0  0
  7 12  1  0  0  0  0
 37 42  1  0  0  0  0
 17 28  1  0  0  0  0
M  END
$$$$

  -OEChem-05262214473D

 52 52  0     1  0  0  0  0  0999 V2000
   -1.8248    0.3424    3.9102 C   0  0  0  0  0  0  0  0  0  0  0  0
   -0.8774   -0.2723    3.4345 O   0  0  0  0  0  0  0  0  0  0  0  0
   -2.2566    0.0600    5.3109 C   0  0  0  0  0  0  0  0  0  0  0  0
   -3.0163   -0.7363    5.3643 H   0  0  0  0  0  0  0  0  0  0  0  0
   -1.4254   -0.2876    5.9452 H   0  0  0  0  0  0  0  0  0  0  0  0
   -2.6947    0.9149    5.8505 H   0  0  0  0  0  0  0  0  0  0  0  0
   -2.5745    1.3149    3.2691 N   0  0  0  0  0  0  0  0  0  0  0  0
   -2.3276    1.7409    1.9167 C   0  0  2  0  0  0  0  0  0  0  0  0
   -0.9926    1.1555    1.4755 C   0  0  0  0  0  0  0  0  0  0  0  0
   -0.1206    0.8028    2.2668 O   0  0  0  0  0  0  0  0  0  0  0  0
   -2.3188    3.2577    1.8072 C   0  0  0  0  0  0  0  0  0  0  0  0
   -3.3395    1.7507    3.7809 H   0  0  0  0  0  0  0  0  0  0  0  0
   -3.1317    1.3224    1.3015 H   0  0  0  0  0  0  0  0  0  0  0  0
   -1.5198    3.6949    2.4169 H   0  0  0  0  0  0  0  0  0  0  0  0
   -2.1594    3.5799    0.7729 H   0  0  0  0  0  0  0  0  0  0  0  0
   -3.2690    3.6789    2.1530 H   0  0  0  0  0  0  0  0  0  0  0  0
   -0.8700    1.1124    0.0921 N   0  0  0  0  0  0  0  0  0  0  0  0
    0.3073    0.6116   -0.5716 C   0  0  2  0  0  0  0  0  0  0  0  0
   -0.1639   -0.2990   -1.6998 C   0  0  0  0  0  0  0  0  0  0  0  0
    0.1029   -1.4979   -1.7478 O   0  0  0  0  0  0  0  0  0  0  0  0
    1.2280   -0.1564    0.3838 C   0  0  0  0  0  0  0  0  0  0  0  0
    1.8508    0.7312    1.4336 C   0  0  0  0  0  0  0  0  0  0  0  0
    2.9732    1.4987    1.1224 C   0  0  0  0  0  0  0  0  0  0  0  0
    1.3033    0.7840    2.7155 C   0  0  0  0  0  0  0  0  0  0  0  0
    3.5482    2.3189    2.0931 C   0  0  0  0  0  0  0  0  0  0  0  0
    1.8783    1.6043    3.6861 C   0  0  0  0  0  0  0  0  0  0  0  0
    3.0007    2.3718    3.3749 C   0  0  0  0  0  0  0  0  0  0  0  0
   -1.6531    1.4091   -0.4852 H   0  0  0  0  0  0  0  0  0  0  0  0
    0.8173    1.4816   -1.0018 H   0  0  0  0  0  0  0  0  0  0  0  0
    2.0175   -0.6711   -0.1804 H   0  0  0  0  0  0  0  0  0  0  0  0
    0.6720   -0.9541    0.8938 H   0  0  0  0  0  0  0  0  0  0  0  0
    3.4064    1.4640    0.1263 H   0  0  0  0  0  0  0  0  0  0  0  0
    0.4289    0.1896    2.9669 H   0  0  0  0  0  0  0  0  0  0  0  0
    4.4228    2.9157    1.8509 H   0  0  0  0  0  0  0  0  0  0  0  0
    1.4524    1.6443    4.6843 H   0  0  0  0  0  0  0  0  0  0  0  0
    3.4493    3.0095    4.1310 H   0  0  0  0  0  0  0  0  0  0  0  0
   -0.9573    0.3772   -2.6162 N   0  0  0  0  0  0  0  0  0  0  0  0
   -1.5531   -0.2569   -3.7702 C   0  0  2  0  0  0  0  0  0  0  0  0
   -0.4610   -1.0290   -4.4988 C   0  0  0  0  0  0  0  0  0  0  0  0
    0.7348   -0.7682   -4.3849 O   0  0  0  0  0  0  0  0  0  0  0  0
   -2.2019    0.7656   -4.6901 C   0  0  0  0  0  0  0  0  0  0  0  0
   -1.1278    1.3676   -2.4684 H   0  0  0  0  0  0  0  0  0  0  0  0
   -2.3063   -0.9570   -3.3927 H   0  0  0  0  0  0  0  0  0  0  0  0
   -1.4627    1.4758   -5.0783 H   0  0  0  0  0  0  0  0  0  0  0  0
   -2.6776    0.2811   -5.5492 H   0  0  0  0  0  0  0  0  0  0  0  0
   -2.9665    1.3403   -4.1563 H   0  0  0  0  0  0  0  0  0  0  0  0
   -0.9816   -2.0156   -5.3245 N   0  0  0  0  0  0  0  0  0  0  0  0
   -0.1487   -2.8762   -6.1317 C   0  0  0  0  0  0  0  0  0  0  0  0
   -1.9847   -2.1743   -5.3423 H   0  0  0  0  0  0  0  0  0  0  0  0
   -0.0271   -2.4362   -7.1325 H   0  0  0  0  0  0  0  0  0  0  0  0
    0.8374   -2.9832   -5.6560 H   0  0  0  0  0  0  0  0  0  0  0  0
   -0.6218   -3.8652   -6.2212 H   0  0  0  0  0  0  0  0  0  0  0  0
 25 27  1  0  0  0  0
 26 27  2  0  0  0  0
 23 25  2  0  0  0  0
 24 26  1  0  0  0  0
 22 23  1  0  0  0  0
 22 24  2  0  0  0  0
 21 22  1  0  0  0  0
  1  3  1  0  0  0  0
  1  7  1  0  0  0  0
  1  2  2  0  0  0  0
 38 39  1  0  0  0  0
 39 47  1  0  0  0  0
 39 40  2  0  0  0  0
  8  9  1  0  0  0  0
  9 17  1  0  0  0  0
  9 10  2  0  0  0  0
 18 19  1  0  0  0  0
 19 37  1  0  0  0  0
 19 20  2  0  0  0  0
 38 41  1  0  0  0  0
  8 11  1  0  0  0  0
 47 48  1  0  0  0  0
 18 21  1  0  0  0  0
 37 38  1  0  0  0  0
  7  8  1  0  0  0  0
 17 18  1  0  0  0  0
 27 36  1  0  0  0  0
 25 34  1  0  0  0  0
 26 35  1  0  0  0  0
 23 32  1  0  0  0  0
 24 33  1  0  0  0  0
  3  4  1  0  0  0  0
  3  5  1  0  0  0  0
  3  6  1  0  0  0  0
 41 44  1  0  0  0  0
 41 45  1  0  0  0  0
 41 46  1  0  0  0  0
 11 14  1  0  0  0  0
 11 15  1  0  0  0  0
 11 16  1  0  0  0  0
 48 50  1  0  0  0  0
 48 51  1  0  0  0  0
 48 52  1  0  0  0  0
 21 30  1  0  0  0  0
 21 31  1  0  0  0  0
 38 43  1  0  0  0  0
  8 13  1  0  0  0  0
 18 29  1  0  0  0  0
 47 49  1  0  0  0  0
  7 12  1  0  0  0  0
 37 42  1  0  0  0  0
 17 28  1  0  0  0  0
M  END
$$$$

  -OEChem-05262214473D

 52 52  0     1  0  0  0  0  0999 V2000
   -1.8248    0.3424    3.9102 C   0  0  0  0  0  0  0  0  0  0  0  0
   -0.8774   -0.2723    3.4345 O   0  0  0  0  0  0  0  0  0  0  0  0
   -2.2566    0.0600    5.3109 C   0  0  0  0  0  0  0  0  0  0  0  0
   -3.0163   -0.7363    5.3643 H   0  0  0  0  0  0  0  0  0  0  0  0
   -1.4254   -0.2876    5.9452 H   0  0  0  0  0  0  0  0  0  0  0  0
   -2.6947    0.9149    5.8505 H   0  0  0  0  0  0  0  0  0  0  0  0
   -2.5745    1.3149    3.2691 N   0  0  0  0  0  0  0  0  0  0  0  0
   -2.3276    1.7409    1.9167 C   0  0  2  0  0  0  0  0  0  0  0  0
   -0.9926    1.1555    1.4755 C   0  0  0  0  0  0  0  0  0  0  0  0
   -0.1206    0.8028    2.2668 O   0  0  0  0  0  0  0  0  0  0  0  0
   -2.3188    3.2577    1.8072 C   0  0  0  0  0  0  0  0  0  0  0  0
   -3.3395    1.7507    3.7809 H   0  0  0  0  0  0  0  0  0  0  0  0
   -3.1317    1.3224    1.3015 H   0  0  0  0  0  0  0  0  0  0  0  0
   -1.5198    3.6949    2.4169 H   0  0  0  0  0  0  0  0  0  0  0  0
   -2.1594    3.5799    0.7729 H   0  0  0  0  0  0  0  0  0  0  0  0
   -3.2690    3.6789    2.1530 H   0  0  0  0  0  0  0  0  0  0  0  0
   -0.8700    1.1124    0.0921 N   0  0  0  0  0  0  0  0  0  0  0  0
    0.3073    0.6116   -0.5716 C   0  0  2  0  0  0  0  0  0  0  0  0
   -0.1639   -0.2990   -1.6998 C   0  0  0  0  0  0  0  0  0  0  0  0
   -0.1355   -1.5256   -1.6259 O   0  0  0  0  0  0  0  0  0  0  0  0
    1.2280   -0.1564    0.3838 C   0  0  0  0  0  0  0  0  0  0  0  0
    1.8508    0.7312    1.4336 C   0  0  0  0  0  0  0  0  0  0  0  0
    2.9732    1.4987    1.1224 C   0  0  0  0  0  0  0  0  0  0  0  0
    1.3033    0.7840    2.7155 C   0  0  0  0  0  0  0  0  0  0  0  0
    3.5482    2.3189    2.0931 C   0  0  0  0  0  0  0  0  0  0  0  0
    1.8783    1.6043    3.6861 C   0  0  0  0  0  0  0  0  0  0  0  0
    3.0007    2.3718    3.3749 C   0  0  0  0  0  0  0  0  0  0  0  0
   -1.6531    1.4091   -0.4852 H   0  0  0  0  0  0  0  0  0  0  0  0
    0.8173    1.4816   -1.0018 H   0  0  0  0  0  0  0  0  0  0  0  0
    2.0175   -0.6711   -0.1804 H   0  0  0  0  0  0  0  0  0  0  0  0
    0.6720   -0.9541    0.8938 H   0  0  0  0  0  0  0  0  0  0  0  0
    3.4064    1.4640    0.1263 H   0  0  0  0  0  0  0  0  0  0  0  0
    0.4289    0.1896    2.9669 H   0  0  0  0  0  0  0  0  0  0  0  0
    4.4228    2.9157    1.8509 H   0  0  0  0  0  0  0  0  0  0  0  0
    1.4524    1.6443    4.6843 H   0  0  0  0  0  0  0  0  0  0  0  0
    3.4493    3.0095    4.1310 H   0  0  0  0  0  0  0  0  0  0  0  0
   -0.6646    0.4222   -2.7749 N   0  0  0  0  0  0  0  0  0  0  0  0
   -1.1980   -0.1973   -3.9666 C   0  0  2  0  0  0  0  0  0  0  0  0
   -0.1854   -1.2240   -4.4565 C   0  0  0  0  0  0  0  0  0  0  0  0
    1.0085   -1.1796   -4.1671 O   0  0  0  0  0  0  0  0  0  0  0  0
   -1.4896    0.8355   -5.0441 C   0  0  0  0  0  0  0  0  0  0  0  0
   -0.6555    1.4365   -2.7213 H   0  0  0  0  0  0  0  0  0  0  0  0
   -2.1220   -0.7067   -3.6718 H   0  0  0  0  0  0  0  0  0  0  0  0
   -0.5756    1.3563   -5.3523 H   0  0  0  0  0  0  0  0  0  0  0  0
   -1.9203    0.3681   -5.9357 H   0  0  0  0  0  0  0  0  0  0  0  0
   -2.1952    1.5900   -4.6800 H   0  0  0  0  0  0  0  0  0  0  0  0
   -0.7639   -2.1710   -5.2900 N   0  0  0  0  0  0  0  0  0  0  0  0
   -0.0084   -3.2439   -5.8935 C   0  0  0  0  0  0  0  0  0  0  0  0
   -1.7649   -2.1422   -5.4601 H   0  0  0  0  0  0  0  0  0  0  0  0
    0.3434   -2.9311   -6.8877 H   0  0  0  0  0  0  0  0  0  0  0  0
    0.8562   -3.4859   -5.2581 H   0  0  0  0  0  0  0  0  0  0  0  0
   -0.6495   -4.1321   -5.9942 H   0  0  0  0  0  0  0  0  0  0  0  0
 25 27  1  0  0  0  0
 26 27  2  0  0  0  0
 23 25  2  0  0  0  0
 24 26  1  0  0  0  0
 22 23  1  0  0  0  0
 22 24  2  0  0  0  0
 21 22  1  0  0  0  0
  1  3  1  0  0  0  0
  1  7  1  0  0  0  0
  1  2  2  0  0  0  0
 38 39  1  0  0  0  0
 39 47  1  0  0  0  0
 39 40  2  0  0  0  0
  8  9  1  0  0  0  0
  9 17  1  0  0  0  0
  9 10  2  0  0  0  0
 18 19  1  0  0  0  0
 19 37  1  0  0  0  0
 19 20  2  0  0  0  0
 38 41  1  0  0  0  0
  8 11  1  0  0  0  0
 47 48  1  0  0  0  0
 18 21  1  0  0  0  0
 37 38  1  0  0  0  0
  7  8  1  0  0  0  0
 17 18  1  0  0  0  0
 27 36  1  0  0  0  0
 25 34  1  0  0  0  0
 26 35  1  0  0  0  0
 23 32  1  0  0  0  0
 24 33  1  0  0  0  0
  3  4  1  0  0  0  0
  3  5  1  0  0  0  0
  3  6  1  0  0  0  0
 41 44  1  0  0  0  0
 41 45  1  0  0  0  0
 41 46  1  0  0  0  0
 11 14  1  0  0  0  0
 11 15  1  0  0  0  0
 11 16  1  0  0  0  0
 48 50  1  0  0  0  0
 48 51  1  0  0  0  0
 48 52  1  0  0  0  0
 21 30  1  0  0  0  0
 21 31  1  0  0  0  0
 38 43  1  0  0  0  0
  8 13  1  0  0  0  0
 18 29  1  0  0  0  0
 47 49  1  0  0  0  0
  7 12  1  0  0  0  0
 37 42  1  0  0  0  0
 17 28  1  0  0  0  0
M  END
$$$$

  -OEChem-05262214473D

 52 52  0     1  0  0  0  0  0999 V2000
   -1.8248    0.3424    3.9102 C   0  0  0  0  0  0  0  0  0  0  0  0
   -0.8774   -0.2723    3.4345 O   0  0  0  0  0  0  0  0  0  0  0  0
   -2.2566    0.0600    5.3109 C   0  0  0  0  0  0  0  0  0  0  0  0
   -3.0163   -0.7363    5.3643 H   0  0  0  0  0  0  0  0  0  0  0  0
   -1.4254   -0.2876    5.9452 H   0  0  0  0  0  0  0  0  0  0  0  0
   -2.6947    0.9149    5.8505 H   0  0  0  0  0  0  0  0  0  0  0  0
   -2.5745    1.3149    3.2691 N   0  0  0  0  0  0  0  0  0  0  0  0
   -2.3276    1.7409    1.9167 C   0  0  2  0  0  0  0  0  0  0  0  0
   -0.9926    1.1555    1.4755 C   0  0  0  0  0  0  0  0  0  0  0  0
   -0.1206    0.8028    2.2668 O   0  0  0  0  0  0  0  0  0  0  0  0
   -2.3188    3.2577    1.8072 C   0  0  0  0  0  0  0  0  0  0  0  0
   -3.3395    1.7507    3.7809 H   0  0  0  0  0  0  0  0  0  0  0  0
   -3.1317    1.3224    1.3015 H   0  0  0  0  0  0  0  0  0  0  0  0
   -1.5198    3.6949    2.4169 H   0  0  0  0  0  0  0  0  0  0  0  0
   -2.1594    3.5799    0.7729 H   0  0  0  0  0  0  0  0  0  0  0  0
   -3.2690    3.6789    2.1530 H   0  0  0  0  0  0  0  0  0  0  0  0
   -0.8700    1.1124    0.0921 N   0  0  0  0  0  0  0  0  0  0  0  0
    0.3073    0.6116   -0.5716 C   0  0  2  0  0  0  0  0  0  0  0  0
   -0.1639   -0.2990   -1.6998 C   0  0  0  0  0  0  0  0  0  0  0  0
   -0.3899   -1.4969   -1.5427 O   0  0  0  0  0  0  0  0  0  0  0  0
    1.2280   -0.1564    0.3838 C   0  0  0  0  0  0  0  0  0  0  0  0
    1.8508    0.7312    1.4336 C   0  0  0  0  0  0  0  0  0  0  0  0
    2.9732    1.4987    1.1224 C   0  0  0  0  0  0  0  0  0  0  0  0
    1.3033    0.7840    2.7155 C   0  0  0  0  0  0  0  0  0  0  0  0
    3.5482    2.3189    2.0931 C   0  0  0  0  0  0  0  0  0  0  0  0
    1.8783    1.6043    3.6861 C   0  0  0  0  0  0  0  0  0  0  0  0
    3.0007    2.3718    3.3749 C   0  0  0  0  0  0  0  0  0  0  0  0
   -1.6531    1.4091   -0.4852 H   0  0  0  0  0  0  0  0  0  0  0  0
    0.8173    1.4816   -1.0018 H   0  0  0  0  0  0  0  0  0  0  0  0
    2.0175   -0.6711   -0.1804 H   0  0  0  0  0  0  0  0  0  0  0  0
    0.6720   -0.9541    0.8938 H   0  0  0  0  0  0  0  0  0  0  0  0
    3.4064    1.4640    0.1263 H   0  0  0  0  0  0  0  0  0  0  0  0
    0.4289    0.1896    2.9669 H   0  0  0  0  0  0  0  0  0  0  0  0
    4.4228    2.9157    1.8509 H   0  0  0  0  0  0  0  0  0  0  0  0
    1.4524    1.6443    4.6843 H   0  0  0  0  0  0  0  0  0  0  0  0
    3.4493    3.0095    4.1310 H   0  0  0  0  0  0  0  0  0  0  0  0
   -0.3486    0.3970   -2.8864 N   0  0  0  0  0  0  0  0  0  0  0  0
   -0.8133   -0.2235   -4.1062 C   0  0  2  0  0  0  0  0  0  0  0  0
    0.0369   -1.4618   -4.3574 C   0  0  0  0  0  0  0  0  0  0  0  0
    1.1603   -1.6121   -3.8815 O   0  0  0  0  0  0  0  0  0  0  0  0
   -0.7334    0.7383   -5.2815 C   0  0  0  0  0  0  0  0  0  0  0  0
   -0.1471    1.3925   -2.8981 H   0  0  0  0  0  0  0  0  0  0  0  0
   -1.8528   -0.5225   -3.9329 H   0  0  0  0  0  0  0  0  0  0  0  0
    0.3007    1.0490   -5.4704 H   0  0  0  0  0  0  0  0  0  0  0  0
   -1.1124    0.2761   -6.1989 H   0  0  0  0  0  0  0  0  0  0  0  0
   -1.3215    1.6416   -5.0866 H   0  0  0  0  0  0  0  0  0  0  0  0
   -0.5888   -2.3602   -5.2105 N   0  0  0  0  0  0  0  0  0  0  0  0
    0.0198   -3.6068   -5.6124 C   0  0  0  0  0  0  0  0  0  0  0  0
   -1.5282   -2.1627   -5.5424 H   0  0  0  0  0  0  0  0  0  0  0  0
    0.5686   -3.4606   -6.5544 H   0  0  0  0  0  0  0  0  0  0  0  0
    0.7166   -3.9433   -4.8307 H   0  0  0  0  0  0  0  0  0  0  0  0
   -0.7625   -4.3664   -5.7580 H   0  0  0  0  0  0  0  0  0  0  0  0
 25 27  1  0  0  0  0
 26 27  2  0  0  0  0
 23 25  2  0  0  0  0
 24 26  1  0  0  0  0
 22 23  1  0  0  0  0
 22 24  2  0  0  0  0
 21 22  1  0  0  0  0
  1  3  1  0  0  0  0
  1  7  1  0  0  0  0
  1  2  2  0  0  0  0
 38 39  1  0  0  0  0
 39 47  1  0  0  0  0
 39 40  2  0  0  0  0
  8  9  1  0  0  0  0
  9 17  1  0  0  0  0
  9 10  2  0  0  0  0
 18 19  1  0  0  0  0
 19 37  1  0  0  0  0
 19 20  2  0  0  0  0
 38 41  1  0  0  0  0
  8 11  1  0  0  0  0
 47 48  1  0  0  0  0
 18 21  1  0  0  0  0
 37 38  1  0  0  0  0
  7  8  1  0  0  0  0
 17 18  1  0  0  0  0
 27 36  1  0  0  0  0
 25 34  1  0  0  0  0
 26 35  1  0  0  0  0
 23 32  1  0  0  0  0
 24 33  1  0  0  0  0
  3  4  1  0  0  0  0
  3  5  1  0  0  0  0
  3  6  1  0  0  0  0
 41 44  1  0  0  0  0
 41 45  1  0  0  0  0
 41 46  1  0  0  0  0
 11 14  1  0  0  0  0
 11 15  1  0  0  0  0
 11 16  1  0  0  0  0
 48 50  1  0  0  0  0
 48 51  1  0  0  0  0
 48 52  1  0  0  0  0
 21 30  1  0  0  0  0
 21 31  1  0  0  0  0
 38 43  1  0  0  0  0
  8 13  1  0  0  0  0
 18 29  1  0  0  0  0
 47 49  1  0  0  0  0
  7 12  1  0  0  0  0
 37 42  1  0  0  0  0
 17 28  1  0  0  0  0
M  END
$$$$

  -OEChem-05262214473D

 52 52  0     1  0  0  0  0  0999 V2000
   -1.8248    0.3424    3.9102 C   0  0  0  0  0  0  0  0  0  0  0  0
   -0.8774   -0.2723    3.4345 O   0  0  0  0  0  0  0  0  0  0  0  0
   -2.2566    0.0600    5.3109 C   0  0  0  0  0  0  0  0  0  0  0  0
   -3.0163   -0.7363    5.3643 H   0  0  0  0  0  0  0  0  0  0  0  0
   -1.4254   -0.2876    5.9452 H   0  0  0  0  0  0  0  0  0  0  0  0
   -2.6947    0.9149    5.8505 H   0  0  0  0  0  0  0  0  0  0  0  0
   -2.5745    1.3149    3.2691 N   0  0  0  0  0  0  0  0  0  0  0  0
   -2.3276    1.7409    1.9167 C   0  0  2  0  0  0  0  0  0  0  0  0
   -0.9926    1.1555    1.4755 C   0  0  0  0  0  0  0  0  0  0  0  0
   -0.1206    0.8028    2.2668 O   0  0  0  0  0  0  0  0  0  0  0  0
   -2.3188    3.2577    1.8072 C   0  0  0  0  0  0  0  0  0  0  0  0
   -3.3395    1.7507    3.7809 H   0  0  0  0  0  0  0  0  0  0  0  0
   -3.1317    1.3224    1.3015 H   0  0  0  0  0  0  0  0  0  0  0  0
   -1.5198    3.6949    2.4169 H   0  0  0  0  0  0  0  0  0  0  0  0
   -2.1594    3.5799    0.7729 H   0  0  0  0  0  0  0  0  0  0  0  0
   -3.2690    3.6789    2.1530 H   0  0  0  0  0  0  0  0  0  0  0  0
   -0.8700    1.1124    0.0921 N   0  0  0  0  0  0  0  0  0  0  0  0
    0.3073    0.6116   -0.5716 C   0  0  2  0  0  0  0  0  0  0  0  0
   -0.1639   -0.2990   -1.6998 C   0  0  0  0  0  0  0  0  0  0  0  0
   -0.6430   -1.4139   -1.5040 O   0  0  0  0  0  0  0  0  0  0  0  0
    1.2280   -0.1564    0.3838 C   0  0  0  0  0  0  0  0  0  0  0  0
    1.8508    0.7312    1.4336 C   0  0  0  0  0  0  0  0  0  0  0  0
    2.9732    1.4987    1.1224 C   0  0  0  0  0  0  0  0  0  0  0  0
    1.3033    0.7840    2.7155 C   0  0  0  0  0  0  0  0  0  0  0  0
    3.5482    2.3189    2.0931 C   0  0  0  0  0  0  0  0  0  0  0  0
    1.8783    1.6043    3.6861 C   0  0  0  0  0  0  0  0  0  0  0  0
    3.0007    2.3718    3.3749 C   0  0  0  0  0  0  0  0  0  0  0  0
   -1.6531    1.4091   -0.4852 H   0  0  0  0  0  0  0  0  0  0  0  0
    0.8173    1.4816   -1.0018 H   0  0  0  0  0  0  0  0  0  0  0  0
    2.0175   -0.6711   -0.1804 H   0  0  0  0  0  0  0  0  0  0  0  0
    0.6720   -0.9541    0.8938 H   0  0  0  0  0  0  0  0  0  0  0  0
    3.4064    1.4640    0.1263 H   0  0  0  0  0  0  0  0  0  0  0  0
    0.4289    0.1896    2.9669 H   0  0  0  0  0  0  0  0  0  0  0  0
    4.4228    2.9157    1.8509 H   0  0  0  0  0  0  0  0  0  0  0  0
    1.4524    1.6443    4.6843 H   0  0  0  0  0  0  0  0  0  0  0  0
    3.4493    3.0095    4.1310 H   0  0  0  0  0  0  0  0  0  0  0  0
   -0.0311    0.3031   -2.9433 N   0  0  0  0  0  0  0  0  0  0  0  0
   -0.4251   -0.3336   -4.1795 C   0  0  2  0  0  0  0  0  0  0  0  0
    0.1908   -1.7262   -4.2084 C   0  0  0  0  0  0  0  0  0  0  0  0
    1.1800   -2.0360   -3.5476 O   0  0  0  0  0  0  0  0  0  0  0  0
    0.0152    0.4806   -5.3861 C   0  0  0  0  0  0  0  0  0  0  0  0
    0.3629    1.2384   -2.9867 H   0  0  0  0  0  0  0  0  0  0  0  0
   -1.5172   -0.4170   -4.1582 H   0  0  0  0  0  0  0  0  0  0  0  0
    1.1066    0.5750   -5.4244 H   0  0  0  0  0  0  0  0  0  0  0  0
   -0.3089    0.0115   -6.3210 H   0  0  0  0  0  0  0  0  0  0  0  0
   -0.4047    1.4916   -5.3484 H   0  0  0  0  0  0  0  0  0  0  0  0
   -0.4681   -2.5700   -5.0915 N   0  0  0  0  0  0  0  0  0  0  0  0
   -0.0660   -3.9403   -5.3075 C   0  0  0  0  0  0  0  0  0  0  0  0
   -1.2908   -2.2344   -5.5837 H   0  0  0  0  0  0  0  0  0  0  0  0
    0.6331   -3.9885   -6.1554 H   0  0  0  0  0  0  0  0  0  0  0  0
    0.4281   -4.3242   -4.4027 H   0  0  0  0  0  0  0  0  0  0  0  0
   -0.9530   -4.5521   -5.5285 H   0  0  0  0  0  0  0  0  0  0  0  0
 25 27  1  0  0  0  0
 26 27  2  0  0  0  0
 23 25  2  0  0  0  0
 24 26  1  0  0  0  0
 22 23  1  0  0  0  0
 22 24  2  0  0  0  0
 21 22  1  0  0  0  0
  1  3  1  0  0  0  0
  1  7  1  0  0  0  0
  1  2  2  0  0  0  0
 38 39  1  0  0  0  0
 39 47  1  0  0  0  0
 39 40  2  0  0  0  0
  8  9  1  0  0  0  0
  9 17  1  0  0  0  0
  9 10  2  0  0  0  0
 18 19  1  0  0  0  0
 19 37  1  0  0  0  0
 19 20  2  0  0  0  0
 38 41  1  0  0  0  0
  8 11  1  0  0  0  0
 47 48  1  0  0  0  0
 18 21  1  0  0  0  0
 37 38  1  0  0  0  0
  7  8  1  0  0  0  0
 17 18  1  0  0  0  0
 27 36  1  0  0  0  0
 25 34  1  0  0  0  0
 26 35  1  0  0  0  0
 23 32  1  0  0  0  0
 24 33  1  0  0  0  0
  3  4  1  0  0  0  0
  3  5  1  0  0  0  0
  3  6  1  0  0  0  0
 41 44  1  0  0  0  0
 41 45  1  0  0  0  0
 41 46  1  0  0  0  0
 11 14  1  0  0  0  0
 11 15  1  0  0  0  0
 11 16  1  0  0  0  0
 48 50  1  0  0  0  0
 48 51  1  0  0  0  0
 48 52  1  0  0  0  0
 21 30  1  0  0  0  0
 21 31  1  0  0  0  0
 38 43  1  0  0  0  0
  8 13  1  0  0  0  0
 18 29  1  0  0  0  0
 47 49  1  0  0  0  0
  7 12  1  0  0  0  0
 37 42  1  0  0  0  0
 17 28  1  0  0  0  0
M  END
$$$$

  -OEChem-05262214473D

 52 52  0     1  0  0  0  0  0999 V2000
   -1.8248    0.3424    3.9102 C   0  0  0  0  0  0  0  0  0  0  0  0
   -0.8774   -0.2723    3.4345 O   0  0  0  0  0  0  0  0  0  0  0  0
   -2.2566    0.0600    5.3109 C   0  0  0  0  0  0  0  0  0  0  0  0
   -3.0163   -0.7363    5.3643 H   0  0  0  0  0  0  0  0  0  0  0  0
   -1.4254   -0.2876    5.9452 H   0  0  0  0  0  0  0  0  0  0  0  0
   -2.6947    0.9149    5.8505 H   0  0  0  0  0  0  0  0  0  0  0  0
   -2.5745    1.3149    3.2691 N   0  0  0  0  0  0  0  0  0  0  0  0
   -2.3276    1.7409    1.9167 C   0  0  2  0  0  0  0  0  0  0  0  0
   -0.9926    1.1555    1.4755 C   0  0  0  0  0  0  0  0  0  0  0  0
   -0.1206    0.8028    2.2668 O   0  0  0  0  0  0  0  0  0  0  0  0
   -2.3188    3.2577    1.8072 C   0  0  0  0  0  0  0  0  0  0  0  0
   -3.3395    1.7507    3.7809 H   0  0  0  0  0  0  0  0  0  0  0  0
   -3.1317    1.3224    1.3015 H   0  0  0  0  0  0  0  0  0  0  0  0
   -1.5198    3.6949    2.4169 H   0  0  0  0  0  0  0  0  0  0  0  0
   -2.1594    3.5799    0.7729 H   0  0  0  0  0  0  0  0  0  0  0  0
   -3.2690    3.6789    2.1530 H   0  0  0  0  0  0  0  0  0  0  0  0
   -0.8700    1.1124    0.0921 N   0  0  0  0  0  0  0  0  0  0  0  0
    0.3073    0.6116   -0.5716 C   0  0  2  0  0  0  0  0  0  0  0  0
   -0.1639   -0.2990   -1.6998 C   0  0  0  0  0  0  0  0  0  0  0  0
   -0.8775   -1.2821   -1.5125 O   0  0  0  0  0  0  0  0  0  0  0  0
    1.2280   -0.1564    0.3838 C   0  0  0  0  0  0  0  0  0  0  0  0
    1.8508    0.7312    1.4336 C   0  0  0  0  0  0  0  0  0  0  0  0
    2.9732    1.4987    1.1224 C   0  0  0  0  0  0  0  0  0  0  0  0
    1.3033    0.7840    2.7155 C   0  0  0  0  0  0  0  0  0  0  0  0
    3.5482    2.3189    2.0931 C   0  0  0  0  0  0  0  0  0  0  0  0
    1.8783    1.6043    3.6861 C   0  0  0  0  0  0  0  0  0  0  0  0
    3.0007    2.3718    3.3749 C   0  0  0  0  0  0  0  0  0  0  0  0
   -1.6531    1.4091   -0.4852 H   0  0  0  0  0  0  0  0  0  0  0  0
    0.8173    1.4816   -1.0018 H   0  0  0  0  0  0  0  0  0  0  0  0
    2.0175   -0.6711   -0.1804 H   0  0  0  0  0  0  0  0  0  0  0  0
    0.6720   -0.9541    0.8938 H   0  0  0  0  0  0  0  0  0  0  0  0
    3.4064    1.4640    0.1263 H   0  0  0  0  0  0  0  0  0  0  0  0
    0.4289    0.1896    2.9669 H   0  0  0  0  0  0  0  0  0  0  0  0
    4.4228    2.9157    1.8509 H   0  0  0  0  0  0  0  0  0  0  0  0
    1.4524    1.6443    4.6843 H   0  0  0  0  0  0  0  0  0  0  0  0
    3.4493    3.0095    4.1310 H   0  0  0  0  0  0  0  0  0  0  0  0
    0.2665    0.1471   -2.9417 N   0  0  0  0  0  0  0  0  0  0  0  0
   -0.0599   -0.5202   -4.1814 C   0  0  2  0  0  0  0  0  0  0  0  0
    0.2657   -1.9991   -4.0194 C   0  0  0  0  0  0  0  0  0  0  0  0
    1.0661   -2.4225   -3.1881 O   0  0  0  0  0  0  0  0  0  0  0  0
    0.7050    0.0799   -5.3509 C   0  0  0  0  0  0  0  0  0  0  0  0
    0.8397    0.9847   -2.9812 H   0  0  0  0  0  0  0  0  0  0  0  0
   -1.1380   -0.3974   -4.3324 H   0  0  0  0  0  0  0  0  0  0  0  0
    1.7870   -0.0336   -5.2174 H   0  0  0  0  0  0  0  0  0  0  0  0
    0.4353   -0.4077   -6.2935 H   0  0  0  0  0  0  0  0  0  0  0  0
    0.4925    1.1501   -5.4475 H   0  0  0  0  0  0  0  0  0  0  0  0
   -0.4102   -2.7863   -4.9412 N   0  0  0  0  0  0  0  0  0  0  0  0
   -0.2598   -4.2216   -4.9995 C   0  0  0  0  0  0  0  0  0  0  0  0
   -1.0689   -2.3524   -5.5811 H   0  0  0  0  0  0  0  0  0  0  0  0
    0.5327   -4.4789   -5.7177 H   0  0  0  0  0  0  0  0  0  0  0  0
    0.0103   -4.6026   -4.0035 H   0  0  0  0  0  0  0  0  0  0  0  0
   -1.2081   -4.6767   -5.3214 H   0  0  0  0  0  0  0  0  0  0  0  0
 25 27  1  0  0  0  0
 26 27  2  0  0  0  0
 23 25  2  0  0  0  0
 24 26  1  0  0  0  0
 22 23  1  0  0  0  0
 22 24  2  0  0  0  0
 21 22  1  0  0  0  0
  1  3  1  0  0  0  0
  1  7  1  0  0  0  0
  1  2  2  0  0  0  0
 38 39  1  0  0  0  0
 39 47  1  0  0  0  0
 39 40  2  0  0  0  0
  8  9  1  0  0  0  0
  9 17  1  0  0  0  0
  9 10  2  0  0  0  0
 18 19  1  0  0  0  0
 19 37  1  0  0  0  0
 19 20  2  0  0  0  0
 38 41  1  0  0  0  0
  8 11  1  0  0  0  0
 47 48  1  0  0  0  0
 18 21  1  0  0  0  0
 37 38  1  0  0  0  0
  7  8  1  0  0  0  0
 17 18  1  0  0  0  0
 27 36  1  0  0  0  0
 25 34  1  0  0  0  0
 26 35  1  0  0  0  0
 23 32  1  0  0  0  0
 24 33  1  0  0  0  0
  3  4  1  0  0  0  0
  3  5  1  0  0  0  0
  3  6  1  0  0  0  0
 41 44  1  0  0  0  0
 41 45  1  0  0  0  0
 41 46  1  0  0  0  0
 11 14  1  0  0  0  0
 11 15  1  0  0  0  0
 11 16  1  0  0  0  0
 48 50  1  0  0  0  0
 48 51  1  0  0  0  0
 48 52  1  0  0  0  0
 21 30  1  0  0  0  0
 21 31  1  0  0  0  0
 38 43  1  0  0  0  0
  8 13  1  0  0  0  0
 18 29  1  0  0  0  0
 47 49  1  0  0  0  0
  7 12  1  0  0  0  0
 37 42  1  0  0  0  0
 17 28  1  0  0  0  0
M  END
$$$$

  -OEChem-05262214473D

 52 52  0     1  0  0  0  0  0999 V2000
   -1.8248    0.3424    3.9102 C   0  0  0  0  0  0  0  0  0  0  0  0
   -0.8774   -0.2723    3.4345 O   0  0  0  0  0  0  0  0  0  0  0  0
   -2.2566    0.0600    5.3109 C   0  0  0  0  0  0  0  0  0  0  0  0
   -3.0163   -0.7363    5.3643 H   0  0  0  0  0  0  0  0  0  0  0  0
   -1.4254   -0.2876    5.9452 H   0  0  0  0  0  0  0  0  0  0  0  0
   -2.6947    0.9149    5.8505 H   0  0  0  0  0  0  0  0  0  0  0  0
   -2.5745    1.3149    3.2691 N   0  0  0  0  0  0  0  0  0  0  0  0
   -2.3276    1.7409    1.9167 C   0  0  2  0  0  0  0  0  0  0  0  0
   -0.9926    1.1555    1.4755 C   0  0  0  0  0  0  0  0  0  0  0  0
   -0.1206    0.8028    2.2668 O   0  0  0  0  0  0  0  0  0  0  0  0
   -2.3188    3.2577    1.8072 C   0  0  0  0  0  0  0  0  0  0  0  0
   -3.3395    1.7507    3.7809 H   0  0  0  0  0  0  0  0  0  0  0  0
   -3.1317    1.3224    1.3015 H   0  0  0  0  0  0  0  0  0  0  0  0
   -1.5198    3.6949    2.4169 H   0  0  0  0  0  0  0  0  0  0  0  0
   -2.1594    3.5799    0.7729 H   0  0  0  0  0  0  0  0  0  0  0  0
   -3.2690    3.6789    2.1530 H   0  0  0  0  0  0  0  0  0  0  0  0
   -0.8700    1.1124    0.0921 N   0  0  0  0  0  0  0  0  0  0  0  0
    0.3073    0.6116   -0.5716 C   0  0  2  0  0  0  0  0  0  0  0  0
   -0.1639   -0.2990   -1.6998 C   0  0  0  0  0  0  0  0  0  0  0  0
   -1.0776   -1.1105   -1.5674 O   0  0  0  0  0  0  0  0  0  0  0  0
    1.2280   -0.1564    0.3838 C   0  0  0  0  0  0  0  0  0  0  0  0
    1.8508    0.7312    1.4336 C   0  0  0  0  0  0  0  0  0  0  0  0
    2.9732    1.4987    1.1224 C   0  0  0  0  0  0  0  0  0  0  0  0
    1.3033    0.7840    2.7155 C   0  0  0  0  0  0  0  0  0  0  0  0
    3.5482    2.3189    2.0931 C   0  0  0  0  0  0  0  0  0  0  0  0
    1.8783    1.6043    3.6861 C   0  0  0  0  0  0  0  0  0  0  0  0
    3.0007    2.3718    3.3749 C   0  0  0  0  0  0  0  0  0  0  0  0
   -1.6531    1.4091   -0.4852 H   0  0  0  0  0  0  0  0  0  0  0  0
    0.8173    1.4816   -1.0018 H   0  0  0  0  0  0  0  0  0  0  0  0
    2.0175   -0.6711   -0.1804 H   0  0  0  0  0  0  0  0  0  0  0  0
    0.6720   -0.9541    0.8938 H   0  0  0  0  0  0  0  0  0  0  0  0
    3.4064    1.4640    0.1263 H   0  0  0  0  0  0  0  0  0  0  0  0
    0.4289    0.1896    2.9669 H   0  0  0  0  0  0  0  0  0  0  0  0
    4.4228    2.9157    1.8509 H   0  0  0  0  0  0  0  0  0  0  0  0
    1.4524    1.6443    4.6843 H   0  0  0  0  0  0  0  0  0  0  0  0
    3.4493    3.0095    4.1310 H   0  0  0  0  0  0  0  0  0  0  0  0
    0.5238   -0.0605   -2.8816 N   0  0  0  0  0  0  0  0  0  0  0  0
    0.2574   -0.7705   -4.1119 C   0  0  2  0  0  0  0  0  0  0  0  0
    0.2566   -2.2619   -3.8035 C   0  0  0  0  0  0  0  0  0  0  0  0
    0.8266   -2.7453   -2.8275 O   0  0  0  0  0  0  0  0  0  0  0  0
    1.2891   -0.4365   -5.1781 C   0  0  0  0  0  0  0  0  0  0  0  0
    1.2509    0.6488   -2.8818 H   0  0  0  0  0  0  0  0  0  0  0  0
   -0.7410   -0.4651   -4.4436 H   0  0  0  0  0  0  0  0  0  0  0  0
    2.2958   -0.7353   -4.8636 H   0  0  0  0  0  0  0  0  0  0  0  0
    1.0696   -0.9531   -6.1183 H   0  0  0  0  0  0  0  0  0  0  0  0
    1.3091    0.6404   -5.3773 H   0  0  0  0  0  0  0  0  0  0  0  0
   -0.4188   -2.9943   -4.7696 N   0  0  0  0  0  0  0  0  0  0  0  0
   -0.5485   -4.4315   -4.7094 C   0  0  0  0  0  0  0  0  0  0  0  0
   -0.8775   -2.5087   -5.5349 H   0  0  0  0  0  0  0  0  0  0  0  0
    0.2741   -4.8983   -5.2712 H   0  0  0  0  0  0  0  0  0  0  0  0
   -0.5083   -4.7596   -3.6603 H   0  0  0  0  0  0  0  0  0  0  0  0
   -1.5103   -4.7316   -5.1508 H   0  0  0  0  0  0  0  0  0  0  0  0
 25 27  1  0  0  0  0
 26 27  2  0  0  0  0
 23 25  2  0  0  0  0
 24 26  1  0  0  0  0
 22 23  1  0  0  0  0
 22 24  2  0  0  0  0
 21 22  1  0  0  0  0
  1  3  1  0  0  0  0
  1  7  1  0  0  0  0
  1  2  2  0  0  0  0
 38 39  1  0  0  0  0
 39 47  1  0  0  0  0
 39 40  2  0  0  0  0
  8  9  1  0  0  0  0
  9 17  1  0  0  0  0
  9 10  2  0  0  0  0
 18 19  1  0  0  0  0
 19 37  1  0  0  0  0
 19 20  2  0  0  0  0
 38 41  1  0  0  0  0
  8 11  1  0  0  0  0
 47 48  1  0  0  0  0
 18 21  1  0  0  0  0
 37 38  1  0  0  0  0
  7  8  1  0  0  0  0
 17 18  1  0  0  0  0
 27 36  1  0  0  0  0
 25 34  1  0  0  0  0
 26 35  1  0  0  0  0
 23 32  1  0  0  0  0
 24 33  1  0  0  0  0
  3  4  1  0  0  0  0
  3  5  1  0  0  0  0
  3  6  1  0  0  0  0
 41 44  1  0  0  0  0
 41 45  1  0  0  0  0
 41 46  1  0  0  0  0
 11 14  1  0  0  0  0
 11 15  1  0  0  0  0
 11 16  1  0  0  0  0
 48 50  1  0  0  0  0
 48 51  1  0  0  0  0
 48 52  1  0  0  0  0
 21 30  1  0  0  0  0
 21 31  1  0  0  0  0
 38 43  1  0  0  0  0
  8 13  1  0  0  0  0
 18 29  1  0  0  0  0
 47 49  1  0  0  0  0
  7 12  1  0  0  0  0
 37 42  1  0  0  0  0
 17 28  1  0  0  0  0
M  END
$$$$

  -OEChem-05262214473D

 52 52  0     1  0  0  0  0  0999 V2000
   -1.8248    0.3424    3.9102 C   0  0  0  0  0  0  0  0  0  0  0  0
   -0.8774   -0.2723    3.4345 O   0  0  0  0  0  0  0  0  0  0  0  0
   -2.2566    0.0600    5.3109 C   0  0  0  0  0  0  0  0  0  0  0  0
   -3.0163   -0.7363    5.3643 H   0  0  0  0  0  0  0  0  0  0  0  0
   -1.4254   -0.2876    5.9452 H   0  0  0  0  0  0  0  0  0  0  0  0
   -2.6947    0.9149    5.8505 H   0  0  0  0  0  0  0  0  0  0  0  0
   -2.5745    1.3149    3.2691 N   0  0  0  0  0  0  0  0  0  0  0  0
   -2.3276    1.7409    1.9167 C   0  0  2  0  0  0  0  0  0  0  0  0
   -0.9926    1.1555    1.4755 C   0  0  0  0  0  0  0  0  0  0  0  0
   -0.1206    0.8028    2.2668 O   0  0  0  0  0  0  0  0  0  0  0  0
   -2.3188    3.2577    1.8072 C   0  0  0  0  0  0  0  0  0  0  0  0
   -3.3395    1.7507    3.7809 H   0  0  0  0  0  0  0  0  0  0  0  0
   -3.1317    1.3224    1.3015 H   0  0  0  0  0  0  0  0  0  0  0  0
   -1.5198    3.6949    2.4169 H   0  0  0  0  0  0  0  0  0  0  0  0
   -2.1594    3.5799    0.7729 H   0  0  0  0  0  0  0  0  0  0  0  0
   -3.2690    3.6789    2.1530 H   0  0  0  0  0  0  0  0  0  0  0  0
   -0.8700    1.1124    0.0921 N   0  0  0  0  0  0  0  0  0  0  0  0
    0.3073    0.6116   -0.5716 C   0  0  2  0  0  0  0  0  0  0  0  0
   -0.1639   -0.2990   -1.6998 C   0  0  0  0  0  0  0  0  0  0  0  0
   -1.2294   -0.9109   -1.6651 O   0  0  0  0  0  0  0  0  0  0  0  0
    1.2280   -0.1564    0.3838 C   0  0  0  0  0  0  0  0  0  0  0  0
    1.8508    0.7312    1.4336 C   0  0  0  0  0  0  0  0  0  0  0  0
    2.9732    1.4987    1.1224 C   0  0  0  0  0  0  0  0  0  0  0  0
    1.3033    0.7840    2.7155 C   0  0  0  0  0  0  0  0  0  0  0  0
    3.5482    2.3189    2.0931 C   0  0  0  0  0  0  0  0  0  0  0  0
    1.8783    1.6043    3.6861 C   0  0  0  0  0  0  0  0  0  0  0  0
    3.0007    2.3718    3.3749 C   0  0  0  0  0  0  0  0  0  0  0  0
   -1.6531    1.4091   -0.4852 H   0  0  0  0  0  0  0  0  0  0  0  0
    0.8173    1.4816   -1.0018 H   0  0  0  0  0  0  0  0  0  0  0  0
    2.0175   -0.6711   -0.1804 H   0  0  0  0  0  0  0  0  0  0  0  0
    0.6720   -0.9541    0.8938 H   0  0  0  0  0  0  0  0  0  0  0  0
    3.4064    1.4640    0.1263 H   0  0  0  0  0  0  0  0  0  0  0  0
    0.4289    0.1896    2.9669 H   0  0  0  0  0  0  0  0  0  0  0  0
    4.4228    2.9157    1.8509 H   0  0  0  0  0  0  0  0  0  0  0  0
    1.4524    1.6443    4.6843 H   0  0  0  0  0  0  0  0  0  0  0  0
    3.4493    3.0095    4.1310 H   0  0  0  0  0  0  0  0  0  0  0  0
    0.7232   -0.3054   -2.7672 N   0  0  0  0  0  0  0  0  0  0  0  0
    0.5052   -1.0675   -3.9757 C   0  0  2  0  0  0  0  0  0  0  0  0
    0.1641   -2.4968   -3.5753 C   0  0  0  0  0  0  0  0  0  0  0  0
    0.4776   -2.9824   -2.4904 O   0  0  0  0  0  0  0  0  0  0  0  0
    1.7277   -1.0333   -4.8796 C   0  0  0  0  0  0  0  0  0  0  0  0
    1.5683    0.2536   -2.6954 H   0  0  0  0  0  0  0  0  0  0  0  0
   -0.3533   -0.6154   -4.4842 H   0  0  0  0  0  0  0  0  0  0  0  0
    2.5981   -1.4821   -4.3871 H   0  0  0  0  0  0  0  0  0  0  0  0
    1.5508   -1.5873   -5.8074 H   0  0  0  0  0  0  0  0  0  0  0  0
    1.9894   -0.0026   -5.1424 H   0  0  0  0  0  0  0  0  0  0  0  0
   -0.4936   -3.1799   -4.5887 N   0  0  0  0  0  0  0  0  0  0  0  0
   -0.9124   -4.5558   -4.4571 C   0  0  0  0  0  0  0  0  0  0  0  0
   -0.7297   -2.6927   -5.4482 H   0  0  0  0  0  0  0  0  0  0  0  0
   -0.1251   -5.2181   -4.8463 H   0  0  0  0  0  0  0  0  0  0  0  0
   -1.0924   -4.7844   -3.3963 H   0  0  0  0  0  0  0  0  0  0  0  0
   -1.8392   -4.7131   -5.0284 H   0  0  0  0  0  0  0  0  0  0  0  0
 25 27  1  0  0  0  0
 26 27  2  0  0  0  0
 23 25  2  0  0  0  0
 24 26  1  0  0  0  0
 22 23  1  0  0  0  0
 22 24  2  0  0  0  0
 21 22  1  0  0  0  0
  1  3  1  0  0  0  0
  1  7  1  0  0  0  0
  1  2  2  0  0  0  0
 38 39  1  0  0  0  0
 39 47  1  0  0  0  0
 39 40  2  0  0  0  0
  8  9  1  0  0  0  0
  9 17  1  0  0  0  0
  9 10  2  0  0  0  0
 18 19  1  0  0  0  0
 19 37  1  0  0  0  0
 19 20  2  0  0  0  0
 38 41  1  0  0  0  0
  8 11  1  0  0  0  0
 47 48  1  0  0  0  0
 18 21  1  0  0  0  0
 37 38  1  0  0  0  0
  7  8  1  0  0  0  0
 17 18  1  0  0  0  0
 27 36  1  0  0  0  0
 25 34  1  0  0  0  0
 26 35  1  0  0  0  0
 23 32  1  0  0  0  0
 24 33  1  0  0  0  0
  3  4  1  0  0  0  0
  3  5  1  0  0  0  0
  3  6  1  0  0  0  0
 41 44  1  0  0  0  0
 41 45  1  0  0  0  0
 41 46  1  0  0  0  0
 11 14  1  0  0  0  0
 11 15  1  0  0  0  0
 11 16  1  0  0  0  0
 48 50  1  0  0  0  0
 48 51  1  0  0  0  0
 48 52  1  0  0  0  0
 21 30  1  0  0  0  0
 21 31  1  0  0  0  0
 38 43  1  0  0  0  0
  8 13  1  0  0  0  0
 18 29  1  0  0  0  0
 47 49  1  0  0  0  0
  7 12  1  0  0  0  0
 37 42  1  0  0  0  0
 17 28  1  0  0  0  0
M  END
$$$$

  -OEChem-05262214473D

 52 52  0     1  0  0  0  0  0999 V2000
   -1.8248    0.3424    3.9102 C   0  0  0  0  0  0  0  0  0  0  0  0
   -0.8774   -0.2723    3.4345 O   0  0  0  0  0  0  0  0  0  0  0  0
   -2.2566    0.0600    5.3109 C   0  0  0  0  0  0  0  0  0  0  0  0
   -3.0163   -0.7363    5.3643 H   0  0  0  0  0  0  0  0  0  0  0  0
   -1.4254   -0.2876    5.9452 H   0  0  0  0  0  0  0  0  0  0  0  0
   -2.6947    0.9149    5.8505 H   0  0  0  0  0  0  0  0  0  0  0  0
   -2.5745    1.3149    3.2691 N   0  0  0  0  0  0  0  0  0  0  0  0
   -2.3276    1.7409    1.9167 C   0  0  2  0  0  0  0  0  0  0  0  0
   -0.9926    1.1555    1.4755 C   0  0  0  0  0  0  0  0  0  0  0  0
   -0.1206    0.8028    2.2668 O   0  0  0  0  0  0  0  0  0  0  0  0
   -2.3188    3.2577    1.8072 C   0  0  0  0  0  0  0  0  0  0  0  0
   -3.3395    1.7507    3.7809 H   0  0  0  0  0  0  0  0  0  0  0  0
   -3.1317    1.3224    1.3015 H   0  0  0  0  0  0  0  0  0  0  0  0
   -1.5198    3.6949    2.4169 H   0  0  0  0  0  0  0  0  0  0  0  0
   -2.1594    3.5799    0.7729 H   0  0  0  0  0  0  0  0  0  0  0  0
   -3.2690    3.6789    2.1530 H   0  0  0  0  0  0  0  0  0  0  0  0
   -0.8700    1.1124    0.0921 N   0  0  0  0  0  0  0  0  0  0  0  0
    0.3073    0.6116   -0.5716 C   0  0  2  0  0  0  0  0  0  0  0  0
   -0.1639   -0.2990   -1.6998 C   0  0  0  0  0  0  0  0  0  0  0  0
   -1.3227   -0.6968   -1.7989 O   0  0  0  0  0  0  0  0  0  0  0  0
    1.2280   -0.1564    0.3838 C   0  0  0  0  0  0  0  0  0  0  0  0
    1.8508    0.7312    1.4336 C   0  0  0  0  0  0  0  0  0  0  0  0
    2.9732    1.4987    1.1224 C   0  0  0  0  0  0  0  0  0  0  0  0
    1.3033    0.7840    2.7155 C   0  0  0  0  0  0  0  0  0  0  0  0
    3.5482    2.3189    2.0931 C   0  0  0  0  0  0  0  0  0  0  0  0
    1.8783    1.6043    3.6861 C   0  0  0  0  0  0  0  0  0  0  0  0
    3.0007    2.3718    3.3749 C   0  0  0  0  0  0  0  0  0  0  0  0
   -1.6531    1.4091   -0.4852 H   0  0  0  0  0  0  0  0  0  0  0  0
    0.8173    1.4816   -1.0018 H   0  0  0  0  0  0  0  0  0  0  0  0
    2.0175   -0.6711   -0.1804 H   0  0  0  0  0  0  0  0  0  0  0  0
    0.6720   -0.9541    0.8938 H   0  0  0  0  0  0  0  0  0  0  0  0
    3.4064    1.4640    0.1263 H   0  0  0  0  0  0  0  0  0  0  0  0
    0.4289    0.1896    2.9669 H   0  0  0  0  0  0  0  0  0  0  0  0
    4.4228    2.9157    1.8509 H   0  0  0  0  0  0  0  0  0  0  0  0
    1.4524    1.6443    4.6843 H   0  0  0  0  0  0  0  0  0  0  0  0
    3.4493    3.0095    4.1310 H   0  0  0  0  0  0  0  0  0  0  0  0
    0.8513   -0.5711   -2.6063 N   0  0  0  0  0  0  0  0  0  0  0  0
    0.6666   -1.3910   -3.7821 C   0  0  2  0  0  0  0  0  0  0  0  0
   -0.0055   -2.6877   -3.3504 C   0  0  0  0  0  0  0  0  0  0  0  0
    0.0430   -3.1176   -2.1998 O   0  0  0  0  0  0  0  0  0  0  0  0
    1.9909   -1.6699   -4.4757 C   0  0  0  0  0  0  0  0  0  0  0  0
    1.7704   -0.1740   -2.4347 H   0  0  0  0  0  0  0  0  0  0  0  0
   -0.0013   -0.8380   -4.4515 H   0  0  0  0  0  0  0  0  0  0  0  0
    2.6734   -2.2233   -3.8204 H   0  0  0  0  0  0  0  0  0  0  0  0
    1.8461   -2.2672   -5.3820 H   0  0  0  0  0  0  0  0  0  0  0  0
    2.4870   -0.7353   -4.7589 H   0  0  0  0  0  0  0  0  0  0  0  0
   -0.6293   -3.3303   -4.4106 N   0  0  0  0  0  0  0  0  0  0  0  0
   -1.3268   -4.5860   -4.2597 C   0  0  0  0  0  0  0  0  0  0  0  0
   -0.6356   -2.8918   -5.3268 H   0  0  0  0  0  0  0  0  0  0  0  0
   -0.6376   -5.4166   -4.4721 H   0  0  0  0  0  0  0  0  0  0  0  0
   -1.7021   -4.6753   -3.2296 H   0  0  0  0  0  0  0  0  0  0  0  0
   -2.1722   -4.6224   -4.9625 H   0  0  0  0  0  0  0  0  0  0  0  0
 25 27  1  0  0  0  0
 26 27  2  0  0  0  0
 23 25  2  0  0  0  0
 24 26  1  0  0  0  0
 22 23  1  0  0  0  0
 22 24  2  0  0  0  0
 21 22  1  0  0  0  0
  1  3  1  0  0  0  0
  1  7  1  0  0  0  0
  1  2  2  0  0  0  0
 38 39  1  0  0  0  0
 39 47  1  0  0  0  0
 39 40  2  0  0  0  0
  8  9  1  0  0  0  0
  9 17  1  0  0  0  0
  9 10  2  0  0  0  0
 18 19  1  0  0  0  0
 19 37  1  0  0  0  0
 19 20  2  0  0  0  0
 38 41  1  0  0  0  0
  8 11  1  0  0  0  0
 47 48  1  0  0  0  0
 18 21  1  0  0  0  0
 37 38  1  0  0  0  0
  7  8  1  0  0  0  0
 17 18  1  0  0  0  0
 27 36  1  0  0  0  0
 25 34  1  0  0  0  0
 26 35  1  0  0  0  0
 23 32  1  0  0  0  0
 24 33  1  0  0  0  0
  3  4  1  0  0  0  0
  3  5  1  0  0  0  0
  3  6  1  0  0  0  0
 41 44  1  0  0  0  0
 41 45  1  0  0  0  0
 41 46  1  0  0  0  0
 11 14  1  0  0  0  0
 11 15  1  0  0  0  0
 11 16  1  0  0  0  0
 48 50  1  0  0  0  0
 48 51  1  0  0  0  0
 48 52  1  0  0  0  0
 21 30  1  0  0  0  0
 21 31  1  0  0  0  0
 38 43  1  0  0  0  0
  8 13  1  0  0  0  0
 18 29  1  0  0  0  0
 47 49  1  0  0  0  0
  7 12  1  0  0  0  0
 37 42  1  0  0  0  0
 17 28  1  0  0  0  0
M  END
$$$$

  -OEChem-05262214473D

 52 52  0     1  0  0  0  0  0999 V2000
   -1.8248    0.3424    3.9102 C   0  0  0  0  0  0  0  0  0  0  0  0
   -0.8774   -0.2723    3.4345 O   0  0  0  0  0  0  0  0  0  0  0  0
   -2.2566    0.0600    5.3109 C   0  0  0  0  0  0  0  0  0  0  0  0
   -3.0163   -0.7363    5.3643 H   0  0  0  0  0  0  0  0  0  0  0  0
   -1.4254   -0.2876    5.9452 H   0  0  0  0  0  0  0  0  0  0  0  0
   -2.6947    0.9149    5.8505 H   0  0  0  0  0  0  0  0  0  0  0  0
   -2.5745    1.3149    3.2691 N   0  0  0  0  0  0  0  0  0  0  0  0
   -2.3276    1.7409    1.9167 C   0  0  2  0  0  0  0  0  0  0  0  0
   -0.9926    1.1555    1.4755 C   0  0  0  0  0  0  0  0  0  0  0  0
   -0.1206    0.8028    2.2668 O   0  0  0  0  0  0  0  0  0  0  0  0
   -2.3188    3.2577    1.8072 C   0  0  0  0  0  0  0  0  0  0  0  0
   -3.3395    1.7507    3.7809 H   0  0  0  0  0  0  0  0  0  0  0  0
   -3.1317    1.3224    1.3015 H   0  0  0  0  0  0  0  0  0  0  0  0
   -1.5198    3.6949    2.4169 H   0  0  0  0  0  0  0  0  0  0  0  0
   -2.1594    3.5799    0.7729 H   0  0  0  0  0  0  0  0  0  0  0  0
   -3.2690    3.6789    2.1530 H   0  0  0  0  0  0  0  0  0  0  0  0
   -0.8700    1.1124    0.0921 N   0  0  0  0  0  0  0  0  0  0  0  0
    0.3073    0.6116   -0.5716 C   0  0  2  0  0  0  0  0  0  0  0  0
   -0.1424    0.0214   -1.9034 C   0  0  0  0  0  0  0  0  0  0  0  0
   -1.3096    0.0496   -2.2877 O   0  0  0  0  0  0  0  0  0  0  0  0
    1.0353   -0.4488    0.2626 C   0  0  0  0  0  0  0  0  0  0  0  0
    1.6403    0.1157    1.5247 C   0  0  0  0  0  0  0  0  0  0  0  0
    2.8661    0.7797    1.4749 C   0  0  0  0  0  0  0  0  0  0  0  0
    0.9732   -0.0265    2.7414 C   0  0  0  0  0  0  0  0  0  0  0  0
    3.4246    1.3014    2.6418 C   0  0  0  0  0  0  0  0  0  0  0  0
    1.5317    0.4952    3.9082 C   0  0  0  0  0  0  0  0  0  0  0  0
    2.7574    1.1592    3.8584 C   0  0  0  0  0  0  0  0  0  0  0  0
   -1.6531    1.4091   -0.4852 H   0  0  0  0  0  0  0  0  0  0  0  0
    0.9510    1.4784   -0.7623 H   0  0  0  0  0  0  0  0  0  0  0  0
    1.8175   -0.9336   -0.3372 H   0  0  0  0  0  0  0  0  0  0  0  0
    0.3458   -1.2560    0.5430 H   0  0  0  0  0  0  0  0  0  0  0  0
    3.3929    0.8954    0.5314 H   0  0  0  0  0  0  0  0  0  0  0  0
    0.0177   -0.5422    2.7898 H   0  0  0  0  0  0  0  0  0  0  0  0
    4.3795    1.8174    2.6029 H   0  0  0  0  0  0  0  0  0  0  0  0
    1.0125    0.3833    4.8555 H   0  0  0  0  0  0  0  0  0  0  0  0
    3.1931    1.5643    4.7671 H   0  0  0  0  0  0  0  0  0  0  0  0
    0.9225   -0.4936   -2.6295 N   0  0  0  0  0  0  0  0  0  0  0  0
    0.7761   -1.0913   -3.9372 C   0  0  2  0  0  0  0  0  0  0  0  0
   -0.3461   -2.1183   -3.8618 C   0  0  0  0  0  0  0  0  0  0  0  0
   -0.7058   -2.6428   -2.8099 O   0  0  0  0  0  0  0  0  0  0  0  0
    2.0734   -1.7367   -4.3990 C   0  0  0  0  0  0  0  0  0  0  0  0
    1.8515   -0.4481   -2.2213 H   0  0  0  0  0  0  0  0  0  0  0  0
    0.4897   -0.2863   -4.6226 H   0  0  0  0  0  0  0  0  0  0  0  0
    2.3762   -2.5458   -3.7244 H   0  0  0  0  0  0  0  0  0  0  0  0
    1.9689   -2.1641   -5.4017 H   0  0  0  0  0  0  0  0  0  0  0  0
    2.8863   -1.0030   -4.4240 H   0  0  0  0  0  0  0  0  0  0  0  0
   -0.8695   -2.4121   -5.1132 N   0  0  0  0  0  0  0  0  0  0  0  0
   -1.9360   -3.3664   -5.3077 C   0  0  0  0  0  0  0  0  0  0  0  0
   -0.5235   -1.9153   -5.9288 H   0  0  0  0  0  0  0  0  0  0  0  0
   -1.5080   -4.3579   -5.5167 H   0  0  0  0  0  0  0  0  0  0  0  0
   -2.5525   -3.4176   -4.3980 H   0  0  0  0  0  0  0  0  0  0  0  0
   -2.5604   -3.0503   -6.1564 H   0  0  0  0  0  0  0  0  0  0  0  0
 25 27  1  0  0  0  0
 26 27  2  0  0  0  0
 23 25  2  0  0  0  0
 24 26  1  0  0  0  0
 22 23  1  0  0  0  0
 22 24  2  0  0  0  0
 21 22  1  0  0  0  0
  1  3  1  0  0  0  0
  1  7  1  0  0  0  0
  1  2  2  0  0  0  0
 38 39  1  0  0  0  0
 39 47  1  0  0  0  0
 39 40  2  0  0  0  0
  8  9  1  0  0  0  0
  9 17  1  0  0  0  0
  9 10  2  0  0  0  0
 18 19  1  0  0  0  0
 19 37  1  0  0  0  0
 19 20  2  0  0  0  0
 38 41  1  0  0  0  0
  8 11  1  0  0  0  0
 47 48  1  0  0  0  0
 18 21  1  0  0  0  0
 37 38  1  0  0  0  0
  7  8  1  0  0  0  0
 17 18  1  0  0  0  0
 27 36  1  0  0  0  0
 25 34  1  0  0  0  0
 26 35  1  0  0  0  0
 23 32  1  0  0  0  0
 24 33  1  0  0  0  0
  3  4  1  0  0  0  0
  3  5  1  0  0  0  0
  3  6  1  0  0  0  0
 41 44  1  0  0  0  0
 41 45  1  0  0  0  0
 41 46  1  0  0  0  0
 11 14  1  0  0  0  0
 11 15  1  0  0  0  0
 11 16  1  0  0  0  0
 48 50  1  0  0  0  0
 48 51  1  0  0  0  0
 48 52  1  0  0  0  0
 21 30  1  0  0  0  0
 21 31  1  0  0  0  0
 38 43  1  0  0  0  0
  8 13  1  0  0  0  0
 18 29  1  0  0  0  0
 47 49  1  0  0  0  0
  7 12  1  0  0  0  0
 37 42  1  0  0  0  0
 17 28  1  0  0  0  0
M  END
$$$$

  -OEChem-05262214473D

 52 52  0     1  0  0  0  0  0999 V2000
   -1.8248    0.3424    3.9102 C   0  0  0  0  0  0  0  0  0  0  0  0
   -0.8774   -0.2723    3.4345 O   0  0  0  0  0  0  0  0  0  0  0  0
   -2.2566    0.0600    5.3109 C   0  0  0  0  0  0  0  0  0  0  0  0
   -3.0163   -0.7363    5.3643 H   0  0  0  0  0  0  0  0  0  0  0  0
   -1.4254   -0.2876    5.9452 H   0  0  0  0  0  0  0  0  0  0  0  0
   -2.6947    0.9149    5.8505 H   0  0  0  0  0  0  0  0  0  0  0  0
   -2.5745    1.3149    3.2691 N   0  0  0  0  0  0  0  0  0  0  0  0
   -2.3276    1.7409    1.9167 C   0  0  2  0  0  0  0  0  0  0  0  0
   -0.9926    1.1555    1.4755 C   0  0  0  0  0  0  0  0  0  0  0  0
   -0.1206    0.8028    2.2668 O   0  0  0  0  0  0  0  0  0  0  0  0
   -2.3188    3.2577    1.8072 C   0  0  0  0  0  0  0  0  0  0  0  0
   -3.3395    1.7507    3.7809 H   0  0  0  0  0  0  0  0  0  0  0  0
   -3.1317    1.3224    1.3015 H   0  0  0  0  0  0  0  0  0  0  0  0
   -1.5198    3.6949    2.4169 H   0  0  0  0  0  0  0  0  0  0  0  0
   -2.1594    3.5799    0.7729 H   0  0  0  0  0  0  0  0  0  0  0  0
   -3.2690    3.6789    2.1530 H   0  0  0  0  0  0  0  0  0  0  0  0
   -0.8700    1.1124    0.0921 N   0  0  0  0  0  0  0  0  0  0  0  0
    0.3073    0.6116   -0.5716 C   0  0  2  0  0  0  0  0  0  0  0  0
   -0.1424    0.0214   -1.9034 C   0  0  0  0  0  0  0  0  0  0  0  0
   -1.2317    0.2743   -2.4136 O   0  0  0  0  0  0  0  0  0  0  0  0
    1.0353   -0.4488    0.2626 C   0  0  0  0  0  0  0  0  0  0  0  0
    1.6403    0.1157    1.5247 C   0  0  0  0  0  0  0  0  0  0  0  0
    2.8661    0.7797    1.4749 C   0  0  0  0  0  0  0  0  0  0  0  0
    0.9732   -0.0265    2.7414 C   0  0  0  0  0  0  0  0  0  0  0  0
    3.4246    1.3014    2.6418 C   0  0  0  0  0  0  0  0  0  0  0  0
    1.5317    0.4952    3.9082 C   0  0  0  0  0  0  0  0  0  0  0  0
    2.7574    1.1592    3.8584 C   0  0  0  0  0  0  0  0  0  0  0  0
   -1.6531    1.4091   -0.4852 H   0  0  0  0  0  0  0  0  0  0  0  0
    0.9510    1.4784   -0.7623 H   0  0  0  0  0  0  0  0  0  0  0  0
    1.8175   -0.9336   -0.3372 H   0  0  0  0  0  0  0  0  0  0  0  0
    0.3458   -1.2560    0.5430 H   0  0  0  0  0  0  0  0  0  0  0  0
    3.3929    0.8954    0.5314 H   0  0  0  0  0  0  0  0  0  0  0  0
    0.0177   -0.5422    2.7898 H   0  0  0  0  0  0  0  0  0  0  0  0
    4.3795    1.8174    2.6029 H   0  0  0  0  0  0  0  0  0  0  0  0
    1.0125    0.3833    4.8555 H   0  0  0  0  0  0  0  0  0  0  0  0
    3.1931    1.5643    4.7671 H   0  0  0  0  0  0  0  0  0  0  0  0
    0.8373   -0.7791   -2.4742 N   0  0  0  0  0  0  0  0  0  0  0  0
    0.6775   -1.4419   -3.7485 C   0  0  2  0  0  0  0  0  0  0  0  0
   -0.6528   -2.1831   -3.7295 C   0  0  0  0  0  0  0  0  0  0  0  0
   -1.2182   -2.5201   -2.6913 O   0  0  0  0  0  0  0  0  0  0  0  0
    1.8282   -2.3974   -4.0234 C   0  0  0  0  0  0  0  0  0  0  0  0
    1.7106   -0.9054   -1.9710 H   0  0  0  0  0  0  0  0  0  0  0  0
    0.6479   -0.6568   -4.5119 H   0  0  0  0  0  0  0  0  0  0  0  0
    1.8739   -3.1911   -3.2688 H   0  0  0  0  0  0  0  0  0  0  0  0
    1.7204   -2.8773   -5.0017 H   0  0  0  0  0  0  0  0  0  0  0  0
    2.7869   -1.8678   -4.0072 H   0  0  0  0  0  0  0  0  0  0  0  0
   -1.1131   -2.4621   -5.0088 N   0  0  0  0  0  0  0  0  0  0  0  0
   -2.3482   -3.1688   -5.2561 C   0  0  0  0  0  0  0  0  0  0  0  0
   -0.5890   -2.1282   -5.8123 H   0  0  0  0  0  0  0  0  0  0  0  0
   -2.1424   -4.2451   -5.3525 H   0  0  0  0  0  0  0  0  0  0  0  0
   -3.0403   -3.0017   -4.4176 H   0  0  0  0  0  0  0  0  0  0  0  0
   -2.8028   -2.7977   -6.1864 H   0  0  0  0  0  0  0  0  0  0  0  0
 25 27  1  0  0  0  0
 26 27  2  0  0  0  0
 23 25  2  0  0  0  0
 24 26  1  0  0  0  0
 22 23  1  0  0  0  0
 22 24  2  0  0  0  0
 21 22  1  0  0  0  0
  1  3  1  0  0  0  0
  1  7  1  0  0  0  0
  1  2  2  0  0  0  0
 38 39  1  0  0  0  0
 39 47  1  0  0  0  0
 39 40  2  0  0  0  0
  8  9  1  0  0  0  0
  9 17  1  0  0  0  0
  9 10  2  0  0  0  0
 18 19  1  0  0  0  0
 19 37  1  0  0  0  0
 19 20  2  0  0  0  0
 38 41  1  0  0  0  0
  8 11  1  0  0  0  0
 47 48  1  0  0  0  0
 18 21  1  0  0  0  0
 37 38  1  0  0  0  0
  7  8  1  0  0  0  0
 17 18  1  0  0  0  0
 27 36  1  0  0  0  0
 25 34  1  0  0  0  0
 26 35  1  0  0  0  0
 23 32  1  0  0  0  0
 24 33  1  0  0  0  0
  3  4  1  0  0  0  0
  3  5  1  0  0  0  0
  3  6  1  0  0  0  0
 41 44  1  0  0  0  0
 41 45  1  0  0  0  0
 41 46  1  0  0  0  0
 11 14  1  0  0  0  0
 11 15  1  0  0  0  0
 11 16  1  0  0  0  0
 48 50  1  0  0  0  0
 48 51  1  0  0  0  0
 48 52  1  0  0  0  0
 21 30  1  0  0  0  0
 21 31  1  0  0  0  0
 38 43  1  0  0  0  0
  8 13  1  0  0  0  0
 18 29  1  0  0  0  0
 47 49  1  0  0  0  0
  7 12  1  0  0  0  0
 37 42  1  0  0  0  0
 17 28  1  0  0  0  0
M  END
$$$$

  -OEChem-05262214473D

 52 52  0     1  0  0  0  0  0999 V2000
   -1.8248    0.3424    3.9102 C   0  0  0  0  0  0  0  0  0  0  0  0
   -0.8774   -0.2723    3.4345 O   0  0  0  0  0  0  0  0  0  0  0  0
   -2.2566    0.0600    5.3109 C   0  0  0  0  0  0  0  0  0  0  0  0
   -3.0163   -0.7363    5.3643 H   0  0  0  0  0  0  0  0  0  0  0  0
   -1.4254   -0.2876    5.9452 H   0  0  0  0  0  0  0  0  0  0  0  0
   -2.6947    0.9149    5.8505 H   0  0  0  0  0  0  0  0  0  0  0  0
   -2.5745    1.3149    3.2691 N   0  0  0  0  0  0  0  0  0  0  0  0
   -2.3276    1.7409    1.9167 C   0  0  2  0  0  0  0  0  0  0  0  0
   -0.9926    1.1555    1.4755 C   0  0  0  0  0  0  0  0  0  0  0  0
   -0.1206    0.8028    2.2668 O   0  0  0  0  0  0  0  0  0  0  0  0
   -2.3188    3.2577    1.8072 C   0  0  0  0  0  0  0  0  0  0  0  0
   -3.3395    1.7507    3.7809 H   0  0  0  0  0  0  0  0  0  0  0  0
   -3.1317    1.3224    1.3015 H   0  0  0  0  0  0  0  0  0  0  0  0
   -1.5198    3.6949    2.4169 H   0  0  0  0  0  0  0  0  0  0  0  0
   -2.1594    3.5799    0.7729 H   0  0  0  0  0  0  0  0  0  0  0  0
   -3.2690    3.6789    2.1530 H   0  0  0  0  0  0  0  0  0  0  0  0
   -0.8700    1.1124    0.0921 N   0  0  0  0  0  0  0  0  0  0  0  0
    0.3073    0.6116   -0.5716 C   0  0  2  0  0  0  0  0  0  0  0  0
   -0.1424    0.0214   -1.9034 C   0  0  0  0  0  0  0  0  0  0  0  0
   -1.0930    0.4642   -2.5446 O   0  0  0  0  0  0  0  0  0  0  0  0
    1.0353   -0.4488    0.2626 C   0  0  0  0  0  0  0  0  0  0  0  0
    1.6403    0.1157    1.5247 C   0  0  0  0  0  0  0  0  0  0  0  0
    2.8661    0.7797    1.4749 C   0  0  0  0  0  0  0  0  0  0  0  0
    0.9732   -0.0265    2.7414 C   0  0  0  0  0  0  0  0  0  0  0  0
    3.4246    1.3014    2.6418 C   0  0  0  0  0  0  0  0  0  0  0  0
    1.5317    0.4952    3.9082 C   0  0  0  0  0  0  0  0  0  0  0  0
    2.7574    1.1592    3.8584 C   0  0  0  0  0  0  0  0  0  0  0  0
   -1.6531    1.4091   -0.4852 H   0  0  0  0  0  0  0  0  0  0  0  0
    0.9510    1.4784   -0.7623 H   0  0  0  0  0  0  0  0  0  0  0  0
    1.8175   -0.9336   -0.3372 H   0  0  0  0  0  0  0  0  0  0  0  0
    0.3458   -1.2560    0.5430 H   0  0  0  0  0  0  0  0  0  0  0  0
    3.3929    0.8954    0.5314 H   0  0  0  0  0  0  0  0  0  0  0  0
    0.0177   -0.5422    2.7898 H   0  0  0  0  0  0  0  0  0  0  0  0
    4.3795    1.8174    2.6029 H   0  0  0  0  0  0  0  0  0  0  0  0
    1.0125    0.3833    4.8555 H   0  0  0  0  0  0  0  0  0  0  0  0
    3.1931    1.5643    4.7671 H   0  0  0  0  0  0  0  0  0  0  0  0
    0.6749   -1.0238   -2.3109 N   0  0  0  0  0  0  0  0  0  0  0  0
    0.4841   -1.7438   -3.5494 C   0  0  2  0  0  0  0  0  0  0  0  0
   -0.9770   -2.1663   -3.6275 C   0  0  0  0  0  0  0  0  0  0  0  0
   -1.6972   -2.2767   -2.6374 O   0  0  0  0  0  0  0  0  0  0  0  0
    1.4045   -2.9515   -3.6347 C   0  0  0  0  0  0  0  0  0  0  0  0
    1.4459   -1.2963   -1.7084 H   0  0  0  0  0  0  0  0  0  0  0  0
    0.7058   -1.0419   -4.3607 H   0  0  0  0  0  0  0  0  0  0  0  0
    1.1972   -3.6660   -2.8298 H   0  0  0  0  0  0  0  0  0  0  0  0
    1.2790   -3.4795   -4.5858 H   0  0  0  0  0  0  0  0  0  0  0  0
    2.4536   -2.6488   -3.5485 H   0  0  0  0  0  0  0  0  0  0  0  0
   -1.3702   -2.4473   -4.9285 N   0  0  0  0  0  0  0  0  0  0  0  0
   -2.7068   -2.8809   -5.2626 C   0  0  0  0  0  0  0  0  0  0  0  0
   -0.7122   -2.3102   -5.6900 H   0  0  0  0  0  0  0  0  0  0  0  0
   -2.7461   -3.9801   -5.2661 H   0  0  0  0  0  0  0  0  0  0  0  0
   -3.4156   -2.4911   -4.5172 H   0  0  0  0  0  0  0  0  0  0  0  0
   -2.9769   -2.5013   -6.2591 H   0  0  0  0  0  0  0  0  0  0  0  0
 25 27  1  0  0  0  0
 26 27  2  0  0  0  0
 23 25  2  0  0  0  0
 24 26  1  0  0  0  0
 22 23  1  0  0  0  0
 22 24  2  0  0  0  0
 21 22  1  0  0  0  0
  1  3  1  0  0  0  0
  1  7  1  0  0  0  0
  1  2  2  0  0  0  0
 38 39  1  0  0  0  0
 39 47  1  0  0  0  0
 39 40  2  0  0  0  0
  8  9  1  0  0  0  0
  9 17  1  0  0  0  0
  9 10  2  0  0  0  0
 18 19  1  0  0  0  0
 19 37  1  0  0  0  0
 19 20  2  0  0  0  0
 38 41  1  0  0  0  0
  8 11  1  0  0  0  0
 47 48  1  0  0  0  0
 18 21  1  0  0  0  0
 37 38  1  0  0  0  0
  7  8  1  0  0  0  0
 17 18  1  0  0  0  0
 27 36  1  0  0  0  0
 25 34  1  0  0  0  0
 26 35  1  0  0  0  0
 23 32  1  0  0  0  0
 24 33  1  0  0  0  0
  3  4  1  0  0  0  0
  3  5  1  0  0  0  0
  3  6  1  0  0  0  0
 41 44  1  0  0  0  0
 41 45  1  0  0  0  0
 41 46  1  0  0  0  0
 11 14  1  0  0  0  0
 11 15  1  0  0  0  0
 11 16  1  0  0  0  0
 48 50  1  0  0  0  0
 48 51  1  0  0  0  0
 48 52  1  0  0  0  0
 21 30  1  0  0  0  0
 21 31  1  0  0  0  0
 38 43  1  0  0  0  0
  8 13  1  0  0  0  0
 18 29  1  0  0  0  0
 47 49  1  0  0  0  0
  7 12  1  0  0  0  0
 37 42  1  0  0  0  0
 17 28  1  0  0  0  0
M  END
$$$$

  -OEChem-05262214473D

 52 52  0     1  0  0  0  0  0999 V2000
   -1.8248    0.3424    3.9102 C   0  0  0  0  0  0  0  0  0  0  0  0
   -0.8774   -0.2723    3.4345 O   0  0  0  0  0  0  0  0  0  0  0  0
   -2.2566    0.0600    5.3109 C   0  0  0  0  0  0  0  0  0  0  0  0
   -3.0163   -0.7363    5.3643 H   0  0  0  0  0  0  0  0  0  0  0  0
   -1.4254   -0.2876    5.9452 H   0  0  0  0  0  0  0  0  0  0  0  0
   -2.6947    0.9149    5.8505 H   0  0  0  0  0  0  0  0  0  0  0  0
   -2.5745    1.3149    3.2691 N   0  0  0  0  0  0  0  0  0  0  0  0
   -2.3276    1.7409    1.9167 C   0  0  2  0  0  0  0  0  0  0  0  0
   -0.9926    1.1555    1.4755 C   0  0  0  0  0  0  0  0  0  0  0  0
   -0.1206    0.8028    2.2668 O   0  0  0  0  0  0  0  0  0  0  0  0
   -2.3188    3.2577    1.8072 C   0  0  0  0  0  0  0  0  0  0  0  0
   -3.3395    1.7507    3.7809 H   0  0  0  0  0  0  0  0  0  0  0  0
   -3.1317    1.3224    1.3015 H   0  0  0  0  0  0  0  0  0  0  0  0
   -1.5198    3.6949    2.4169 H   0  0  0  0  0  0  0  0  0  0  0  0
   -2.1594    3.5799    0.7729 H   0  0  0  0  0  0  0  0  0  0  0  0
   -3.2690    3.6789    2.1530 H   0  0  0  0  0  0  0  0  0  0  0  0
   -0.8700    1.1124    0.0921 N   0  0  0  0  0  0  0  0  0  0  0  0
    0.3073    0.6116   -0.5716 C   0  0  2  0  0  0  0  0  0  0  0  0
   -0.1424    0.0214   -1.9034 C   0  0  0  0  0  0  0  0  0  0  0  0
   -0.9029    0.6063   -2.6717 O   0  0  0  0  0  0  0  0  0  0  0  0
    1.0353   -0.4488    0.2626 C   0  0  0  0  0  0  0  0  0  0  0  0
    1.6403    0.1157    1.5247 C   0  0  0  0  0  0  0  0  0  0  0  0
    2.8661    0.7797    1.4749 C   0  0  0  0  0  0  0  0  0  0  0  0
    0.9732   -0.0265    2.7414 C   0  0  0  0  0  0  0  0  0  0  0  0
    3.4246    1.3014    2.6418 C   0  0  0  0  0  0  0  0  0  0  0  0
    1.5317    0.4952    3.9082 C   0  0  0  0  0  0  0  0  0  0  0  0
    2.7574    1.1592    3.8584 C   0  0  0  0  0  0  0  0  0  0  0  0
   -1.6531    1.4091   -0.4852 H   0  0  0  0  0  0  0  0  0  0  0  0
    0.9510    1.4784   -0.7623 H   0  0  0  0  0  0  0  0  0  0  0  0
    1.8175   -0.9336   -0.3372 H   0  0  0  0  0  0  0  0  0  0  0  0
    0.3458   -1.2560    0.5430 H   0  0  0  0  0  0  0  0  0  0  0  0
    3.3929    0.8954    0.5314 H   0  0  0  0  0  0  0  0  0  0  0  0
    0.0177   -0.5422    2.7898 H   0  0  0  0  0  0  0  0  0  0  0  0
    4.3795    1.8174    2.6029 H   0  0  0  0  0  0  0  0  0  0  0  0
    1.0125    0.3833    4.8555 H   0  0  0  0  0  0  0  0  0  0  0  0
    3.1931    1.5643    4.7671 H   0  0  0  0  0  0  0  0  0  0  0  0
    0.4464   -1.2109   -2.1508 N   0  0  0  0  0  0  0  0  0  0  0  0
    0.2091   -1.9765   -3.3534 C   0  0  2  0  0  0  0  0  0  0  0  0
   -1.2966   -2.0690   -3.5627 C   0  0  0  0  0  0  0  0  0  0  0  0
   -2.1102   -1.9291   -2.6520 O   0  0  0  0  0  0  0  0  0  0  0  0
    0.8309   -3.3612   -3.2595 C   0  0  0  0  0  0  0  0  0  0  0  0
    1.0757   -1.5939   -1.4515 H   0  0  0  0  0  0  0  0  0  0  0  0
    0.6595   -1.4155   -4.1795 H   0  0  0  0  0  0  0  0  0  0  0  0
    0.3922   -3.9383   -2.4373 H   0  0  0  0  0  0  0  0  0  0  0  0
    0.6749   -3.9296   -4.1823 H   0  0  0  0  0  0  0  0  0  0  0  0
    1.9091   -3.2929   -3.0792 H   0  0  0  0  0  0  0  0  0  0  0  0
   -1.6232   -2.3688   -4.8779 N   0  0  0  0  0  0  0  0  0  0  0  0
   -2.9874   -2.5221   -5.3268 C   0  0  0  0  0  0  0  0  0  0  0  0
   -0.8845   -2.4487   -5.5704 H   0  0  0  0  0  0  0  0  0  0  0  0
   -3.2780   -3.5811   -5.2633 H   0  0  0  0  0  0  0  0  0  0  0  0
   -3.6527   -1.9206   -4.6899 H   0  0  0  0  0  0  0  0  0  0  0  0
   -3.0707   -2.1811   -6.3693 H   0  0  0  0  0  0  0  0  0  0  0  0
 25 27  1  0  0  0  0
 26 27  2  0  0  0  0
 23 25  2  0  0  0  0
 24 26  1  0  0  0  0
 22 23  1  0  0  0  0
 22 24  2  0  0  0  0
 21 22  1  0  0  0  0
  1  3  1  0  0  0  0
  1  7  1  0  0  0  0
  1  2  2  0  0  0  0
 38 39  1  0  0  0  0
 39 47  1  0  0  0  0
 39 40  2  0  0  0  0
  8  9  1  0  0  0  0
  9 17  1  0  0  0  0
  9 10  2  0  0  0  0
 18 19  1  0  0  0  0
 19 37  1  0  0  0  0
 19 20  2  0  0  0  0
 38 41  1  0  0  0  0
  8 11  1  0  0  0  0
 47 48  1  0  0  0  0
 18 21  1  0  0  0  0
 37 38  1  0  0  0  0
  7  8  1  0  0  0  0
 17 18  1  0  0  0  0
 27 36  1  0  0  0  0
 25 34  1  0  0  0  0
 26 35  1  0  0  0  0
 23 32  1  0  0  0  0
 24 33  1  0  0  0  0
  3  4  1  0  0  0  0
  3  5  1  0  0  0  0
  3  6  1  0  0  0  0
 41 44  1  0  0  0  0
 41 45  1  0  0  0  0
 41 46  1  0  0  0  0
 11 14  1  0  0  0  0
 11 15  1  0  0  0  0
 11 16  1  0  0  0  0
 48 50  1  0  0  0  0
 48 51  1  0  0  0  0
 48 52  1  0  0  0  0
 21 30  1  0  0  0  0
 21 31  1  0  0  0  0
 38 43  1  0  0  0  0
  8 13  1  0  0  0  0
 18 29  1  0  0  0  0
 47 49  1  0  0  0  0
  7 12  1  0  0  0  0
 37 42  1  0  0  0  0
 17 28  1  0  0  0  0
M  END
$$$$

  -OEChem-05262214473D

 52 52  0     1  0  0  0  0  0999 V2000
   -1.8248    0.3424    3.9102 C   0  0  0  0  0  0  0  0  0  0  0  0
   -0.8774   -0.2723    3.4345 O   0  0  0  0  0  0  0  0  0  0  0  0
   -2.2566    0.0600    5.3109 C   0  0  0  0  0  0  0  0  0  0  0  0
   -3.0163   -0.7363    5.3643 H   0  0  0  0  0  0  0  0  0  0  0  0
   -1.4254   -0.2876    5.9452 H   0  0  0  0  0  0  0  0  0  0  0  0
   -2.6947    0.9149    5.8505 H   0  0  0  0  0  0  0  0  0  0  0  0
   -2.5745    1.3149    3.2691 N   0  0  0  0  0  0  0  0  0  0  0  0
   -2.3276    1.7409    1.9167 C   0  0  2  0  0  0  0  0  0  0  0  0
   -0.9926    1.1555    1.4755 C   0  0  0  0  0  0  0  0  0  0  0  0
   -0.1206    0.8028    2.2668 O   0  0  0  0  0  0  0  0  0  0  0  0
   -2.3188    3.2577    1.8072 C   0  0  0  0  0  0  0  0  0  0  0  0
   -3.3395    1.7507    3.7809 H   0  0  0  0  0  0  0  0  0  0  0  0
   -3.1317    1.3224    1.3015 H   0  0  0  0  0  0  0  0  0  0  0  0
   -1.5198    3.6949    2.4169 H   0  0  0  0  0  0  0  0  0  0  0  0
   -2.1594    3.5799    0.7729 H   0  0  0  0  0  0  0  0  0  0  0  0
   -3.2690    3.6789    2.1530 H   0  0  0  0  0  0  0  0  0  0  0  0
   -0.8700    1.1124    0.0921 N   0  0  0  0  0  0  0  0  0  0  0  0
    0.3073    0.6116   -0.5716 C   0  0  2  0  0  0  0  0  0  0  0  0
   -0.1424    0.0214   -1.9034 C   0  0  0  0  0  0  0  0  0  0  0  0
   -0.6745    0.6908   -2.7863 O   0  0  0  0  0  0  0  0  0  0  0  0
    1.0353   -0.4488    0.2626 C   0  0  0  0  0  0  0  0  0  0  0  0
    1.6403    0.1157    1.5247 C   0  0  0  0  0  0  0  0  0  0  0  0
    2.8661    0.7797    1.4749 C   0  0  0  0  0  0  0  0  0  0  0  0
    0.9732   -0.0265    2.7414 C   0  0  0  0  0  0  0  0  0  0  0  0
    3.4246    1.3014    2.6418 C   0  0  0  0  0  0  0  0  0  0  0  0
    1.5317    0.4952    3.9082 C   0  0  0  0  0  0  0  0  0  0  0  0
    2.7574    1.1592    3.8584 C   0  0  0  0  0  0  0  0  0  0  0  0
   -1.6531    1.4091   -0.4852 H   0  0  0  0  0  0  0  0  0  0  0  0
    0.9510    1.4784   -0.7623 H   0  0  0  0  0  0  0  0  0  0  0  0
    1.8175   -0.9336   -0.3372 H   0  0  0  0  0  0  0  0  0  0  0  0
    0.3458   -1.2560    0.5430 H   0  0  0  0  0  0  0  0  0  0  0  0
    3.3929    0.8954    0.5314 H   0  0  0  0  0  0  0  0  0  0  0  0
    0.0177   -0.5422    2.7898 H   0  0  0  0  0  0  0  0  0  0  0  0
    4.3795    1.8174    2.6029 H   0  0  0  0  0  0  0  0  0  0  0  0
    1.0125    0.3833    4.8555 H   0  0  0  0  0  0  0  0  0  0  0  0
    3.1931    1.5643    4.7671 H   0  0  0  0  0  0  0  0  0  0  0  0
    0.1673   -1.3278   -2.0048 N   0  0  0  0  0  0  0  0  0  0  0  0
   -0.1287   -2.1242   -3.1739 C   0  0  2  0  0  0  0  0  0  0  0  0
   -1.5897   -1.8978   -3.5396 C   0  0  0  0  0  0  0  0  0  0  0  0
   -2.4292   -1.5011   -2.7340 O   0  0  0  0  0  0  0  0  0  0  0  0
    0.1466   -3.5987   -2.9232 C   0  0  0  0  0  0  0  0  0  0  0  0
    0.6250   -1.7781   -1.2177 H   0  0  0  0  0  0  0  0  0  0  0  0
    0.5122   -1.7521   -3.9806 H   0  0  0  0  0  0  0  0  0  0  0  0
   -0.4863   -3.9893   -2.1181 H   0  0  0  0  0  0  0  0  0  0  0  0
   -0.0509   -4.1970   -3.8187 H   0  0  0  0  0  0  0  0  0  0  0  0
    1.1906   -3.7560   -2.6313 H   0  0  0  0  0  0  0  0  0  0  0  0
   -1.8550   -2.2319   -4.8603 N   0  0  0  0  0  0  0  0  0  0  0  0
   -3.1709   -2.1171   -5.4443 C   0  0  0  0  0  0  0  0  0  0  0  0
   -1.0943   -2.5345   -5.4616 H   0  0  0  0  0  0  0  0  0  0  0  0
   -3.7019   -3.0753   -5.3444 H   0  0  0  0  0  0  0  0  0  0  0  0
   -3.7354   -1.3292   -4.9241 H   0  0  0  0  0  0  0  0  0  0  0  0
   -3.0779   -1.8590   -6.5096 H   0  0  0  0  0  0  0  0  0  0  0  0
 25 27  1  0  0  0  0
 26 27  2  0  0  0  0
 23 25  2  0  0  0  0
 24 26  1  0  0  0  0
 22 23  1  0  0  0  0
 22 24  2  0  0  0  0
 21 22  1  0  0  0  0
  1  3  1  0  0  0  0
  1  7  1  0  0  0  0
  1  2  2  0  0  0  0
 38 39  1  0  0  0  0
 39 47  1  0  0  0  0
 39 40  2  0  0  0  0
  8  9  1  0  0  0  0
  9 17  1  0  0  0  0
  9 10  2  0  0  0  0
 18 19  1  0  0  0  0
 19 37  1  0  0  0  0
 19 20  2  0  0  0  0
 38 41  1  0  0  0  0
  8 11  1  0  0  0  0
 47 48  1  0  0  0  0
 18 21  1  0  0  0  0
 37 38  1  0  0  0  0
  7  8  1  0  0  0  0
 17 18  1  0  0  0  0
 27 36  1  0  0  0  0
 25 34  1  0  0  0  0
 26 35  1  0  0  0  0
 23 32  1  0  0  0  0
 24 33  1  0  0  0  0
  3  4  1  0  0  0  0
  3  5  1  0  0  0  0
  3  6  1  0  0  0  0
 41 44  1  0  0  0  0
 41 45  1  0  0  0  0
 41 46  1  0  0  0  0
 11 14  1  0  0  0  0
 11 15  1  0  0  0  0
 11 16  1  0  0  0  0
 48 50  1  0  0  0  0
 48 51  1  0  0  0  0
 48 52  1  0  0  0  0
 21 30  1  0  0  0  0
 21 31  1  0  0  0  0
 38 43  1  0  0  0  0
  8 13  1  0  0  0  0
 18 29  1  0  0  0  0
 47 49  1  0  0  0  0
  7 12  1  0  0  0  0
 37 42  1  0  0  0  0
 17 28  1  0  0  0  0
M  END
$$$$

  -OEChem-05262214473D

 52 52  0     1  0  0  0  0  0999 V2000
   -1.8248    0.3424    3.9102 C   0  0  0  0  0  0  0  0  0  0  0  0
   -0.8774   -0.2723    3.4345 O   0  0  0  0  0  0  0  0  0  0  0  0
   -2.2566    0.0600    5.3109 C   0  0  0  0  0  0  0  0  0  0  0  0
   -3.0163   -0.7363    5.3643 H   0  0  0  0  0  0  0  0  0  0  0  0
   -1.4254   -0.2876    5.9452 H   0  0  0  0  0  0  0  0  0  0  0  0
   -2.6947    0.9149    5.8505 H   0  0  0  0  0  0  0  0  0  0  0  0
   -2.5745    1.3149    3.2691 N   0  0  0  0  0  0  0  0  0  0  0  0
   -2.3276    1.7409    1.9167 C   0  0  2  0  0  0  0  0  0  0  0  0
   -0.9926    1.1555    1.4755 C   0  0  0  0  0  0  0  0  0  0  0  0
   -0.1206    0.8028    2.2668 O   0  0  0  0  0  0  0  0  0  0  0  0
   -2.3188    3.2577    1.8072 C   0  0  0  0  0  0  0  0  0  0  0  0
   -3.3395    1.7507    3.7809 H   0  0  0  0  0  0  0  0  0  0  0  0
   -3.1317    1.3224    1.3015 H   0  0  0  0  0  0  0  0  0  0  0  0
   -1.5198    3.6949    2.4169 H   0  0  0  0  0  0  0  0  0  0  0  0
   -2.1594    3.5799    0.7729 H   0  0  0  0  0  0  0  0  0  0  0  0
   -3.2690    3.6789    2.1530 H   0  0  0  0  0  0  0  0  0  0  0  0
   -0.8700    1.1124    0.0921 N   0  0  0  0  0  0  0  0  0  0  0  0
    0.3073    0.6116   -0.5716 C   0  0  2  0  0  0  0  0  0  0  0  0
   -0.1424    0.0214   -1.9034 C   0  0  0  0  0  0  0  0  0  0  0  0
   -0.4233    0.7121   -2.8805 O   0  0  0  0  0  0  0  0  0  0  0  0
    1.0353   -0.4488    0.2626 C   0  0  0  0  0  0  0  0  0  0  0  0
    1.6403    0.1157    1.5247 C   0  0  0  0  0  0  0  0  0  0  0  0
    2.8661    0.7797    1.4749 C   0  0  0  0  0  0  0  0  0  0  0  0
    0.9732   -0.0265    2.7414 C   0  0  0  0  0  0  0  0  0  0  0  0
    3.4246    1.3014    2.6418 C   0  0  0  0  0  0  0  0  0  0  0  0
    1.5317    0.4952    3.9082 C   0  0  0  0  0  0  0  0  0  0  0  0
    2.7574    1.1592    3.8584 C   0  0  0  0  0  0  0  0  0  0  0  0
   -1.6531    1.4091   -0.4852 H   0  0  0  0  0  0  0  0  0  0  0  0
    0.9510    1.4784   -0.7623 H   0  0  0  0  0  0  0  0  0  0  0  0
    1.8175   -0.9336   -0.3372 H   0  0  0  0  0  0  0  0  0  0  0  0
    0.3458   -1.2560    0.5430 H   0  0  0  0  0  0  0  0  0  0  0  0
    3.3929    0.8954    0.5314 H   0  0  0  0  0  0  0  0  0  0  0  0
    0.0177   -0.5422    2.7898 H   0  0  0  0  0  0  0  0  0  0  0  0
    4.3795    1.8174    2.6029 H   0  0  0  0  0  0  0  0  0  0  0  0
    1.0125    0.3833    4.8555 H   0  0  0  0  0  0  0  0  0  0  0  0
    3.1931    1.5643    4.7671 H   0  0  0  0  0  0  0  0  0  0  0  0
   -0.1434   -1.3664   -1.8828 N   0  0  0  0  0  0  0  0  0  0  0  0
   -0.5065   -2.1767   -3.0231 C   0  0  2  0  0  0  0  0  0  0  0  0
   -1.8365   -1.6643   -3.5597 C   0  0  0  0  0  0  0  0  0  0  0  0
   -2.6323   -1.0219   -2.8778 O   0  0  0  0  0  0  0  0  0  0  0  0
   -0.6017   -3.6476   -2.6488 C   0  0  0  0  0  0  0  0  0  0  0  0
    0.1245   -1.8362   -1.0230 H   0  0  0  0  0  0  0  0  0  0  0  0
    0.2738   -2.0287   -3.7776 H   0  0  0  0  0  0  0  0  0  0  0  0
   -1.3784   -3.8155   -1.8938 H   0  0  0  0  0  0  0  0  0  0  0  0
   -0.8488   -4.2635   -3.5199 H   0  0  0  0  0  0  0  0  0  0  0  0
    0.3469   -4.0068   -2.2354 H   0  0  0  0  0  0  0  0  0  0  0  0
   -2.0496   -2.0459   -4.8770 N   0  0  0  0  0  0  0  0  0  0  0  0
   -3.2448   -1.6933   -5.6072 C   0  0  0  0  0  0  0  0  0  0  0  0
   -1.3272   -2.5616   -5.3709 H   0  0  0  0  0  0  0  0  0  0  0  0
   -3.9887   -2.4970   -5.5038 H   0  0  0  0  0  0  0  0  0  0  0  0
   -3.6581   -0.7572   -5.2037 H   0  0  0  0  0  0  0  0  0  0  0  0
   -2.9979   -1.5570   -6.6704 H   0  0  0  0  0  0  0  0  0  0  0  0
 25 27  1  0  0  0  0
 26 27  2  0  0  0  0
 23 25  2  0  0  0  0
 24 26  1  0  0  0  0
 22 23  1  0  0  0  0
 22 24  2  0  0  0  0
 21 22  1  0  0  0  0
  1  3  1  0  0  0  0
  1  7  1  0  0  0  0
  1  2  2  0  0  0  0
 38 39  1  0  0  0  0
 39 47  1  0  0  0  0
 39 40  2  0  0  0  0
  8  9  1  0  0  0  0
  9 17  1  0  0  0  0
  9 10  2  0  0  0  0
 18 19  1  0  0  0  0
 19 37  1  0  0  0  0
 19 20  2  0  0  0  0
 38 41  1  0  0  0  0
  8 11  1  0  0  0  0
 47 48  1  0  0  0  0
 18 21  1  0  0  0  0
 37 38  1  0  0  0  0
  7  8  1  0  0  0  0
 17 18  1  0  0  0  0
 27 36  1  0  0  0  0
 25 34  1  0  0  0  0
 26 35  1  0  0  0  0
 23 32  1  0  0  0  0
 24 33  1  0  0  0  0
  3  4  1  0  0  0  0
  3  5  1  0  0  0  0
  3  6  1  0  0  0  0
 41 44  1  0  0  0  0
 41 45  1  0  0  0  0
 41 46  1  0  0  0  0
 11 14  1  0  0  0  0
 11 15  1  0  0  0  0
 11 16  1  0  0  0  0
 48 50  1  0  0  0  0
 48 51  1  0  0  0  0
 48 52  1  0  0  0  0
 21 30  1  0  0  0  0
 21 31  1  0  0  0  0
 38 43  1  0  0  0  0
  8 13  1  0  0  0  0
 18 29  1  0  0  0  0
 47 49  1  0  0  0  0
  7 12  1  0  0  0  0
 37 42  1  0  0  0  0
 17 28  1  0  0  0  0
M  END
$$$$

  -OEChem-05262214473D

 52 52  0     1  0  0  0  0  0999 V2000
   -1.8248    0.3424    3.9102 C   0  0  0  0  0  0  0  0  0  0  0  0
   -0.8774   -0.2723    3.4345 O   0  0  0  0  0  0  0  0  0  0  0  0
   -2.2566    0.0600    5.3109 C   0  0  0  0  0  0  0  0  0  0  0  0
   -3.0163   -0.7363    5.3643 H   0  0  0  0  0  0  0  0  0  0  0  0
   -1.4254   -0.2876    5.9452 H   0  0  0  0  0  0  0  0  0  0  0  0
   -2.6947    0.9149    5.8505 H   0  0  0  0  0  0  0  0  0  0  0  0
   -2.5745    1.3149    3.2691 N   0  0  0  0  0  0  0  0  0  0  0  0
   -2.3276    1.7409    1.9167 C   0  0  2  0  0  0  0  0  0  0  0  0
   -0.9926    1.1555    1.4755 C   0  0  0  0  0  0  0  0  0  0  0  0
   -0.1206    0.8028    2.2668 O   0  0  0  0  0  0  0  0  0  0  0  0
   -2.3188    3.2577    1.8072 C   0  0  0  0  0  0  0  0  0  0  0  0
   -3.3395    1.7507    3.7809 H   0  0  0  0  0  0  0  0  0  0  0  0
   -3.1317    1.3224    1.3015 H   0  0  0  0  0  0  0  0  0  0  0  0
   -1.5198    3.6949    2.4169 H   0  0  0  0  0  0  0  0  0  0  0  0
   -2.1594    3.5799    0.7729 H   0  0  0  0  0  0  0  0  0  0  0  0
   -3.2690    3.6789    2.1530 H   0  0  0  0  0  0  0  0  0  0  0  0
   -0.8700    1.1124    0.0921 N   0  0  0  0  0  0  0  0  0  0  0  0
    0.3073    0.6116   -0.5716 C   0  0  2  0  0  0  0  0  0  0  0  0
   -0.1424    0.0214   -1.9034 C   0  0  0  0  0  0  0  0  0  0  0  0
   -0.1664    0.6687   -2.9480 O   0  0  0  0  0  0  0  0  0  0  0  0
    1.0353   -0.4488    0.2626 C   0  0  0  0  0  0  0  0  0  0  0  0
    1.6403    0.1157    1.5247 C   0  0  0  0  0  0  0  0  0  0  0  0
    2.8661    0.7797    1.4749 C   0  0  0  0  0  0  0  0  0  0  0  0
    0.9732   -0.0265    2.7414 C   0  0  0  0  0  0  0  0  0  0  0  0
    3.4246    1.3014    2.6418 C   0  0  0  0  0  0  0  0  0  0  0  0
    1.5317    0.4952    3.9082 C   0  0  0  0  0  0  0  0  0  0  0  0
    2.7574    1.1592    3.8584 C   0  0  0  0  0  0  0  0  0  0  0  0
   -1.6531    1.4091   -0.4852 H   0  0  0  0  0  0  0  0  0  0  0  0
    0.9510    1.4784   -0.7623 H   0  0  0  0  0  0  0  0  0  0  0  0
    1.8175   -0.9336   -0.3372 H   0  0  0  0  0  0  0  0  0  0  0  0
    0.3458   -1.2560    0.5430 H   0  0  0  0  0  0  0  0  0  0  0  0
    3.3929    0.8954    0.5314 H   0  0  0  0  0  0  0  0  0  0  0  0
    0.0177   -0.5422    2.7898 H   0  0  0  0  0  0  0  0  0  0  0  0
    4.3795    1.8174    2.6029 H   0  0  0  0  0  0  0  0  0  0  0  0
    1.0125    0.3833    4.8555 H   0  0  0  0  0  0  0  0  0  0  0  0
    3.1931    1.5643    4.7671 H   0  0  0  0  0  0  0  0  0  0  0  0
   -0.4644   -1.3242   -1.7931 N   0  0  0  0  0  0  0  0  0  0  0  0
   -0.8983   -2.1305   -2.9112 C   0  0  2  0  0  0  0  0  0  0  0  0
   -2.0201   -1.3846   -3.6217 C   0  0  0  0  0  0  0  0  0  0  0  0
   -2.7057   -0.5240   -3.0736 O   0  0  0  0  0  0  0  0  0  0  0  0
   -1.3631   -3.5048   -2.4550 C   0  0  0  0  0  0  0  0  0  0  0  0
   -0.3915   -1.7643   -0.8806 H   0  0  0  0  0  0  0  0  0  0  0  0
   -0.0393   -2.2265   -3.5842 H   0  0  0  0  0  0  0  0  0  0  0  0
   -2.2233   -3.4289   -1.7799 H   0  0  0  0  0  0  0  0  0  0  0  0
   -1.6646   -4.1244   -3.3061 H   0  0  0  0  0  0  0  0  0  0  0  0
   -0.5644   -4.0280   -1.9182 H   0  0  0  0  0  0  0  0  0  0  0  0
   -2.1939   -1.8235   -4.9268 N   0  0  0  0  0  0  0  0  0  0  0  0
   -3.2041   -1.2797   -5.8042 C   0  0  0  0  0  0  0  0  0  0  0  0
   -1.5674   -2.5282   -5.3046 H   0  0  0  0  0  0  0  0  0  0  0  0
   -4.1191   -1.8857   -5.7306 H   0  0  0  0  0  0  0  0  0  0  0  0
   -3.4260   -0.2434   -5.5098 H   0  0  0  0  0  0  0  0  0  0  0  0
   -2.8363   -1.2956   -6.8408 H   0  0  0  0  0  0  0  0  0  0  0  0
 25 27  1  0  0  0  0
 26 27  2  0  0  0  0
 23 25  2  0  0  0  0
 24 26  1  0  0  0  0
 22 23  1  0  0  0  0
 22 24  2  0  0  0  0
 21 22  1  0  0  0  0
  1  3  1  0  0  0  0
  1  7  1  0  0  0  0
  1  2  2  0  0  0  0
 38 39  1  0  0  0  0
 39 47  1  0  0  0  0
 39 40  2  0  0  0  0
  8  9  1  0  0  0  0
  9 17  1  0  0  0  0
  9 10  2  0  0  0  0
 18 19  1  0  0  0  0
 19 37  1  0  0  0  0
 19 20  2  0  0  0  0
 38 41  1  0  0  0  0
  8 11  1  0  0  0  0
 47 48  1  0  0  0  0
 18 21  1  0  0  0  0
 37 38  1  0  0  0  0
  7  8  1  0  0  0  0
 17 18  1  0  0  0  0
 27 36  1  0  0  0  0
 25 34  1  0  0  0  0
 26 35  1  0  0  0  0
 23 32  1  0  0  0  0
 24 33  1  0  0  0  0
  3  4  1  0  0  0  0
  3  5  1  0  0  0  0
  3  6  1  0  0  0  0
 41 44  1  0  0  0  0
 41 45  1  0  0  0  0
 41 46  1  0  0  0  0
 11 14  1  0  0  0  0
 11 15  1  0  0  0  0
 11 16  1  0  0  0  0
 48 50  1  0  0  0  0
 48 51  1  0  0  0  0
 48 52  1  0  0  0  0
 21 30  1  0  0  0  0
 21 31  1  0  0  0  0
 38 43  1  0  0  0  0
  8 13  1  0  0  0  0
 18 29  1  0  0  0  0
 47 49  1  0  0  0  0
  7 12  1  0  0  0  0
 37 42  1  0  0  0  0
 17 28  1  0  0  0  0
M  END
$$$$

  -OEChem-05262214473D

 52 52  0     1  0  0  0  0  0999 V2000
   -1.8248    0.3424    3.9102 C   0  0  0  0  0  0  0  0  0  0  0  0
   -0.8774   -0.2723    3.4345 O   0  0  0  0  0  0  0  0  0  0  0  0
   -2.2566    0.0600    5.3109 C   0  0  0  0  0  0  0  0  0  0  0  0
   -3.0163   -0.7363    5.3643 H   0  0  0  0  0  0  0  0  0  0  0  0
   -1.4254   -0.2876    5.9452 H   0  0  0  0  0  0  0  0  0  0  0  0
   -2.6947    0.9149    5.8505 H   0  0  0  0  0  0  0  0  0  0  0  0
   -2.5745    1.3149    3.2691 N   0  0  0  0  0  0  0  0  0  0  0  0
   -2.3276    1.7409    1.9167 C   0  0  2  0  0  0  0  0  0  0  0  0
   -0.9926    1.1555    1.4755 C   0  0  0  0  0  0  0  0  0  0  0  0
   -0.1206    0.8028    2.2668 O   0  0  0  0  0  0  0  0  0  0  0  0
   -2.3188    3.2577    1.8072 C   0  0  0  0  0  0  0  0  0  0  0  0
   -3.3395    1.7507    3.7809 H   0  0  0  0  0  0  0  0  0  0  0  0
   -3.1317    1.3224    1.3015 H   0  0  0  0  0  0  0  0  0  0  0  0
   -1.5198    3.6949    2.4169 H   0  0  0  0  0  0  0  0  0  0  0  0
   -2.1594    3.5799    0.7729 H   0  0  0  0  0  0  0  0  0  0  0  0
   -3.2690    3.6789    2.1530 H   0  0  0  0  0  0  0  0  0  0  0  0
   -0.8700    1.1124    0.0921 N   0  0  0  0  0  0  0  0  0  0  0  0
    0.3073    0.6116   -0.5716 C   0  0  2  0  0  0  0  0  0  0  0  0
   -0.1424    0.0214   -1.9034 C   0  0  0  0  0  0  0  0  0  0  0  0
    0.0787    0.5635   -2.9842 O   0  0  0  0  0  0  0  0  0  0  0  0
    1.0353   -0.4488    0.2626 C   0  0  0  0  0  0  0  0  0  0  0  0
    1.6403    0.1157    1.5247 C   0  0  0  0  0  0  0  0  0  0  0  0
    2.8661    0.7797    1.4749 C   0  0  0  0  0  0  0  0  0  0  0  0
    0.9732   -0.0265    2.7414 C   0  0  0  0  0  0  0  0  0  0  0  0
    3.4246    1.3014    2.6418 C   0  0  0  0  0  0  0  0  0  0  0  0
    1.5317    0.4952    3.9082 C   0  0  0  0  0  0  0  0  0  0  0  0
    2.7574    1.1592    3.8584 C   0  0  0  0  0  0  0  0  0  0  0  0
   -1.6531    1.4091   -0.4852 H   0  0  0  0  0  0  0  0  0  0  0  0
    0.9510    1.4784   -0.7623 H   0  0  0  0  0  0  0  0  0  0  0  0
    1.8175   -0.9336   -0.3372 H   0  0  0  0  0  0  0  0  0  0  0  0
    0.3458   -1.2560    0.5430 H   0  0  0  0  0  0  0  0  0  0  0  0
    3.3929    0.8954    0.5314 H   0  0  0  0  0  0  0  0  0  0  0  0
    0.0177   -0.5422    2.7898 H   0  0  0  0  0  0  0  0  0  0  0  0
    4.3795    1.8174    2.6029 H   0  0  0  0  0  0  0  0  0  0  0  0
    1.0125    0.3833    4.8555 H   0  0  0  0  0  0  0  0  0  0  0  0
    3.1931    1.5643    4.7671 H   0  0  0  0  0  0  0  0  0  0  0  0
   -0.7739   -1.2039   -1.7418 N   0  0  0  0  0  0  0  0  0  0  0  0
   -1.2776   -1.9888   -2.8460 C   0  0  2  0  0  0  0  0  0  0  0  0
   -2.1280   -1.0776   -3.7213 C   0  0  0  0  0  0  0  0  0  0  0  0
   -2.6444   -0.0415   -3.3082 O   0  0  0  0  0  0  0  0  0  0  0  0
   -2.0857   -3.1799   -2.3551 C   0  0  0  0  0  0  0  0  0  0  0  0
   -0.8879   -1.5674   -0.8002 H   0  0  0  0  0  0  0  0  0  0  0  0
   -0.4058   -2.3319   -3.4137 H   0  0  0  0  0  0  0  0  0  0  0  0
   -2.9634   -2.8557   -1.7840 H   0  0  0  0  0  0  0  0  0  0  0  0
   -2.4425   -3.7893   -3.1919 H   0  0  0  0  0  0  0  0  0  0  0  0
   -1.4812   -3.8182   -1.7016 H   0  0  0  0  0  0  0  0  0  0  0  0
   -2.2780   -1.5799   -5.0064 N   0  0  0  0  0  0  0  0  0  0  0  0
   -3.0515   -0.9045   -6.0221 C   0  0  0  0  0  0  0  0  0  0  0  0
   -1.7985   -2.4365   -5.2672 H   0  0  0  0  0  0  0  0  0  0  0  0
   -4.0842   -1.2831   -6.0095 H   0  0  0  0  0  0  0  0  0  0  0  0
   -3.0551    0.1770   -5.8213 H   0  0  0  0  0  0  0  0  0  0  0  0
   -2.6040   -1.0927   -7.0092 H   0  0  0  0  0  0  0  0  0  0  0  0
 25 27  1  0  0  0  0
 26 27  2  0  0  0  0
 23 25  2  0  0  0  0
 24 26  1  0  0  0  0
 22 23  1  0  0  0  0
 22 24  2  0  0  0  0
 21 22  1  0  0  0  0
  1  3  1  0  0  0  0
  1  7  1  0  0  0  0
  1  2  2  0  0  0  0
 38 39  1  0  0  0  0
 39 47  1  0  0  0  0
 39 40  2  0  0  0  0
  8  9  1  0  0  0  0
  9 17  1  0  0  0  0
  9 10  2  0  0  0  0
 18 19  1  0  0  0  0
 19 37  1  0  0  0  0
 19 20  2  0  0  0  0
 38 41  1  0  0  0  0
  8 11  1  0  0  0  0
 47 48  1  0  0  0  0
 18 21  1  0  0  0  0
 37 38  1  0  0  0  0
  7  8  1  0  0  0  0
 17 18  1  0  0  0  0
 27 36  1  0  0  0  0
 25 34  1  0  0  0  0
 26 35  1  0  0  0  0
 23 32  1  0  0  0  0
 24 33  1  0  0  0  0
  3  4  1  0  0  0  0
  3  5  1  0  0  0  0
  3  6  1  0  0  0  0
 41 44  1  0  0  0  0
 41 45  1  0  0  0  0
 41 46  1  0  0  0  0
 11 14  1  0  0  0  0
 11 15  1  0  0  0  0
 11 16  1  0  0  0  0
 48 50  1  0  0  0  0
 48 51  1  0  0  0  0
 48 52  1  0  0  0  0
 21 30  1  0  0  0  0
 21 31  1  0  0  0  0
 38 43  1  0  0  0  0
  8 13  1  0  0  0  0
 18 29  1  0  0  0  0
 47 49  1  0  0  0  0
  7 12  1  0  0  0  0
 37 42  1  0  0  0  0
 17 28  1  0  0  0  0
M  END
$$$$

  -OEChem-05262214473D

 52 52  0     1  0  0  0  0  0999 V2000
   -1.8248    0.3424    3.9102 C   0  0  0  0  0  0  0  0  0  0  0  0
   -0.8774   -0.2723    3.4345 O   0  0  0  0  0  0  0  0  0  0  0  0
   -2.2566    0.0600    5.3109 C   0  0  0  0  0  0  0  0  0  0  0  0
   -3.0163   -0.7363    5.3643 H   0  0  0  0  0  0  0  0  0  0  0  0
   -1.4254   -0.2876    5.9452 H   0  0  0  0  0  0  0  0  0  0  0  0
   -2.6947    0.9149    5.8505 H   0  0  0  0  0  0  0  0  0  0  0  0
   -2.5745    1.3149    3.2691 N   0  0  0  0  0  0  0  0  0  0  0  0
   -2.3276    1.7409    1.9167 C   0  0  2  0  0  0  0  0  0  0  0  0
   -0.9926    1.1555    1.4755 C   0  0  0  0  0  0  0  0  0  0  0  0
   -0.1206    0.8028    2.2668 O   0  0  0  0  0  0  0  0  0  0  0  0
   -2.3188    3.2577    1.8072 C   0  0  0  0  0  0  0  0  0  0  0  0
   -3.3395    1.7507    3.7809 H   0  0  0  0  0  0  0  0  0  0  0  0
   -3.1317    1.3224    1.3015 H   0  0  0  0  0  0  0  0  0  0  0  0
   -1.5198    3.6949    2.4169 H   0  0  0  0  0  0  0  0  0  0  0  0
   -2.1594    3.5799    0.7729 H   0  0  0  0  0  0  0  0  0  0  0  0
   -3.2690    3.6789    2.1530 H   0  0  0  0  0  0  0  0  0  0  0  0
   -0.8700    1.1124    0.0921 N   0  0  0  0  0  0  0  0  0  0  0  0
    0.3073    0.6116   -0.5716 C   0  0  2  0  0  0  0  0  0  0  0  0
   -0.1424    0.0214   -1.9034 C   0  0  0  0  0  0  0  0  0  0  0  0
    0.2953    0.4037   -2.9865 O   0  0  0  0  0  0  0  0  0  0  0  0
    1.0353   -0.4488    0.2626 C   0  0  0  0  0  0  0  0  0  0  0  0
    1.6403    0.1157    1.5247 C   0  0  0  0  0  0  0  0  0  0  0  0
    2.8661    0.7797    1.4749 C   0  0  0  0  0  0  0  0  0  0  0  0
    0.9732   -0.0265    2.7414 C   0  0  0  0  0  0  0  0  0  0  0  0
    3.4246    1.3014    2.6418 C   0  0  0  0  0  0  0  0  0  0  0  0
    1.5317    0.4952    3.9082 C   0  0  0  0  0  0  0  0  0  0  0  0
    2.7574    1.1592    3.8584 C   0  0  0  0  0  0  0  0  0  0  0  0
   -1.6531    1.4091   -0.4852 H   0  0  0  0  0  0  0  0  0  0  0  0
    0.9510    1.4784   -0.7623 H   0  0  0  0  0  0  0  0  0  0  0  0
    1.8175   -0.9336   -0.3372 H   0  0  0  0  0  0  0  0  0  0  0  0
    0.3458   -1.2560    0.5430 H   0  0  0  0  0  0  0  0  0  0  0  0
    3.3929    0.8954    0.5314 H   0  0  0  0  0  0  0  0  0  0  0  0
    0.0177   -0.5422    2.7898 H   0  0  0  0  0  0  0  0  0  0  0  0
    4.3795    1.8174    2.6029 H   0  0  0  0  0  0  0  0  0  0  0  0
    1.0125    0.3833    4.8555 H   0  0  0  0  0  0  0  0  0  0  0  0
    3.1931    1.5643    4.7671 H   0  0  0  0  0  0  0  0  0  0  0  0
   -1.0509   -1.0139   -1.7325 N   0  0  0  0  0  0  0  0  0  0  0  0
   -1.6184   -1.7611   -2.8318 C   0  0  2  0  0  0  0  0  0  0  0  0
   -2.1528   -0.7643   -3.8518 C   0  0  0  0  0  0  0  0  0  0  0  0
   -2.4526    0.3929   -3.5654 O   0  0  0  0  0  0  0  0  0  0  0  0
   -2.7202   -2.6950   -2.3557 C   0  0  0  0  0  0  0  0  0  0  0  0
   -1.3310   -1.2588   -0.7874 H   0  0  0  0  0  0  0  0  0  0  0  0
   -0.8008   -2.3379   -3.2777 H   0  0  0  0  0  0  0  0  0  0  0  0
   -3.5482   -2.1351   -1.9059 H   0  0  0  0  0  0  0  0  0  0  0  0
   -3.1295   -3.2811   -3.1851 H   0  0  0  0  0  0  0  0  0  0  0  0
   -2.3411   -3.3918   -1.6003 H   0  0  0  0  0  0  0  0  0  0  0  0
   -2.2961   -1.3316   -5.1103 N   0  0  0  0  0  0  0  0  0  0  0  0
   -2.7974   -0.5932   -6.2458 C   0  0  0  0  0  0  0  0  0  0  0  0
   -2.0048   -2.2929   -5.2612 H   0  0  0  0  0  0  0  0  0  0  0  0
   -3.8862   -0.7302   -6.3214 H   0  0  0  0  0  0  0  0  0  0  0  0
   -2.5705    0.4755   -6.1172 H   0  0  0  0  0  0  0  0  0  0  0  0
   -2.3169   -0.9621   -7.1640 H   0  0  0  0  0  0  0  0  0  0  0  0
 25 27  1  0  0  0  0
 26 27  2  0  0  0  0
 23 25  2  0  0  0  0
 24 26  1  0  0  0  0
 22 23  1  0  0  0  0
 22 24  2  0  0  0  0
 21 22  1  0  0  0  0
  1  3  1  0  0  0  0
  1  7  1  0  0  0  0
  1  2  2  0  0  0  0
 38 39  1  0  0  0  0
 39 47  1  0  0  0  0
 39 40  2  0  0  0  0
  8  9  1  0  0  0  0
  9 17  1  0  0  0  0
  9 10  2  0  0  0  0
 18 19  1  0  0  0  0
 19 37  1  0  0  0  0
 19 20  2  0  0  0  0
 38 41  1  0  0  0  0
  8 11  1  0  0  0  0
 47 48  1  0  0  0  0
 18 21  1  0  0  0  0
 37 38  1  0  0  0  0
  7  8  1  0  0  0  0
 17 18  1  0  0  0  0
 27 36  1  0  0  0  0
 25 34  1  0  0  0  0
 26 35  1  0  0  0  0
 23 32  1  0  0  0  0
 24 33  1  0  0  0  0
  3  4  1  0  0  0  0
  3  5  1  0  0  0  0
  3  6  1  0  0  0  0
 41 44  1  0  0  0  0
 41 45  1  0  0  0  0
 41 46  1  0  0  0  0
 11 14  1  0  0  0  0
 11 15  1  0  0  0  0
 11 16  1  0  0  0  0
 48 50  1  0  0  0  0
 48 51  1  0  0  0  0
 48 52  1  0  0  0  0
 21 30  1  0  0  0  0
 21 31  1  0  0  0  0
 38 43  1  0  0  0  0
  8 13  1  0  0  0  0
 18 29  1  0  0  0  0
 47 49  1  0  0  0  0
  7 12  1  0  0  0  0
 37 42  1  0  0  0  0
 17 28  1  0  0  0  0
M  END
$$$$

  -OEChem-05262214473D

 52 52  0     1  0  0  0  0  0999 V2000
   -1.8248    0.3424    3.9102 C   0  0  0  0  0  0  0  0  0  0  0  0
   -0.8774   -0.2723    3.4345 O   0  0  0  0  0  0  0  0  0  0  0  0
   -2.2566    0.0600    5.3109 C   0  0  0  0  0  0  0  0  0  0  0  0
   -3.0163   -0.7363    5.3643 H   0  0  0  0  0  0  0  0  0  0  0  0
   -1.4254   -0.2876    5.9452 H   0  0  0  0  0  0  0  0  0  0  0  0
   -2.6947    0.9149    5.8505 H   0  0  0  0  0  0  0  0  0  0  0  0
   -2.5745    1.3149    3.2691 N   0  0  0  0  0  0  0  0  0  0  0  0
   -2.3276    1.7409    1.9167 C   0  0  2  0  0  0  0  0  0  0  0  0
   -0.9926    1.1555    1.4755 C   0  0  0  0  0  0  0  0  0  0  0  0
   -0.1206    0.8028    2.2668 O   0  0  0  0  0  0  0  0  0  0  0  0
   -2.3188    3.2577    1.8072 C   0  0  0  0  0  0  0  0  0  0  0  0
   -3.3395    1.7507    3.7809 H   0  0  0  0  0  0  0  0  0  0  0  0
   -3.1317    1.3224    1.3015 H   0  0  0  0  0  0  0  0  0  0  0  0
   -1.5198    3.6949    2.4169 H   0  0  0  0  0  0  0  0  0  0  0  0
   -2.1594    3.5799    0.7729 H   0  0  0  0  0  0  0  0  0  0  0  0
   -3.2690    3.6789    2.1530 H   0  0  0  0  0  0  0  0  0  0  0  0
   -0.8700    1.1124    0.0921 N   0  0  0  0  0  0  0  0  0  0  0  0
    0.3073    0.6116   -0.5716 C   0  0  2  0  0  0  0  0  0  0  0  0
   -0.1424    0.0214   -1.9034 C   0  0  0  0  0  0  0  0  0  0  0  0
    0.4686    0.2001   -2.9548 O   0  0  0  0  0  0  0  0  0  0  0  0
    1.0353   -0.4488    0.2626 C   0  0  0  0  0  0  0  0  0  0  0  0
    1.6403    0.1157    1.5247 C   0  0  0  0  0  0  0  0  0  0  0  0
    2.8661    0.7797    1.4749 C   0  0  0  0  0  0  0  0  0  0  0  0
    0.9732   -0.0265    2.7414 C   0  0  0  0  0  0  0  0  0  0  0  0
    3.4246    1.3014    2.6418 C   0  0  0  0  0  0  0  0  0  0  0  0
    1.5317    0.4952    3.9082 C   0  0  0  0  0  0  0  0  0  0  0  0
    2.7574    1.1592    3.8584 C   0  0  0  0  0  0  0  0  0  0  0  0
   -1.6531    1.4091   -0.4852 H   0  0  0  0  0  0  0  0  0  0  0  0
    0.9510    1.4784   -0.7623 H   0  0  0  0  0  0  0  0  0  0  0  0
    1.8175   -0.9336   -0.3372 H   0  0  0  0  0  0  0  0  0  0  0  0
    0.3458   -1.2560    0.5430 H   0  0  0  0  0  0  0  0  0  0  0  0
    3.3929    0.8954    0.5314 H   0  0  0  0  0  0  0  0  0  0  0  0
    0.0177   -0.5422    2.7898 H   0  0  0  0  0  0  0  0  0  0  0  0
    4.3795    1.8174    2.6029 H   0  0  0  0  0  0  0  0  0  0  0  0
    1.0125    0.3833    4.8555 H   0  0  0  0  0  0  0  0  0  0  0  0
    3.1931    1.5643    4.7671 H   0  0  0  0  0  0  0  0  0  0  0  0
   -1.2763   -0.7670   -1.7658 N   0  0  0  0  0  0  0  0  0  0  0  0
   -1.8976   -1.4631   -2.8696 C   0  0  2  0  0  0  0  0  0  0  0  0
   -2.0928   -0.4661   -4.0042 C   0  0  0  0  0  0  0  0  0  0  0  0
   -2.1433    0.7494   -3.8278 O   0  0  0  0  0  0  0  0  0  0  0  0
   -3.2234   -2.0833   -2.4569 C   0  0  0  0  0  0  0  0  0  0  0  0
   -1.6904   -0.8595   -0.8429 H   0  0  0  0  0  0  0  0  0  0  0  0
   -1.1973   -2.2441   -3.1854 H   0  0  0  0  0  0  0  0  0  0  0  0
   -3.9380   -1.3160   -2.1373 H   0  0  0  0  0  0  0  0  0  0  0  0
   -3.6789   -2.6343   -3.2862 H   0  0  0  0  0  0  0  0  0  0  0  0
   -3.0854   -2.7777   -1.6211 H   0  0  0  0  0  0  0  0  0  0  0  0
   -2.2471   -1.0956   -5.2314 N   0  0  0  0  0  0  0  0  0  0  0  0
   -2.4592   -0.3670   -6.4603 C   0  0  0  0  0  0  0  0  0  0  0  0
   -2.1722   -2.1071   -5.2871 H   0  0  0  0  0  0  0  0  0  0  0  0
   -3.5387   -0.2648   -6.6450 H   0  0  0  0  0  0  0  0  0  0  0  0
   -2.0053    0.6316   -6.3773 H   0  0  0  0  0  0  0  0  0  0  0  0
   -1.9946   -0.9126   -7.2948 H   0  0  0  0  0  0  0  0  0  0  0  0
 25 27  1  0  0  0  0
 26 27  2  0  0  0  0
 23 25  2  0  0  0  0
 24 26  1  0  0  0  0
 22 23  1  0  0  0  0
 22 24  2  0  0  0  0
 21 22  1  0  0  0  0
  1  3  1  0  0  0  0
  1  7  1  0  0  0  0
  1  2  2  0  0  0  0
 38 39  1  0  0  0  0
 39 47  1  0  0  0  0
 39 40  2  0  0  0  0
  8  9  1  0  0  0  0
  9 17  1  0  0  0  0
  9 10  2  0  0  0  0
 18 19  1  0  0  0  0
 19 37  1  0  0  0  0
 19 20  2  0  0  0  0
 38 41  1  0  0  0  0
  8 11  1  0  0  0  0
 47 48  1  0  0  0  0
 18 21  1  0  0  0  0
 37 38  1  0  0  0  0
  7  8  1  0  0  0  0
 17 18  1  0  0  0  0
 27 36  1  0  0  0  0
 25 34  1  0  0  0  0
 26 35  1  0  0  0  0
 23 32  1  0  0  0  0
 24 33  1  0  0  0  0
  3  4  1  0  0  0  0
  3  5  1  0  0  0  0
  3  6  1  0  0  0  0
 41 44  1  0  0  0  0
 41 45  1  0  0  0  0
 41 46  1  0  0  0  0
 11 14  1  0  0  0  0
 11 15  1  0  0  0  0
 11 16  1  0  0  0  0
 48 50  1  0  0  0  0
 48 51  1  0  0  0  0
 48 52  1  0  0  0  0
 21 30  1  0  0  0  0
 21 31  1  0  0  0  0
 38 43  1  0  0  0  0
  8 13  1  0  0  0  0
 18 29  1  0  0  0  0
 47 49  1  0  0  0  0
  7 12  1  0  0  0  0
 37 42  1  0  0  0  0
 17 28  1  0  0  0  0
M  END
$$$$

  -OEChem-05262214473D

 52 52  0     1  0  0  0  0  0999 V2000
   -1.8248    0.3424    3.9102 C   0  0  0  0  0  0  0  0  0  0  0  0
   -0.8774   -0.2723    3.4345 O   0  0  0  0  0  0  0  0  0  0  0  0
   -2.2566    0.0600    5.3109 C   0  0  0  0  0  0  0  0  0  0  0  0
   -3.0163   -0.7363    5.3643 H   0  0  0  0  0  0  0  0  0  0  0  0
   -1.4254   -0.2876    5.9452 H   0  0  0  0  0  0  0  0  0  0  0  0
   -2.6947    0.9149    5.8505 H   0  0  0  0  0  0  0  0  0  0  0  0
   -2.5745    1.3149    3.2691 N   0  0  0  0  0  0  0  0  0  0  0  0
   -2.3276    1.7409    1.9167 C   0  0  2  0  0  0  0  0  0  0  0  0
   -0.9926    1.1555    1.4755 C   0  0  0  0  0  0  0  0  0  0  0  0
   -0.1206    0.8028    2.2668 O   0  0  0  0  0  0  0  0  0  0  0  0
   -2.3188    3.2577    1.8072 C   0  0  0  0  0  0  0  0  0  0  0  0
   -3.3395    1.7507    3.7809 H   0  0  0  0  0  0  0  0  0  0  0  0
   -3.1317    1.3224    1.3015 H   0  0  0  0  0  0  0  0  0  0  0  0
   -1.5198    3.6949    2.4169 H   0  0  0  0  0  0  0  0  0  0  0  0
   -2.1594    3.5799    0.7729 H   0  0  0  0  0  0  0  0  0  0  0  0
   -3.2690    3.6789    2.1530 H   0  0  0  0  0  0  0  0  0  0  0  0
   -0.8700    1.1124    0.0921 N   0  0  0  0  0  0  0  0  0  0  0  0
    0.3073    0.6116   -0.5716 C   0  0  2  0  0  0  0  0  0  0  0  0
   -0.1424    0.0214   -1.9034 C   0  0  0  0  0  0  0  0  0  0  0  0
    0.5869   -0.0332   -2.8913 O   0  0  0  0  0  0  0  0  0  0  0  0
    1.0353   -0.4488    0.2626 C   0  0  0  0  0  0  0  0  0  0  0  0
    1.6403    0.1157    1.5247 C   0  0  0  0  0  0  0  0  0  0  0  0
    2.8661    0.7797    1.4749 C   0  0  0  0  0  0  0  0  0  0  0  0
    0.9732   -0.0265    2.7414 C   0  0  0  0  0  0  0  0  0  0  0  0
    3.4246    1.3014    2.6418 C   0  0  0  0  0  0  0  0  0  0  0  0
    1.5317    0.4952    3.9082 C   0  0  0  0  0  0  0  0  0  0  0  0
    2.7574    1.1592    3.8584 C   0  0  0  0  0  0  0  0  0  0  0  0
   -1.6531    1.4091   -0.4852 H   0  0  0  0  0  0  0  0  0  0  0  0
    0.9510    1.4784   -0.7623 H   0  0  0  0  0  0  0  0  0  0  0  0
    1.8175   -0.9336   -0.3372 H   0  0  0  0  0  0  0  0  0  0  0  0
    0.3458   -1.2560    0.5430 H   0  0  0  0  0  0  0  0  0  0  0  0
    3.3929    0.8954    0.5314 H   0  0  0  0  0  0  0  0  0  0  0  0
    0.0177   -0.5422    2.7898 H   0  0  0  0  0  0  0  0  0  0  0  0
    4.3795    1.8174    2.6029 H   0  0  0  0  0  0  0  0  0  0  0  0
    1.0125    0.3833    4.8555 H   0  0  0  0  0  0  0  0  0  0  0  0
    3.1931    1.5643    4.7671 H   0  0  0  0  0  0  0  0  0  0  0  0
   -1.4350   -0.4801   -1.8394 N   0  0  0  0  0  0  0  0  0  0  0  0
   -2.0961   -1.1150   -2.9569 C   0  0  2  0  0  0  0  0  0  0  0  0
   -1.9522   -0.2032   -4.1682 C   0  0  0  0  0  0  0  0  0  0  0  0
   -1.7377    1.0039   -4.0776 O   0  0  0  0  0  0  0  0  0  0  0  0
   -3.5610   -1.3863   -2.6517 C   0  0  0  0  0  0  0  0  0  0  0  0
   -1.9418   -0.3968   -0.9631 H   0  0  0  0  0  0  0  0  0  0  0  0
   -1.5683   -2.0567   -3.1431 H   0  0  0  0  0  0  0  0  0  0  0  0
   -4.1061   -0.4544   -2.4623 H   0  0  0  0  0  0  0  0  0  0  0  0
   -4.0533   -1.8930   -3.4883 H   0  0  0  0  0  0  0  0  0  0  0  0
   -3.6634   -2.0179   -1.7626 H   0  0  0  0  0  0  0  0  0  0  0  0
   -2.1343   -0.8880   -5.3615 N   0  0  0  0  0  0  0  0  0  0  0  0
   -2.0598   -0.2413   -6.6508 C   0  0  0  0  0  0  0  0  0  0  0  0
   -2.2892   -1.8917   -5.3430 H   0  0  0  0  0  0  0  0  0  0  0  0
   -3.0654    0.0816   -6.9583 H   0  0  0  0  0  0  0  0  0  0  0  0
   -1.3981    0.6348   -6.5837 H   0  0  0  0  0  0  0  0  0  0  0  0
   -1.6589   -0.9478   -7.3926 H   0  0  0  0  0  0  0  0  0  0  0  0
 25 27  1  0  0  0  0
 26 27  2  0  0  0  0
 23 25  2  0  0  0  0
 24 26  1  0  0  0  0
 22 23  1  0  0  0  0
 22 24  2  0  0  0  0
 21 22  1  0  0  0  0
  1  3  1  0  0  0  0
  1  7  1  0  0  0  0
  1  2  2  0  0  0  0
 38 39  1  0  0  0  0
 39 47  1  0  0  0  0
 39 40  2  0  0  0  0
  8  9  1  0  0  0  0
  9 17  1  0  0  0  0
  9 10  2  0  0  0  0
 18 19  1  0  0  0  0
 19 37  1  0  0  0  0
 19 20  2  0  0  0  0
 38 41  1  0  0  0  0
  8 11  1  0  0  0  0
 47 48  1  0  0  0  0
 18 21  1  0  0  0  0
 37 38  1  0  0  0  0
  7  8  1  0  0  0  0
 17 18  1  0  0  0  0
 27 36  1  0  0  0  0
 25 34  1  0  0  0  0
 26 35  1  0  0  0  0
 23 32  1  0  0  0  0
 24 33  1  0  0  0  0
  3  4  1  0  0  0  0
  3  5  1  0  0  0  0
  3  6  1  0  0  0  0
 41 44  1  0  0  0  0
 41 45  1  0  0  0  0
 41 46  1  0  0  0  0
 11 14  1  0  0  0  0
 11 15  1  0  0  0  0
 11 16  1  0  0  0  0
 48 50  1  0  0  0  0
 48 51  1  0  0  0  0
 48 52  1  0  0  0  0
 21 30  1  0  0  0  0
 21 31  1  0  0  0  0
 38 43  1  0  0  0  0
  8 13  1  0  0  0  0
 18 29  1  0  0  0  0
 47 49  1  0  0  0  0
  7 12  1  0  0  0  0
 37 42  1  0  0  0  0
 17 28  1  0  0  0  0
M  END
$$$$

  -OEChem-05262214473D

 52 52  0     1  0  0  0  0  0999 V2000
   -1.8248    0.3424    3.9102 C   0  0  0  0  0  0  0  0  0  0  0  0
   -0.8774   -0.2723    3.4345 O   0  0  0  0  0  0  0  0  0  0  0  0
   -2.2566    0.0600    5.3109 C   0  0  0  0  0  0  0  0  0  0  0  0
   -3.0163   -0.7363    5.3643 H   0  0  0  0  0  0  0  0  0  0  0  0
   -1.4254   -0.2876    5.9452 H   0  0  0  0  0  0  0  0  0  0  0  0
   -2.6947    0.9149    5.8505 H   0  0  0  0  0  0  0  0  0  0  0  0
   -2.5745    1.3149    3.2691 N   0  0  0  0  0  0  0  0  0  0  0  0
   -2.3276    1.7409    1.9167 C   0  0  2  0  0  0  0  0  0  0  0  0
   -0.9926    1.1555    1.4755 C   0  0  0  0  0  0  0  0  0  0  0  0
   -0.1206    0.8028    2.2668 O   0  0  0  0  0  0  0  0  0  0  0  0
   -2.3188    3.2577    1.8072 C   0  0  0  0  0  0  0  0  0  0  0  0
   -3.3395    1.7507    3.7809 H   0  0  0  0  0  0  0  0  0  0  0  0
   -3.1317    1.3224    1.3015 H   0  0  0  0  0  0  0  0  0  0  0  0
   -1.5198    3.6949    2.4169 H   0  0  0  0  0  0  0  0  0  0  0  0
   -2.1594    3.5799    0.7729 H   0  0  0  0  0  0  0  0  0  0  0  0
   -3.2690    3.6789    2.1530 H   0  0  0  0  0  0  0  0  0  0  0  0
   -0.8700    1.1124    0.0921 N   0  0  0  0  0  0  0  0  0  0  0  0
    0.3073    0.6116   -0.5716 C   0  0  2  0  0  0  0  0  0  0  0  0
   -0.1424    0.0214   -1.9034 C   0  0  0  0  0  0  0  0  0  0  0  0
    0.6419   -0.2805   -2.8004 O   0  0  0  0  0  0  0  0  0  0  0  0
    1.0353   -0.4488    0.2626 C   0  0  0  0  0  0  0  0  0  0  0  0
    1.6403    0.1157    1.5247 C   0  0  0  0  0  0  0  0  0  0  0  0
    2.8661    0.7797    1.4749 C   0  0  0  0  0  0  0  0  0  0  0  0
    0.9732   -0.0265    2.7414 C   0  0  0  0  0  0  0  0  0  0  0  0
    3.4246    1.3014    2.6418 C   0  0  0  0  0  0  0  0  0  0  0  0
    1.5317    0.4952    3.9082 C   0  0  0  0  0  0  0  0  0  0  0  0
    2.7574    1.1592    3.8584 C   0  0  0  0  0  0  0  0  0  0  0  0
   -1.6531    1.4091   -0.4852 H   0  0  0  0  0  0  0  0  0  0  0  0
    0.9510    1.4784   -0.7623 H   0  0  0  0  0  0  0  0  0  0  0  0
    1.8175   -0.9336   -0.3372 H   0  0  0  0  0  0  0  0  0  0  0  0
    0.3458   -1.2560    0.5430 H   0  0  0  0  0  0  0  0  0  0  0  0
    3.3929    0.8954    0.5314 H   0  0  0  0  0  0  0  0  0  0  0  0
    0.0177   -0.5422    2.7898 H   0  0  0  0  0  0  0  0  0  0  0  0
    4.3795    1.8174    2.6029 H   0  0  0  0  0  0  0  0  0  0  0  0
    1.0125    0.3833    4.8555 H   0  0  0  0  0  0  0  0  0  0  0  0
    3.1931    1.5643    4.7671 H   0  0  0  0  0  0  0  0  0  0  0  0
   -1.5160   -0.1728   -1.9483 N   0  0  0  0  0  0  0  0  0  0  0  0
   -2.2003   -0.7405   -3.0876 C   0  0  2  0  0  0  0  0  0  0  0  0
   -1.7405    0.0065   -4.3326 C   0  0  0  0  0  0  0  0  0  0  0  0
   -1.2634    1.1388   -4.2975 O   0  0  0  0  0  0  0  0  0  0  0  0
   -3.7100   -0.6517   -2.9270 C   0  0  0  0  0  0  0  0  0  0  0  0
   -2.0680    0.0977   -1.1397 H   0  0  0  0  0  0  0  0  0  0  0  0
   -1.8885   -1.7886   -3.1538 H   0  0  0  0  0  0  0  0  0  0  0  0
   -4.0412    0.3910   -2.8589 H   0  0  0  0  0  0  0  0  0  0  0  0
   -4.2270   -1.1078   -3.7777 H   0  0  0  0  0  0  0  0  0  0  0  0
   -4.0357   -1.1640   -2.0153 H   0  0  0  0  0  0  0  0  0  0  0  0
   -1.9654   -0.7229   -5.4917 N   0  0  0  0  0  0  0  0  0  0  0  0
   -1.6266   -0.2248   -6.8044 C   0  0  0  0  0  0  0  0  0  0  0  0
   -2.3480   -1.6615   -5.4252 H   0  0  0  0  0  0  0  0  0  0  0  0
   -2.4985    0.2852   -7.2399 H   0  0  0  0  0  0  0  0  0  0  0  0
   -0.7901    0.4848   -6.7225 H   0  0  0  0  0  0  0  0  0  0  0  0
   -1.3328   -1.0650   -7.4507 H   0  0  0  0  0  0  0  0  0  0  0  0
 25 27  1  0  0  0  0
 26 27  2  0  0  0  0
 23 25  2  0  0  0  0
 24 26  1  0  0  0  0
 22 23  1  0  0  0  0
 22 24  2  0  0  0  0
 21 22  1  0  0  0  0
  1  3  1  0  0  0  0
  1  7  1  0  0  0  0
  1  2  2  0  0  0  0
 38 39  1  0  0  0  0
 39 47  1  0  0  0  0
 39 40  2  0  0  0  0
  8  9  1  0  0  0  0
  9 17  1  0  0  0  0
  9 10  2  0  0  0  0
 18 19  1  0  0  0  0
 19 37  1  0  0  0  0
 19 20  2  0  0  0  0
 38 41  1  0  0  0  0
  8 11  1  0  0  0  0
 47 48  1  0  0  0  0
 18 21  1  0  0  0  0
 37 38  1  0  0  0  0
  7  8  1  0  0  0  0
 17 18  1  0  0  0  0
 27 36  1  0  0  0  0
 25 34  1  0  0  0  0
 26 35  1  0  0  0  0
 23 32  1  0  0  0  0
 24 33  1  0  0  0  0
  3  4  1  0  0  0  0
  3  5  1  0  0  0  0
  3  6  1  0  0  0  0
 41 44  1  0  0  0  0
 41 45  1  0  0  0  0
 41 46  1  0  0  0  0
 11 14  1  0  0  0  0
 11 15  1  0  0  0  0
 11 16  1  0  0  0  0
 48 50  1  0  0  0  0
 48 51  1  0  0  0  0
 48 52  1  0  0  0  0
 21 30  1  0  0  0  0
 21 31  1  0  0  0  0
 38 43  1  0  0  0  0
  8 13  1  0  0  0  0
 18 29  1  0  0  0  0
 47 49  1  0  0  0  0
  7 12  1  0  0  0  0
 37 42  1  0  0  0  0
 17 28  1  0  0  0  0
M  END
$$$$

  -OEChem-05262214473D

 52 52  0     1  0  0  0  0  0999 V2000
   -1.8248    0.3424    3.9102 C   0  0  0  0  0  0  0  0  0  0  0  0
   -0.8774   -0.2723    3.4345 O   0  0  0  0  0  0  0  0  0  0  0  0
   -2.2566    0.0600    5.3109 C   0  0  0  0  0  0  0  0  0  0  0  0
   -3.0163   -0.7363    5.3643 H   0  0  0  0  0  0  0  0  0  0  0  0
   -1.4254   -0.2876    5.9452 H   0  0  0  0  0  0  0  0  0  0  0  0
   -2.6947    0.9149    5.8505 H   0  0  0  0  0  0  0  0  0  0  0  0
   -2.5745    1.3149    3.2691 N   0  0  0  0  0  0  0  0  0  0  0  0
   -2.3276    1.7409    1.9167 C   0  0  2  0  0  0  0  0  0  0  0  0
   -0.9926    1.1555    1.4755 C   0  0  0  0  0  0  0  0  0  0  0  0
   -0.1206    0.8028    2.2668 O   0  0  0  0  0  0  0  0  0  0  0  0
   -2.3188    3.2577    1.8072 C   0  0  0  0  0  0  0  0  0  0  0  0
   -3.3395    1.7507    3.7809 H   0  0  0  0  0  0  0  0  0  0  0  0
   -3.1317    1.3224    1.3015 H   0  0  0  0  0  0  0  0  0  0  0  0
   -1.5198    3.6949    2.4169 H   0  0  0  0  0  0  0  0  0  0  0  0
   -2.1594    3.5799    0.7729 H   0  0  0  0  0  0  0  0  0  0  0  0
   -3.2690    3.6789    2.1530 H   0  0  0  0  0  0  0  0  0  0  0  0
   -0.8700    1.1124    0.0921 N   0  0  0  0  0  0  0  0  0  0  0  0
    0.3073    0.6116   -0.5716 C   0  0  2  0  0  0  0  0  0  0  0  0
   -0.1424    0.0214   -1.9034 C   0  0  0  0  0  0  0  0  0  0  0  0
    0.6301   -0.5248   -2.6881 O   0  0  0  0  0  0  0  0  0  0  0  0
    1.0353   -0.4488    0.2626 C   0  0  0  0  0  0  0  0  0  0  0  0
    1.6403    0.1157    1.5247 C   0  0  0  0  0  0  0  0  0  0  0  0
    2.8661    0.7797    1.4749 C   0  0  0  0  0  0  0  0  0  0  0  0
    0.9732   -0.0265    2.7414 C   0  0  0  0  0  0  0  0  0  0  0  0
    3.4246    1.3014    2.6418 C   0  0  0  0  0  0  0  0  0  0  0  0
    1.5317    0.4952    3.9082 C   0  0  0  0  0  0  0  0  0  0  0  0
    2.7574    1.1592    3.8584 C   0  0  0  0  0  0  0  0  0  0  0  0
   -1.6531    1.4091   -0.4852 H   0  0  0  0  0  0  0  0  0  0  0  0
    0.9510    1.4784   -0.7623 H   0  0  0  0  0  0  0  0  0  0  0  0
    1.8175   -0.9336   -0.3372 H   0  0  0  0  0  0  0  0  0  0  0  0
    0.3458   -1.2560    0.5430 H   0  0  0  0  0  0  0  0  0  0  0  0
    3.3929    0.8954    0.5314 H   0  0  0  0  0  0  0  0  0  0  0  0
    0.0177   -0.5422    2.7898 H   0  0  0  0  0  0  0  0  0  0  0  0
    4.3795    1.8174    2.6029 H   0  0  0  0  0  0  0  0  0  0  0  0
    1.0125    0.3833    4.8555 H   0  0  0  0  0  0  0  0  0  0  0  0
    3.1931    1.5643    4.7671 H   0  0  0  0  0  0  0  0  0  0  0  0
   -1.5138    0.1341   -2.0850 N   0  0  0  0  0  0  0  0  0  0  0  0
   -2.2033   -0.3652   -3.2529 C   0  0  2  0  0  0  0  0  0  0  0  0
   -1.4721    0.1486   -4.4862 C   0  0  0  0  0  0  0  0  0  0  0  0
   -0.7527    1.1452   -4.4728 O   0  0  0  0  0  0  0  0  0  0  0  0
   -3.6602    0.0706   -3.2639 C   0  0  0  0  0  0  0  0  0  0  0  0
   -2.0604    0.5905   -1.3606 H   0  0  0  0  0  0  0  0  0  0  0  0
   -2.1362   -1.4580   -3.2167 H   0  0  0  0  0  0  0  0  0  0  0  0
   -3.7475    1.1626   -3.3000 H   0  0  0  0  0  0  0  0  0  0  0  0
   -4.1883   -0.3322   -4.1345 H   0  0  0  0  0  0  0  0  0  0  0  0
   -4.1770   -0.2744   -2.3618 H   0  0  0  0  0  0  0  0  0  0  0  0
   -1.7518   -0.6116   -5.6132 N   0  0  0  0  0  0  0  0  0  0  0  0
   -1.1890   -0.3185   -6.9106 C   0  0  0  0  0  0  0  0  0  0  0  0
   -2.3445   -1.4321   -5.5280 H   0  0  0  0  0  0  0  0  0  0  0  0
   -1.8767    0.3321   -7.4707 H   0  0  0  0  0  0  0  0  0  0  0  0
   -0.2228    0.1918   -6.7843 H   0  0  0  0  0  0  0  0  0  0  0  0
   -1.0385   -1.2565   -7.4652 H   0  0  0  0  0  0  0  0  0  0  0  0
 25 27  1  0  0  0  0
 26 27  2  0  0  0  0
 23 25  2  0  0  0  0
 24 26  1  0  0  0  0
 22 23  1  0  0  0  0
 22 24  2  0  0  0  0
 21 22  1  0  0  0  0
  1  3  1  0  0  0  0
  1  7  1  0  0  0  0
  1  2  2  0  0  0  0
 38 39  1  0  0  0  0
 39 47  1  0  0  0  0
 39 40  2  0  0  0  0
  8  9  1  0  0  0  0
  9 17  1  0  0  0  0
  9 10  2  0  0  0  0
 18 19  1  0  0  0  0
 19 37  1  0  0  0  0
 19 20  2  0  0  0  0
 38 41  1  0  0  0  0
  8 11  1  0  0  0  0
 47 48  1  0  0  0  0
 18 21  1  0  0  0  0
 37 38  1  0  0  0  0
  7  8  1  0  0  0  0
 17 18  1  0  0  0  0
 27 36  1  0  0  0  0
 25 34  1  0  0  0  0
 26 35  1  0  0  0  0
 23 32  1  0  0  0  0
 24 33  1  0  0  0  0
  3  4  1  0  0  0  0
  3  5  1  0  0  0  0
  3  6  1  0  0  0  0
 41 44  1  0  0  0  0
 41 45  1  0  0  0  0
 41 46  1  0  0  0  0
 11 14  1  0  0  0  0
 11 15  1  0  0  0  0
 11 16  1  0  0  0  0
 48 50  1  0  0  0  0
 48 51  1  0  0  0  0
 48 52  1  0  0  0  0
 21 30  1  0  0  0  0
 21 31  1  0  0  0  0
 38 43  1  0  0  0  0
  8 13  1  0  0  0  0
 18 29  1  0  0  0  0
 47 49  1  0  0  0  0
  7 12  1  0  0  0  0
 37 42  1  0  0  0  0
 17 28  1  0  0  0  0
M  END
$$$$

  -OEChem-05262214473D

 52 52  0     1  0  0  0  0  0999 V2000
   -1.8248    0.3424    3.9102 C   0  0  0  0  0  0  0  0  0  0  0  0
   -0.8774   -0.2723    3.4345 O   0  0  0  0  0  0  0  0  0  0  0  0
   -2.2566    0.0600    5.3109 C   0  0  0  0  0  0  0  0  0  0  0  0
   -3.0163   -0.7363    5.3643 H   0  0  0  0  0  0  0  0  0  0  0  0
   -1.4254   -0.2876    5.9452 H   0  0  0  0  0  0  0  0  0  0  0  0
   -2.6947    0.9149    5.8505 H   0  0  0  0  0  0  0  0  0  0  0  0
   -2.5745    1.3149    3.2691 N   0  0  0  0  0  0  0  0  0  0  0  0
   -2.3276    1.7409    1.9167 C   0  0  2  0  0  0  0  0  0  0  0  0
   -0.9926    1.1555    1.4755 C   0  0  0  0  0  0  0  0  0  0  0  0
   -0.1206    0.8028    2.2668 O   0  0  0  0  0  0  0  0  0  0  0  0
   -2.3188    3.2577    1.8072 C   0  0  0  0  0  0  0  0  0  0  0  0
   -3.3395    1.7507    3.7809 H   0  0  0  0  0  0  0  0  0  0  0  0
   -3.1317    1.3224    1.3015 H   0  0  0  0  0  0  0  0  0  0  0  0
   -1.5198    3.6949    2.4169 H   0  0  0  0  0  0  0  0  0  0  0  0
   -2.1594    3.5799    0.7729 H   0  0  0  0  0  0  0  0  0  0  0  0
   -3.2690    3.6789    2.1530 H   0  0  0  0  0  0  0  0  0  0  0  0
   -0.8700    1.1124    0.0921 N   0  0  0  0  0  0  0  0  0  0  0  0
    0.3073    0.6116   -0.5716 C   0  0  2  0  0  0  0  0  0  0  0  0
   -0.1424    0.0214   -1.9034 C   0  0  0  0  0  0  0  0  0  0  0  0
    0.5522   -0.7496   -2.5622 O   0  0  0  0  0  0  0  0  0  0  0  0
    1.0353   -0.4488    0.2626 C   0  0  0  0  0  0  0  0  0  0  0  0
    1.6403    0.1157    1.5247 C   0  0  0  0  0  0  0  0  0  0  0  0
    2.8661    0.7797    1.4749 C   0  0  0  0  0  0  0  0  0  0  0  0
    0.9732   -0.0265    2.7414 C   0  0  0  0  0  0  0  0  0  0  0  0
    3.4246    1.3014    2.6418 C   0  0  0  0  0  0  0  0  0  0  0  0
    1.5317    0.4952    3.9082 C   0  0  0  0  0  0  0  0  0  0  0  0
    2.7574    1.1592    3.8584 C   0  0  0  0  0  0  0  0  0  0  0  0
   -1.6531    1.4091   -0.4852 H   0  0  0  0  0  0  0  0  0  0  0  0
    0.9510    1.4784   -0.7623 H   0  0  0  0  0  0  0  0  0  0  0  0
    1.8175   -0.9336   -0.3372 H   0  0  0  0  0  0  0  0  0  0  0  0
    0.3458   -1.2560    0.5430 H   0  0  0  0  0  0  0  0  0  0  0  0
    3.3929    0.8954    0.5314 H   0  0  0  0  0  0  0  0  0  0  0  0
    0.0177   -0.5422    2.7898 H   0  0  0  0  0  0  0  0  0  0  0  0
    4.3795    1.8174    2.6029 H   0  0  0  0  0  0  0  0  0  0  0  0
    1.0125    0.3833    4.8555 H   0  0  0  0  0  0  0  0  0  0  0  0
    3.1931    1.5643    4.7671 H   0  0  0  0  0  0  0  0  0  0  0  0
   -1.4286    0.4196   -2.2403 N   0  0  0  0  0  0  0  0  0  0  0  0
   -2.1047   -0.0147   -3.4416 C   0  0  2  0  0  0  0  0  0  0  0  0
   -1.1654    0.2134   -4.6185 C   0  0  0  0  0  0  0  0  0  0  0  0
   -0.2403    1.0225   -4.5914 O   0  0  0  0  0  0  0  0  0  0  0  0
   -3.4151    0.7313   -3.6394 C   0  0  0  0  0  0  0  0  0  0  0  0
   -1.9194    1.0479   -1.6109 H   0  0  0  0  0  0  0  0  0  0  0  0
   -2.2943   -1.0875   -3.3275 H   0  0  0  0  0  0  0  0  0  0  0  0
   -3.2452    1.8079   -3.7556 H   0  0  0  0  0  0  0  0  0  0  0  0
   -3.9398    0.3811   -4.5345 H   0  0  0  0  0  0  0  0  0  0  0  0
   -4.0776    0.5904   -2.7786 H   0  0  0  0  0  0  0  0  0  0  0  0
   -1.5082   -0.5616   -5.7176 N   0  0  0  0  0  0  0  0  0  0  0  0
   -0.7769   -0.5161   -6.9622 C   0  0  0  0  0  0  0  0  0  0  0  0
   -2.2789   -1.2192   -5.6445 H   0  0  0  0  0  0  0  0  0  0  0  0
   -1.2423    0.2193   -7.6349 H   0  0  0  0  0  0  0  0  0  0  0  0
    0.2651   -0.2241   -6.7647 H   0  0  0  0  0  0  0  0  0  0  0  0
   -0.7961   -1.5091   -7.4352 H   0  0  0  0  0  0  0  0  0  0  0  0
 25 27  1  0  0  0  0
 26 27  2  0  0  0  0
 23 25  2  0  0  0  0
 24 26  1  0  0  0  0
 22 23  1  0  0  0  0
 22 24  2  0  0  0  0
 21 22  1  0  0  0  0
  1  3  1  0  0  0  0
  1  7  1  0  0  0  0
  1  2  2  0  0  0  0
 38 39  1  0  0  0  0
 39 47  1  0  0  0  0
 39 40  2  0  0  0  0
  8  9  1  0  0  0  0
  9 17  1  0  0  0  0
  9 10  2  0  0  0  0
 18 19  1  0  0  0  0
 19 37  1  0  0  0  0
 19 20  2  0  0  0  0
 38 41  1  0  0  0  0
  8 11  1  0  0  0  0
 47 48  1  0  0  0  0
 18 21  1  0  0  0  0
 37 38  1  0  0  0  0
  7  8  1  0  0  0  0
 17 18  1  0  0  0  0
 27 36  1  0  0  0  0
 25 34  1  0  0  0  0
 26 35  1  0  0  0  0
 23 32  1  0  0  0  0
 24 33  1  0  0  0  0
  3  4  1  0  0  0  0
  3  5  1  0  0  0  0
  3  6  1  0  0  0  0
 41 44  1  0  0  0  0
 41 45  1  0  0  0  0
 41 46  1  0  0  0  0
 11 14  1  0  0  0  0
 11 15  1  0  0  0  0
 11 16  1  0  0  0  0
 48 50  1  0  0  0  0
 48 51  1  0  0  0  0
 48 52  1  0  0  0  0
 21 30  1  0  0  0  0
 21 31  1  0  0  0  0
 38 43  1  0  0  0  0
  8 13  1  0  0  0  0
 18 29  1  0  0  0  0
 47 49  1  0  0  0  0
  7 12  1  0  0  0  0
 37 42  1  0  0  0  0
 17 28  1  0  0  0  0
M  END
$$$$

  -OEChem-05262214473D

 52 52  0     1  0  0  0  0  0999 V2000
   -1.8248    0.3424    3.9102 C   0  0  0  0  0  0  0  0  0  0  0  0
   -0.8774   -0.2723    3.4345 O   0  0  0  0  0  0  0  0  0  0  0  0
   -2.2566    0.0600    5.3109 C   0  0  0  0  0  0  0  0  0  0  0  0
   -3.0163   -0.7363    5.3643 H   0  0  0  0  0  0  0  0  0  0  0  0
   -1.4254   -0.2876    5.9452 H   0  0  0  0  0  0  0  0  0  0  0  0
   -2.6947    0.9149    5.8505 H   0  0  0  0  0  0  0  0  0  0  0  0
   -2.5745    1.3149    3.2691 N   0  0  0  0  0  0  0  0  0  0  0  0
   -2.3276    1.7409    1.9167 C   0  0  2  0  0  0  0  0  0  0  0  0
   -0.9926    1.1555    1.4755 C   0  0  0  0  0  0  0  0  0  0  0  0
   -0.1206    0.8028    2.2668 O   0  0  0  0  0  0  0  0  0  0  0  0
   -2.3188    3.2577    1.8072 C   0  0  0  0  0  0  0  0  0  0  0  0
   -3.3395    1.7507    3.7809 H   0  0  0  0  0  0  0  0  0  0  0  0
   -3.1317    1.3224    1.3015 H   0  0  0  0  0  0  0  0  0  0  0  0
   -1.5198    3.6949    2.4169 H   0  0  0  0  0  0  0  0  0  0  0  0
   -2.1594    3.5799    0.7729 H   0  0  0  0  0  0  0  0  0  0  0  0
   -3.2690    3.6789    2.1530 H   0  0  0  0  0  0  0  0  0  0  0  0
   -0.8700    1.1124    0.0921 N   0  0  0  0  0  0  0  0  0  0  0  0
    0.3073    0.6116   -0.5716 C   0  0  2  0  0  0  0  0  0  0  0  0
   -0.1424    0.0214   -1.9034 C   0  0  0  0  0  0  0  0  0  0  0  0
    0.4135   -0.9395   -2.4312 O   0  0  0  0  0  0  0  0  0  0  0  0
    1.0353   -0.4488    0.2626 C   0  0  0  0  0  0  0  0  0  0  0  0
    1.6403    0.1157    1.5247 C   0  0  0  0  0  0  0  0  0  0  0  0
    2.8661    0.7797    1.4749 C   0  0  0  0  0  0  0  0  0  0  0  0
    0.9732   -0.0265    2.7414 C   0  0  0  0  0  0  0  0  0  0  0  0
    3.4246    1.3014    2.6418 C   0  0  0  0  0  0  0  0  0  0  0  0
    1.5317    0.4952    3.9082 C   0  0  0  0  0  0  0  0  0  0  0  0
    2.7574    1.1592    3.8584 C   0  0  0  0  0  0  0  0  0  0  0  0
   -1.6531    1.4091   -0.4852 H   0  0  0  0  0  0  0  0  0  0  0  0
    0.9510    1.4784   -0.7623 H   0  0  0  0  0  0  0  0  0  0  0  0
    1.8175   -0.9336   -0.3372 H   0  0  0  0  0  0  0  0  0  0  0  0
    0.3458   -1.2560    0.5430 H   0  0  0  0  0  0  0  0  0  0  0  0
    3.3929    0.8954    0.5314 H   0  0  0  0  0  0  0  0  0  0  0  0
    0.0177   -0.5422    2.7898 H   0  0  0  0  0  0  0  0  0  0  0  0
    4.3795    1.8174    2.6029 H   0  0  0  0  0  0  0  0  0  0  0  0
    1.0125    0.3833    4.8555 H   0  0  0  0  0  0  0  0  0  0  0  0
    3.1931    1.5643    4.7671 H   0  0  0  0  0  0  0  0  0  0  0  0
   -1.2662    0.6643   -2.4036 N   0  0  0  0  0  0  0  0  0  0  0  0
   -1.9113    0.2873   -3.6407 C   0  0  2  0  0  0  0  0  0  0  0  0
   -0.8412    0.1966   -4.7205 C   0  0  0  0  0  0  0  0  0  0  0  0
    0.2387    0.7790   -4.6453 O   0  0  0  0  0  0  0  0  0  0  0  0
   -2.9913    1.2854   -4.0281 C   0  0  0  0  0  0  0  0  0  0  0  0
   -1.6548    1.4387   -1.8735 H   0  0  0  0  0  0  0  0  0  0  0  0
   -2.3522   -0.7024   -3.4786 H   0  0  0  0  0  0  0  0  0  0  0  0
   -2.5685    2.2829   -4.1946 H   0  0  0  0  0  0  0  0  0  0  0  0
   -3.4984    0.9832   -4.9504 H   0  0  0  0  0  0  0  0  0  0  0  0
   -3.7443    1.3714   -3.2373 H   0  0  0  0  0  0  0  0  0  0  0  0
   -1.2511   -0.5764   -5.7979 N   0  0  0  0  0  0  0  0  0  0  0  0
   -0.4183   -0.8040   -6.9557 C   0  0  0  0  0  0  0  0  0  0  0  0
   -2.1557   -1.0372   -5.7667 H   0  0  0  0  0  0  0  0  0  0  0  0
   -0.6386   -0.0456   -7.7214 H   0  0  0  0  0  0  0  0  0  0  0  0
    0.6404   -0.7347   -6.6651 H   0  0  0  0  0  0  0  0  0  0  0  0
   -0.6220   -1.8055   -7.3625 H   0  0  0  0  0  0  0  0  0  0  0  0
 25 27  1  0  0  0  0
 26 27  2  0  0  0  0
 23 25  2  0  0  0  0
 24 26  1  0  0  0  0
 22 23  1  0  0  0  0
 22 24  2  0  0  0  0
 21 22  1  0  0  0  0
  1  3  1  0  0  0  0
  1  7  1  0  0  0  0
  1  2  2  0  0  0  0
 38 39  1  0  0  0  0
 39 47  1  0  0  0  0
 39 40  2  0  0  0  0
  8  9  1  0  0  0  0
  9 17  1  0  0  0  0
  9 10  2  0  0  0  0
 18 19  1  0  0  0  0
 19 37  1  0  0  0  0
 19 20  2  0  0  0  0
 38 41  1  0  0  0  0
  8 11  1  0  0  0  0
 47 48  1  0  0  0  0
 18 21  1  0  0  0  0
 37 38  1  0  0  0  0
  7  8  1  0  0  0  0
 17 18  1  0  0  0  0
 27 36  1  0  0  0  0
 25 34  1  0  0  0  0
 26 35  1  0  0  0  0
 23 32  1  0  0  0  0
 24 33  1  0  0  0  0
  3  4  1  0  0  0  0
  3  5  1  0  0  0  0
  3  6  1  0  0  0  0
 41 44  1  0  0  0  0
 41 45  1  0  0  0  0
 41 46  1  0  0  0  0
 11 14  1  0  0  0  0
 11 15  1  0  0  0  0
 11 16  1  0  0  0  0
 48 50  1  0  0  0  0
 48 51  1  0  0  0  0
 48 52  1  0  0  0  0
 21 30  1  0  0  0  0
 21 31  1  0  0  0  0
 38 43  1  0  0  0  0
  8 13  1  0  0  0  0
 18 29  1  0  0  0  0
 47 49  1  0  0  0  0
  7 12  1  0  0  0  0
 37 42  1  0  0  0  0
 17 28  1  0  0  0  0
M  END
$$$$

  -OEChem-05262214473D

 52 52  0     1  0  0  0  0  0999 V2000
   -1.8248    0.3424    3.9102 C   0  0  0  0  0  0  0  0  0  0  0  0
   -0.8774   -0.2723    3.4345 O   0  0  0  0  0  0  0  0  0  0  0  0
   -2.2566    0.0600    5.3109 C   0  0  0  0  0  0  0  0  0  0  0  0
   -3.0163   -0.7363    5.3643 H   0  0  0  0  0  0  0  0  0  0  0  0
   -1.4254   -0.2876    5.9452 H   0  0  0  0  0  0  0  0  0  0  0  0
   -2.6947    0.9149    5.8505 H   0  0  0  0  0  0  0  0  0  0  0  0
   -2.5745    1.3149    3.2691 N   0  0  0  0  0  0  0  0  0  0  0  0
   -2.3276    1.7409    1.9167 C   0  0  2  0  0  0  0  0  0  0  0  0
   -0.9926    1.1555    1.4755 C   0  0  0  0  0  0  0  0  0  0  0  0
   -0.1206    0.8028    2.2668 O   0  0  0  0  0  0  0  0  0  0  0  0
   -2.3188    3.2577    1.8072 C   0  0  0  0  0  0  0  0  0  0  0  0
   -3.3395    1.7507    3.7809 H   0  0  0  0  0  0  0  0  0  0  0  0
   -3.1317    1.3224    1.3015 H   0  0  0  0  0  0  0  0  0  0  0  0
   -1.5198    3.6949    2.4169 H   0  0  0  0  0  0  0  0  0  0  0  0
   -2.1594    3.5799    0.7729 H   0  0  0  0  0  0  0  0  0  0  0  0
   -3.2690    3.6789    2.1530 H   0  0  0  0  0  0  0  0  0  0  0  0
   -0.8700    1.1124    0.0921 N   0  0  0  0  0  0  0  0  0  0  0  0
    0.3073    0.6116   -0.5716 C   0  0  2  0  0  0  0  0  0  0  0  0
   -0.1424    0.0214   -1.9034 C   0  0  0  0  0  0  0  0  0  0  0  0
    0.2235   -1.0815   -2.3040 O   0  0  0  0  0  0  0  0  0  0  0  0
    1.0353   -0.4488    0.2626 C   0  0  0  0  0  0  0  0  0  0  0  0
    1.6403    0.1157    1.5247 C   0  0  0  0  0  0  0  0  0  0  0  0
    2.8661    0.7797    1.4749 C   0  0  0  0  0  0  0  0  0  0  0  0
    0.9732   -0.0265    2.7414 C   0  0  0  0  0  0  0  0  0  0  0  0
    3.4246    1.3014    2.6418 C   0  0  0  0  0  0  0  0  0  0  0  0
    1.5317    0.4952    3.9082 C   0  0  0  0  0  0  0  0  0  0  0  0
    2.7574    1.1592    3.8584 C   0  0  0  0  0  0  0  0  0  0  0  0
   -1.6531    1.4091   -0.4852 H   0  0  0  0  0  0  0  0  0  0  0  0
    0.9510    1.4784   -0.7623 H   0  0  0  0  0  0  0  0  0  0  0  0
    1.8175   -0.9336   -0.3372 H   0  0  0  0  0  0  0  0  0  0  0  0
    0.3458   -1.2560    0.5430 H   0  0  0  0  0  0  0  0  0  0  0  0
    3.3929    0.8954    0.5314 H   0  0  0  0  0  0  0  0  0  0  0  0
    0.0177   -0.5422    2.7898 H   0  0  0  0  0  0  0  0  0  0  0  0
    4.3795    1.8174    2.6029 H   0  0  0  0  0  0  0  0  0  0  0  0
    1.0125    0.3833    4.8555 H   0  0  0  0  0  0  0  0  0  0  0  0
    3.1931    1.5643    4.7671 H   0  0  0  0  0  0  0  0  0  0  0  0
   -1.0377    0.8514   -2.5637 N   0  0  0  0  0  0  0  0  0  0  0  0
   -1.6363    0.5200   -3.8367 C   0  0  2  0  0  0  0  0  0  0  0  0
   -0.5216    0.0993   -4.7853 C   0  0  0  0  0  0  0  0  0  0  0  0
    0.6517    0.4315   -4.6308 O   0  0  0  0  0  0  0  0  0  0  0  0
   -2.4177    1.6951   -4.4034 C   0  0  0  0  0  0  0  0  0  0  0  0
   -1.2845    1.7364   -2.1304 H   0  0  0  0  0  0  0  0  0  0  0  0
   -2.3059   -0.3288   -3.6598 H   0  0  0  0  0  0  0  0  0  0  0  0
   -1.7634    2.5551   -4.5871 H   0  0  0  0  0  0  0  0  0  0  0  0
   -2.8942    1.4334   -5.3538 H   0  0  0  0  0  0  0  0  0  0  0  0
   -3.1998    2.0154   -3.7066 H   0  0  0  0  0  0  0  0  0  0  0  0
   -0.9981   -0.6549   -5.8485 N   0  0  0  0  0  0  0  0  0  0  0  0
   -0.1377   -1.1628   -6.8915 C   0  0  0  0  0  0  0  0  0  0  0  0
   -1.9834   -0.8987   -5.8863 H   0  0  0  0  0  0  0  0  0  0  0  0
   -0.1067   -0.4446   -7.7241 H   0  0  0  0  0  0  0  0  0  0  0  0
    0.8774   -1.3051   -6.4924 H   0  0  0  0  0  0  0  0  0  0  0  0
   -0.5282   -2.1257   -7.2523 H   0  0  0  0  0  0  0  0  0  0  0  0
 25 27  1  0  0  0  0
 26 27  2  0  0  0  0
 23 25  2  0  0  0  0
 24 26  1  0  0  0  0
 22 23  1  0  0  0  0
 22 24  2  0  0  0  0
 21 22  1  0  0  0  0
  1  3  1  0  0  0  0
  1  7  1  0  0  0  0
  1  2  2  0  0  0  0
 38 39  1  0  0  0  0
 39 47  1  0  0  0  0
 39 40  2  0  0  0  0
  8  9  1  0  0  0  0
  9 17  1  0  0  0  0
  9 10  2  0  0  0  0
 18 19  1  0  0  0  0
 19 37  1  0  0  0  0
 19 20  2  0  0  0  0
 38 41  1  0  0  0  0
  8 11  1  0  0  0  0
 47 48  1  0  0  0  0
 18 21  1  0  0  0  0
 37 38  1  0  0  0  0
  7  8  1  0  0  0  0
 17 18  1  0  0  0  0
 27 36  1  0  0  0  0
 25 34  1  0  0  0  0
 26 35  1  0  0  0  0
 23 32  1  0  0  0  0
 24 33  1  0  0  0  0
  3  4  1  0  0  0  0
  3  5  1  0  0  0  0
  3  6  1  0  0  0  0
 41 44  1  0  0  0  0
 41 45  1  0  0  0  0
 41 46  1  0  0  0  0
 11 14  1  0  0  0  0
 11 15  1  0  0  0  0
 11 16  1  0  0  0  0
 48 50  1  0  0  0  0
 48 51  1  0  0  0  0
 48 52  1  0  0  0  0
 21 30  1  0  0  0  0
 21 31  1  0  0  0  0
 38 43  1  0  0  0  0
  8 13  1  0  0  0  0
 18 29  1  0  0  0  0
 47 49  1  0  0  0  0
  7 12  1  0  0  0  0
 37 42  1  0  0  0  0
 17 28  1  0  0  0  0
M  END
$$$$

  -OEChem-05262214473D

 52 52  0     1  0  0  0  0  0999 V2000
   -1.8248    0.3424    3.9102 C   0  0  0  0  0  0  0  0  0  0  0  0
   -0.8774   -0.2723    3.4345 O   0  0  0  0  0  0  0  0  0  0  0  0
   -2.2566    0.0600    5.3109 C   0  0  0  0  0  0  0  0  0  0  0  0
   -3.0163   -0.7363    5.3643 H   0  0  0  0  0  0  0  0  0  0  0  0
   -1.4254   -0.2876    5.9452 H   0  0  0  0  0  0  0  0  0  0  0  0
   -2.6947    0.9149    5.8505 H   0  0  0  0  0  0  0  0  0  0  0  0
   -2.5745    1.3149    3.2691 N   0  0  0  0  0  0  0  0  0  0  0  0
   -2.3276    1.7409    1.9167 C   0  0  2  0  0  0  0  0  0  0  0  0
   -0.9926    1.1555    1.4755 C   0  0  0  0  0  0  0  0  0  0  0  0
   -0.1206    0.8028    2.2668 O   0  0  0  0  0  0  0  0  0  0  0  0
   -2.3188    3.2577    1.8072 C   0  0  0  0  0  0  0  0  0  0  0  0
   -3.3395    1.7507    3.7809 H   0  0  0  0  0  0  0  0  0  0  0  0
   -3.1317    1.3224    1.3015 H   0  0  0  0  0  0  0  0  0  0  0  0
   -1.5198    3.6949    2.4169 H   0  0  0  0  0  0  0  0  0  0  0  0
   -2.1594    3.5799    0.7729 H   0  0  0  0  0  0  0  0  0  0  0  0
   -3.2690    3.6789    2.1530 H   0  0  0  0  0  0  0  0  0  0  0  0
   -0.8700    1.1124    0.0921 N   0  0  0  0  0  0  0  0  0  0  0  0
    0.3073    0.6116   -0.5716 C   0  0  2  0  0  0  0  0  0  0  0  0
   -0.1424    0.0214   -1.9034 C   0  0  0  0  0  0  0  0  0  0  0  0
   -0.0050   -1.1661   -2.1895 O   0  0  0  0  0  0  0  0  0  0  0  0
    1.0353   -0.4488    0.2626 C   0  0  0  0  0  0  0  0  0  0  0  0
    1.6403    0.1157    1.5247 C   0  0  0  0  0  0  0  0  0  0  0  0
    2.8661    0.7797    1.4749 C   0  0  0  0  0  0  0  0  0  0  0  0
    0.9732   -0.0265    2.7414 C   0  0  0  0  0  0  0  0  0  0  0  0
    3.4246    1.3014    2.6418 C   0  0  0  0  0  0  0  0  0  0  0  0
    1.5317    0.4952    3.9082 C   0  0  0  0  0  0  0  0  0  0  0  0
    2.7574    1.1592    3.8584 C   0  0  0  0  0  0  0  0  0  0  0  0
   -1.6531    1.4091   -0.4852 H   0  0  0  0  0  0  0  0  0  0  0  0
    0.9510    1.4784   -0.7623 H   0  0  0  0  0  0  0  0  0  0  0  0
    1.8175   -0.9336   -0.3372 H   0  0  0  0  0  0  0  0  0  0  0  0
    0.3458   -1.2560    0.5430 H   0  0  0  0  0  0  0  0  0  0  0  0
    3.3929    0.8954    0.5314 H   0  0  0  0  0  0  0  0  0  0  0  0
    0.0177   -0.5422    2.7898 H   0  0  0  0  0  0  0  0  0  0  0  0
    4.3795    1.8174    2.6029 H   0  0  0  0  0  0  0  0  0  0  0  0
    1.0125    0.3833    4.8555 H   0  0  0  0  0  0  0  0  0  0  0  0
    3.1931    1.5643    4.7671 H   0  0  0  0  0  0  0  0  0  0  0  0
   -0.7585    0.9683   -2.7097 N   0  0  0  0  0  0  0  0  0  0  0  0
   -1.2985    0.6676   -4.0162 C   0  0  2  0  0  0  0  0  0  0  0  0
   -0.2285   -0.0720   -4.8084 C   0  0  0  0  0  0  0  0  0  0  0  0
    0.9707    0.0035   -4.5488 O   0  0  0  0  0  0  0  0  0  0  0  0
   -1.7335    1.9326   -4.7396 C   0  0  0  0  0  0  0  0  0  0  0  0
   -0.8338    1.9205   -2.3642 H   0  0  0  0  0  0  0  0  0  0  0  0
   -2.1586    0.0078   -3.8587 H   0  0  0  0  0  0  0  0  0  0  0  0
   -0.8849    2.6061   -4.9063 H   0  0  0  0  0  0  0  0  0  0  0  0
   -2.1685    1.7008   -5.7174 H   0  0  0  0  0  0  0  0  0  0  0  0
   -2.4813    2.4786   -4.1545 H   0  0  0  0  0  0  0  0  0  0  0  0
   -0.7663   -0.7918   -5.8661 N   0  0  0  0  0  0  0  0  0  0  0  0
    0.0458   -1.5678   -6.7740 C   0  0  0  0  0  0  0  0  0  0  0  0
   -1.7736   -0.8129   -5.9952 H   0  0  0  0  0  0  0  0  0  0  0  0
    0.3171   -0.9505   -7.6431 H   0  0  0  0  0  0  0  0  0  0  0  0
    0.9601   -1.8966   -6.2582 H   0  0  0  0  0  0  0  0  0  0  0  0
   -0.5210   -2.4478   -7.1120 H   0  0  0  0  0  0  0  0  0  0  0  0
 25 27  1  0  0  0  0
 26 27  2  0  0  0  0
 23 25  2  0  0  0  0
 24 26  1  0  0  0  0
 22 23  1  0  0  0  0
 22 24  2  0  0  0  0
 21 22  1  0  0  0  0
  1  3  1  0  0  0  0
  1  7  1  0  0  0  0
  1  2  2  0  0  0  0
 38 39  1  0  0  0  0
 39 47  1  0  0  0  0
 39 40  2  0  0  0  0
  8  9  1  0  0  0  0
  9 17  1  0  0  0  0
  9 10  2  0  0  0  0
 18 19  1  0  0  0  0
 19 37  1  0  0  0  0
 19 20  2  0  0  0  0
 38 41  1  0  0  0  0
  8 11  1  0  0  0  0
 47 48  1  0  0  0  0
 18 21  1  0  0  0  0
 37 38  1  0  0  0  0
  7  8  1  0  0  0  0
 17 18  1  0  0  0  0
 27 36  1  0  0  0  0
 25 34  1  0  0  0  0
 26 35  1  0  0  0  0
 23 32  1  0  0  0  0
 24 33  1  0  0  0  0
  3  4  1  0  0  0  0
  3  5  1  0  0  0  0
  3  6  1  0  0  0  0
 41 44  1  0  0  0  0
 41 45  1  0  0  0  0
 41 46  1  0  0  0  0
 11 14  1  0  0  0  0
 11 15  1  0  0  0  0
 11 16  1  0  0  0  0
 48 50  1  0  0  0  0
 48 51  1  0  0  0  0
 48 52  1  0  0  0  0
 21 30  1  0  0  0  0
 21 31  1  0  0  0  0
 38 43  1  0  0  0  0
  8 13  1  0  0  0  0
 18 29  1  0  0  0  0
 47 49  1  0  0  0  0
  7 12  1  0  0  0  0
 37 42  1  0  0  0  0
 17 28  1  0  0  0  0
M  END
$$$$

  -OEChem-05262214473D

 52 52  0     1  0  0  0  0  0999 V2000
   -1.8248    0.3424    3.9102 C   0  0  0  0  0  0  0  0  0  0  0  0
   -0.8774   -0.2723    3.4345 O   0  0  0  0  0  0  0  0  0  0  0  0
   -2.2566    0.0600    5.3109 C   0  0  0  0  0  0  0  0  0  0  0  0
   -3.0163   -0.7363    5.3643 H   0  0  0  0  0  0  0  0  0  0  0  0
   -1.4254   -0.2876    5.9452 H   0  0  0  0  0  0  0  0  0  0  0  0
   -2.6947    0.9149    5.8505 H   0  0  0  0  0  0  0  0  0  0  0  0
   -2.5745    1.3149    3.2691 N   0  0  0  0  0  0  0  0  0  0  0  0
   -2.3276    1.7409    1.9167 C   0  0  2  0  0  0  0  0  0  0  0  0
   -0.9926    1.1555    1.4755 C   0  0  0  0  0  0  0  0  0  0  0  0
   -0.1206    0.8028    2.2668 O   0  0  0  0  0  0  0  0  0  0  0  0
   -2.3188    3.2577    1.8072 C   0  0  0  0  0  0  0  0  0  0  0  0
   -3.3395    1.7507    3.7809 H   0  0  0  0  0  0  0  0  0  0  0  0
   -3.1317    1.3224    1.3015 H   0  0  0  0  0  0  0  0  0  0  0  0
   -1.5198    3.6949    2.4169 H   0  0  0  0  0  0  0  0  0  0  0  0
   -2.1594    3.5799    0.7729 H   0  0  0  0  0  0  0  0  0  0  0  0
   -3.2690    3.6789    2.1530 H   0  0  0  0  0  0  0  0  0  0  0  0
   -0.8700    1.1124    0.0921 N   0  0  0  0  0  0  0  0  0  0  0  0
    0.3073    0.6116   -0.5716 C   0  0  2  0  0  0  0  0  0  0  0  0
   -0.1424    0.0214   -1.9034 C   0  0  0  0  0  0  0  0  0  0  0  0
   -0.2562   -1.1874   -2.0952 O   0  0  0  0  0  0  0  0  0  0  0  0
    1.0353   -0.4488    0.2626 C   0  0  0  0  0  0  0  0  0  0  0  0
    1.6403    0.1157    1.5247 C   0  0  0  0  0  0  0  0  0  0  0  0
    2.8661    0.7797    1.4749 C   0  0  0  0  0  0  0  0  0  0  0  0
    0.9732   -0.0265    2.7414 C   0  0  0  0  0  0  0  0  0  0  0  0
    3.4246    1.3014    2.6418 C   0  0  0  0  0  0  0  0  0  0  0  0
    1.5317    0.4952    3.9082 C   0  0  0  0  0  0  0  0  0  0  0  0
    2.7574    1.1592    3.8584 C   0  0  0  0  0  0  0  0  0  0  0  0
   -1.6531    1.4091   -0.4852 H   0  0  0  0  0  0  0  0  0  0  0  0
    0.9510    1.4784   -0.7623 H   0  0  0  0  0  0  0  0  0  0  0  0
    1.8175   -0.9336   -0.3372 H   0  0  0  0  0  0  0  0  0  0  0  0
    0.3458   -1.2560    0.5430 H   0  0  0  0  0  0  0  0  0  0  0  0
    3.3929    0.8954    0.5314 H   0  0  0  0  0  0  0  0  0  0  0  0
    0.0177   -0.5422    2.7898 H   0  0  0  0  0  0  0  0  0  0  0  0
    4.3795    1.8174    2.6029 H   0  0  0  0  0  0  0  0  0  0  0  0
    1.0125    0.3833    4.8555 H   0  0  0  0  0  0  0  0  0  0  0  0
    3.1931    1.5643    4.7671 H   0  0  0  0  0  0  0  0  0  0  0  0
   -0.4479    1.0069   -2.8317 N   0  0  0  0  0  0  0  0  0  0  0  0
   -0.9207    0.7201   -4.1670 C   0  0  2  0  0  0  0  0  0  0  0  0
    0.0183   -0.3054   -4.7883 C   0  0  0  0  0  0  0  0  0  0  0  0
    1.1738   -0.4757   -4.4050 O   0  0  0  0  0  0  0  0  0  0  0  0
   -0.9851    1.9815   -5.0140 C   0  0  0  0  0  0  0  0  0  0  0  0
   -0.3334    1.9787   -2.5589 H   0  0  0  0  0  0  0  0  0  0  0  0
   -1.9203    0.2844   -4.0618 H   0  0  0  0  0  0  0  0  0  0  0  0
    0.0071    2.4324   -5.1306 H   0  0  0  0  0  0  0  0  0  0  0  0
   -1.3705    1.7672   -6.0163 H   0  0  0  0  0  0  0  0  0  0  0  0
   -1.6376    2.7294   -4.5505 H   0  0  0  0  0  0  0  0  0  0  0  0
   -0.5717   -0.9778   -5.8494 N   0  0  0  0  0  0  0  0  0  0  0  0
    0.1197   -1.9916   -6.6111 C   0  0  0  0  0  0  0  0  0  0  0  0
   -1.5407   -0.7858   -6.0858 H   0  0  0  0  0  0  0  0  0  0  0  0
    0.6040   -1.5288   -7.4837 H   0  0  0  0  0  0  0  0  0  0  0  0
    0.8828   -2.4686   -5.9786 H   0  0  0  0  0  0  0  0  0  0  0  0
   -0.6010   -2.7498   -6.9512 H   0  0  0  0  0  0  0  0  0  0  0  0
 25 27  1  0  0  0  0
 26 27  2  0  0  0  0
 23 25  2  0  0  0  0
 24 26  1  0  0  0  0
 22 23  1  0  0  0  0
 22 24  2  0  0  0  0
 21 22  1  0  0  0  0
  1  3  1  0  0  0  0
  1  7  1  0  0  0  0
  1  2  2  0  0  0  0
 38 39  1  0  0  0  0
 39 47  1  0  0  0  0
 39 40  2  0  0  0  0
  8  9  1  0  0  0  0
  9 17  1  0  0  0  0
  9 10  2  0  0  0  0
 18 19  1  0  0  0  0
 19 37  1  0  0  0  0
 19 20  2  0  0  0  0
 38 41  1  0  0  0  0
  8 11  1  0  0  0  0
 47 48  1  0  0  0  0
 18 21  1  0  0  0  0
 37 38  1  0  0  0  0
  7  8  1  0  0  0  0
 17 18  1  0  0  0  0
 27 36  1  0  0  0  0
 25 34  1  0  0  0  0
 26 35  1  0  0  0  0
 23 32  1  0  0  0  0
 24 33  1  0  0  0  0
  3  4  1  0  0  0  0
  3  5  1  0  0  0  0
  3  6  1  0  0  0  0
 41 44  1  0  0  0  0
 41 45  1  0  0  0  0
 41 46  1  0  0  0  0
 11 14  1  0  0  0  0
 11 15  1  0  0  0  0
 11 16  1  0  0  0  0
 48 50  1  0  0  0  0
 48 51  1  0  0  0  0
 48 52  1  0  0  0  0
 21 30  1  0  0  0  0
 21 31  1  0  0  0  0
 38 43  1  0  0  0  0
  8 13  1  0  0  0  0
 18 29  1  0  0  0  0
 47 49  1  0  0  0  0
  7 12  1  0  0  0  0
 37 42  1  0  0  0  0
 17 28  1  0  0  0  0
M  END
$$$$

  -OEChem-05262214473D

 52 52  0     1  0  0  0  0  0999 V2000
   -1.8248    0.3424    3.9102 C   0  0  0  0  0  0  0  0  0  0  0  0
   -0.8774   -0.2723    3.4345 O   0  0  0  0  0  0  0  0  0  0  0  0
   -2.2566    0.0600    5.3109 C   0  0  0  0  0  0  0  0  0  0  0  0
   -3.0163   -0.7363    5.3643 H   0  0  0  0  0  0  0  0  0  0  0  0
   -1.4254   -0.2876    5.9452 H   0  0  0  0  0  0  0  0  0  0  0  0
   -2.6947    0.9149    5.8505 H   0  0  0  0  0  0  0  0  0  0  0  0
   -2.5745    1.3149    3.2691 N   0  0  0  0  0  0  0  0  0  0  0  0
   -2.3276    1.7409    1.9167 C   0  0  2  0  0  0  0  0  0  0  0  0
   -0.9926    1.1555    1.4755 C   0  0  0  0  0  0  0  0  0  0  0  0
   -0.1206    0.8028    2.2668 O   0  0  0  0  0  0  0  0  0  0  0  0
   -2.3188    3.2577    1.8072 C   0  0  0  0  0  0  0  0  0  0  0  0
   -3.3395    1.7507    3.7809 H   0  0  0  0  0  0  0  0  0  0  0  0
   -3.1317    1.3224    1.3015 H   0  0  0  0  0  0  0  0  0  0  0  0
   -1.5198    3.6949    2.4169 H   0  0  0  0  0  0  0  0  0  0  0  0
   -2.1594    3.5799    0.7729 H   0  0  0  0  0  0  0  0  0  0  0  0
   -3.2690    3.6789    2.1530 H   0  0  0  0  0  0  0  0  0  0  0  0
   -0.8700    1.1124    0.0921 N   0  0  0  0  0  0  0  0  0  0  0  0
    0.3073    0.6116   -0.5716 C   0  0  2  0  0  0  0  0  0  0  0  0
   -0.1424    0.0214   -1.9034 C   0  0  0  0  0  0  0  0  0  0  0  0
   -0.5131   -1.1439   -2.0277 O   0  0  0  0  0  0  0  0  0  0  0  0
    1.0353   -0.4488    0.2626 C   0  0  0  0  0  0  0  0  0  0  0  0
    1.6403    0.1157    1.5247 C   0  0  0  0  0  0  0  0  0  0  0  0
    2.8661    0.7797    1.4749 C   0  0  0  0  0  0  0  0  0  0  0  0
    0.9732   -0.0265    2.7414 C   0  0  0  0  0  0  0  0  0  0  0  0
    3.4246    1.3014    2.6418 C   0  0  0  0  0  0  0  0  0  0  0  0
    1.5317    0.4952    3.9082 C   0  0  0  0  0  0  0  0  0  0  0  0
    2.7574    1.1592    3.8584 C   0  0  0  0  0  0  0  0  0  0  0  0
   -1.6531    1.4091   -0.4852 H   0  0  0  0  0  0  0  0  0  0  0  0
    0.9510    1.4784   -0.7623 H   0  0  0  0  0  0  0  0  0  0  0  0
    1.8175   -0.9336   -0.3372 H   0  0  0  0  0  0  0  0  0  0  0  0
    0.3458   -1.2560    0.5430 H   0  0  0  0  0  0  0  0  0  0  0  0
    3.3929    0.8954    0.5314 H   0  0  0  0  0  0  0  0  0  0  0  0
    0.0177   -0.5422    2.7898 H   0  0  0  0  0  0  0  0  0  0  0  0
    4.3795    1.8174    2.6029 H   0  0  0  0  0  0  0  0  0  0  0  0
    1.0125    0.3833    4.8555 H   0  0  0  0  0  0  0  0  0  0  0  0
    3.1931    1.5643    4.7671 H   0  0  0  0  0  0  0  0  0  0  0  0
   -0.1269    0.9647   -2.9214 N   0  0  0  0  0  0  0  0  0  0  0  0
   -0.5289    0.6740   -4.2788 C   0  0  2  0  0  0  0  0  0  0  0  0
    0.2019   -0.5851   -4.7263 C   0  0  0  0  0  0  0  0  0  0  0  0
    1.2472   -0.9736   -4.2091 O   0  0  0  0  0  0  0  0  0  0  0  0
   -0.2237    1.8387   -5.2078 C   0  0  0  0  0  0  0  0  0  0  0  0
    0.1826    1.9068   -2.7013 H   0  0  0  0  0  0  0  0  0  0  0  0
   -1.6072    0.4822   -4.2551 H   0  0  0  0  0  0  0  0  0  0  0  0
    0.8520    2.0458   -5.2445 H   0  0  0  0  0  0  0  0  0  0  0  0
   -0.5548    1.6281   -6.2301 H   0  0  0  0  0  0  0  0  0  0  0  0
   -0.7263    2.7506   -4.8676 H   0  0  0  0  0  0  0  0  0  0  0  0
   -0.4274   -1.2002   -5.7995 N   0  0  0  0  0  0  0  0  0  0  0  0
    0.0790   -2.4052   -6.4141 C   0  0  0  0  0  0  0  0  0  0  0  0
   -1.3005   -0.8192   -6.1521 H   0  0  0  0  0  0  0  0  0  0  0  0
    0.7344   -2.1400   -7.2568 H   0  0  0  0  0  0  0  0  0  0  0  0
    0.6508   -2.9824   -5.6726 H   0  0  0  0  0  0  0  0  0  0  0  0
   -0.7626   -3.0112   -6.7808 H   0  0  0  0  0  0  0  0  0  0  0  0
 25 27  1  0  0  0  0
 26 27  2  0  0  0  0
 23 25  2  0  0  0  0
 24 26  1  0  0  0  0
 22 23  1  0  0  0  0
 22 24  2  0  0  0  0
 21 22  1  0  0  0  0
  1  3  1  0  0  0  0
  1  7  1  0  0  0  0
  1  2  2  0  0  0  0
 38 39  1  0  0  0  0
 39 47  1  0  0  0  0
 39 40  2  0  0  0  0
  8  9  1  0  0  0  0
  9 17  1  0  0  0  0
  9 10  2  0  0  0  0
 18 19  1  0  0  0  0
 19 37  1  0  0  0  0
 19 20  2  0  0  0  0
 38 41  1  0  0  0  0
  8 11  1  0  0  0  0
 47 48  1  0  0  0  0
 18 21  1  0  0  0  0
 37 38  1  0  0  0  0
  7  8  1  0  0  0  0
 17 18  1  0  0  0  0
 27 36  1  0  0  0  0
 25 34  1  0  0  0  0
 26 35  1  0  0  0  0
 23 32  1  0  0  0  0
 24 33  1  0  0  0  0
  3  4  1  0  0  0  0
  3  5  1  0  0  0  0
  3  6  1  0  0  0  0
 41 44  1  0  0  0  0
 41 45  1  0  0  0  0
 41 46  1  0  0  0  0
 11 14  1  0  0  0  0
 11 15  1  0  0  0  0
 11 16  1  0  0  0  0
 48 50  1  0  0  0  0
 48 51  1  0  0  0  0
 48 52  1  0  0  0  0
 21 30  1  0  0  0  0
 21 31  1  0  0  0  0
 38 43  1  0  0  0  0
  8 13  1  0  0  0  0
 18 29  1  0  0  0  0
 47 49  1  0  0  0  0
  7 12  1  0  0  0  0
 37 42  1  0  0  0  0
 17 28  1  0  0  0  0
M  END
$$$$

  -OEChem-05262214473D

 52 52  0     1  0  0  0  0  0999 V2000
   -1.8248    0.3424    3.9102 C   0  0  0  0  0  0  0  0  0  0  0  0
   -0.8774   -0.2723    3.4345 O   0  0  0  0  0  0  0  0  0  0  0  0
   -2.2566    0.0600    5.3109 C   0  0  0  0  0  0  0  0  0  0  0  0
   -3.0163   -0.7363    5.3643 H   0  0  0  0  0  0  0  0  0  0  0  0
   -1.4254   -0.2876    5.9452 H   0  0  0  0  0  0  0  0  0  0  0  0
   -2.6947    0.9149    5.8505 H   0  0  0  0  0  0  0  0  0  0  0  0
   -2.5745    1.3149    3.2691 N   0  0  0  0  0  0  0  0  0  0  0  0
   -2.3276    1.7409    1.9167 C   0  0  2  0  0  0  0  0  0  0  0  0
   -0.9926    1.1555    1.4755 C   0  0  0  0  0  0  0  0  0  0  0  0
   -0.1206    0.8028    2.2668 O   0  0  0  0  0  0  0  0  0  0  0  0
   -2.3188    3.2577    1.8072 C   0  0  0  0  0  0  0  0  0  0  0  0
   -3.3395    1.7507    3.7809 H   0  0  0  0  0  0  0  0  0  0  0  0
   -3.1317    1.3224    1.3015 H   0  0  0  0  0  0  0  0  0  0  0  0
   -1.5198    3.6949    2.4169 H   0  0  0  0  0  0  0  0  0  0  0  0
   -2.1594    3.5799    0.7729 H   0  0  0  0  0  0  0  0  0  0  0  0
   -3.2690    3.6789    2.1530 H   0  0  0  0  0  0  0  0  0  0  0  0
   -0.8700    1.1124    0.0921 N   0  0  0  0  0  0  0  0  0  0  0  0
    0.3073    0.6116   -0.5716 C   0  0  2  0  0  0  0  0  0  0  0  0
   -0.1424    0.0214   -1.9034 C   0  0  0  0  0  0  0  0  0  0  0  0
   -0.7582   -1.0387   -1.9916 O   0  0  0  0  0  0  0  0  0  0  0  0
    1.0353   -0.4488    0.2626 C   0  0  0  0  0  0  0  0  0  0  0  0
    1.6403    0.1157    1.5247 C   0  0  0  0  0  0  0  0  0  0  0  0
    2.8661    0.7797    1.4749 C   0  0  0  0  0  0  0  0  0  0  0  0
    0.9732   -0.0265    2.7414 C   0  0  0  0  0  0  0  0  0  0  0  0
    3.4246    1.3014    2.6418 C   0  0  0  0  0  0  0  0  0  0  0  0
    1.5317    0.4952    3.9082 C   0  0  0  0  0  0  0  0  0  0  0  0
    2.7574    1.1592    3.8584 C   0  0  0  0  0  0  0  0  0  0  0  0
   -1.6531    1.4091   -0.4852 H   0  0  0  0  0  0  0  0  0  0  0  0
    0.9510    1.4784   -0.7623 H   0  0  0  0  0  0  0  0  0  0  0  0
    1.8175   -0.9336   -0.3372 H   0  0  0  0  0  0  0  0  0  0  0  0
    0.3458   -1.2560    0.5430 H   0  0  0  0  0  0  0  0  0  0  0  0
    3.3929    0.8954    0.5314 H   0  0  0  0  0  0  0  0  0  0  0  0
    0.0177   -0.5422    2.7898 H   0  0  0  0  0  0  0  0  0  0  0  0
    4.3795    1.8174    2.6029 H   0  0  0  0  0  0  0  0  0  0  0  0
    1.0125    0.3833    4.8555 H   0  0  0  0  0  0  0  0  0  0  0  0
    3.1931    1.5643    4.7671 H   0  0  0  0  0  0  0  0  0  0  0  0
    0.1827    0.8445   -2.9726 N   0  0  0  0  0  0  0  0  0  0  0  0
   -0.1496    0.5322   -4.3441 C   0  0  2  0  0  0  0  0  0  0  0  0
    0.3098   -0.8921   -4.6267 C   0  0  0  0  0  0  0  0  0  0  0  0
    1.1859   -1.4562   -3.9746 O   0  0  0  0  0  0  0  0  0  0  0  0
    0.4988    1.5138   -5.3078 C   0  0  0  0  0  0  0  0  0  0  0  0
    0.6791    1.7099   -2.7817 H   0  0  0  0  0  0  0  0  0  0  0  0
   -1.2406    0.5877   -4.4257 H   0  0  0  0  0  0  0  0  0  0  0  0
    1.5921    1.4726   -5.2404 H   0  0  0  0  0  0  0  0  0  0  0  0
    0.2231    1.2931   -6.3443 H   0  0  0  0  0  0  0  0  0  0  0  0
    0.1905    2.5408   -5.0842 H   0  0  0  0  0  0  0  0  0  0  0  0
   -0.3433   -1.4438   -5.7199 N   0  0  0  0  0  0  0  0  0  0  0  0
   -0.0736   -2.7804   -6.1962 C   0  0  0  0  0  0  0  0  0  0  0  0
   -1.0694   -0.9109   -6.1895 H   0  0  0  0  0  0  0  0  0  0  0  0
    0.6994   -2.7426   -6.9779 H   0  0  0  0  0  0  0  0  0  0  0  0
    0.2799   -3.4028   -5.3610 H   0  0  0  0  0  0  0  0  0  0  0  0
   -0.9949   -3.2141   -6.6124 H   0  0  0  0  0  0  0  0  0  0  0  0
 25 27  1  0  0  0  0
 26 27  2  0  0  0  0
 23 25  2  0  0  0  0
 24 26  1  0  0  0  0
 22 23  1  0  0  0  0
 22 24  2  0  0  0  0
 21 22  1  0  0  0  0
  1  3  1  0  0  0  0
  1  7  1  0  0  0  0
  1  2  2  0  0  0  0
 38 39  1  0  0  0  0
 39 47  1  0  0  0  0
 39 40  2  0  0  0  0
  8  9  1  0  0  0  0
  9 17  1  0  0  0  0
  9 10  2  0  0  0  0
 18 19  1  0  0  0  0
 19 37  1  0  0  0  0
 19 20  2  0  0  0  0
 38 41  1  0  0  0  0
  8 11  1  0  0  0  0
 47 48  1  0  0  0  0
 18 21  1  0  0  0  0
 37 38  1  0  0  0  0
  7  8  1  0  0  0  0
 17 18  1  0  0  0  0
 27 36  1  0  0  0  0
 25 34  1  0  0  0  0
 26 35  1  0  0  0  0
 23 32  1  0  0  0  0
 24 33  1  0  0  0  0
  3  4  1  0  0  0  0
  3  5  1  0  0  0  0
  3  6  1  0  0  0  0
 41 44  1  0  0  0  0
 41 45  1  0  0  0  0
 41 46  1  0  0  0  0
 11 14  1  0  0  0  0
 11 15  1  0  0  0  0
 11 16  1  0  0  0  0
 48 50  1  0  0  0  0
 48 51  1  0  0  0  0
 48 52  1  0  0  0  0
 21 30  1  0  0  0  0
 21 31  1  0  0  0  0
 38 43  1  0  0  0  0
  8 13  1  0  0  0  0
 18 29  1  0  0  0  0
 47 49  1  0  0  0  0
  7 12  1  0  0  0  0
 37 42  1  0  0  0  0
 17 28  1  0  0  0  0
M  END
$$$$

  -OEChem-05262214473D

 52 52  0     1  0  0  0  0  0999 V2000
   -1.8248    0.3424    3.9102 C   0  0  0  0  0  0  0  0  0  0  0  0
   -0.8774   -0.2723    3.4345 O   0  0  0  0  0  0  0  0  0  0  0  0
   -2.2566    0.0600    5.3109 C   0  0  0  0  0  0  0  0  0  0  0  0
   -3.0163   -0.7363    5.3643 H   0  0  0  0  0  0  0  0  0  0  0  0
   -1.4254   -0.2876    5.9452 H   0  0  0  0  0  0  0  0  0  0  0  0
   -2.6947    0.9149    5.8505 H   0  0  0  0  0  0  0  0  0  0  0  0
   -2.5745    1.3149    3.2691 N   0  0  0  0  0  0  0  0  0  0  0  0
   -2.3276    1.7409    1.9167 C   0  0  2  0  0  0  0  0  0  0  0  0
   -0.9926    1.1555    1.4755 C   0  0  0  0  0  0  0  0  0  0  0  0
   -0.1206    0.8028    2.2668 O   0  0  0  0  0  0  0  0  0  0  0  0
   -2.3188    3.2577    1.8072 C   0  0  0  0  0  0  0  0  0  0  0  0
   -3.3395    1.7507    3.7809 H   0  0  0  0  0  0  0  0  0  0  0  0
   -3.1317    1.3224    1.3015 H   0  0  0  0  0  0  0  0  0  0  0  0
   -1.5198    3.6949    2.4169 H   0  0  0  0  0  0  0  0  0  0  0  0
   -2.1594    3.5799    0.7729 H   0  0  0  0  0  0  0  0  0  0  0  0
   -3.2690    3.6789    2.1530 H   0  0  0  0  0  0  0  0  0  0  0  0
   -0.8700    1.1124    0.0921 N   0  0  0  0  0  0  0  0  0  0  0  0
    0.3073    0.6116   -0.5716 C   0  0  2  0  0  0  0  0  0  0  0  0
   -0.1424    0.0214   -1.9034 C   0  0  0  0  0  0  0  0  0  0  0  0
   -0.9748   -0.8789   -1.9892 O   0  0  0  0  0  0  0  0  0  0  0  0
    1.0353   -0.4488    0.2626 C   0  0  0  0  0  0  0  0  0  0  0  0
    1.6403    0.1157    1.5247 C   0  0  0  0  0  0  0  0  0  0  0  0
    2.8661    0.7797    1.4749 C   0  0  0  0  0  0  0  0  0  0  0  0
    0.9732   -0.0265    2.7414 C   0  0  0  0  0  0  0  0  0  0  0  0
    3.4246    1.3014    2.6418 C   0  0  0  0  0  0  0  0  0  0  0  0
    1.5317    0.4952    3.9082 C   0  0  0  0  0  0  0  0  0  0  0  0
    2.7574    1.1592    3.8584 C   0  0  0  0  0  0  0  0  0  0  0  0
   -1.6531    1.4091   -0.4852 H   0  0  0  0  0  0  0  0  0  0  0  0
    0.9510    1.4784   -0.7623 H   0  0  0  0  0  0  0  0  0  0  0  0
    1.8175   -0.9336   -0.3372 H   0  0  0  0  0  0  0  0  0  0  0  0
    0.3458   -1.2560    0.5430 H   0  0  0  0  0  0  0  0  0  0  0  0
    3.3929    0.8954    0.5314 H   0  0  0  0  0  0  0  0  0  0  0  0
    0.0177   -0.5422    2.7898 H   0  0  0  0  0  0  0  0  0  0  0  0
    4.3795    1.8174    2.6029 H   0  0  0  0  0  0  0  0  0  0  0  0
    1.0125    0.3833    4.8555 H   0  0  0  0  0  0  0  0  0  0  0  0
    3.1931    1.5643    4.7671 H   0  0  0  0  0  0  0  0  0  0  0  0
    0.4596    0.6545   -2.9819 N   0  0  0  0  0  0  0  0  0  0  0  0
    0.1912    0.3046   -4.3583 C   0  0  2  0  0  0  0  0  0  0  0  0
    0.3346   -1.2054   -4.4962 C   0  0  0  0  0  0  0  0  0  0  0  0
    0.9941   -1.8905   -3.7173 O   0  0  0  0  0  0  0  0  0  0  0  0
    1.1333    1.0289   -5.3072 C   0  0  0  0  0  0  0  0  0  0  0  0
    1.1221    1.4012   -2.7945 H   0  0  0  0  0  0  0  0  0  0  0  0
   -0.8457    0.5937   -4.5617 H   0  0  0  0  0  0  0  0  0  0  0  0
    2.1769    0.7519   -5.1185 H   0  0  0  0  0  0  0  0  0  0  0  0
    0.9101    0.7848   -6.3510 H   0  0  0  0  0  0  0  0  0  0  0  0
    1.0504    2.1143   -5.1856 H   0  0  0  0  0  0  0  0  0  0  0  0
   -0.3252   -1.6921   -5.6161 N   0  0  0  0  0  0  0  0  0  0  0  0
   -0.3277   -3.0917   -5.9725 C   0  0  0  0  0  0  0  0  0  0  0  0
   -0.8631   -1.0545   -6.1955 H   0  0  0  0  0  0  0  0  0  0  0  0
    0.5014   -3.2955   -6.6661 H   0  0  0  0  0  0  0  0  0  0  0  0
   -0.2047   -3.7013   -5.0651 H   0  0  0  0  0  0  0  0  0  0  0  0
   -1.2820   -3.3447   -6.4576 H   0  0  0  0  0  0  0  0  0  0  0  0
 25 27  1  0  0  0  0
 26 27  2  0  0  0  0
 23 25  2  0  0  0  0
 24 26  1  0  0  0  0
 22 23  1  0  0  0  0
 22 24  2  0  0  0  0
 21 22  1  0  0  0  0
  1  3  1  0  0  0  0
  1  7  1  0  0  0  0
  1  2  2  0  0  0  0
 38 39  1  0  0  0  0
 39 47  1  0  0  0  0
 39 40  2  0  0  0  0
  8  9  1  0  0  0  0
  9 17  1  0  0  0  0
  9 10  2  0  0  0  0
 18 19  1  0  0  0  0
 19 37  1  0  0  0  0
 19 20  2  0  0  0  0
 38 41  1  0  0  0  0
  8 11  1  0  0  0  0
 47 48  1  0  0  0  0
 18 21  1  0  0  0  0
 37 38  1  0  0  0  0
  7  8  1  0  0  0  0
 17 18  1  0  0  0  0
 27 36  1  0  0  0  0
 25 34  1  0  0  0  0
 26 35  1  0  0  0  0
 23 32  1  0  0  0  0
 24 33  1  0  0  0  0
  3  4  1  0  0  0  0
  3  5  1  0  0  0  0
  3  6  1  0  0  0  0
 41 44  1  0  0  0  0
 41 45  1  0  0  0  0
 41 46  1  0  0  0  0
 11 14  1  0  0  0  0
 11 15  1  0  0  0  0
 11 16  1  0  0  0  0
 48 50  1  0  0  0  0
 48 51  1  0  0  0  0
 48 52  1  0  0  0  0
 21 30  1  0  0  0  0
 21 31  1  0  0  0  0
 38 43  1  0  0  0  0
  8 13  1  0  0  0  0
 18 29  1  0  0  0  0
 47 49  1  0  0  0  0
  7 12  1  0  0  0  0
 37 42  1  0  0  0  0
 17 28  1  0  0  0  0
M  END
$$$$

  -OEChem-05262214473D

 52 52  0     1  0  0  0  0  0999 V2000
   -1.8248    0.3424    3.9102 C   0  0  0  0  0  0  0  0  0  0  0  0
   -0.8774   -0.2723    3.4345 O   0  0  0  0  0  0  0  0  0  0  0  0
   -2.2566    0.0600    5.3109 C   0  0  0  0  0  0  0  0  0  0  0  0
   -3.0163   -0.7363    5.3643 H   0  0  0  0  0  0  0  0  0  0  0  0
   -1.4254   -0.2876    5.9452 H   0  0  0  0  0  0  0  0  0  0  0  0
   -2.6947    0.9149    5.8505 H   0  0  0  0  0  0  0  0  0  0  0  0
   -2.5745    1.3149    3.2691 N   0  0  0  0  0  0  0  0  0  0  0  0
   -2.3276    1.7409    1.9167 C   0  0  2  0  0  0  0  0  0  0  0  0
   -0.9926    1.1555    1.4755 C   0  0  0  0  0  0  0  0  0  0  0  0
   -0.1206    0.8028    2.2668 O   0  0  0  0  0  0  0  0  0  0  0  0
   -2.3188    3.2577    1.8072 C   0  0  0  0  0  0  0  0  0  0  0  0
   -3.3395    1.7507    3.7809 H   0  0  0  0  0  0  0  0  0  0  0  0
   -3.1317    1.3224    1.3015 H   0  0  0  0  0  0  0  0  0  0  0  0
   -1.5198    3.6949    2.4169 H   0  0  0  0  0  0  0  0  0  0  0  0
   -2.1594    3.5799    0.7729 H   0  0  0  0  0  0  0  0  0  0  0  0
   -3.2690    3.6789    2.1530 H   0  0  0  0  0  0  0  0  0  0  0  0
   -0.8700    1.1124    0.0921 N   0  0  0  0  0  0  0  0  0  0  0  0
    0.3073    0.6116   -0.5716 C   0  0  2  0  0  0  0  0  0  0  0  0
   -0.1424    0.0214   -1.9034 C   0  0  0  0  0  0  0  0  0  0  0  0
   -1.1481   -0.6754   -2.0209 O   0  0  0  0  0  0  0  0  0  0  0  0
    1.0353   -0.4488    0.2626 C   0  0  0  0  0  0  0  0  0  0  0  0
    1.6403    0.1157    1.5247 C   0  0  0  0  0  0  0  0  0  0  0  0
    2.8661    0.7797    1.4749 C   0  0  0  0  0  0  0  0  0  0  0  0
    0.9732   -0.0265    2.7414 C   0  0  0  0  0  0  0  0  0  0  0  0
    3.4246    1.3014    2.6418 C   0  0  0  0  0  0  0  0  0  0  0  0
    1.5317    0.4952    3.9082 C   0  0  0  0  0  0  0  0  0  0  0  0
    2.7574    1.1592    3.8584 C   0  0  0  0  0  0  0  0  0  0  0  0
   -1.6531    1.4091   -0.4852 H   0  0  0  0  0  0  0  0  0  0  0  0
    0.9510    1.4784   -0.7623 H   0  0  0  0  0  0  0  0  0  0  0  0
    1.8175   -0.9336   -0.3372 H   0  0  0  0  0  0  0  0  0  0  0  0
    0.3458   -1.2560    0.5430 H   0  0  0  0  0  0  0  0  0  0  0  0
    3.3929    0.8954    0.5314 H   0  0  0  0  0  0  0  0  0  0  0  0
    0.0177   -0.5422    2.7898 H   0  0  0  0  0  0  0  0  0  0  0  0
    4.3795    1.8174    2.6029 H   0  0  0  0  0  0  0  0  0  0  0  0
    1.0125    0.3833    4.8555 H   0  0  0  0  0  0  0  0  0  0  0  0
    3.1931    1.5643    4.7671 H   0  0  0  0  0  0  0  0  0  0  0  0
    0.6851    0.4076   -2.9487 N   0  0  0  0  0  0  0  0  0  0  0  0
    0.4704    0.0065   -4.3205 C   0  0  2  0  0  0  0  0  0  0  0  0
    0.2746   -1.5037   -4.3438 C   0  0  0  0  0  0  0  0  0  0  0  0
    0.6849   -2.2470   -3.4549 O   0  0  0  0  0  0  0  0  0  0  0  0
    1.6365    0.4172   -5.2060 C   0  0  0  0  0  0  0  0  0  0  0  0
    1.4816    1.0020   -2.7390 H   0  0  0  0  0  0  0  0  0  0  0  0
   -0.4491    0.4998   -4.6540 H   0  0  0  0  0  0  0  0  0  0  0  0
    2.5667   -0.0671   -4.8872 H   0  0  0  0  0  0  0  0  0  0  0  0
    1.4596    0.1380   -6.2499 H   0  0  0  0  0  0  0  0  0  0  0  0
    1.7947    1.5003   -5.1647 H   0  0  0  0  0  0  0  0  0  0  0  0
   -0.3742   -1.9281   -5.4949 N   0  0  0  0  0  0  0  0  0  0  0  0
   -0.6659   -3.3179   -5.7580 C   0  0  0  0  0  0  0  0  0  0  0  0
   -0.6958   -1.2403   -6.1697 H   0  0  0  0  0  0  0  0  0  0  0  0
    0.1539   -3.7610   -6.3425 H   0  0  0  0  0  0  0  0  0  0  0  0
   -0.7699   -3.8574   -4.8051 H   0  0  0  0  0  0  0  0  0  0  0  0
   -1.6043   -3.3942   -6.3268 H   0  0  0  0  0  0  0  0  0  0  0  0
 25 27  1  0  0  0  0
 26 27  2  0  0  0  0
 23 25  2  0  0  0  0
 24 26  1  0  0  0  0
 22 23  1  0  0  0  0
 22 24  2  0  0  0  0
 21 22  1  0  0  0  0
  1  3  1  0  0  0  0
  1  7  1  0  0  0  0
  1  2  2  0  0  0  0
 38 39  1  0  0  0  0
 39 47  1  0  0  0  0
 39 40  2  0  0  0  0
  8  9  1  0  0  0  0
  9 17  1  0  0  0  0
  9 10  2  0  0  0  0
 18 19  1  0  0  0  0
 19 37  1  0  0  0  0
 19 20  2  0  0  0  0
 38 41  1  0  0  0  0
  8 11  1  0  0  0  0
 47 48  1  0  0  0  0
 18 21  1  0  0  0  0
 37 38  1  0  0  0  0
  7  8  1  0  0  0  0
 17 18  1  0  0  0  0
 27 36  1  0  0  0  0
 25 34  1  0  0  0  0
 26 35  1  0  0  0  0
 23 32  1  0  0  0  0
 24 33  1  0  0  0  0
  3  4  1  0  0  0  0
  3  5  1  0  0  0  0
  3  6  1  0  0  0  0
 41 44  1  0  0  0  0
 41 45  1  0  0  0  0
 41 46  1  0  0  0  0
 11 14  1  0  0  0  0
 11 15  1  0  0  0  0
 11 16  1  0  0  0  0
 48 50  1  0  0  0  0
 48 51  1  0  0  0  0
 48 52  1  0  0  0  0
 21 30  1  0  0  0  0
 21 31  1  0  0  0  0
 38 43  1  0  0  0  0
  8 13  1  0  0  0  0
 18 29  1  0  0  0  0
 47 49  1  0  0  0  0
  7 12  1  0  0  0  0
 37 42  1  0  0  0  0
 17 28  1  0  0  0  0
M  END
$$$$

  -OEChem-05262214473D

 52 52  0     1  0  0  0  0  0999 V2000
   -1.8248    0.3424    3.9102 C   0  0  0  0  0  0  0  0  0  0  0  0
   -0.8774   -0.2723    3.4345 O   0  0  0  0  0  0  0  0  0  0  0  0
   -2.2566    0.0600    5.3109 C   0  0  0  0  0  0  0  0  0  0  0  0
   -3.0163   -0.7363    5.3643 H   0  0  0  0  0  0  0  0  0  0  0  0
   -1.4254   -0.2876    5.9452 H   0  0  0  0  0  0  0  0  0  0  0  0
   -2.6947    0.9149    5.8505 H   0  0  0  0  0  0  0  0  0  0  0  0
   -2.5745    1.3149    3.2691 N   0  0  0  0  0  0  0  0  0  0  0  0
   -2.3276    1.7409    1.9167 C   0  0  2  0  0  0  0  0  0  0  0  0
   -0.9926    1.1555    1.4755 C   0  0  0  0  0  0  0  0  0  0  0  0
   -0.1206    0.8028    2.2668 O   0  0  0  0  0  0  0  0  0  0  0  0
   -2.3188    3.2577    1.8072 C   0  0  0  0  0  0  0  0  0  0  0  0
   -3.3395    1.7507    3.7809 H   0  0  0  0  0  0  0  0  0  0  0  0
   -3.1317    1.3224    1.3015 H   0  0  0  0  0  0  0  0  0  0  0  0
   -1.5198    3.6949    2.4169 H   0  0  0  0  0  0  0  0  0  0  0  0
   -2.1594    3.5799    0.7729 H   0  0  0  0  0  0  0  0  0  0  0  0
   -3.2690    3.6789    2.1530 H   0  0  0  0  0  0  0  0  0  0  0  0
   -0.8700    1.1124    0.0921 N   0  0  0  0  0  0  0  0  0  0  0  0
    0.3073    0.6116   -0.5716 C   0  0  2  0  0  0  0  0  0  0  0  0
   -0.1424    0.0214   -1.9034 C   0  0  0  0  0  0  0  0  0  0  0  0
   -1.2663   -0.4421   -2.0844 O   0  0  0  0  0  0  0  0  0  0  0  0
    1.0353   -0.4488    0.2626 C   0  0  0  0  0  0  0  0  0  0  0  0
    1.6403    0.1157    1.5247 C   0  0  0  0  0  0  0  0  0  0  0  0
    2.8661    0.7797    1.4749 C   0  0  0  0  0  0  0  0  0  0  0  0
    0.9732   -0.0265    2.7414 C   0  0  0  0  0  0  0  0  0  0  0  0
    3.4246    1.3014    2.6418 C   0  0  0  0  0  0  0  0  0  0  0  0
    1.5317    0.4952    3.9082 C   0  0  0  0  0  0  0  0  0  0  0  0
    2.7574    1.1592    3.8584 C   0  0  0  0  0  0  0  0  0  0  0  0
   -1.6531    1.4091   -0.4852 H   0  0  0  0  0  0  0  0  0  0  0  0
    0.9510    1.4784   -0.7623 H   0  0  0  0  0  0  0  0  0  0  0  0
    1.8175   -0.9336   -0.3372 H   0  0  0  0  0  0  0  0  0  0  0  0
    0.3458   -1.2560    0.5430 H   0  0  0  0  0  0  0  0  0  0  0  0
    3.3929    0.8954    0.5314 H   0  0  0  0  0  0  0  0  0  0  0  0
    0.0177   -0.5422    2.7898 H   0  0  0  0  0  0  0  0  0  0  0  0
    4.3795    1.8174    2.6029 H   0  0  0  0  0  0  0  0  0  0  0  0
    1.0125    0.3833    4.8555 H   0  0  0  0  0  0  0  0  0  0  0  0
    3.1931    1.5643    4.7671 H   0  0  0  0  0  0  0  0  0  0  0  0
    0.8437    0.1207   -2.8751 N   0  0  0  0  0  0  0  0  0  0  0  0
    0.6689   -0.3416   -4.2332 C   0  0  2  0  0  0  0  0  0  0  0  0
    0.1340   -1.7666   -4.1798 C   0  0  0  0  0  0  0  0  0  0  0  0
    0.2792   -2.5015   -3.2052 O   0  0  0  0  0  0  0  0  0  0  0  0
    1.9741   -0.2797   -5.0111 C   0  0  0  0  0  0  0  0  0  0  0  0
    1.7330    0.5393   -2.6188 H   0  0  0  0  0  0  0  0  0  0  0  0
   -0.0781    0.3124   -4.6962 H   0  0  0  0  0  0  0  0  0  0  0  0
    2.7349   -0.9287   -4.5621 H   0  0  0  0  0  0  0  0  0  0  0  0
    1.8339   -0.6032   -6.0478 H   0  0  0  0  0  0  0  0  0  0  0  0
    2.3727    0.7405   -5.0232 H   0  0  0  0  0  0  0  0  0  0  0  0
   -0.4870   -2.1357   -5.3648 N   0  0  0  0  0  0  0  0  0  0  0  0
   -1.0652   -3.4436   -5.5675 C   0  0  0  0  0  0  0  0  0  0  0  0
   -0.5787   -1.4557   -6.1138 H   0  0  0  0  0  0  0  0  0  0  0  0
   -0.3194   -4.1073   -6.0292 H   0  0  0  0  0  0  0  0  0  0  0  0
   -1.3772   -3.8606   -4.5986 H   0  0  0  0  0  0  0  0  0  0  0  0
   -1.9400   -3.3590   -6.2290 H   0  0  0  0  0  0  0  0  0  0  0  0
 25 27  1  0  0  0  0
 26 27  2  0  0  0  0
 23 25  2  0  0  0  0
 24 26  1  0  0  0  0
 22 23  1  0  0  0  0
 22 24  2  0  0  0  0
 21 22  1  0  0  0  0
  1  3  1  0  0  0  0
  1  7  1  0  0  0  0
  1  2  2  0  0  0  0
 38 39  1  0  0  0  0
 39 47  1  0  0  0  0
 39 40  2  0  0  0  0
  8  9  1  0  0  0  0
  9 17  1  0  0  0  0
  9 10  2  0  0  0  0
 18 19  1  0  0  0  0
 19 37  1  0  0  0  0
 19 20  2  0  0  0  0
 38 41  1  0  0  0  0
  8 11  1  0  0  0  0
 47 48  1  0  0  0  0
 18 21  1  0  0  0  0
 37 38  1  0  0  0  0
  7  8  1  0  0  0  0
 17 18  1  0  0  0  0
 27 36  1  0  0  0  0
 25 34  1  0  0  0  0
 26 35  1  0  0  0  0
 23 32  1  0  0  0  0
 24 33  1  0  0  0  0
  3  4  1  0  0  0  0
  3  5  1  0  0  0  0
  3  6  1  0  0  0  0
 41 44  1  0  0  0  0
 41 45  1  0  0  0  0
 41 46  1  0  0  0  0
 11 14  1  0  0  0  0
 11 15  1  0  0  0  0
 11 16  1  0  0  0  0
 48 50  1  0  0  0  0
 48 51  1  0  0  0  0
 48 52  1  0  0  0  0
 21 30  1  0  0  0  0
 21 31  1  0  0  0  0
 38 43  1  0  0  0  0
  8 13  1  0  0  0  0
 18 29  1  0  0  0  0
 47 49  1  0  0  0  0
  7 12  1  0  0  0  0
 37 42  1  0  0  0  0
 17 28  1  0  0  0  0
M  END
$$$$

  -OEChem-05262214473D

 52 52  0     1  0  0  0  0  0999 V2000
   -1.8248    0.3424    3.9102 C   0  0  0  0  0  0  0  0  0  0  0  0
   -0.8774   -0.2723    3.4345 O   0  0  0  0  0  0  0  0  0  0  0  0
   -2.2566    0.0600    5.3109 C   0  0  0  0  0  0  0  0  0  0  0  0
   -3.0163   -0.7363    5.3643 H   0  0  0  0  0  0  0  0  0  0  0  0
   -1.4254   -0.2876    5.9452 H   0  0  0  0  0  0  0  0  0  0  0  0
   -2.6947    0.9149    5.8505 H   0  0  0  0  0  0  0  0  0  0  0  0
   -2.5745    1.3149    3.2691 N   0  0  0  0  0  0  0  0  0  0  0  0
   -2.3276    1.7409    1.9167 C   0  0  2  0  0  0  0  0  0  0  0  0
   -0.9926    1.1555    1.4755 C   0  0  0  0  0  0  0  0  0  0  0  0
   -0.1206    0.8028    2.2668 O   0  0  0  0  0  0  0  0  0  0  0  0
   -2.3188    3.2577    1.8072 C   0  0  0  0  0  0  0  0  0  0  0  0
   -3.3395    1.7507    3.7809 H   0  0  0  0  0  0  0  0  0  0  0  0
   -3.1317    1.3224    1.3015 H   0  0  0  0  0  0  0  0  0  0  0  0
   -1.5198    3.6949    2.4169 H   0  0  0  0  0  0  0  0  0  0  0  0
   -2.1594    3.5799    0.7729 H   0  0  0  0  0  0  0  0  0  0  0  0
   -3.2690    3.6789    2.1530 H   0  0  0  0  0  0  0  0  0  0  0  0
   -0.8700    1.1124    0.0921 N   0  0  0  0  0  0  0  0  0  0  0  0
    0.3073    0.6116   -0.5716 C   0  0  2  0  0  0  0  0  0  0  0  0
   -0.1424    0.0214   -1.9034 C   0  0  0  0  0  0  0  0  0  0  0  0
   -1.3214   -0.1948   -2.1754 O   0  0  0  0  0  0  0  0  0  0  0  0
    1.0353   -0.4488    0.2626 C   0  0  0  0  0  0  0  0  0  0  0  0
    1.6403    0.1157    1.5247 C   0  0  0  0  0  0  0  0  0  0  0  0
    2.8661    0.7797    1.4749 C   0  0  0  0  0  0  0  0  0  0  0  0
    0.9732   -0.0265    2.7414 C   0  0  0  0  0  0  0  0  0  0  0  0
    3.4246    1.3014    2.6418 C   0  0  0  0  0  0  0  0  0  0  0  0
    1.5317    0.4952    3.9082 C   0  0  0  0  0  0  0  0  0  0  0  0
    2.7574    1.1592    3.8584 C   0  0  0  0  0  0  0  0  0  0  0  0
   -1.6531    1.4091   -0.4852 H   0  0  0  0  0  0  0  0  0  0  0  0
    0.9510    1.4784   -0.7623 H   0  0  0  0  0  0  0  0  0  0  0  0
    1.8175   -0.9336   -0.3372 H   0  0  0  0  0  0  0  0  0  0  0  0
    0.3458   -1.2560    0.5430 H   0  0  0  0  0  0  0  0  0  0  0  0
    3.3929    0.8954    0.5314 H   0  0  0  0  0  0  0  0  0  0  0  0
    0.0177   -0.5422    2.7898 H   0  0  0  0  0  0  0  0  0  0  0  0
    4.3795    1.8174    2.6029 H   0  0  0  0  0  0  0  0  0  0  0  0
    1.0125    0.3833    4.8555 H   0  0  0  0  0  0  0  0  0  0  0  0
    3.1931    1.5643    4.7671 H   0  0  0  0  0  0  0  0  0  0  0  0
    0.9247   -0.1867   -2.7662 N   0  0  0  0  0  0  0  0  0  0  0  0
    0.7731   -0.7161   -4.1025 C   0  0  2  0  0  0  0  0  0  0  0  0
   -0.0777   -1.9762   -4.0154 C   0  0  0  0  0  0  0  0  0  0  0  0
   -0.1951   -2.6365   -2.9852 O   0  0  0  0  0  0  0  0  0  0  0  0
    2.1231   -1.0144   -4.7359 C   0  0  0  0  0  0  0  0  0  0  0  0
    1.8592    0.0447   -2.4422 H   0  0  0  0  0  0  0  0  0  0  0  0
    0.2421    0.0443   -4.6855 H   0  0  0  0  0  0  0  0  0  0  0  0
    2.6699   -1.7741   -4.1655 H   0  0  0  0  0  0  0  0  0  0  0  0
    2.0076   -1.3885   -5.7585 H   0  0  0  0  0  0  0  0  0  0  0  0
    2.7450   -0.1134   -4.7705 H   0  0  0  0  0  0  0  0  0  0  0  0
   -0.6559   -2.3008   -5.2346 N   0  0  0  0  0  0  0  0  0  0  0  0
   -1.4985   -3.4601   -5.4139 C   0  0  0  0  0  0  0  0  0  0  0  0
   -0.5199   -1.6859   -6.0316 H   0  0  0  0  0  0  0  0  0  0  0  0
   -0.8862   -4.3109   -5.7475 H   0  0  0  0  0  0  0  0  0  0  0  0
   -1.9852   -3.7106   -4.4598 H   0  0  0  0  0  0  0  0  0  0  0  0
   -2.2661   -3.2418   -6.1709 H   0  0  0  0  0  0  0  0  0  0  0  0
 25 27  1  0  0  0  0
 26 27  2  0  0  0  0
 23 25  2  0  0  0  0
 24 26  1  0  0  0  0
 22 23  1  0  0  0  0
 22 24  2  0  0  0  0
 21 22  1  0  0  0  0
  1  3  1  0  0  0  0
  1  7  1  0  0  0  0
  1  2  2  0  0  0  0
 38 39  1  0  0  0  0
 39 47  1  0  0  0  0
 39 40  2  0  0  0  0
  8  9  1  0  0  0  0
  9 17  1  0  0  0  0
  9 10  2  0  0  0  0
 18 19  1  0  0  0  0
 19 37  1  0  0  0  0
 19 20  2  0  0  0  0
 38 41  1  0  0  0  0
  8 11  1  0  0  0  0
 47 48  1  0  0  0  0
 18 21  1  0  0  0  0
 37 38  1  0  0  0  0
  7  8  1  0  0  0  0
 17 18  1  0  0  0  0
 27 36  1  0  0  0  0
 25 34  1  0  0  0  0
 26 35  1  0  0  0  0
 23 32  1  0  0  0  0
 24 33  1  0  0  0  0
  3  4  1  0  0  0  0
  3  5  1  0  0  0  0
  3  6  1  0  0  0  0
 41 44  1  0  0  0  0
 41 45  1  0  0  0  0
 41 46  1  0  0  0  0
 11 14  1  0  0  0  0
 11 15  1  0  0  0  0
 11 16  1  0  0  0  0
 48 50  1  0  0  0  0
 48 51  1  0  0  0  0
 48 52  1  0  0  0  0
 21 30  1  0  0  0  0
 21 31  1  0  0  0  0
 38 43  1  0  0  0  0
  8 13  1  0  0  0  0
 18 29  1  0  0  0  0
 47 49  1  0  0  0  0
  7 12  1  0  0  0  0
 37 42  1  0  0  0  0
 17 28  1  0  0  0  0
M  END
$$$$

  -OEChem-05262214473D

 52 52  0     1  0  0  0  0  0999 V2000
   -1.8248    0.3424    3.9102 C   0  0  0  0  0  0  0  0  0  0  0  0
   -0.8774   -0.2723    3.4345 O   0  0  0  0  0  0  0  0  0  0  0  0
   -2.2566    0.0600    5.3109 C   0  0  0  0  0  0  0  0  0  0  0  0
   -3.0163   -0.7363    5.3643 H   0  0  0  0  0  0  0  0  0  0  0  0
   -1.4254   -0.2876    5.9452 H   0  0  0  0  0  0  0  0  0  0  0  0
   -2.6947    0.9149    5.8505 H   0  0  0  0  0  0  0  0  0  0  0  0
   -2.5745    1.3149    3.2691 N   0  0  0  0  0  0  0  0  0  0  0  0
   -2.3276    1.7409    1.9167 C   0  0  2  0  0  0  0  0  0  0  0  0
   -0.9926    1.1555    1.4755 C   0  0  0  0  0  0  0  0  0  0  0  0
   -0.1206    0.8028    2.2668 O   0  0  0  0  0  0  0  0  0  0  0  0
   -2.3188    3.2577    1.8072 C   0  0  0  0  0  0  0  0  0  0  0  0
   -3.3395    1.7507    3.7809 H   0  0  0  0  0  0  0  0  0  0  0  0
   -3.1317    1.3224    1.3015 H   0  0  0  0  0  0  0  0  0  0  0  0
   -1.5198    3.6949    2.4169 H   0  0  0  0  0  0  0  0  0  0  0  0
   -2.1594    3.5799    0.7729 H   0  0  0  0  0  0  0  0  0  0  0  0
   -3.2690    3.6789    2.1530 H   0  0  0  0  0  0  0  0  0  0  0  0
   -0.8700    1.1124    0.0921 N   0  0  0  0  0  0  0  0  0  0  0  0
    0.3073    0.6116   -0.5716 C   0  0  2  0  0  0  0  0  0  0  0  0
   -0.0651    0.3713   -2.0303 C   0  0  0  0  0  0  0  0  0  0  0  0
   -1.1765    0.6282   -2.4882 O   0  0  0  0  0  0  0  0  0  0  0  0
    0.8252   -0.6826    0.0663 C   0  0  0  0  0  0  0  0  0  0  0  0
    1.3555   -0.4729    1.4637 C   0  0  0  0  0  0  0  0  0  0  0  0
    2.6452    0.0235    1.6537 C   0  0  0  0  0  0  0  0  0  0  0  0
    0.5553   -0.7755    2.5654 C   0  0  0  0  0  0  0  0  0  0  0  0
    3.1346    0.2172    2.9455 C   0  0  0  0  0  0  0  0  0  0  0  0
    1.0448   -0.5818    3.8571 C   0  0  0  0  0  0  0  0  0  0  0  0
    2.3344   -0.0853    4.0471 C   0  0  0  0  0  0  0  0  0  0  0  0
   -1.6531    1.4091   -0.4852 H   0  0  0  0  0  0  0  0  0  0  0  0
    1.0582    1.4088   -0.5195 H   0  0  0  0  0  0  0  0  0  0  0  0
    1.6071   -1.1301   -0.5622 H   0  0  0  0  0  0  0  0  0  0  0  0
    0.0263   -1.4346    0.1111 H   0  0  0  0  0  0  0  0  0  0  0  0
    3.2757    0.2622    0.8013 H   0  0  0  0  0  0  0  0  0  0  0  0
   -0.4507   -1.1626    2.4270 H   0  0  0  0  0  0  0  0  0  0  0  0
    4.1392    0.6027    3.0932 H   0  0  0  0  0  0  0  0  0  0  0  0
    0.4219   -0.8185    4.7146 H   0  0  0  0  0  0  0  0  0  0  0  0
    2.7162    0.0643    5.0529 H   0  0  0  0  0  0  0  0  0  0  0  0
    1.0059   -0.1159   -2.7665 N   0  0  0  0  0  0  0  0  0  0  0  0
    0.9301   -0.4075   -4.1800 C   0  0  2  0  0  0  0  0  0  0  0  0
   -0.2996   -1.2746   -4.4159 C   0  0  0  0  0  0  0  0  0  0  0  0
   -0.8207   -1.9538   -3.5337 O   0  0  0  0  0  0  0  0  0  0  0  0
    2.1894   -1.1056   -4.6693 C   0  0  0  0  0  0  0  0  0  0  0  0
    1.8875   -0.2755   -2.2877 H   0  0  0  0  0  0  0  0  0  0  0  0
    0.8056    0.5515   -4.6945 H   0  0  0  0  0  0  0  0  0  0  0  0
    2.3310   -2.0684   -4.1649 H   0  0  0  0  0  0  0  0  0  0  0  0
    2.1424   -1.3002   -5.7458 H   0  0  0  0  0  0  0  0  0  0  0  0
    3.0761   -0.4935   -4.4718 H   0  0  0  0  0  0  0  0  0  0  0  0
   -0.7206   -1.2345   -5.7377 N   0  0  0  0  0  0  0  0  0  0  0  0
   -1.8596   -1.9827   -6.2162 C   0  0  0  0  0  0  0  0  0  0  0  0
   -0.2403   -0.6292   -6.3970 H   0  0  0  0  0  0  0  0  0  0  0  0
   -1.5236   -2.9566   -6.6017 H   0  0  0  0  0  0  0  0  0  0  0  0
   -2.5681   -2.1403   -5.3896 H   0  0  0  0  0  0  0  0  0  0  0  0
   -2.3551   -1.4208   -7.0217 H   0  0  0  0  0  0  0  0  0  0  0  0
 25 27  1  0  0  0  0
 26 27  2  0  0  0  0
 23 25  2  0  0  0  0
 24 26  1  0  0  0  0
 22 23  1  0  0  0  0
 22 24  2  0  0  0  0
 21 22  1  0  0  0  0
  1  3  1  0  0  0  0
  1  7  1  0  0  0  0
  1  2  2  0  0  0  0
 38 39  1  0  0  0  0
 39 47  1  0  0  0  0
 39 40  2  0  0  0  0
  8  9  1  0  0  0  0
  9 17  1  0  0  0  0
  9 10  2  0  0  0  0
 18 19  1  0  0  0  0
 19 37  1  0  0  0  0
 19 20  2  0  0  0  0
 38 41  1  0  0  0  0
  8 11  1  0  0  0  0
 47 48  1  0  0  0  0
 18 21  1  0  0  0  0
 37 38  1  0  0  0  0
  7  8  1  0  0  0  0
 17 18  1  0  0  0  0
 27 36  1  0  0  0  0
 25 34  1  0  0  0  0
 26 35  1  0  0  0  0
 23 32  1  0  0  0  0
 24 33  1  0  0  0  0
  3  4  1  0  0  0  0
  3  5  1  0  0  0  0
  3  6  1  0  0  0  0
 41 44  1  0  0  0  0
 41 45  1  0  0  0  0
 41 46  1  0  0  0  0
 11 14  1  0  0  0  0
 11 15  1  0  0  0  0
 11 16  1  0  0  0  0
 48 50  1  0  0  0  0
 48 51  1  0  0  0  0
 48 52  1  0  0  0  0
 21 30  1  0  0  0  0
 21 31  1  0  0  0  0
 38 43  1  0  0  0  0
  8 13  1  0  0  0  0
 18 29  1  0  0  0  0
 47 49  1  0  0  0  0
  7 12  1  0  0  0  0
 37 42  1  0  0  0  0
 17 28  1  0  0  0  0
M  END
$$$$

  -OEChem-05262214473D

 52 52  0     1  0  0  0  0  0999 V2000
   -1.8248    0.3424    3.9102 C   0  0  0  0  0  0  0  0  0  0  0  0
   -0.8774   -0.2723    3.4345 O   0  0  0  0  0  0  0  0  0  0  0  0
   -2.2566    0.0600    5.3109 C   0  0  0  0  0  0  0  0  0  0  0  0
   -3.0163   -0.7363    5.3643 H   0  0  0  0  0  0  0  0  0  0  0  0
   -1.4254   -0.2876    5.9452 H   0  0  0  0  0  0  0  0  0  0  0  0
   -2.6947    0.9149    5.8505 H   0  0  0  0  0  0  0  0  0  0  0  0
   -2.5745    1.3149    3.2691 N   0  0  0  0  0  0  0  0  0  0  0  0
   -2.3276    1.7409    1.9167 C   0  0  2  0  0  0  0  0  0  0  0  0
   -0.9926    1.1555    1.4755 C   0  0  0  0  0  0  0  0  0  0  0  0
   -0.1206    0.8028    2.2668 O   0  0  0  0  0  0  0  0  0  0  0  0
   -2.3188    3.2577    1.8072 C   0  0  0  0  0  0  0  0  0  0  0  0
   -3.3395    1.7507    3.7809 H   0  0  0  0  0  0  0  0  0  0  0  0
   -3.1317    1.3224    1.3015 H   0  0  0  0  0  0  0  0  0  0  0  0
   -1.5198    3.6949    2.4169 H   0  0  0  0  0  0  0  0  0  0  0  0
   -2.1594    3.5799    0.7729 H   0  0  0  0  0  0  0  0  0  0  0  0
   -3.2690    3.6789    2.1530 H   0  0  0  0  0  0  0  0  0  0  0  0
   -0.8700    1.1124    0.0921 N   0  0  0  0  0  0  0  0  0  0  0  0
    0.3073    0.6116   -0.5716 C   0  0  2  0  0  0  0  0  0  0  0  0
   -0.0651    0.3713   -2.0303 C   0  0  0  0  0  0  0  0  0  0  0  0
   -1.0619    0.8621   -2.5559 O   0  0  0  0  0  0  0  0  0  0  0  0
    0.8252   -0.6826    0.0663 C   0  0  0  0  0  0  0  0  0  0  0  0
    1.3555   -0.4729    1.4637 C   0  0  0  0  0  0  0  0  0  0  0  0
    2.6452    0.0235    1.6537 C   0  0  0  0  0  0  0  0  0  0  0  0
    0.5553   -0.7755    2.5654 C   0  0  0  0  0  0  0  0  0  0  0  0
    3.1346    0.2172    2.9455 C   0  0  0  0  0  0  0  0  0  0  0  0
    1.0448   -0.5818    3.8571 C   0  0  0  0  0  0  0  0  0  0  0  0
    2.3344   -0.0853    4.0471 C   0  0  0  0  0  0  0  0  0  0  0  0
   -1.6531    1.4091   -0.4852 H   0  0  0  0  0  0  0  0  0  0  0  0
    1.0582    1.4088   -0.5195 H   0  0  0  0  0  0  0  0  0  0  0  0
    1.6071   -1.1301   -0.5622 H   0  0  0  0  0  0  0  0  0  0  0  0
    0.0263   -1.4346    0.1111 H   0  0  0  0  0  0  0  0  0  0  0  0
    3.2757    0.2622    0.8013 H   0  0  0  0  0  0  0  0  0  0  0  0
   -0.4507   -1.1626    2.4270 H   0  0  0  0  0  0  0  0  0  0  0  0
    4.1392    0.6027    3.0932 H   0  0  0  0  0  0  0  0  0  0  0  0
    0.4219   -0.8185    4.7146 H   0  0  0  0  0  0  0  0  0  0  0  0
    2.7162    0.0643    5.0529 H   0  0  0  0  0  0  0  0  0  0  0  0
    0.8745   -0.4138   -2.6838 N   0  0  0  0  0  0  0  0  0  0  0  0
    0.7748   -0.7737   -4.0800 C   0  0  2  0  0  0  0  0  0  0  0  0
   -0.6235   -1.3253   -4.3249 C   0  0  0  0  0  0  0  0  0  0  0  0
   -1.3260   -1.7931   -3.4312 O   0  0  0  0  0  0  0  0  0  0  0  0
    1.8361   -1.7923   -4.4660 C   0  0  0  0  0  0  0  0  0  0  0  0
    1.6723   -0.7526   -2.1542 H   0  0  0  0  0  0  0  0  0  0  0  0
    0.9100    0.1489   -4.6549 H   0  0  0  0  0  0  0  0  0  0  0  0
    1.7169   -2.7235   -3.9002 H   0  0  0  0  0  0  0  0  0  0  0  0
    1.7775   -2.0424   -5.5304 H   0  0  0  0  0  0  0  0  0  0  0  0
    2.8403   -1.4054   -4.2614 H   0  0  0  0  0  0  0  0  0  0  0  0
   -0.9777   -1.2731   -5.6657 N   0  0  0  0  0  0  0  0  0  0  0  0
   -2.2507   -1.7486   -6.1549 C   0  0  0  0  0  0  0  0  0  0  0  0
   -0.3404   -0.8513   -6.3348 H   0  0  0  0  0  0  0  0  0  0  0  0
   -2.1553   -2.7992   -6.4663 H   0  0  0  0  0  0  0  0  0  0  0  0
   -3.0029   -1.6699   -5.3561 H   0  0  0  0  0  0  0  0  0  0  0  0
   -2.5640   -1.1384   -7.0149 H   0  0  0  0  0  0  0  0  0  0  0  0
 25 27  1  0  0  0  0
 26 27  2  0  0  0  0
 23 25  2  0  0  0  0
 24 26  1  0  0  0  0
 22 23  1  0  0  0  0
 22 24  2  0  0  0  0
 21 22  1  0  0  0  0
  1  3  1  0  0  0  0
  1  7  1  0  0  0  0
  1  2  2  0  0  0  0
 38 39  1  0  0  0  0
 39 47  1  0  0  0  0
 39 40  2  0  0  0  0
  8  9  1  0  0  0  0
  9 17  1  0  0  0  0
  9 10  2  0  0  0  0
 18 19  1  0  0  0  0
 19 37  1  0  0  0  0
 19 20  2  0  0  0  0
 38 41  1  0  0  0  0
  8 11  1  0  0  0  0
 47 48  1  0  0  0  0
 18 21  1  0  0  0  0
 37 38  1  0  0  0  0
  7  8  1  0  0  0  0
 17 18  1  0  0  0  0
 27 36  1  0  0  0  0
 25 34  1  0  0  0  0
 26 35  1  0  0  0  0
 23 32  1  0  0  0  0
 24 33  1  0  0  0  0
  3  4  1  0  0  0  0
  3  5  1  0  0  0  0
  3  6  1  0  0  0  0
 41 44  1  0  0  0  0
 41 45  1  0  0  0  0
 41 46  1  0  0  0  0
 11 14  1  0  0  0  0
 11 15  1  0  0  0  0
 11 16  1  0  0  0  0
 48 50  1  0  0  0  0
 48 51  1  0  0  0  0
 48 52  1  0  0  0  0
 21 30  1  0  0  0  0
 21 31  1  0  0  0  0
 38 43  1  0  0  0  0
  8 13  1  0  0  0  0
 18 29  1  0  0  0  0
 47 49  1  0  0  0  0
  7 12  1  0  0  0  0
 37 42  1  0  0  0  0
 17 28  1  0  0  0  0
M  END
$$$$

  -OEChem-05262214473D

 52 52  0     1  0  0  0  0  0999 V2000
   -1.8248    0.3424    3.9102 C   0  0  0  0  0  0  0  0  0  0  0  0
   -0.8774   -0.2723    3.4345 O   0  0  0  0  0  0  0  0  0  0  0  0
   -2.2566    0.0600    5.3109 C   0  0  0  0  0  0  0  0  0  0  0  0
   -3.0163   -0.7363    5.3643 H   0  0  0  0  0  0  0  0  0  0  0  0
   -1.4254   -0.2876    5.9452 H   0  0  0  0  0  0  0  0  0  0  0  0
   -2.6947    0.9149    5.8505 H   0  0  0  0  0  0  0  0  0  0  0  0
   -2.5745    1.3149    3.2691 N   0  0  0  0  0  0  0  0  0  0  0  0
   -2.3276    1.7409    1.9167 C   0  0  2  0  0  0  0  0  0  0  0  0
   -0.9926    1.1555    1.4755 C   0  0  0  0  0  0  0  0  0  0  0  0
   -0.1206    0.8028    2.2668 O   0  0  0  0  0  0  0  0  0  0  0  0
   -2.3188    3.2577    1.8072 C   0  0  0  0  0  0  0  0  0  0  0  0
   -3.3395    1.7507    3.7809 H   0  0  0  0  0  0  0  0  0  0  0  0
   -3.1317    1.3224    1.3015 H   0  0  0  0  0  0  0  0  0  0  0  0
   -1.5198    3.6949    2.4169 H   0  0  0  0  0  0  0  0  0  0  0  0
   -2.1594    3.5799    0.7729 H   0  0  0  0  0  0  0  0  0  0  0  0
   -3.2690    3.6789    2.1530 H   0  0  0  0  0  0  0  0  0  0  0  0
   -0.8700    1.1124    0.0921 N   0  0  0  0  0  0  0  0  0  0  0  0
    0.3073    0.6116   -0.5716 C   0  0  2  0  0  0  0  0  0  0  0  0
   -0.0651    0.3713   -2.0303 C   0  0  0  0  0  0  0  0  0  0  0  0
   -0.8905    1.0554   -2.6315 O   0  0  0  0  0  0  0  0  0  0  0  0
    0.8252   -0.6826    0.0663 C   0  0  0  0  0  0  0  0  0  0  0  0
    1.3555   -0.4729    1.4637 C   0  0  0  0  0  0  0  0  0  0  0  0
    2.6452    0.0235    1.6537 C   0  0  0  0  0  0  0  0  0  0  0  0
    0.5553   -0.7755    2.5654 C   0  0  0  0  0  0  0  0  0  0  0  0
    3.1346    0.2172    2.9455 C   0  0  0  0  0  0  0  0  0  0  0  0
    1.0448   -0.5818    3.8571 C   0  0  0  0  0  0  0  0  0  0  0  0
    2.3344   -0.0853    4.0471 C   0  0  0  0  0  0  0  0  0  0  0  0
   -1.6531    1.4091   -0.4852 H   0  0  0  0  0  0  0  0  0  0  0  0
    1.0582    1.4088   -0.5195 H   0  0  0  0  0  0  0  0  0  0  0  0
    1.6071   -1.1301   -0.5622 H   0  0  0  0  0  0  0  0  0  0  0  0
    0.0263   -1.4346    0.1111 H   0  0  0  0  0  0  0  0  0  0  0  0
    3.2757    0.2622    0.8013 H   0  0  0  0  0  0  0  0  0  0  0  0
   -0.4507   -1.1626    2.4270 H   0  0  0  0  0  0  0  0  0  0  0  0
    4.1392    0.6027    3.0932 H   0  0  0  0  0  0  0  0  0  0  0  0
    0.4219   -0.8185    4.7146 H   0  0  0  0  0  0  0  0  0  0  0  0
    2.7162    0.0643    5.0529 H   0  0  0  0  0  0  0  0  0  0  0  0
    0.6704   -0.6639   -2.5905 N   0  0  0  0  0  0  0  0  0  0  0  0
    0.5301   -1.0827   -3.9666 C   0  0  2  0  0  0  0  0  0  0  0  0
   -0.9527   -1.2882   -4.2469 C   0  0  0  0  0  0  0  0  0  0  0  0
   -1.7785   -1.5064   -3.3629 O   0  0  0  0  0  0  0  0  0  0  0  0
    1.3166   -2.3552   -4.2406 C   0  0  0  0  0  0  0  0  0  0  0  0
    1.3409   -1.1517   -2.0039 H   0  0  0  0  0  0  0  0  0  0  0  0
    0.9095   -0.2633   -4.5869 H   0  0  0  0  0  0  0  0  0  0  0  0
    0.9507   -3.1874   -3.6282 H   0  0  0  0  0  0  0  0  0  0  0  0
    1.2324   -2.6554   -5.2903 H   0  0  0  0  0  0  0  0  0  0  0  0
    2.3781   -2.2145   -4.0102 H   0  0  0  0  0  0  0  0  0  0  0  0
   -1.2385   -1.2422   -5.6043 N   0  0  0  0  0  0  0  0  0  0  0  0
   -2.5731   -1.4217   -6.1265 C   0  0  0  0  0  0  0  0  0  0  0  0
   -0.4947   -1.0371   -6.2649 H   0  0  0  0  0  0  0  0  0  0  0  0
   -2.7320   -2.4822   -6.3713 H   0  0  0  0  0  0  0  0  0  0  0  0
   -3.3078   -1.1058   -5.3712 H   0  0  0  0  0  0  0  0  0  0  0  0
   -2.6962   -0.8134   -7.0347 H   0  0  0  0  0  0  0  0  0  0  0  0
 25 27  1  0  0  0  0
 26 27  2  0  0  0  0
 23 25  2  0  0  0  0
 24 26  1  0  0  0  0
 22 23  1  0  0  0  0
 22 24  2  0  0  0  0
 21 22  1  0  0  0  0
  1  3  1  0  0  0  0
  1  7  1  0  0  0  0
  1  2  2  0  0  0  0
 38 39  1  0  0  0  0
 39 47  1  0  0  0  0
 39 40  2  0  0  0  0
  8  9  1  0  0  0  0
  9 17  1  0  0  0  0
  9 10  2  0  0  0  0
 18 19  1  0  0  0  0
 19 37  1  0  0  0  0
 19 20  2  0  0  0  0
 38 41  1  0  0  0  0
  8 11  1  0  0  0  0
 47 48  1  0  0  0  0
 18 21  1  0  0  0  0
 37 38  1  0  0  0  0
  7  8  1  0  0  0  0
 17 18  1  0  0  0  0
 27 36  1  0  0  0  0
 25 34  1  0  0  0  0
 26 35  1  0  0  0  0
 23 32  1  0  0  0  0
 24 33  1  0  0  0  0
  3  4  1  0  0  0  0
  3  5  1  0  0  0  0
  3  6  1  0  0  0  0
 41 44  1  0  0  0  0
 41 45  1  0  0  0  0
 41 46  1  0  0  0  0
 11 14  1  0  0  0  0
 11 15  1  0  0  0  0
 11 16  1  0  0  0  0
 48 50  1  0  0  0  0
 48 51  1  0  0  0  0
 48 52  1  0  0  0  0
 21 30  1  0  0  0  0
 21 31  1  0  0  0  0
 38 43  1  0  0  0  0
  8 13  1  0  0  0  0
 18 29  1  0  0  0  0
 47 49  1  0  0  0  0
  7 12  1  0  0  0  0
 37 42  1  0  0  0  0
 17 28  1  0  0  0  0
M  END
$$$$

  -OEChem-05262214473D

 52 52  0     1  0  0  0  0  0999 V2000
   -1.8248    0.3424    3.9102 C   0  0  0  0  0  0  0  0  0  0  0  0
   -0.8774   -0.2723    3.4345 O   0  0  0  0  0  0  0  0  0  0  0  0
   -2.2566    0.0600    5.3109 C   0  0  0  0  0  0  0  0  0  0  0  0
   -3.0163   -0.7363    5.3643 H   0  0  0  0  0  0  0  0  0  0  0  0
   -1.4254   -0.2876    5.9452 H   0  0  0  0  0  0  0  0  0  0  0  0
   -2.6947    0.9149    5.8505 H   0  0  0  0  0  0  0  0  0  0  0  0
   -2.5745    1.3149    3.2691 N   0  0  0  0  0  0  0  0  0  0  0  0
   -2.3276    1.7409    1.9167 C   0  0  2  0  0  0  0  0  0  0  0  0
   -0.9926    1.1555    1.4755 C   0  0  0  0  0  0  0  0  0  0  0  0
   -0.1206    0.8028    2.2668 O   0  0  0  0  0  0  0  0  0  0  0  0
   -2.3188    3.2577    1.8072 C   0  0  0  0  0  0  0  0  0  0  0  0
   -3.3395    1.7507    3.7809 H   0  0  0  0  0  0  0  0  0  0  0  0
   -3.1317    1.3224    1.3015 H   0  0  0  0  0  0  0  0  0  0  0  0
   -1.5198    3.6949    2.4169 H   0  0  0  0  0  0  0  0  0  0  0  0
   -2.1594    3.5799    0.7729 H   0  0  0  0  0  0  0  0  0  0  0  0
   -3.2690    3.6789    2.1530 H   0  0  0  0  0  0  0  0  0  0  0  0
   -0.8700    1.1124    0.0921 N   0  0  0  0  0  0  0  0  0  0  0  0
    0.3073    0.6116   -0.5716 C   0  0  2  0  0  0  0  0  0  0  0  0
   -0.0651    0.3713   -2.0303 C   0  0  0  0  0  0  0  0  0  0  0  0
   -0.6740    1.1949   -2.7098 O   0  0  0  0  0  0  0  0  0  0  0  0
    0.8252   -0.6826    0.0663 C   0  0  0  0  0  0  0  0  0  0  0  0
    1.3555   -0.4729    1.4637 C   0  0  0  0  0  0  0  0  0  0  0  0
    2.6452    0.0235    1.6537 C   0  0  0  0  0  0  0  0  0  0  0  0
    0.5553   -0.7755    2.5654 C   0  0  0  0  0  0  0  0  0  0  0  0
    3.1346    0.2172    2.9455 C   0  0  0  0  0  0  0  0  0  0  0  0
    1.0448   -0.5818    3.8571 C   0  0  0  0  0  0  0  0  0  0  0  0
    2.3344   -0.0853    4.0471 C   0  0  0  0  0  0  0  0  0  0  0  0
   -1.6531    1.4091   -0.4852 H   0  0  0  0  0  0  0  0  0  0  0  0
    1.0582    1.4088   -0.5195 H   0  0  0  0  0  0  0  0  0  0  0  0
    1.6071   -1.1301   -0.5622 H   0  0  0  0  0  0  0  0  0  0  0  0
    0.0263   -1.4346    0.1111 H   0  0  0  0  0  0  0  0  0  0  0  0
    3.2757    0.2622    0.8013 H   0  0  0  0  0  0  0  0  0  0  0  0
   -0.4507   -1.1626    2.4270 H   0  0  0  0  0  0  0  0  0  0  0  0
    4.1392    0.6027    3.0932 H   0  0  0  0  0  0  0  0  0  0  0  0
    0.4219   -0.8185    4.7146 H   0  0  0  0  0  0  0  0  0  0  0  0
    2.7162    0.0643    5.0529 H   0  0  0  0  0  0  0  0  0  0  0  0
    0.4075   -0.8489   -2.4929 N   0  0  0  0  0  0  0  0  0  0  0  0
    0.2127   -1.3134   -3.8476 C   0  0  2  0  0  0  0  0  0  0  0  0
   -1.2646   -1.1659   -4.1874 C   0  0  0  0  0  0  0  0  0  0  0  0
   -2.1473   -1.1130   -3.3336 O   0  0  0  0  0  0  0  0  0  0  0  0
    0.6661   -2.7560   -4.0085 C   0  0  0  0  0  0  0  0  0  0  0  0
    0.9158   -1.4456   -1.8469 H   0  0  0  0  0  0  0  0  0  0  0  0
    0.8042   -0.6571   -4.4951 H   0  0  0  0  0  0  0  0  0  0  0  0
    0.0847   -3.4286   -3.3674 H   0  0  0  0  0  0  0  0  0  0  0  0
    0.5444   -3.0973   -5.0419 H   0  0  0  0  0  0  0  0  0  0  0  0
    1.7211   -2.8658   -3.7351 H   0  0  0  0  0  0  0  0  0  0  0  0
   -1.4853   -1.1438   -5.5575 N   0  0  0  0  0  0  0  0  0  0  0  0
   -2.8046   -1.0243   -6.1328 C   0  0  0  0  0  0  0  0  0  0  0  0
   -0.6925   -1.1739   -6.1918 H   0  0  0  0  0  0  0  0  0  0  0  0
   -3.2144   -2.0272   -6.3231 H   0  0  0  0  0  0  0  0  0  0  0  0
   -3.4619   -0.4863   -5.4339 H   0  0  0  0  0  0  0  0  0  0  0  0
   -2.7425   -0.4680   -7.0797 H   0  0  0  0  0  0  0  0  0  0  0  0
 25 27  1  0  0  0  0
 26 27  2  0  0  0  0
 23 25  2  0  0  0  0
 24 26  1  0  0  0  0
 22 23  1  0  0  0  0
 22 24  2  0  0  0  0
 21 22  1  0  0  0  0
  1  3  1  0  0  0  0
  1  7  1  0  0  0  0
  1  2  2  0  0  0  0
 38 39  1  0  0  0  0
 39 47  1  0  0  0  0
 39 40  2  0  0  0  0
  8  9  1  0  0  0  0
  9 17  1  0  0  0  0
  9 10  2  0  0  0  0
 18 19  1  0  0  0  0
 19 37  1  0  0  0  0
 19 20  2  0  0  0  0
 38 41  1  0  0  0  0
  8 11  1  0  0  0  0
 47 48  1  0  0  0  0
 18 21  1  0  0  0  0
 37 38  1  0  0  0  0
  7  8  1  0  0  0  0
 17 18  1  0  0  0  0
 27 36  1  0  0  0  0
 25 34  1  0  0  0  0
 26 35  1  0  0  0  0
 23 32  1  0  0  0  0
 24 33  1  0  0  0  0
  3  4  1  0  0  0  0
  3  5  1  0  0  0  0
  3  6  1  0  0  0  0
 41 44  1  0  0  0  0
 41 45  1  0  0  0  0
 41 46  1  0  0  0  0
 11 14  1  0  0  0  0
 11 15  1  0  0  0  0
 11 16  1  0  0  0  0
 48 50  1  0  0  0  0
 48 51  1  0  0  0  0
 48 52  1  0  0  0  0
 21 30  1  0  0  0  0
 21 31  1  0  0  0  0
 38 43  1  0  0  0  0
  8 13  1  0  0  0  0
 18 29  1  0  0  0  0
 47 49  1  0  0  0  0
  7 12  1  0  0  0  0
 37 42  1  0  0  0  0
 17 28  1  0  0  0  0
M  END
$$$$

  -OEChem-05262214473D

 52 52  0     1  0  0  0  0  0999 V2000
   -1.8248    0.3424    3.9102 C   0  0  0  0  0  0  0  0  0  0  0  0
   -0.8774   -0.2723    3.4345 O   0  0  0  0  0  0  0  0  0  0  0  0
   -2.2566    0.0600    5.3109 C   0  0  0  0  0  0  0  0  0  0  0  0
   -3.0163   -0.7363    5.3643 H   0  0  0  0  0  0  0  0  0  0  0  0
   -1.4254   -0.2876    5.9452 H   0  0  0  0  0  0  0  0  0  0  0  0
   -2.6947    0.9149    5.8505 H   0  0  0  0  0  0  0  0  0  0  0  0
   -2.5745    1.3149    3.2691 N   0  0  0  0  0  0  0  0  0  0  0  0
   -2.3276    1.7409    1.9167 C   0  0  2  0  0  0  0  0  0  0  0  0
   -0.9926    1.1555    1.4755 C   0  0  0  0  0  0  0  0  0  0  0  0
   -0.1206    0.8028    2.2668 O   0  0  0  0  0  0  0  0  0  0  0  0
   -2.3188    3.2577    1.8072 C   0  0  0  0  0  0  0  0  0  0  0  0
   -3.3395    1.7507    3.7809 H   0  0  0  0  0  0  0  0  0  0  0  0
   -3.1317    1.3224    1.3015 H   0  0  0  0  0  0  0  0  0  0  0  0
   -1.5198    3.6949    2.4169 H   0  0  0  0  0  0  0  0  0  0  0  0
   -2.1594    3.5799    0.7729 H   0  0  0  0  0  0  0  0  0  0  0  0
   -3.2690    3.6789    2.1530 H   0  0  0  0  0  0  0  0  0  0  0  0
   -0.8700    1.1124    0.0921 N   0  0  0  0  0  0  0  0  0  0  0  0
    0.3073    0.6116   -0.5716 C   0  0  2  0  0  0  0  0  0  0  0  0
   -0.0651    0.3713   -2.0303 C   0  0  0  0  0  0  0  0  0  0  0  0
   -0.4272    1.2711   -2.7854 O   0  0  0  0  0  0  0  0  0  0  0  0
    0.8252   -0.6826    0.0663 C   0  0  0  0  0  0  0  0  0  0  0  0
    1.3555   -0.4729    1.4637 C   0  0  0  0  0  0  0  0  0  0  0  0
    2.6452    0.0235    1.6537 C   0  0  0  0  0  0  0  0  0  0  0  0
    0.5553   -0.7755    2.5654 C   0  0  0  0  0  0  0  0  0  0  0  0
    3.1346    0.2172    2.9455 C   0  0  0  0  0  0  0  0  0  0  0  0
    1.0448   -0.5818    3.8571 C   0  0  0  0  0  0  0  0  0  0  0  0
    2.3344   -0.0853    4.0471 C   0  0  0  0  0  0  0  0  0  0  0  0
   -1.6531    1.4091   -0.4852 H   0  0  0  0  0  0  0  0  0  0  0  0
    1.0582    1.4088   -0.5195 H   0  0  0  0  0  0  0  0  0  0  0  0
    1.6071   -1.1301   -0.5622 H   0  0  0  0  0  0  0  0  0  0  0  0
    0.0263   -1.4346    0.1111 H   0  0  0  0  0  0  0  0  0  0  0  0
    3.2757    0.2622    0.8013 H   0  0  0  0  0  0  0  0  0  0  0  0
   -0.4507   -1.1626    2.4270 H   0  0  0  0  0  0  0  0  0  0  0  0
    4.1392    0.6027    3.0932 H   0  0  0  0  0  0  0  0  0  0  0  0
    0.4219   -0.8185    4.7146 H   0  0  0  0  0  0  0  0  0  0  0  0
    2.7162    0.0643    5.0529 H   0  0  0  0  0  0  0  0  0  0  0  0
    0.1037   -0.9564   -2.3977 N   0  0  0  0  0  0  0  0  0  0  0  0
   -0.1560   -1.4501   -3.7310 C   0  0  2  0  0  0  0  0  0  0  0  0
   -1.5381   -0.9668   -4.1504 C   0  0  0  0  0  0  0  0  0  0  0  0
   -2.4073   -0.6399   -3.3451 O   0  0  0  0  0  0  0  0  0  0  0  0
   -0.0710   -2.9675   -3.7855 C   0  0  0  0  0  0  0  0  0  0  0  0
    0.4261   -1.6143   -1.6941 H   0  0  0  0  0  0  0  0  0  0  0  0
    0.6013   -1.0055   -4.3859 H   0  0  0  0  0  0  0  0  0  0  0  0
   -0.8223   -3.4307   -3.1355 H   0  0  0  0  0  0  0  0  0  0  0  0
   -0.2398   -3.3380   -4.8020 H   0  0  0  0  0  0  0  0  0  0  0  0
    0.9139   -3.3147   -3.4551 H   0  0  0  0  0  0  0  0  0  0  0  0
   -1.7012   -0.9848   -5.5285 N   0  0  0  0  0  0  0  0  0  0  0  0
   -2.9296   -0.5836   -6.1735 C   0  0  0  0  0  0  0  0  0  0  0  0
   -0.9205   -1.2525   -6.1207 H   0  0  0  0  0  0  0  0  0  0  0  0
   -3.5697   -1.4652   -6.3249 H   0  0  0  0  0  0  0  0  0  0  0  0
   -3.4549    0.1463   -5.5399 H   0  0  0  0  0  0  0  0  0  0  0  0
   -2.6999   -0.1258   -7.1470 H   0  0  0  0  0  0  0  0  0  0  0  0
 25 27  1  0  0  0  0
 26 27  2  0  0  0  0
 23 25  2  0  0  0  0
 24 26  1  0  0  0  0
 22 23  1  0  0  0  0
 22 24  2  0  0  0  0
 21 22  1  0  0  0  0
  1  3  1  0  0  0  0
  1  7  1  0  0  0  0
  1  2  2  0  0  0  0
 38 39  1  0  0  0  0
 39 47  1  0  0  0  0
 39 40  2  0  0  0  0
  8  9  1  0  0  0  0
  9 17  1  0  0  0  0
  9 10  2  0  0  0  0
 18 19  1  0  0  0  0
 19 37  1  0  0  0  0
 19 20  2  0  0  0  0
 38 41  1  0  0  0  0
  8 11  1  0  0  0  0
 47 48  1  0  0  0  0
 18 21  1  0  0  0  0
 37 38  1  0  0  0  0
  7  8  1  0  0  0  0
 17 18  1  0  0  0  0
 27 36  1  0  0  0  0
 25 34  1  0  0  0  0
 26 35  1  0  0  0  0
 23 32  1  0  0  0  0
 24 33  1  0  0  0  0
  3  4  1  0  0  0  0
  3  5  1  0  0  0  0
  3  6  1  0  0  0  0
 41 44  1  0  0  0  0
 41 45  1  0  0  0  0
 41 46  1  0  0  0  0
 11 14  1  0  0  0  0
 11 15  1  0  0  0  0
 11 16  1  0  0  0  0
 48 50  1  0  0  0  0
 48 51  1  0  0  0  0
 48 52  1  0  0  0  0
 21 30  1  0  0  0  0
 21 31  1  0  0  0  0
 38 43  1  0  0  0  0
  8 13  1  0  0  0  0
 18 29  1  0  0  0  0
 47 49  1  0  0  0  0
  7 12  1  0  0  0  0
 37 42  1  0  0  0  0
 17 28  1  0  0  0  0
M  END
$$$$

  -OEChem-05262214473D

 52 52  0     1  0  0  0  0  0999 V2000
   -1.8248    0.3424    3.9102 C   0  0  0  0  0  0  0  0  0  0  0  0
   -0.8774   -0.2723    3.4345 O   0  0  0  0  0  0  0  0  0  0  0  0
   -2.2566    0.0600    5.3109 C   0  0  0  0  0  0  0  0  0  0  0  0
   -3.0163   -0.7363    5.3643 H   0  0  0  0  0  0  0  0  0  0  0  0
   -1.4254   -0.2876    5.9452 H   0  0  0  0  0  0  0  0  0  0  0  0
   -2.6947    0.9149    5.8505 H   0  0  0  0  0  0  0  0  0  0  0  0
   -2.5745    1.3149    3.2691 N   0  0  0  0  0  0  0  0  0  0  0  0
   -2.3276    1.7409    1.9167 C   0  0  2  0  0  0  0  0  0  0  0  0
   -0.9926    1.1555    1.4755 C   0  0  0  0  0  0  0  0  0  0  0  0
   -0.1206    0.8028    2.2668 O   0  0  0  0  0  0  0  0  0  0  0  0
   -2.3188    3.2577    1.8072 C   0  0  0  0  0  0  0  0  0  0  0  0
   -3.3395    1.7507    3.7809 H   0  0  0  0  0  0  0  0  0  0  0  0
   -3.1317    1.3224    1.3015 H   0  0  0  0  0  0  0  0  0  0  0  0
   -1.5198    3.6949    2.4169 H   0  0  0  0  0  0  0  0  0  0  0  0
   -2.1594    3.5799    0.7729 H   0  0  0  0  0  0  0  0  0  0  0  0
   -3.2690    3.6789    2.1530 H   0  0  0  0  0  0  0  0  0  0  0  0
   -0.8700    1.1124    0.0921 N   0  0  0  0  0  0  0  0  0  0  0  0
    0.3073    0.6116   -0.5716 C   0  0  2  0  0  0  0  0  0  0  0  0
   -0.0651    0.3713   -2.0303 C   0  0  0  0  0  0  0  0  0  0  0  0
   -0.1668    1.2788   -2.8531 O   0  0  0  0  0  0  0  0  0  0  0  0
    0.8252   -0.6826    0.0663 C   0  0  0  0  0  0  0  0  0  0  0  0
    1.3555   -0.4729    1.4637 C   0  0  0  0  0  0  0  0  0  0  0  0
    2.6452    0.0235    1.6537 C   0  0  0  0  0  0  0  0  0  0  0  0
    0.5553   -0.7755    2.5654 C   0  0  0  0  0  0  0  0  0  0  0  0
    3.1346    0.2172    2.9455 C   0  0  0  0  0  0  0  0  0  0  0  0
    1.0448   -0.5818    3.8571 C   0  0  0  0  0  0  0  0  0  0  0  0
    2.3344   -0.0853    4.0471 C   0  0  0  0  0  0  0  0  0  0  0  0
   -1.6531    1.4091   -0.4852 H   0  0  0  0  0  0  0  0  0  0  0  0
    1.0582    1.4088   -0.5195 H   0  0  0  0  0  0  0  0  0  0  0  0
    1.6071   -1.1301   -0.5622 H   0  0  0  0  0  0  0  0  0  0  0  0
    0.0263   -1.4346    0.1111 H   0  0  0  0  0  0  0  0  0  0  0  0
    3.2757    0.2622    0.8013 H   0  0  0  0  0  0  0  0  0  0  0  0
   -0.4507   -1.1626    2.4270 H   0  0  0  0  0  0  0  0  0  0  0  0
    4.1392    0.6027    3.0932 H   0  0  0  0  0  0  0  0  0  0  0  0
    0.4219   -0.8185    4.7146 H   0  0  0  0  0  0  0  0  0  0  0  0
    2.7162    0.0643    5.0529 H   0  0  0  0  0  0  0  0  0  0  0  0
   -0.2202   -0.9790   -2.3113 N   0  0  0  0  0  0  0  0  0  0  0  0
   -0.5507   -1.4834   -3.6247 C   0  0  2  0  0  0  0  0  0  0  0  0
   -1.7544   -0.7045   -4.1384 C   0  0  0  0  0  0  0  0  0  0  0  0
   -2.5409   -0.1192   -3.3968 O   0  0  0  0  0  0  0  0  0  0  0  0
   -0.8444   -2.9750   -3.5868 C   0  0  0  0  0  0  0  0  0  0  0  0
   -0.0951   -1.6463   -1.5558 H   0  0  0  0  0  0  0  0  0  0  0  0
    0.3145   -1.2849   -4.2667 H   0  0  0  0  0  0  0  0  0  0  0  0
   -1.7082   -3.1934   -2.9484 H   0  0  0  0  0  0  0  0  0  0  0  0
   -1.0667   -3.3612   -4.5871 H   0  0  0  0  0  0  0  0  0  0  0  0
    0.0116   -3.5308   -3.1892 H   0  0  0  0  0  0  0  0  0  0  0  0
   -1.8715   -0.7758   -5.5195 N   0  0  0  0  0  0  0  0  0  0  0  0
   -2.9395   -0.1294   -6.2458 C   0  0  0  0  0  0  0  0  0  0  0  0
   -1.1631   -1.2674   -6.0563 H   0  0  0  0  0  0  0  0  0  0  0  0
   -3.7737   -0.8345   -6.3768 H   0  0  0  0  0  0  0  0  0  0  0  0
   -3.2871    0.7488   -5.6820 H   0  0  0  0  0  0  0  0  0  0  0  0
   -2.5713    0.1900   -7.2318 H   0  0  0  0  0  0  0  0  0  0  0  0
 25 27  1  0  0  0  0
 26 27  2  0  0  0  0
 23 25  2  0  0  0  0
 24 26  1  0  0  0  0
 22 23  1  0  0  0  0
 22 24  2  0  0  0  0
 21 22  1  0  0  0  0
  1  3  1  0  0  0  0
  1  7  1  0  0  0  0
  1  2  2  0  0  0  0
 38 39  1  0  0  0  0
 39 47  1  0  0  0  0
 39 40  2  0  0  0  0
  8  9  1  0  0  0  0
  9 17  1  0  0  0  0
  9 10  2  0  0  0  0
 18 19  1  0  0  0  0
 19 37  1  0  0  0  0
 19 20  2  0  0  0  0
 38 41  1  0  0  0  0
  8 11  1  0  0  0  0
 47 48  1  0  0  0  0
 18 21  1  0  0  0  0
 37 38  1  0  0  0  0
  7  8  1  0  0  0  0
 17 18  1  0  0  0  0
 27 36  1  0  0  0  0
 25 34  1  0  0  0  0
 26 35  1  0  0  0  0
 23 32  1  0  0  0  0
 24 33  1  0  0  0  0
  3  4  1  0  0  0  0
  3  5  1  0  0  0  0
  3  6  1  0  0  0  0
 41 44  1  0  0  0  0
 41 45  1  0  0  0  0
 41 46  1  0  0  0  0
 11 14  1  0  0  0  0
 11 15  1  0  0  0  0
 11 16  1  0  0  0  0
 48 50  1  0  0  0  0
 48 51  1  0  0  0  0
 48 52  1  0  0  0  0
 21 30  1  0  0  0  0
 21 31  1  0  0  0  0
 38 43  1  0  0  0  0
  8 13  1  0  0  0  0
 18 29  1  0  0  0  0
 47 49  1  0  0  0  0
  7 12  1  0  0  0  0
 37 42  1  0  0  0  0
 17 28  1  0  0  0  0
M  END
$$$$

  -OEChem-05262214473D

 52 52  0     1  0  0  0  0  0999 V2000
   -1.8248    0.3424    3.9102 C   0  0  0  0  0  0  0  0  0  0  0  0
   -0.8774   -0.2723    3.4345 O   0  0  0  0  0  0  0  0  0  0  0  0
   -2.2566    0.0600    5.3109 C   0  0  0  0  0  0  0  0  0  0  0  0
   -3.0163   -0.7363    5.3643 H   0  0  0  0  0  0  0  0  0  0  0  0
   -1.4254   -0.2876    5.9452 H   0  0  0  0  0  0  0  0  0  0  0  0
   -2.6947    0.9149    5.8505 H   0  0  0  0  0  0  0  0  0  0  0  0
   -2.5745    1.3149    3.2691 N   0  0  0  0  0  0  0  0  0  0  0  0
   -2.3276    1.7409    1.9167 C   0  0  2  0  0  0  0  0  0  0  0  0
   -0.9926    1.1555    1.4755 C   0  0  0  0  0  0  0  0  0  0  0  0
   -0.1206    0.8028    2.2668 O   0  0  0  0  0  0  0  0  0  0  0  0
   -2.3188    3.2577    1.8072 C   0  0  0  0  0  0  0  0  0  0  0  0
   -3.3395    1.7507    3.7809 H   0  0  0  0  0  0  0  0  0  0  0  0
   -3.1317    1.3224    1.3015 H   0  0  0  0  0  0  0  0  0  0  0  0
   -1.5198    3.6949    2.4169 H   0  0  0  0  0  0  0  0  0  0  0  0
   -2.1594    3.5799    0.7729 H   0  0  0  0  0  0  0  0  0  0  0  0
   -3.2690    3.6789    2.1530 H   0  0  0  0  0  0  0  0  0  0  0  0
   -0.8700    1.1124    0.0921 N   0  0  0  0  0  0  0  0  0  0  0  0
    0.3073    0.6116   -0.5716 C   0  0  2  0  0  0  0  0  0  0  0  0
   -0.0651    0.3713   -2.0303 C   0  0  0  0  0  0  0  0  0  0  0  0
    0.0894    1.2175   -2.9084 O   0  0  0  0  0  0  0  0  0  0  0  0
    0.8252   -0.6826    0.0663 C   0  0  0  0  0  0  0  0  0  0  0  0
    1.3555   -0.4729    1.4637 C   0  0  0  0  0  0  0  0  0  0  0  0
    2.6452    0.0235    1.6537 C   0  0  0  0  0  0  0  0  0  0  0  0
    0.5553   -0.7755    2.5654 C   0  0  0  0  0  0  0  0  0  0  0  0
    3.1346    0.2172    2.9455 C   0  0  0  0  0  0  0  0  0  0  0  0
    1.0448   -0.5818    3.8571 C   0  0  0  0  0  0  0  0  0  0  0  0
    2.3344   -0.0853    4.0471 C   0  0  0  0  0  0  0  0  0  0  0  0
   -1.6531    1.4091   -0.4852 H   0  0  0  0  0  0  0  0  0  0  0  0
    1.0582    1.4088   -0.5195 H   0  0  0  0  0  0  0  0  0  0  0  0
    1.6071   -1.1301   -0.5622 H   0  0  0  0  0  0  0  0  0  0  0  0
    0.0263   -1.4346    0.1111 H   0  0  0  0  0  0  0  0  0  0  0  0
    3.2757    0.2622    0.8013 H   0  0  0  0  0  0  0  0  0  0  0  0
   -0.4507   -1.1626    2.4270 H   0  0  0  0  0  0  0  0  0  0  0  0
    4.1392    0.6027    3.0932 H   0  0  0  0  0  0  0  0  0  0  0  0
    0.4219   -0.8185    4.7146 H   0  0  0  0  0  0  0  0  0  0  0  0
    2.7162    0.0643    5.0529 H   0  0  0  0  0  0  0  0  0  0  0  0
   -0.5421   -0.9151   -2.2396 N   0  0  0  0  0  0  0  0  0  0  0  0
   -0.9445   -1.4111   -3.5361 C   0  0  2  0  0  0  0  0  0  0  0  0
   -1.8989   -0.3967   -4.1522 C   0  0  0  0  0  0  0  0  0  0  0  0
   -2.5388    0.4136   -3.4851 O   0  0  0  0  0  0  0  0  0  0  0  0
   -1.6014   -2.7783   -3.4260 C   0  0  0  0  0  0  0  0  0  0  0  0
   -0.6120   -1.5395   -1.4414 H   0  0  0  0  0  0  0  0  0  0  0  0
   -0.0366   -1.4763   -4.1455 H   0  0  0  0  0  0  0  0  0  0  0  0
   -2.5129   -2.7329   -2.8189 H   0  0  0  0  0  0  0  0  0  0  0  0
   -1.8799   -3.1652   -4.4118 H   0  0  0  0  0  0  0  0  0  0  0  0
   -0.9242   -3.4993   -2.9555 H   0  0  0  0  0  0  0  0  0  0  0  0
   -1.9847   -0.5312   -5.5309 N   0  0  0  0  0  0  0  0  0  0  0  0
   -2.8337    0.3071   -6.3447 C   0  0  0  0  0  0  0  0  0  0  0  0
   -1.4037   -1.2177   -6.0030 H   0  0  0  0  0  0  0  0  0  0  0  0
   -3.8124   -0.1780   -6.4750 H   0  0  0  0  0  0  0  0  0  0  0  0
   -2.9700    1.2803   -5.8505 H   0  0  0  0  0  0  0  0  0  0  0  0
   -2.3654    0.4578   -7.3285 H   0  0  0  0  0  0  0  0  0  0  0  0
 25 27  1  0  0  0  0
 26 27  2  0  0  0  0
 23 25  2  0  0  0  0
 24 26  1  0  0  0  0
 22 23  1  0  0  0  0
 22 24  2  0  0  0  0
 21 22  1  0  0  0  0
  1  3  1  0  0  0  0
  1  7  1  0  0  0  0
  1  2  2  0  0  0  0
 38 39  1  0  0  0  0
 39 47  1  0  0  0  0
 39 40  2  0  0  0  0
  8  9  1  0  0  0  0
  9 17  1  0  0  0  0
  9 10  2  0  0  0  0
 18 19  1  0  0  0  0
 19 37  1  0  0  0  0
 19 20  2  0  0  0  0
 38 41  1  0  0  0  0
  8 11  1  0  0  0  0
 47 48  1  0  0  0  0
 18 21  1  0  0  0  0
 37 38  1  0  0  0  0
  7  8  1  0  0  0  0
 17 18  1  0  0  0  0
 27 36  1  0  0  0  0
 25 34  1  0  0  0  0
 26 35  1  0  0  0  0
 23 32  1  0  0  0  0
 24 33  1  0  0  0  0
  3  4  1  0  0  0  0
  3  5  1  0  0  0  0
  3  6  1  0  0  0  0
 41 44  1  0  0  0  0
 41 45  1  0  0  0  0
 41 46  1  0  0  0  0
 11 14  1  0  0  0  0
 11 15  1  0  0  0  0
 11 16  1  0  0  0  0
 48 50  1  0  0  0  0
 48 51  1  0  0  0  0
 48 52  1  0  0  0  0
 21 30  1  0  0  0  0
 21 31  1  0  0  0  0
 38 43  1  0  0  0  0
  8 13  1  0  0  0  0
 18 29  1  0  0  0  0
 47 49  1  0  0  0  0
  7 12  1  0  0  0  0
 37 42  1  0  0  0  0
 17 28  1  0  0  0  0
M  END
$$$$

  -OEChem-05262214473D

 52 52  0     1  0  0  0  0  0999 V2000
   -1.8248    0.3424    3.9102 C   0  0  0  0  0  0  0  0  0  0  0  0
   -0.8774   -0.2723    3.4345 O   0  0  0  0  0  0  0  0  0  0  0  0
   -2.2566    0.0600    5.3109 C   0  0  0  0  0  0  0  0  0  0  0  0
   -3.0163   -0.7363    5.3643 H   0  0  0  0  0  0  0  0  0  0  0  0
   -1.4254   -0.2876    5.9452 H   0  0  0  0  0  0  0  0  0  0  0  0
   -2.6947    0.9149    5.8505 H   0  0  0  0  0  0  0  0  0  0  0  0
   -2.5745    1.3149    3.2691 N   0  0  0  0  0  0  0  0  0  0  0  0
   -2.3276    1.7409    1.9167 C   0  0  2  0  0  0  0  0  0  0  0  0
   -0.9926    1.1555    1.4755 C   0  0  0  0  0  0  0  0  0  0  0  0
   -0.1206    0.8028    2.2668 O   0  0  0  0  0  0  0  0  0  0  0  0
   -2.3188    3.2577    1.8072 C   0  0  0  0  0  0  0  0  0  0  0  0
   -3.3395    1.7507    3.7809 H   0  0  0  0  0  0  0  0  0  0  0  0
   -3.1317    1.3224    1.3015 H   0  0  0  0  0  0  0  0  0  0  0  0
   -1.5198    3.6949    2.4169 H   0  0  0  0  0  0  0  0  0  0  0  0
   -2.1594    3.5799    0.7729 H   0  0  0  0  0  0  0  0  0  0  0  0
   -3.2690    3.6789    2.1530 H   0  0  0  0  0  0  0  0  0  0  0  0
   -0.8700    1.1124    0.0921 N   0  0  0  0  0  0  0  0  0  0  0  0
    0.3073    0.6116   -0.5716 C   0  0  2  0  0  0  0  0  0  0  0  0
   -0.0651    0.3713   -2.0303 C   0  0  0  0  0  0  0  0  0  0  0  0
    0.3239    1.0913   -2.9475 O   0  0  0  0  0  0  0  0  0  0  0  0
    0.8252   -0.6826    0.0663 C   0  0  0  0  0  0  0  0  0  0  0  0
    1.3555   -0.4729    1.4637 C   0  0  0  0  0  0  0  0  0  0  0  0
    2.6452    0.0235    1.6537 C   0  0  0  0  0  0  0  0  0  0  0  0
    0.5553   -0.7755    2.5654 C   0  0  0  0  0  0  0  0  0  0  0  0
    3.1346    0.2172    2.9455 C   0  0  0  0  0  0  0  0  0  0  0  0
    1.0448   -0.5818    3.8571 C   0  0  0  0  0  0  0  0  0  0  0  0
    2.3344   -0.0853    4.0471 C   0  0  0  0  0  0  0  0  0  0  0  0
   -1.6531    1.4091   -0.4852 H   0  0  0  0  0  0  0  0  0  0  0  0
    1.0582    1.4088   -0.5195 H   0  0  0  0  0  0  0  0  0  0  0  0
    1.6071   -1.1301   -0.5622 H   0  0  0  0  0  0  0  0  0  0  0  0
    0.0263   -1.4346    0.1111 H   0  0  0  0  0  0  0  0  0  0  0  0
    3.2757    0.2622    0.8013 H   0  0  0  0  0  0  0  0  0  0  0  0
   -0.4507   -1.1626    2.4270 H   0  0  0  0  0  0  0  0  0  0  0  0
    4.1392    0.6027    3.0932 H   0  0  0  0  0  0  0  0  0  0  0  0
    0.4219   -0.8185    4.7146 H   0  0  0  0  0  0  0  0  0  0  0  0
    2.7162    0.0643    5.0529 H   0  0  0  0  0  0  0  0  0  0  0  0
   -0.8403   -0.7692   -2.1875 N   0  0  0  0  0  0  0  0  0  0  0  0
   -1.3107   -1.2382   -3.4711 C   0  0  2  0  0  0  0  0  0  0  0  0
   -1.9617   -0.0645   -4.1909 C   0  0  0  0  0  0  0  0  0  0  0  0
   -2.4013    0.9221   -3.6039 O   0  0  0  0  0  0  0  0  0  0  0  0
   -2.2905   -2.3906   -3.3139 C   0  0  0  0  0  0  0  0  0  0  0  0
   -1.0895   -1.3010   -1.3588 H   0  0  0  0  0  0  0  0  0  0  0  0
   -0.4280   -1.5665   -4.0307 H   0  0  0  0  0  0  0  0  0  0  0  0
   -3.1814   -2.0807   -2.7556 H   0  0  0  0  0  0  0  0  0  0  0  0
   -2.6240   -2.7635   -4.2880 H   0  0  0  0  0  0  0  0  0  0  0  0
   -1.8299   -3.2223   -2.7699 H   0  0  0  0  0  0  0  0  0  0  0  0
   -2.0330   -0.2677   -5.5620 N   0  0  0  0  0  0  0  0  0  0  0  0
   -2.6194    0.6963   -6.4635 C   0  0  0  0  0  0  0  0  0  0  0  0
   -1.6260   -1.1068   -5.9646 H   0  0  0  0  0  0  0  0  0  0  0  0
   -3.6831    0.4595   -6.6130 H   0  0  0  0  0  0  0  0  0  0  0  0
   -2.5252    1.7046   -6.0339 H   0  0  0  0  0  0  0  0  0  0  0  0
   -2.0962    0.6594   -7.4305 H   0  0  0  0  0  0  0  0  0  0  0  0
 25 27  1  0  0  0  0
 26 27  2  0  0  0  0
 23 25  2  0  0  0  0
 24 26  1  0  0  0  0
 22 23  1  0  0  0  0
 22 24  2  0  0  0  0
 21 22  1  0  0  0  0
  1  3  1  0  0  0  0
  1  7  1  0  0  0  0
  1  2  2  0  0  0  0
 38 39  1  0  0  0  0
 39 47  1  0  0  0  0
 39 40  2  0  0  0  0
  8  9  1  0  0  0  0
  9 17  1  0  0  0  0
  9 10  2  0  0  0  0
 18 19  1  0  0  0  0
 19 37  1  0  0  0  0
 19 20  2  0  0  0  0
 38 41  1  0  0  0  0
  8 11  1  0  0  0  0
 47 48  1  0  0  0  0
 18 21  1  0  0  0  0
 37 38  1  0  0  0  0
  7  8  1  0  0  0  0
 17 18  1  0  0  0  0
 27 36  1  0  0  0  0
 25 34  1  0  0  0  0
 26 35  1  0  0  0  0
 23 32  1  0  0  0  0
 24 33  1  0  0  0  0
  3  4  1  0  0  0  0
  3  5  1  0  0  0  0
  3  6  1  0  0  0  0
 41 44  1  0  0  0  0
 41 45  1  0  0  0  0
 41 46  1  0  0  0  0
 11 14  1  0  0  0  0
 11 15  1  0  0  0  0
 11 16  1  0  0  0  0
 48 50  1  0  0  0  0
 48 51  1  0  0  0  0
 48 52  1  0  0  0  0
 21 30  1  0  0  0  0
 21 31  1  0  0  0  0
 38 43  1  0  0  0  0
  8 13  1  0  0  0  0
 18 29  1  0  0  0  0
 47 49  1  0  0  0  0
  7 12  1  0  0  0  0
 37 42  1  0  0  0  0
 17 28  1  0  0  0  0
M  END
$$$$

  -OEChem-05262214473D

 52 52  0     1  0  0  0  0  0999 V2000
   -1.8248    0.3424    3.9102 C   0  0  0  0  0  0  0  0  0  0  0  0
   -0.8774   -0.2723    3.4345 O   0  0  0  0  0  0  0  0  0  0  0  0
   -2.2566    0.0600    5.3109 C   0  0  0  0  0  0  0  0  0  0  0  0
   -3.0163   -0.7363    5.3643 H   0  0  0  0  0  0  0  0  0  0  0  0
   -1.4254   -0.2876    5.9452 H   0  0  0  0  0  0  0  0  0  0  0  0
   -2.6947    0.9149    5.8505 H   0  0  0  0  0  0  0  0  0  0  0  0
   -2.5745    1.3149    3.2691 N   0  0  0  0  0  0  0  0  0  0  0  0
   -2.3276    1.7409    1.9167 C   0  0  2  0  0  0  0  0  0  0  0  0
   -0.9926    1.1555    1.4755 C   0  0  0  0  0  0  0  0  0  0  0  0
   -0.1206    0.8028    2.2668 O   0  0  0  0  0  0  0  0  0  0  0  0
   -2.3188    3.2577    1.8072 C   0  0  0  0  0  0  0  0  0  0  0  0
   -3.3395    1.7507    3.7809 H   0  0  0  0  0  0  0  0  0  0  0  0
   -3.1317    1.3224    1.3015 H   0  0  0  0  0  0  0  0  0  0  0  0
   -1.5198    3.6949    2.4169 H   0  0  0  0  0  0  0  0  0  0  0  0
   -2.1594    3.5799    0.7729 H   0  0  0  0  0  0  0  0  0  0  0  0
   -3.2690    3.6789    2.1530 H   0  0  0  0  0  0  0  0  0  0  0  0
   -0.8700    1.1124    0.0921 N   0  0  0  0  0  0  0  0  0  0  0  0
    0.3073    0.6116   -0.5716 C   0  0  2  0  0  0  0  0  0  0  0  0
   -0.0651    0.3713   -2.0303 C   0  0  0  0  0  0  0  0  0  0  0  0
    0.5208    0.9088   -2.9677 O   0  0  0  0  0  0  0  0  0  0  0  0
    0.8252   -0.6826    0.0663 C   0  0  0  0  0  0  0  0  0  0  0  0
    1.3555   -0.4729    1.4637 C   0  0  0  0  0  0  0  0  0  0  0  0
    2.6452    0.0235    1.6537 C   0  0  0  0  0  0  0  0  0  0  0  0
    0.5553   -0.7755    2.5654 C   0  0  0  0  0  0  0  0  0  0  0  0
    3.1346    0.2172    2.9455 C   0  0  0  0  0  0  0  0  0  0  0  0
    1.0448   -0.5818    3.8571 C   0  0  0  0  0  0  0  0  0  0  0  0
    2.3344   -0.0853    4.0471 C   0  0  0  0  0  0  0  0  0  0  0  0
   -1.6531    1.4091   -0.4852 H   0  0  0  0  0  0  0  0  0  0  0  0
    1.0582    1.4088   -0.5195 H   0  0  0  0  0  0  0  0  0  0  0  0
    1.6071   -1.1301   -0.5622 H   0  0  0  0  0  0  0  0  0  0  0  0
    0.0263   -1.4346    0.1111 H   0  0  0  0  0  0  0  0  0  0  0  0
    3.2757    0.2622    0.8013 H   0  0  0  0  0  0  0  0  0  0  0  0
   -0.4507   -1.1626    2.4270 H   0  0  0  0  0  0  0  0  0  0  0  0
    4.1392    0.6027    3.0932 H   0  0  0  0  0  0  0  0  0  0  0  0
    0.4219   -0.8185    4.7146 H   0  0  0  0  0  0  0  0  0  0  0  0
    2.7162    0.0643    5.0529 H   0  0  0  0  0  0  0  0  0  0  0  0
   -1.0942   -0.5511   -2.1586 N   0  0  0  0  0  0  0  0  0  0  0  0
   -1.6242   -0.9764   -3.4342 C   0  0  2  0  0  0  0  0  0  0  0  0
   -1.9385    0.2695   -4.2518 C   0  0  0  0  0  0  0  0  0  0  0  0
   -2.1376    1.3717   -3.7453 O   0  0  0  0  0  0  0  0  0  0  0  0
   -2.8646   -1.8384   -3.2583 C   0  0  0  0  0  0  0  0  0  0  0  0
   -1.4951   -0.9472   -1.3135 H   0  0  0  0  0  0  0  0  0  0  0  0
   -0.8332   -1.5494   -3.9301 H   0  0  0  0  0  0  0  0  0  0  0  0
   -3.6682   -1.2812   -2.7631 H   0  0  0  0  0  0  0  0  0  0  0  0
   -3.2483   -2.1833   -4.2242 H   0  0  0  0  0  0  0  0  0  0  0  0
   -2.6437   -2.7187   -2.6451 H   0  0  0  0  0  0  0  0  0  0  0  0
   -2.0131   -0.0031   -5.6106 N   0  0  0  0  0  0  0  0  0  0  0  0
   -2.3111    1.0117   -6.5942 C   0  0  0  0  0  0  0  0  0  0  0  0
   -1.8148   -0.9421   -5.9435 H   0  0  0  0  0  0  0  0  0  0  0  0
   -3.3948    1.0345   -6.7814 H   0  0  0  0  0  0  0  0  0  0  0  0
   -1.9830    1.9926   -6.2198 H   0  0  0  0  0  0  0  0  0  0  0  0
   -1.7822    0.7810   -7.5307 H   0  0  0  0  0  0  0  0  0  0  0  0
 25 27  1  0  0  0  0
 26 27  2  0  0  0  0
 23 25  2  0  0  0  0
 24 26  1  0  0  0  0
 22 23  1  0  0  0  0
 22 24  2  0  0  0  0
 21 22  1  0  0  0  0
  1  3  1  0  0  0  0
  1  7  1  0  0  0  0
  1  2  2  0  0  0  0
 38 39  1  0  0  0  0
 39 47  1  0  0  0  0
 39 40  2  0  0  0  0
  8  9  1  0  0  0  0
  9 17  1  0  0  0  0
  9 10  2  0  0  0  0
 18 19  1  0  0  0  0
 19 37  1  0  0  0  0
 19 20  2  0  0  0  0
 38 41  1  0  0  0  0
  8 11  1  0  0  0  0
 47 48  1  0  0  0  0
 18 21  1  0  0  0  0
 37 38  1  0  0  0  0
  7  8  1  0  0  0  0
 17 18  1  0  0  0  0
 27 36  1  0  0  0  0
 25 34  1  0  0  0  0
 26 35  1  0  0  0  0
 23 32  1  0  0  0  0
 24 33  1  0  0  0  0
  3  4  1  0  0  0  0
  3  5  1  0  0  0  0
  3  6  1  0  0  0  0
 41 44  1  0  0  0  0
 41 45  1  0  0  0  0
 41 46  1  0  0  0  0
 11 14  1  0  0  0  0
 11 15  1  0  0  0  0
 11 16  1  0  0  0  0
 48 50  1  0  0  0  0
 48 51  1  0  0  0  0
 48 52  1  0  0  0  0
 21 30  1  0  0  0  0
 21 31  1  0  0  0  0
 38 43  1  0  0  0  0
  8 13  1  0  0  0  0
 18 29  1  0  0  0  0
 47 49  1  0  0  0  0
  7 12  1  0  0  0  0
 37 42  1  0  0  0  0
 17 28  1  0  0  0  0
M  END
$$$$

  -OEChem-05262214473D

 52 52  0     1  0  0  0  0  0999 V2000
   -1.8248    0.3424    3.9102 C   0  0  0  0  0  0  0  0  0  0  0  0
   -0.8774   -0.2723    3.4345 O   0  0  0  0  0  0  0  0  0  0  0  0
   -2.2566    0.0600    5.3109 C   0  0  0  0  0  0  0  0  0  0  0  0
   -3.0163   -0.7363    5.3643 H   0  0  0  0  0  0  0  0  0  0  0  0
   -1.4254   -0.2876    5.9452 H   0  0  0  0  0  0  0  0  0  0  0  0
   -2.6947    0.9149    5.8505 H   0  0  0  0  0  0  0  0  0  0  0  0
   -2.5745    1.3149    3.2691 N   0  0  0  0  0  0  0  0  0  0  0  0
   -2.3276    1.7409    1.9167 C   0  0  2  0  0  0  0  0  0  0  0  0
   -0.9926    1.1555    1.4755 C   0  0  0  0  0  0  0  0  0  0  0  0
   -0.1206    0.8028    2.2668 O   0  0  0  0  0  0  0  0  0  0  0  0
   -2.3188    3.2577    1.8072 C   0  0  0  0  0  0  0  0  0  0  0  0
   -3.3395    1.7507    3.7809 H   0  0  0  0  0  0  0  0  0  0  0  0
   -3.1317    1.3224    1.3015 H   0  0  0  0  0  0  0  0  0  0  0  0
   -1.5198    3.6949    2.4169 H   0  0  0  0  0  0  0  0  0  0  0  0
   -2.1594    3.5799    0.7729 H   0  0  0  0  0  0  0  0  0  0  0  0
   -3.2690    3.6789    2.1530 H   0  0  0  0  0  0  0  0  0  0  0  0
   -0.8700    1.1124    0.0921 N   0  0  0  0  0  0  0  0  0  0  0  0
    0.3073    0.6116   -0.5716 C   0  0  2  0  0  0  0  0  0  0  0  0
   -0.0651    0.3713   -2.0303 C   0  0  0  0  0  0  0  0  0  0  0  0
    0.6666    0.6826   -2.9676 O   0  0  0  0  0  0  0  0  0  0  0  0
    0.8252   -0.6826    0.0663 C   0  0  0  0  0  0  0  0  0  0  0  0
    1.3555   -0.4729    1.4637 C   0  0  0  0  0  0  0  0  0  0  0  0
    2.6452    0.0235    1.6537 C   0  0  0  0  0  0  0  0  0  0  0  0
    0.5553   -0.7755    2.5654 C   0  0  0  0  0  0  0  0  0  0  0  0
    3.1346    0.2172    2.9455 C   0  0  0  0  0  0  0  0  0  0  0  0
    1.0448   -0.5818    3.8571 C   0  0  0  0  0  0  0  0  0  0  0  0
    2.3344   -0.0853    4.0471 C   0  0  0  0  0  0  0  0  0  0  0  0
   -1.6531    1.4091   -0.4852 H   0  0  0  0  0  0  0  0  0  0  0  0
    1.0582    1.4088   -0.5195 H   0  0  0  0  0  0  0  0  0  0  0  0
    1.6071   -1.1301   -0.5622 H   0  0  0  0  0  0  0  0  0  0  0  0
    0.0263   -1.4346    0.1111 H   0  0  0  0  0  0  0  0  0  0  0  0
    3.2757    0.2622    0.8013 H   0  0  0  0  0  0  0  0  0  0  0  0
   -0.4507   -1.1626    2.4270 H   0  0  0  0  0  0  0  0  0  0  0  0
    4.1392    0.6027    3.0932 H   0  0  0  0  0  0  0  0  0  0  0  0
    0.4219   -0.8185    4.7146 H   0  0  0  0  0  0  0  0  0  0  0  0
    2.7162    0.0643    5.0529 H   0  0  0  0  0  0  0  0  0  0  0  0
   -1.2867   -0.2757   -2.1549 N   0  0  0  0  0  0  0  0  0  0  0  0
   -1.8637   -0.6435   -3.4279 C   0  0  2  0  0  0  0  0  0  0  0  0
   -1.8309    0.5825   -4.3309 C   0  0  0  0  0  0  0  0  0  0  0  0
   -1.7659    1.7317   -3.8995 O   0  0  0  0  0  0  0  0  0  0  0  0
   -3.2847   -1.1593   -3.2629 C   0  0  0  0  0  0  0  0  0  0  0  0
   -1.8010   -0.5021   -1.3087 H   0  0  0  0  0  0  0  0  0  0  0  0
   -1.2244   -1.4263   -3.8505 H   0  0  0  0  0  0  0  0  0  0  0  0
   -3.9401   -0.3888   -2.8406 H   0  0  0  0  0  0  0  0  0  0  0  0
   -3.7103   -1.4643   -4.2247 H   0  0  0  0  0  0  0  0  0  0  0  0
   -3.3102   -2.0228   -2.5896 H   0  0  0  0  0  0  0  0  0  0  0  0
   -1.9263    0.2444   -5.6735 N   0  0  0  0  0  0  0  0  0  0  0  0
   -1.9299    1.2317   -6.7277 C   0  0  0  0  0  0  0  0  0  0  0  0
   -1.9573   -0.7349   -5.9412 H   0  0  0  0  0  0  0  0  0  0  0  0
   -2.9670    1.5079   -6.9685 H   0  0  0  0  0  0  0  0  0  0  0  0
   -1.3804    2.1247   -6.3954 H   0  0  0  0  0  0  0  0  0  0  0  0
   -1.4446    0.8144   -7.6223 H   0  0  0  0  0  0  0  0  0  0  0  0
 25 27  1  0  0  0  0
 26 27  2  0  0  0  0
 23 25  2  0  0  0  0
 24 26  1  0  0  0  0
 22 23  1  0  0  0  0
 22 24  2  0  0  0  0
 21 22  1  0  0  0  0
  1  3  1  0  0  0  0
  1  7  1  0  0  0  0
  1  2  2  0  0  0  0
 38 39  1  0  0  0  0
 39 47  1  0  0  0  0
 39 40  2  0  0  0  0
  8  9  1  0  0  0  0
  9 17  1  0  0  0  0
  9 10  2  0  0  0  0
 18 19  1  0  0  0  0
 19 37  1  0  0  0  0
 19 20  2  0  0  0  0
 38 41  1  0  0  0  0
  8 11  1  0  0  0  0
 47 48  1  0  0  0  0
 18 21  1  0  0  0  0
 37 38  1  0  0  0  0
  7  8  1  0  0  0  0
 17 18  1  0  0  0  0
 27 36  1  0  0  0  0
 25 34  1  0  0  0  0
 26 35  1  0  0  0  0
 23 32  1  0  0  0  0
 24 33  1  0  0  0  0
  3  4  1  0  0  0  0
  3  5  1  0  0  0  0
  3  6  1  0  0  0  0
 41 44  1  0  0  0  0
 41 45  1  0  0  0  0
 41 46  1  0  0  0  0
 11 14  1  0  0  0  0
 11 15  1  0  0  0  0
 11 16  1  0  0  0  0
 48 50  1  0  0  0  0
 48 51  1  0  0  0  0
 48 52  1  0  0  0  0
 21 30  1  0  0  0  0
 21 31  1  0  0  0  0
 38 43  1  0  0  0  0
  8 13  1  0  0  0  0
 18 29  1  0  0  0  0
 47 49  1  0  0  0  0
  7 12  1  0  0  0  0
 37 42  1  0  0  0  0
 17 28  1  0  0  0  0
M  END
$$$$

  -OEChem-05262214473D

 52 52  0     1  0  0  0  0  0999 V2000
   -1.8248    0.3424    3.9102 C   0  0  0  0  0  0  0  0  0  0  0  0
   -0.8774   -0.2723    3.4345 O   0  0  0  0  0  0  0  0  0  0  0  0
   -2.2566    0.0600    5.3109 C   0  0  0  0  0  0  0  0  0  0  0  0
   -3.0163   -0.7363    5.3643 H   0  0  0  0  0  0  0  0  0  0  0  0
   -1.4254   -0.2876    5.9452 H   0  0  0  0  0  0  0  0  0  0  0  0
   -2.6947    0.9149    5.8505 H   0  0  0  0  0  0  0  0  0  0  0  0
   -2.5745    1.3149    3.2691 N   0  0  0  0  0  0  0  0  0  0  0  0
   -2.3276    1.7409    1.9167 C   0  0  2  0  0  0  0  0  0  0  0  0
   -0.9926    1.1555    1.4755 C   0  0  0  0  0  0  0  0  0  0  0  0
   -0.1206    0.8028    2.2668 O   0  0  0  0  0  0  0  0  0  0  0  0
   -2.3188    3.2577    1.8072 C   0  0  0  0  0  0  0  0  0  0  0  0
   -3.3395    1.7507    3.7809 H   0  0  0  0  0  0  0  0  0  0  0  0
   -3.1317    1.3224    1.3015 H   0  0  0  0  0  0  0  0  0  0  0  0
   -1.5198    3.6949    2.4169 H   0  0  0  0  0  0  0  0  0  0  0  0
   -2.1594    3.5799    0.7729 H   0  0  0  0  0  0  0  0  0  0  0  0
   -3.2690    3.6789    2.1530 H   0  0  0  0  0  0  0  0  0  0  0  0
   -0.8700    1.1124    0.0921 N   0  0  0  0  0  0  0  0  0  0  0  0
    0.3073    0.6116   -0.5716 C   0  0  2  0  0  0  0  0  0  0  0  0
   -0.0651    0.3713   -2.0303 C   0  0  0  0  0  0  0  0  0  0  0  0
    0.7514    0.4279   -2.9473 O   0  0  0  0  0  0  0  0  0  0  0  0
    0.8252   -0.6826    0.0663 C   0  0  0  0  0  0  0  0  0  0  0  0
    1.3555   -0.4729    1.4637 C   0  0  0  0  0  0  0  0  0  0  0  0
    2.6452    0.0235    1.6537 C   0  0  0  0  0  0  0  0  0  0  0  0
    0.5553   -0.7755    2.5654 C   0  0  0  0  0  0  0  0  0  0  0  0
    3.1346    0.2172    2.9455 C   0  0  0  0  0  0  0  0  0  0  0  0
    1.0448   -0.5818    3.8571 C   0  0  0  0  0  0  0  0  0  0  0  0
    2.3344   -0.0853    4.0471 C   0  0  0  0  0  0  0  0  0  0  0  0
   -1.6531    1.4091   -0.4852 H   0  0  0  0  0  0  0  0  0  0  0  0
    1.0582    1.4088   -0.5195 H   0  0  0  0  0  0  0  0  0  0  0  0
    1.6071   -1.1301   -0.5622 H   0  0  0  0  0  0  0  0  0  0  0  0
    0.0263   -1.4346    0.1111 H   0  0  0  0  0  0  0  0  0  0  0  0
    3.2757    0.2622    0.8013 H   0  0  0  0  0  0  0  0  0  0  0  0
   -0.4507   -1.1626    2.4270 H   0  0  0  0  0  0  0  0  0  0  0  0
    4.1392    0.6027    3.0932 H   0  0  0  0  0  0  0  0  0  0  0  0
    0.4219   -0.8185    4.7146 H   0  0  0  0  0  0  0  0  0  0  0  0
    2.7162    0.0643    5.0529 H   0  0  0  0  0  0  0  0  0  0  0  0
   -1.4045    0.0382   -2.1765 N   0  0  0  0  0  0  0  0  0  0  0  0
   -2.0128   -0.2623   -3.4526 C   0  0  2  0  0  0  0  0  0  0  0  0
   -1.6462    0.8532   -4.4226 C   0  0  0  0  0  0  0  0  0  0  0  0
   -1.3114    1.9777   -4.0561 O   0  0  0  0  0  0  0  0  0  0  0  0
   -3.5222   -0.3996   -3.3275 C   0  0  0  0  0  0  0  0  0  0  0  0
   -1.9865    0.0038   -1.3447 H   0  0  0  0  0  0  0  0  0  0  0  0
   -1.5750   -1.2054   -3.7974 H   0  0  0  0  0  0  0  0  0  0  0  0
   -3.9785    0.5356   -2.9831 H   0  0  0  0  0  0  0  0  0  0  0  0
   -3.9784   -0.6554   -4.2895 H   0  0  0  0  0  0  0  0  0  0  0  0
   -3.7839   -1.1821   -2.6071 H   0  0  0  0  0  0  0  0  0  0  0  0
   -1.7787    0.4581   -5.7464 N   0  0  0  0  0  0  0  0  0  0  0  0
   -1.5018    1.3413   -6.8551 C   0  0  0  0  0  0  0  0  0  0  0  0
   -2.0437   -0.4994   -5.9580 H   0  0  0  0  0  0  0  0  0  0  0  0
   -2.4290    1.8474   -7.1618 H   0  0  0  0  0  0  0  0  0  0  0  0
   -0.7585    2.0921   -6.5488 H   0  0  0  0  0  0  0  0  0  0  0  0
   -1.1065    0.7572   -7.6992 H   0  0  0  0  0  0  0  0  0  0  0  0
 25 27  1  0  0  0  0
 26 27  2  0  0  0  0
 23 25  2  0  0  0  0
 24 26  1  0  0  0  0
 22 23  1  0  0  0  0
 22 24  2  0  0  0  0
 21 22  1  0  0  0  0
  1  3  1  0  0  0  0
  1  7  1  0  0  0  0
  1  2  2  0  0  0  0
 38 39  1  0  0  0  0
 39 47  1  0  0  0  0
 39 40  2  0  0  0  0
  8  9  1  0  0  0  0
  9 17  1  0  0  0  0
  9 10  2  0  0  0  0
 18 19  1  0  0  0  0
 19 37  1  0  0  0  0
 19 20  2  0  0  0  0
 38 41  1  0  0  0  0
  8 11  1  0  0  0  0
 47 48  1  0  0  0  0
 18 21  1  0  0  0  0
 37 38  1  0  0  0  0
  7  8  1  0  0  0  0
 17 18  1  0  0  0  0
 27 36  1  0  0  0  0
 25 34  1  0  0  0  0
 26 35  1  0  0  0  0
 23 32  1  0  0  0  0
 24 33  1  0  0  0  0
  3  4  1  0  0  0  0
  3  5  1  0  0  0  0
  3  6  1  0  0  0  0
 41 44  1  0  0  0  0
 41 45  1  0  0  0  0
 41 46  1  0  0  0  0
 11 14  1  0  0  0  0
 11 15  1  0  0  0  0
 11 16  1  0  0  0  0
 48 50  1  0  0  0  0
 48 51  1  0  0  0  0
 48 52  1  0  0  0  0
 21 30  1  0  0  0  0
 21 31  1  0  0  0  0
 38 43  1  0  0  0  0
  8 13  1  0  0  0  0
 18 29  1  0  0  0  0
 47 49  1  0  0  0  0
  7 12  1  0  0  0  0
 37 42  1  0  0  0  0
 17 28  1  0  0  0  0
M  END
$$$$

  -OEChem-05262214473D

 52 52  0     1  0  0  0  0  0999 V2000
   -1.8248    0.3424    3.9102 C   0  0  0  0  0  0  0  0  0  0  0  0
   -0.8774   -0.2723    3.4345 O   0  0  0  0  0  0  0  0  0  0  0  0
   -2.2566    0.0600    5.3109 C   0  0  0  0  0  0  0  0  0  0  0  0
   -3.0163   -0.7363    5.3643 H   0  0  0  0  0  0  0  0  0  0  0  0
   -1.4254   -0.2876    5.9452 H   0  0  0  0  0  0  0  0  0  0  0  0
   -2.6947    0.9149    5.8505 H   0  0  0  0  0  0  0  0  0  0  0  0
   -2.5745    1.3149    3.2691 N   0  0  0  0  0  0  0  0  0  0  0  0
   -2.3276    1.7409    1.9167 C   0  0  2  0  0  0  0  0  0  0  0  0
   -0.9926    1.1555    1.4755 C   0  0  0  0  0  0  0  0  0  0  0  0
   -0.1206    0.8028    2.2668 O   0  0  0  0  0  0  0  0  0  0  0  0
   -2.3188    3.2577    1.8072 C   0  0  0  0  0  0  0  0  0  0  0  0
   -3.3395    1.7507    3.7809 H   0  0  0  0  0  0  0  0  0  0  0  0
   -3.1317    1.3224    1.3015 H   0  0  0  0  0  0  0  0  0  0  0  0
   -1.5198    3.6949    2.4169 H   0  0  0  0  0  0  0  0  0  0  0  0
   -2.1594    3.5799    0.7729 H   0  0  0  0  0  0  0  0  0  0  0  0
   -3.2690    3.6789    2.1530 H   0  0  0  0  0  0  0  0  0  0  0  0
   -0.8700    1.1124    0.0921 N   0  0  0  0  0  0  0  0  0  0  0  0
    0.3073    0.6116   -0.5716 C   0  0  2  0  0  0  0  0  0  0  0  0
   -0.0651    0.3713   -2.0303 C   0  0  0  0  0  0  0  0  0  0  0  0
    0.7694    0.1622   -2.9082 O   0  0  0  0  0  0  0  0  0  0  0  0
    0.8252   -0.6826    0.0663 C   0  0  0  0  0  0  0  0  0  0  0  0
    1.3555   -0.4729    1.4637 C   0  0  0  0  0  0  0  0  0  0  0  0
    2.6452    0.0235    1.6537 C   0  0  0  0  0  0  0  0  0  0  0  0
    0.5553   -0.7755    2.5654 C   0  0  0  0  0  0  0  0  0  0  0  0
    3.1346    0.2172    2.9455 C   0  0  0  0  0  0  0  0  0  0  0  0
    1.0448   -0.5818    3.8571 C   0  0  0  0  0  0  0  0  0  0  0  0
    2.3344   -0.0853    4.0471 C   0  0  0  0  0  0  0  0  0  0  0  0
   -1.6531    1.4091   -0.4852 H   0  0  0  0  0  0  0  0  0  0  0  0
    1.0582    1.4088   -0.5195 H   0  0  0  0  0  0  0  0  0  0  0  0
    1.6071   -1.1301   -0.5622 H   0  0  0  0  0  0  0  0  0  0  0  0
    0.0263   -1.4346    0.1111 H   0  0  0  0  0  0  0  0  0  0  0  0
    3.2757    0.2622    0.8013 H   0  0  0  0  0  0  0  0  0  0  0  0
   -0.4507   -1.1626    2.4270 H   0  0  0  0  0  0  0  0  0  0  0  0
    4.1392    0.6027    3.0932 H   0  0  0  0  0  0  0  0  0  0  0  0
    0.4219   -0.8185    4.7146 H   0  0  0  0  0  0  0  0  0  0  0  0
    2.7162    0.0643    5.0529 H   0  0  0  0  0  0  0  0  0  0  0  0
   -1.4397    0.3692   -2.2220 N   0  0  0  0  0  0  0  0  0  0  0  0
   -2.0614    0.1413   -3.5067 C   0  0  2  0  0  0  0  0  0  0  0  0
   -1.3971    1.0631   -4.5208 C   0  0  0  0  0  0  0  0  0  0  0  0
   -0.8050    2.0928   -4.2043 O   0  0  0  0  0  0  0  0  0  0  0  0
   -3.5607    0.3889   -3.4475 C   0  0  0  0  0  0  0  0  0  0  0  0
   -2.0390    0.5362   -1.4190 H   0  0  0  0  0  0  0  0  0  0  0  0
   -1.8612   -0.9019   -3.7743 H   0  0  0  0  0  0  0  0  0  0  0  0
   -3.7810    1.4290   -3.1807 H   0  0  0  0  0  0  0  0  0  0  0  0
   -4.0345    0.1883   -4.4141 H   0  0  0  0  0  0  0  0  0  0  0  0
   -4.0326   -0.2539   -2.6965 H   0  0  0  0  0  0  0  0  0  0  0  0
   -1.5802    0.6233   -5.8243 N   0  0  0  0  0  0  0  0  0  0  0  0
   -1.0559    1.3332   -6.9676 C   0  0  0  0  0  0  0  0  0  0  0  0
   -2.0681   -0.2516   -5.9926 H   0  0  0  0  0  0  0  0  0  0  0  0
   -1.8173    2.0299   -7.3480 H   0  0  0  0  0  0  0  0  0  0  0  0
   -0.1595    1.8968   -6.6695 H   0  0  0  0  0  0  0  0  0  0  0  0
   -0.7910    0.6134   -7.7561 H   0  0  0  0  0  0  0  0  0  0  0  0
 25 27  1  0  0  0  0
 26 27  2  0  0  0  0
 23 25  2  0  0  0  0
 24 26  1  0  0  0  0
 22 23  1  0  0  0  0
 22 24  2  0  0  0  0
 21 22  1  0  0  0  0
  1  3  1  0  0  0  0
  1  7  1  0  0  0  0
  1  2  2  0  0  0  0
 38 39  1  0  0  0  0
 39 47  1  0  0  0  0
 39 40  2  0  0  0  0
  8  9  1  0  0  0  0
  9 17  1  0  0  0  0
  9 10  2  0  0  0  0
 18 19  1  0  0  0  0
 19 37  1  0  0  0  0
 19 20  2  0  0  0  0
 38 41  1  0  0  0  0
  8 11  1  0  0  0  0
 47 48  1  0  0  0  0
 18 21  1  0  0  0  0
 37 38  1  0  0  0  0
  7  8  1  0  0  0  0
 17 18  1  0  0  0  0
 27 36  1  0  0  0  0
 25 34  1  0  0  0  0
 26 35  1  0  0  0  0
 23 32  1  0  0  0  0
 24 33  1  0  0  0  0
  3  4  1  0  0  0  0
  3  5  1  0  0  0  0
  3  6  1  0  0  0  0
 41 44  1  0  0  0  0
 41 45  1  0  0  0  0
 41 46  1  0  0  0  0
 11 14  1  0  0  0  0
 11 15  1  0  0  0  0
 11 16  1  0  0  0  0
 48 50  1  0  0  0  0
 48 51  1  0  0  0  0
 48 52  1  0  0  0  0
 21 30  1  0  0  0  0
 21 31  1  0  0  0  0
 38 43  1  0  0  0  0
  8 13  1  0  0  0  0
 18 29  1  0  0  0  0
 47 49  1  0  0  0  0
  7 12  1  0  0  0  0
 37 42  1  0  0  0  0
 17 28  1  0  0  0  0
M  END
$$$$

  -OEChem-05262214473D

 52 52  0     1  0  0  0  0  0999 V2000
   -1.8248    0.3424    3.9102 C   0  0  0  0  0  0  0  0  0  0  0  0
   -0.8774   -0.2723    3.4345 O   0  0  0  0  0  0  0  0  0  0  0  0
   -2.2566    0.0600    5.3109 C   0  0  0  0  0  0  0  0  0  0  0  0
   -3.0163   -0.7363    5.3643 H   0  0  0  0  0  0  0  0  0  0  0  0
   -1.4254   -0.2876    5.9452 H   0  0  0  0  0  0  0  0  0  0  0  0
   -2.6947    0.9149    5.8505 H   0  0  0  0  0  0  0  0  0  0  0  0
   -2.5745    1.3149    3.2691 N   0  0  0  0  0  0  0  0  0  0  0  0
   -2.3276    1.7409    1.9167 C   0  0  2  0  0  0  0  0  0  0  0  0
   -0.9926    1.1555    1.4755 C   0  0  0  0  0  0  0  0  0  0  0  0
   -0.1206    0.8028    2.2668 O   0  0  0  0  0  0  0  0  0  0  0  0
   -2.3188    3.2577    1.8072 C   0  0  0  0  0  0  0  0  0  0  0  0
   -3.3395    1.7507    3.7809 H   0  0  0  0  0  0  0  0  0  0  0  0
   -3.1317    1.3224    1.3015 H   0  0  0  0  0  0  0  0  0  0  0  0
   -1.5198    3.6949    2.4169 H   0  0  0  0  0  0  0  0  0  0  0  0
   -2.1594    3.5799    0.7729 H   0  0  0  0  0  0  0  0  0  0  0  0
   -3.2690    3.6789    2.1530 H   0  0  0  0  0  0  0  0  0  0  0  0
   -0.8700    1.1124    0.0921 N   0  0  0  0  0  0  0  0  0  0  0  0
    0.3073    0.6116   -0.5716 C   0  0  2  0  0  0  0  0  0  0  0  0
   -0.0651    0.3713   -2.0303 C   0  0  0  0  0  0  0  0  0  0  0  0
    0.7195   -0.0964   -2.8528 O   0  0  0  0  0  0  0  0  0  0  0  0
    0.8252   -0.6826    0.0663 C   0  0  0  0  0  0  0  0  0  0  0  0
    1.3555   -0.4729    1.4637 C   0  0  0  0  0  0  0  0  0  0  0  0
    2.6452    0.0235    1.6537 C   0  0  0  0  0  0  0  0  0  0  0  0
    0.5553   -0.7755    2.5654 C   0  0  0  0  0  0  0  0  0  0  0  0
    3.1346    0.2172    2.9455 C   0  0  0  0  0  0  0  0  0  0  0  0
    1.0448   -0.5818    3.8571 C   0  0  0  0  0  0  0  0  0  0  0  0
    2.3344   -0.0853    4.0471 C   0  0  0  0  0  0  0  0  0  0  0  0
   -1.6531    1.4091   -0.4852 H   0  0  0  0  0  0  0  0  0  0  0  0
    1.0582    1.4088   -0.5195 H   0  0  0  0  0  0  0  0  0  0  0  0
    1.6071   -1.1301   -0.5622 H   0  0  0  0  0  0  0  0  0  0  0  0
    0.0263   -1.4346    0.1111 H   0  0  0  0  0  0  0  0  0  0  0  0
    3.2757    0.2622    0.8013 H   0  0  0  0  0  0  0  0  0  0  0  0
   -0.4507   -1.1626    2.4270 H   0  0  0  0  0  0  0  0  0  0  0  0
    4.1392    0.6027    3.0932 H   0  0  0  0  0  0  0  0  0  0  0  0
    0.4219   -0.8185    4.7146 H   0  0  0  0  0  0  0  0  0  0  0  0
    2.7162    0.0643    5.0529 H   0  0  0  0  0  0  0  0  0  0  0  0
   -1.3899    0.6948   -2.2884 N   0  0  0  0  0  0  0  0  0  0  0  0
   -2.0063    0.5398   -3.5864 C   0  0  2  0  0  0  0  0  0  0  0  0
   -1.1004    1.1980   -4.6187 C   0  0  0  0  0  0  0  0  0  0  0  0
   -0.2814    2.0693   -4.3341 O   0  0  0  0  0  0  0  0  0  0  0  0
   -3.3978    1.1525   -3.6149 C   0  0  0  0  0  0  0  0  0  0  0  0
   -1.9547    1.0587   -1.5266 H   0  0  0  0  0  0  0  0  0  0  0  0
   -2.0633   -0.5364   -3.7829 H   0  0  0  0  0  0  0  0  0  0  0  0
   -3.3609    2.2306   -3.4200 H   0  0  0  0  0  0  0  0  0  0  0  0
   -3.8746    1.0092   -4.5902 H   0  0  0  0  0  0  0  0  0  0  0  0
   -4.0392    0.6986   -2.8517 H   0  0  0  0  0  0  0  0  0  0  0  0
   -1.3444    0.7288   -5.9019 N   0  0  0  0  0  0  0  0  0  0  0  0
   -0.6226    1.2078   -7.0575 C   0  0  0  0  0  0  0  0  0  0  0  0
   -2.0289   -0.0084   -6.0426 H   0  0  0  0  0  0  0  0  0  0  0  0
   -1.1737    2.0429   -7.5145 H   0  0  0  0  0  0  0  0  0  0  0  0
    0.3756    1.5523   -6.7494 H   0  0  0  0  0  0  0  0  0  0  0  0
   -0.5195    0.3927   -7.7890 H   0  0  0  0  0  0  0  0  0  0  0  0
 25 27  1  0  0  0  0
 26 27  2  0  0  0  0
 23 25  2  0  0  0  0
 24 26  1  0  0  0  0
 22 23  1  0  0  0  0
 22 24  2  0  0  0  0
 21 22  1  0  0  0  0
  1  3  1  0  0  0  0
  1  7  1  0  0  0  0
  1  2  2  0  0  0  0
 38 39  1  0  0  0  0
 39 47  1  0  0  0  0
 39 40  2  0  0  0  0
  8  9  1  0  0  0  0
  9 17  1  0  0  0  0
  9 10  2  0  0  0  0
 18 19  1  0  0  0  0
 19 37  1  0  0  0  0
 19 20  2  0  0  0  0
 38 41  1  0  0  0  0
  8 11  1  0  0  0  0
 47 48  1  0  0  0  0
 18 21  1  0  0  0  0
 37 38  1  0  0  0  0
  7  8  1  0  0  0  0
 17 18  1  0  0  0  0
 27 36  1  0  0  0  0
 25 34  1  0  0  0  0
 26 35  1  0  0  0  0
 23 32  1  0  0  0  0
 24 33  1  0  0  0  0
  3  4  1  0  0  0  0
  3  5  1  0  0  0  0
  3  6  1  0  0  0  0
 41 44  1  0  0  0  0
 41 45  1  0  0  0  0
 41 46  1  0  0  0  0
 11 14  1  0  0  0  0
 11 15  1  0  0  0  0
 11 16  1  0  0  0  0
 48 50  1  0  0  0  0
 48 51  1  0  0  0  0
 48 52  1  0  0  0  0
 21 30  1  0  0  0  0
 21 31  1  0  0  0  0
 38 43  1  0  0  0  0
  8 13  1  0  0  0  0
 18 29  1  0  0  0  0
 47 49  1  0  0  0  0
  7 12  1  0  0  0  0
 37 42  1  0  0  0  0
 17 28  1  0  0  0  0
M  END
$$$$

  -OEChem-05262214473D

 52 52  0     1  0  0  0  0  0999 V2000
   -1.8248    0.3424    3.9102 C   0  0  0  0  0  0  0  0  0  0  0  0
   -0.8774   -0.2723    3.4345 O   0  0  0  0  0  0  0  0  0  0  0  0
   -2.2566    0.0600    5.3109 C   0  0  0  0  0  0  0  0  0  0  0  0
   -3.0163   -0.7363    5.3643 H   0  0  0  0  0  0  0  0  0  0  0  0
   -1.4254   -0.2876    5.9452 H   0  0  0  0  0  0  0  0  0  0  0  0
   -2.6947    0.9149    5.8505 H   0  0  0  0  0  0  0  0  0  0  0  0
   -2.5745    1.3149    3.2691 N   0  0  0  0  0  0  0  0  0  0  0  0
   -2.3276    1.7409    1.9167 C   0  0  2  0  0  0  0  0  0  0  0  0
   -0.9926    1.1555    1.4755 C   0  0  0  0  0  0  0  0  0  0  0  0
   -0.1206    0.8028    2.2668 O   0  0  0  0  0  0  0  0  0  0  0  0
   -2.3188    3.2577    1.8072 C   0  0  0  0  0  0  0  0  0  0  0  0
   -3.3395    1.7507    3.7809 H   0  0  0  0  0  0  0  0  0  0  0  0
   -3.1317    1.3224    1.3015 H   0  0  0  0  0  0  0  0  0  0  0  0
   -1.5198    3.6949    2.4169 H   0  0  0  0  0  0  0  0  0  0  0  0
   -2.1594    3.5799    0.7729 H   0  0  0  0  0  0  0  0  0  0  0  0
   -3.2690    3.6789    2.1530 H   0  0  0  0  0  0  0  0  0  0  0  0
   -0.8700    1.1124    0.0921 N   0  0  0  0  0  0  0  0  0  0  0  0
    0.3073    0.6116   -0.5716 C   0  0  2  0  0  0  0  0  0  0  0  0
   -0.0651    0.3713   -2.0303 C   0  0  0  0  0  0  0  0  0  0  0  0
    0.6049   -0.3304   -2.7850 O   0  0  0  0  0  0  0  0  0  0  0  0
    0.8252   -0.6826    0.0663 C   0  0  0  0  0  0  0  0  0  0  0  0
    1.3555   -0.4729    1.4637 C   0  0  0  0  0  0  0  0  0  0  0  0
    2.6452    0.0235    1.6537 C   0  0  0  0  0  0  0  0  0  0  0  0
    0.5553   -0.7755    2.5654 C   0  0  0  0  0  0  0  0  0  0  0  0
    3.1346    0.2172    2.9455 C   0  0  0  0  0  0  0  0  0  0  0  0
    1.0448   -0.5818    3.8571 C   0  0  0  0  0  0  0  0  0  0  0  0
    2.3344   -0.0853    4.0471 C   0  0  0  0  0  0  0  0  0  0  0  0
   -1.6531    1.4091   -0.4852 H   0  0  0  0  0  0  0  0  0  0  0  0
    1.0582    1.4088   -0.5195 H   0  0  0  0  0  0  0  0  0  0  0  0
    1.6071   -1.1301   -0.5622 H   0  0  0  0  0  0  0  0  0  0  0  0
    0.0263   -1.4346    0.1111 H   0  0  0  0  0  0  0  0  0  0  0  0
    3.2757    0.2622    0.8013 H   0  0  0  0  0  0  0  0  0  0  0  0
   -0.4507   -1.1626    2.4270 H   0  0  0  0  0  0  0  0  0  0  0  0
    4.1392    0.6027    3.0932 H   0  0  0  0  0  0  0  0  0  0  0  0
    0.4219   -0.8185    4.7146 H   0  0  0  0  0  0  0  0  0  0  0  0
    2.7162    0.0643    5.0529 H   0  0  0  0  0  0  0  0  0  0  0  0
   -1.2585    0.9927   -2.3710 N   0  0  0  0  0  0  0  0  0  0  0  0
   -1.8511    0.9060   -3.6863 C   0  0  2  0  0  0  0  0  0  0  0  0
   -0.7765    1.2486   -4.7098 C   0  0  0  0  0  0  0  0  0  0  0  0
    0.2239    1.9087   -4.4366 O   0  0  0  0  0  0  0  0  0  0  0  0
   -3.0445    1.8392   -3.8182 C   0  0  0  0  0  0  0  0  0  0  0  0
   -1.7396    1.5358   -1.6601 H   0  0  0  0  0  0  0  0  0  0  0  0
   -2.1677   -0.1338   -3.8226 H   0  0  0  0  0  0  0  0  0  0  0  0
   -2.7468    2.8856   -3.6846 H   0  0  0  0  0  0  0  0  0  0  0  0
   -3.5097    1.7514   -4.8056 H   0  0  0  0  0  0  0  0  0  0  0  0
   -3.8034    1.6106   -3.0621 H   0  0  0  0  0  0  0  0  0  0  0  0
   -1.0873    0.7674   -5.9739 N   0  0  0  0  0  0  0  0  0  0  0  0
   -0.2315    0.9736   -7.1188 C   0  0  0  0  0  0  0  0  0  0  0  0
   -1.9288    0.2137   -6.1048 H   0  0  0  0  0  0  0  0  0  0  0  0
   -0.5420    1.8855   -7.6498 H   0  0  0  0  0  0  0  0  0  0  0  0
    0.8104    1.0819   -6.7829 H   0  0  0  0  0  0  0  0  0  0  0  0
   -0.3106    0.1103   -7.7959 H   0  0  0  0  0  0  0  0  0  0  0  0
 25 27  1  0  0  0  0
 26 27  2  0  0  0  0
 23 25  2  0  0  0  0
 24 26  1  0  0  0  0
 22 23  1  0  0  0  0
 22 24  2  0  0  0  0
 21 22  1  0  0  0  0
  1  3  1  0  0  0  0
  1  7  1  0  0  0  0
  1  2  2  0  0  0  0
 38 39  1  0  0  0  0
 39 47  1  0  0  0  0
 39 40  2  0  0  0  0
  8  9  1  0  0  0  0
  9 17  1  0  0  0  0
  9 10  2  0  0  0  0
 18 19  1  0  0  0  0
 19 37  1  0  0  0  0
 19 20  2  0  0  0  0
 38 41  1  0  0  0  0
  8 11  1  0  0  0  0
 47 48  1  0  0  0  0
 18 21  1  0  0  0  0
 37 38  1  0  0  0  0
  7  8  1  0  0  0  0
 17 18  1  0  0  0  0
 27 36  1  0  0  0  0
 25 34  1  0  0  0  0
 26 35  1  0  0  0  0
 23 32  1  0  0  0  0
 24 33  1  0  0  0  0
  3  4  1  0  0  0  0
  3  5  1  0  0  0  0
  3  6  1  0  0  0  0
 41 44  1  0  0  0  0
 41 45  1  0  0  0  0
 41 46  1  0  0  0  0
 11 14  1  0  0  0  0
 11 15  1  0  0  0  0
 11 16  1  0  0  0  0
 48 50  1  0  0  0  0
 48 51  1  0  0  0  0
 48 52  1  0  0  0  0
 21 30  1  0  0  0  0
 21 31  1  0  0  0  0
 38 43  1  0  0  0  0
  8 13  1  0  0  0  0
 18 29  1  0  0  0  0
 47 49  1  0  0  0  0
  7 12  1  0  0  0  0
 37 42  1  0  0  0  0
 17 28  1  0  0  0  0
M  END
$$$$

  -OEChem-05262214473D

 52 52  0     1  0  0  0  0  0999 V2000
   -1.8248    0.3424    3.9102 C   0  0  0  0  0  0  0  0  0  0  0  0
   -0.8774   -0.2723    3.4345 O   0  0  0  0  0  0  0  0  0  0  0  0
   -2.2566    0.0600    5.3109 C   0  0  0  0  0  0  0  0  0  0  0  0
   -3.0163   -0.7363    5.3643 H   0  0  0  0  0  0  0  0  0  0  0  0
   -1.4254   -0.2876    5.9452 H   0  0  0  0  0  0  0  0  0  0  0  0
   -2.6947    0.9149    5.8505 H   0  0  0  0  0  0  0  0  0  0  0  0
   -2.5745    1.3149    3.2691 N   0  0  0  0  0  0  0  0  0  0  0  0
   -2.3276    1.7409    1.9167 C   0  0  2  0  0  0  0  0  0  0  0  0
   -0.9926    1.1555    1.4755 C   0  0  0  0  0  0  0  0  0  0  0  0
   -0.1206    0.8028    2.2668 O   0  0  0  0  0  0  0  0  0  0  0  0
   -2.3188    3.2577    1.8072 C   0  0  0  0  0  0  0  0  0  0  0  0
   -3.3395    1.7507    3.7809 H   0  0  0  0  0  0  0  0  0  0  0  0
   -3.1317    1.3224    1.3015 H   0  0  0  0  0  0  0  0  0  0  0  0
   -1.5198    3.6949    2.4169 H   0  0  0  0  0  0  0  0  0  0  0  0
   -2.1594    3.5799    0.7729 H   0  0  0  0  0  0  0  0  0  0  0  0
   -3.2690    3.6789    2.1530 H   0  0  0  0  0  0  0  0  0  0  0  0
   -0.8700    1.1124    0.0921 N   0  0  0  0  0  0  0  0  0  0  0  0
    0.3073    0.6116   -0.5716 C   0  0  2  0  0  0  0  0  0  0  0  0
   -0.0651    0.3713   -2.0303 C   0  0  0  0  0  0  0  0  0  0  0  0
    0.4335   -0.5237   -2.7094 O   0  0  0  0  0  0  0  0  0  0  0  0
    0.8252   -0.6826    0.0663 C   0  0  0  0  0  0  0  0  0  0  0  0
    1.3555   -0.4729    1.4637 C   0  0  0  0  0  0  0  0  0  0  0  0
    2.6452    0.0235    1.6537 C   0  0  0  0  0  0  0  0  0  0  0  0
    0.5553   -0.7755    2.5654 C   0  0  0  0  0  0  0  0  0  0  0  0
    3.1346    0.2172    2.9455 C   0  0  0  0  0  0  0  0  0  0  0  0
    1.0448   -0.5818    3.8571 C   0  0  0  0  0  0  0  0  0  0  0  0
    2.3344   -0.0853    4.0471 C   0  0  0  0  0  0  0  0  0  0  0  0
   -1.6531    1.4091   -0.4852 H   0  0  0  0  0  0  0  0  0  0  0  0
    1.0582    1.4088   -0.5195 H   0  0  0  0  0  0  0  0  0  0  0  0
    1.6071   -1.1301   -0.5622 H   0  0  0  0  0  0  0  0  0  0  0  0
    0.0263   -1.4346    0.1111 H   0  0  0  0  0  0  0  0  0  0  0  0
    3.2757    0.2622    0.8013 H   0  0  0  0  0  0  0  0  0  0  0  0
   -0.4507   -1.1626    2.4270 H   0  0  0  0  0  0  0  0  0  0  0  0
    4.1392    0.6027    3.0932 H   0  0  0  0  0  0  0  0  0  0  0  0
    0.4219   -0.8185    4.7146 H   0  0  0  0  0  0  0  0  0  0  0  0
    2.7162    0.0643    5.0529 H   0  0  0  0  0  0  0  0  0  0  0  0
   -1.0544    1.2428   -2.4643 N   0  0  0  0  0  0  0  0  0  0  0  0
   -1.6064    1.2150   -3.7997 C   0  0  2  0  0  0  0  0  0  0  0  0
   -0.4473    1.2115   -4.7877 C   0  0  0  0  0  0  0  0  0  0  0  0
    0.6764    1.6219   -4.5049 O   0  0  0  0  0  0  0  0  0  0  0  0
   -2.5250    2.4022   -4.0435 C   0  0  0  0  0  0  0  0  0  0  0  0
   -1.4082    1.9349   -1.8104 H   0  0  0  0  0  0  0  0  0  0  0  0
   -2.1673    0.2784   -3.8906 H   0  0  0  0  0  0  0  0  0  0  0  0
   -1.9806    3.3496   -3.9567 H   0  0  0  0  0  0  0  0  0  0  0  0
   -2.9647    2.3643   -5.0457 H   0  0  0  0  0  0  0  0  0  0  0  0
   -3.3413    2.4197   -3.3134 H   0  0  0  0  0  0  0  0  0  0  0  0
   -0.8265    0.7364   -6.0353 N   0  0  0  0  0  0  0  0  0  0  0  0
    0.0909    0.6468   -7.1473 C   0  0  0  0  0  0  0  0  0  0  0  0
   -1.7746    0.3995   -6.1748 H   0  0  0  0  0  0  0  0  0  0  0  0
    0.0347    1.5686   -7.7449 H   0  0  0  0  0  0  0  0  0  0  0  0
    1.1152    0.5178   -6.7678 H   0  0  0  0  0  0  0  0  0  0  0  0
   -0.1784   -0.2147   -7.7761 H   0  0  0  0  0  0  0  0  0  0  0  0
 25 27  1  0  0  0  0
 26 27  2  0  0  0  0
 23 25  2  0  0  0  0
 24 26  1  0  0  0  0
 22 23  1  0  0  0  0
 22 24  2  0  0  0  0
 21 22  1  0  0  0  0
  1  3  1  0  0  0  0
  1  7  1  0  0  0  0
  1  2  2  0  0  0  0
 38 39  1  0  0  0  0
 39 47  1  0  0  0  0
 39 40  2  0  0  0  0
  8  9  1  0  0  0  0
  9 17  1  0  0  0  0
  9 10  2  0  0  0  0
 18 19  1  0  0  0  0
 19 37  1  0  0  0  0
 19 20  2  0  0  0  0
 38 41  1  0  0  0  0
  8 11  1  0  0  0  0
 47 48  1  0  0  0  0
 18 21  1  0  0  0  0
 37 38  1  0  0  0  0
  7  8  1  0  0  0  0
 17 18  1  0  0  0  0
 27 36  1  0  0  0  0
 25 34  1  0  0  0  0
 26 35  1  0  0  0  0
 23 32  1  0  0  0  0
 24 33  1  0  0  0  0
  3  4  1  0  0  0  0
  3  5  1  0  0  0  0
  3  6  1  0  0  0  0
 41 44  1  0  0  0  0
 41 45  1  0  0  0  0
 41 46  1  0  0  0  0
 11 14  1  0  0  0  0
 11 15  1  0  0  0  0
 11 16  1  0  0  0  0
 48 50  1  0  0  0  0
 48 51  1  0  0  0  0
 48 52  1  0  0  0  0
 21 30  1  0  0  0  0
 21 31  1  0  0  0  0
 38 43  1  0  0  0  0
  8 13  1  0  0  0  0
 18 29  1  0  0  0  0
 47 49  1  0  0  0  0
  7 12  1  0  0  0  0
 37 42  1  0  0  0  0
 17 28  1  0  0  0  0
M  END
$$$$

  -OEChem-05262214473D

 52 52  0     1  0  0  0  0  0999 V2000
   -1.8248    0.3424    3.9102 C   0  0  0  0  0  0  0  0  0  0  0  0
   -0.8774   -0.2723    3.4345 O   0  0  0  0  0  0  0  0  0  0  0  0
   -2.2566    0.0600    5.3109 C   0  0  0  0  0  0  0  0  0  0  0  0
   -3.0163   -0.7363    5.3643 H   0  0  0  0  0  0  0  0  0  0  0  0
   -1.4254   -0.2876    5.9452 H   0  0  0  0  0  0  0  0  0  0  0  0
   -2.6947    0.9149    5.8505 H   0  0  0  0  0  0  0  0  0  0  0  0
   -2.5745    1.3149    3.2691 N   0  0  0  0  0  0  0  0  0  0  0  0
   -2.3276    1.7409    1.9167 C   0  0  2  0  0  0  0  0  0  0  0  0
   -0.9926    1.1555    1.4755 C   0  0  0  0  0  0  0  0  0  0  0  0
   -0.1206    0.8028    2.2668 O   0  0  0  0  0  0  0  0  0  0  0  0
   -2.3188    3.2577    1.8072 C   0  0  0  0  0  0  0  0  0  0  0  0
   -3.3395    1.7507    3.7809 H   0  0  0  0  0  0  0  0  0  0  0  0
   -3.1317    1.3224    1.3015 H   0  0  0  0  0  0  0  0  0  0  0  0
   -1.5198    3.6949    2.4169 H   0  0  0  0  0  0  0  0  0  0  0  0
   -2.1594    3.5799    0.7729 H   0  0  0  0  0  0  0  0  0  0  0  0
   -3.2690    3.6789    2.1530 H   0  0  0  0  0  0  0  0  0  0  0  0
   -0.8700    1.1124    0.0921 N   0  0  0  0  0  0  0  0  0  0  0  0
    0.3073    0.6116   -0.5716 C   0  0  2  0  0  0  0  0  0  0  0  0
   -0.0651    0.3713   -2.0303 C   0  0  0  0  0  0  0  0  0  0  0  0
    0.2170   -0.6632   -2.6312 O   0  0  0  0  0  0  0  0  0  0  0  0
    0.8252   -0.6826    0.0663 C   0  0  0  0  0  0  0  0  0  0  0  0
    1.3555   -0.4729    1.4637 C   0  0  0  0  0  0  0  0  0  0  0  0
    2.6452    0.0235    1.6537 C   0  0  0  0  0  0  0  0  0  0  0  0
    0.5553   -0.7755    2.5654 C   0  0  0  0  0  0  0  0  0  0  0  0
    3.1346    0.2172    2.9455 C   0  0  0  0  0  0  0  0  0  0  0  0
    1.0448   -0.5818    3.8571 C   0  0  0  0  0  0  0  0  0  0  0  0
    2.3344   -0.0853    4.0471 C   0  0  0  0  0  0  0  0  0  0  0  0
   -1.6531    1.4091   -0.4852 H   0  0  0  0  0  0  0  0  0  0  0  0
    1.0582    1.4088   -0.5195 H   0  0  0  0  0  0  0  0  0  0  0  0
    1.6071   -1.1301   -0.5622 H   0  0  0  0  0  0  0  0  0  0  0  0
    0.0263   -1.4346    0.1111 H   0  0  0  0  0  0  0  0  0  0  0  0
    3.2757    0.2622    0.8013 H   0  0  0  0  0  0  0  0  0  0  0  0
   -0.4507   -1.1626    2.4270 H   0  0  0  0  0  0  0  0  0  0  0  0
    4.1392    0.6027    3.0932 H   0  0  0  0  0  0  0  0  0  0  0  0
    0.4219   -0.8185    4.7146 H   0  0  0  0  0  0  0  0  0  0  0  0
    2.7162    0.0643    5.0529 H   0  0  0  0  0  0  0  0  0  0  0  0
   -0.7915    1.4278   -2.5619 N   0  0  0  0  0  0  0  0  0  0  0  0
   -1.2889    1.4456   -3.9187 C   0  0  2  0  0  0  0  0  0  0  0  0
   -0.1354    1.0893   -4.8472 C   0  0  0  0  0  0  0  0  0  0  0  0
    1.0452    1.2286   -4.5343 O   0  0  0  0  0  0  0  0  0  0  0  0
   -1.8745    2.8030   -4.2756 C   0  0  0  0  0  0  0  0  0  0  0  0
   -0.9831    2.2288   -1.9674 H   0  0  0  0  0  0  0  0  0  0  0  0
   -2.0620    0.6722   -3.9823 H   0  0  0  0  0  0  0  0  0  0  0  0
   -1.1145    3.5908   -4.2175 H   0  0  0  0  0  0  0  0  0  0  0  0
   -2.2766    2.8062   -5.2941 H   0  0  0  0  0  0  0  0  0  0  0  0
   -2.6842    3.0710   -3.5884 H   0  0  0  0  0  0  0  0  0  0  0  0
   -0.5798    0.6381   -6.0821 N   0  0  0  0  0  0  0  0  0  0  0  0
    0.3224    0.2494   -7.1409 C   0  0  0  0  0  0  0  0  0  0  0  0
   -1.5767    0.5364   -6.2478 H   0  0  0  0  0  0  0  0  0  0  0  0
    0.5172    1.1136   -7.7931 H   0  0  0  0  0  0  0  0  0  0  0  0
    1.2694   -0.1017   -6.7051 H   0  0  0  0  0  0  0  0  0  0  0  0
   -0.1321   -0.5601   -7.7310 H   0  0  0  0  0  0  0  0  0  0  0  0
 25 27  1  0  0  0  0
 26 27  2  0  0  0  0
 23 25  2  0  0  0  0
 24 26  1  0  0  0  0
 22 23  1  0  0  0  0
 22 24  2  0  0  0  0
 21 22  1  0  0  0  0
  1  3  1  0  0  0  0
  1  7  1  0  0  0  0
  1  2  2  0  0  0  0
 38 39  1  0  0  0  0
 39 47  1  0  0  0  0
 39 40  2  0  0  0  0
  8  9  1  0  0  0  0
  9 17  1  0  0  0  0
  9 10  2  0  0  0  0
 18 19  1  0  0  0  0
 19 37  1  0  0  0  0
 19 20  2  0  0  0  0
 38 41  1  0  0  0  0
  8 11  1  0  0  0  0
 47 48  1  0  0  0  0
 18 21  1  0  0  0  0
 37 38  1  0  0  0  0
  7  8  1  0  0  0  0
 17 18  1  0  0  0  0
 27 36  1  0  0  0  0
 25 34  1  0  0  0  0
 26 35  1  0  0  0  0
 23 32  1  0  0  0  0
 24 33  1  0  0  0  0
  3  4  1  0  0  0  0
  3  5  1  0  0  0  0
  3  6  1  0  0  0  0
 41 44  1  0  0  0  0
 41 45  1  0  0  0  0
 41 46  1  0  0  0  0
 11 14  1  0  0  0  0
 11 15  1  0  0  0  0
 11 16  1  0  0  0  0
 48 50  1  0  0  0  0
 48 51  1  0  0  0  0
 48 52  1  0  0  0  0
 21 30  1  0  0  0  0
 21 31  1  0  0  0  0
 38 43  1  0  0  0  0
  8 13  1  0  0  0  0
 18 29  1  0  0  0  0
 47 49  1  0  0  0  0
  7 12  1  0  0  0  0
 37 42  1  0  0  0  0
 17 28  1  0  0  0  0
M  END
$$$$

  -OEChem-05262214473D

 52 52  0     1  0  0  0  0  0999 V2000
   -1.8248    0.3424    3.9102 C   0  0  0  0  0  0  0  0  0  0  0  0
   -0.8774   -0.2723    3.4345 O   0  0  0  0  0  0  0  0  0  0  0  0
   -2.2566    0.0600    5.3109 C   0  0  0  0  0  0  0  0  0  0  0  0
   -3.0163   -0.7363    5.3643 H   0  0  0  0  0  0  0  0  0  0  0  0
   -1.4254   -0.2876    5.9452 H   0  0  0  0  0  0  0  0  0  0  0  0
   -2.6947    0.9149    5.8505 H   0  0  0  0  0  0  0  0  0  0  0  0
   -2.5745    1.3149    3.2691 N   0  0  0  0  0  0  0  0  0  0  0  0
   -2.3276    1.7409    1.9167 C   0  0  2  0  0  0  0  0  0  0  0  0
   -0.9926    1.1555    1.4755 C   0  0  0  0  0  0  0  0  0  0  0  0
   -0.1206    0.8028    2.2668 O   0  0  0  0  0  0  0  0  0  0  0  0
   -2.3188    3.2577    1.8072 C   0  0  0  0  0  0  0  0  0  0  0  0
   -3.3395    1.7507    3.7809 H   0  0  0  0  0  0  0  0  0  0  0  0
   -3.1317    1.3224    1.3015 H   0  0  0  0  0  0  0  0  0  0  0  0
   -1.5198    3.6949    2.4169 H   0  0  0  0  0  0  0  0  0  0  0  0
   -2.1594    3.5799    0.7729 H   0  0  0  0  0  0  0  0  0  0  0  0
   -3.2690    3.6789    2.1530 H   0  0  0  0  0  0  0  0  0  0  0  0
   -0.8700    1.1124    0.0921 N   0  0  0  0  0  0  0  0  0  0  0  0
    0.3073    0.6116   -0.5716 C   0  0  2  0  0  0  0  0  0  0  0  0
   -0.0651    0.3713   -2.0303 C   0  0  0  0  0  0  0  0  0  0  0  0
   -0.0299   -0.7394   -2.5556 O   0  0  0  0  0  0  0  0  0  0  0  0
    0.8252   -0.6826    0.0663 C   0  0  0  0  0  0  0  0  0  0  0  0
    1.3555   -0.4729    1.4637 C   0  0  0  0  0  0  0  0  0  0  0  0
    2.6452    0.0235    1.6537 C   0  0  0  0  0  0  0  0  0  0  0  0
    0.5553   -0.7755    2.5654 C   0  0  0  0  0  0  0  0  0  0  0  0
    3.1346    0.2172    2.9455 C   0  0  0  0  0  0  0  0  0  0  0  0
    1.0448   -0.5818    3.8571 C   0  0  0  0  0  0  0  0  0  0  0  0
    2.3344   -0.0853    4.0471 C   0  0  0  0  0  0  0  0  0  0  0  0
   -1.6531    1.4091   -0.4852 H   0  0  0  0  0  0  0  0  0  0  0  0
    1.0582    1.4088   -0.5195 H   0  0  0  0  0  0  0  0  0  0  0  0
    1.6071   -1.1301   -0.5622 H   0  0  0  0  0  0  0  0  0  0  0  0
    0.0263   -1.4346    0.1111 H   0  0  0  0  0  0  0  0  0  0  0  0
    3.2757    0.2622    0.8013 H   0  0  0  0  0  0  0  0  0  0  0  0
   -0.4507   -1.1626    2.4270 H   0  0  0  0  0  0  0  0  0  0  0  0
    4.1392    0.6027    3.0932 H   0  0  0  0  0  0  0  0  0  0  0  0
    0.4219   -0.8185    4.7146 H   0  0  0  0  0  0  0  0  0  0  0  0
    2.7162    0.0643    5.0529 H   0  0  0  0  0  0  0  0  0  0  0  0
   -0.4877    1.5353   -2.6571 N   0  0  0  0  0  0  0  0  0  0  0  0
   -0.9202    1.5823   -4.0354 C   0  0  2  0  0  0  0  0  0  0  0  0
    0.1381    0.8902   -4.8842 C   0  0  0  0  0  0  0  0  0  0  0  0
    1.3052    0.7554   -4.5227 O   0  0  0  0  0  0  0  0  0  0  0  0
   -1.1374    3.0144   -4.4986 C   0  0  0  0  0  0  0  0  0  0  0  0
   -0.4933    2.3976   -2.1202 H   0  0  0  0  0  0  0  0  0  0  0  0
   -1.8590    1.0206   -4.0916 H   0  0  0  0  0  0  0  0  0  0  0  0
   -0.2076    3.5928   -4.4494 H   0  0  0  0  0  0  0  0  0  0  0  0
   -1.4924    3.0470   -5.5340 H   0  0  0  0  0  0  0  0  0  0  0  0
   -1.8771    3.5199   -3.8684 H   0  0  0  0  0  0  0  0  0  0  0  0
   -0.3638    0.4790   -6.1111 N   0  0  0  0  0  0  0  0  0  0  0  0
    0.4474   -0.1914   -7.1002 C   0  0  0  0  0  0  0  0  0  0  0  0
   -1.3488    0.6150   -6.3189 H   0  0  0  0  0  0  0  0  0  0  0  0
    0.8725    0.5515   -7.7912 H   0  0  0  0  0  0  0  0  0  0  0  0
    1.2623   -0.7343   -6.5991 H   0  0  0  0  0  0  0  0  0  0  0  0
   -0.1747   -0.9023   -7.6638 H   0  0  0  0  0  0  0  0  0  0  0  0
 25 27  1  0  0  0  0
 26 27  2  0  0  0  0
 23 25  2  0  0  0  0
 24 26  1  0  0  0  0
 22 23  1  0  0  0  0
 22 24  2  0  0  0  0
 21 22  1  0  0  0  0
  1  3  1  0  0  0  0
  1  7  1  0  0  0  0
  1  2  2  0  0  0  0
 38 39  1  0  0  0  0
 39 47  1  0  0  0  0
 39 40  2  0  0  0  0
  8  9  1  0  0  0  0
  9 17  1  0  0  0  0
  9 10  2  0  0  0  0
 18 19  1  0  0  0  0
 19 37  1  0  0  0  0
 19 20  2  0  0  0  0
 38 41  1  0  0  0  0
  8 11  1  0  0  0  0
 47 48  1  0  0  0  0
 18 21  1  0  0  0  0
 37 38  1  0  0  0  0
  7  8  1  0  0  0  0
 17 18  1  0  0  0  0
 27 36  1  0  0  0  0
 25 34  1  0  0  0  0
 26 35  1  0  0  0  0
 23 32  1  0  0  0  0
 24 33  1  0  0  0  0
  3  4  1  0  0  0  0
  3  5  1  0  0  0  0
  3  6  1  0  0  0  0
 41 44  1  0  0  0  0
 41 45  1  0  0  0  0
 41 46  1  0  0  0  0
 11 14  1  0  0  0  0
 11 15  1  0  0  0  0
 11 16  1  0  0  0  0
 48 50  1  0  0  0  0
 48 51  1  0  0  0  0
 48 52  1  0  0  0  0
 21 30  1  0  0  0  0
 21 31  1  0  0  0  0
 38 43  1  0  0  0  0
  8 13  1  0  0  0  0
 18 29  1  0  0  0  0
 47 49  1  0  0  0  0
  7 12  1  0  0  0  0
 37 42  1  0  0  0  0
 17 28  1  0  0  0  0
M  END
$$$$

  -OEChem-05262214473D

 52 52  0     1  0  0  0  0  0999 V2000
   -1.8248    0.3424    3.9102 C   0  0  0  0  0  0  0  0  0  0  0  0
   -0.8774   -0.2723    3.4345 O   0  0  0  0  0  0  0  0  0  0  0  0
   -2.2566    0.0600    5.3109 C   0  0  0  0  0  0  0  0  0  0  0  0
   -3.0163   -0.7363    5.3643 H   0  0  0  0  0  0  0  0  0  0  0  0
   -1.4254   -0.2876    5.9452 H   0  0  0  0  0  0  0  0  0  0  0  0
   -2.6947    0.9149    5.8505 H   0  0  0  0  0  0  0  0  0  0  0  0
   -2.5745    1.3149    3.2691 N   0  0  0  0  0  0  0  0  0  0  0  0
   -2.3276    1.7409    1.9167 C   0  0  2  0  0  0  0  0  0  0  0  0
   -0.9926    1.1555    1.4755 C   0  0  0  0  0  0  0  0  0  0  0  0
   -0.1206    0.8028    2.2668 O   0  0  0  0  0  0  0  0  0  0  0  0
   -2.3188    3.2577    1.8072 C   0  0  0  0  0  0  0  0  0  0  0  0
   -3.3395    1.7507    3.7809 H   0  0  0  0  0  0  0  0  0  0  0  0
   -3.1317    1.3224    1.3015 H   0  0  0  0  0  0  0  0  0  0  0  0
   -1.5198    3.6949    2.4169 H   0  0  0  0  0  0  0  0  0  0  0  0
   -2.1594    3.5799    0.7729 H   0  0  0  0  0  0  0  0  0  0  0  0
   -3.2690    3.6789    2.1530 H   0  0  0  0  0  0  0  0  0  0  0  0
   -0.8700    1.1124    0.0921 N   0  0  0  0  0  0  0  0  0  0  0  0
    0.3073    0.6116   -0.5716 C   0  0  2  0  0  0  0  0  0  0  0  0
   -0.0651    0.3713   -2.0303 C   0  0  0  0  0  0  0  0  0  0  0  0
   -0.2903   -0.7470   -2.4879 O   0  0  0  0  0  0  0  0  0  0  0  0
    0.8252   -0.6826    0.0663 C   0  0  0  0  0  0  0  0  0  0  0  0
    1.3555   -0.4729    1.4637 C   0  0  0  0  0  0  0  0  0  0  0  0
    2.6452    0.0235    1.6537 C   0  0  0  0  0  0  0  0  0  0  0  0
    0.5553   -0.7755    2.5654 C   0  0  0  0  0  0  0  0  0  0  0  0
    3.1346    0.2172    2.9455 C   0  0  0  0  0  0  0  0  0  0  0  0
    1.0448   -0.5818    3.8571 C   0  0  0  0  0  0  0  0  0  0  0  0
    2.3344   -0.0853    4.0471 C   0  0  0  0  0  0  0  0  0  0  0  0
   -1.6531    1.4091   -0.4852 H   0  0  0  0  0  0  0  0  0  0  0  0
    1.0582    1.4088   -0.5195 H   0  0  0  0  0  0  0  0  0  0  0  0
    1.6071   -1.1301   -0.5622 H   0  0  0  0  0  0  0  0  0  0  0  0
    0.0263   -1.4346    0.1111 H   0  0  0  0  0  0  0  0  0  0  0  0
    3.2757    0.2622    0.8013 H   0  0  0  0  0  0  0  0  0  0  0  0
   -0.4507   -1.1626    2.4270 H   0  0  0  0  0  0  0  0  0  0  0  0
    4.1392    0.6027    3.0932 H   0  0  0  0  0  0  0  0  0  0  0  0
    0.4219   -0.8185    4.7146 H   0  0  0  0  0  0  0  0  0  0  0  0
    2.7162    0.0643    5.0529 H   0  0  0  0  0  0  0  0  0  0  0  0
   -0.1638    1.5579   -2.7435 N   0  0  0  0  0  0  0  0  0  0  0  0
   -0.5255    1.6157   -4.1416 C   0  0  2  0  0  0  0  0  0  0  0  0
    0.3544    0.6278   -4.8962 C   0  0  0  0  0  0  0  0  0  0  0  0
    1.4387    0.2347   -4.4710 O   0  0  0  0  0  0  0  0  0  0  0  0
   -0.3640    3.0220   -4.6973 C   0  0  0  0  0  0  0  0  0  0  0  0
    0.0278    2.4296   -2.2585 H   0  0  0  0  0  0  0  0  0  0  0  0
   -1.5722    1.3001   -4.2108 H   0  0  0  0  0  0  0  0  0  0  0  0
    0.6784    3.3555   -4.6364 H   0  0  0  0  0  0  0  0  0  0  0  0
   -0.6655    3.0702   -5.7489 H   0  0  0  0  0  0  0  0  0  0  0  0
   -0.9748    3.7360   -4.1344 H   0  0  0  0  0  0  0  0  0  0  0  0
   -0.1935    0.2701   -6.1201 N   0  0  0  0  0  0  0  0  0  0  0  0
    0.4573   -0.6455   -7.0280 C   0  0  0  0  0  0  0  0  0  0  0  0
   -1.1062    0.6299   -6.3833 H   0  0  0  0  0  0  0  0  0  0  0  0
    1.0764   -0.0792   -7.7394 H   0  0  0  0  0  0  0  0  0  0  0  0
    1.0945   -1.3369   -6.4570 H   0  0  0  0  0  0  0  0  0  0  0  0
   -0.3033   -1.2181   -7.5789 H   0  0  0  0  0  0  0  0  0  0  0  0
 25 27  1  0  0  0  0
 26 27  2  0  0  0  0
 23 25  2  0  0  0  0
 24 26  1  0  0  0  0
 22 23  1  0  0  0  0
 22 24  2  0  0  0  0
 21 22  1  0  0  0  0
  1  3  1  0  0  0  0
  1  7  1  0  0  0  0
  1  2  2  0  0  0  0
 38 39  1  0  0  0  0
 39 47  1  0  0  0  0
 39 40  2  0  0  0  0
  8  9  1  0  0  0  0
  9 17  1  0  0  0  0
  9 10  2  0  0  0  0
 18 19  1  0  0  0  0
 19 37  1  0  0  0  0
 19 20  2  0  0  0  0
 38 41  1  0  0  0  0
  8 11  1  0  0  0  0
 47 48  1  0  0  0  0
 18 21  1  0  0  0  0
 37 38  1  0  0  0  0
  7  8  1  0  0  0  0
 17 18  1  0  0  0  0
 27 36  1  0  0  0  0
 25 34  1  0  0  0  0
 26 35  1  0  0  0  0
 23 32  1  0  0  0  0
 24 33  1  0  0  0  0
  3  4  1  0  0  0  0
  3  5  1  0  0  0  0
  3  6  1  0  0  0  0
 41 44  1  0  0  0  0
 41 45  1  0  0  0  0
 41 46  1  0  0  0  0
 11 14  1  0  0  0  0
 11 15  1  0  0  0  0
 11 16  1  0  0  0  0
 48 50  1  0  0  0  0
 48 51  1  0  0  0  0
 48 52  1  0  0  0  0
 21 30  1  0  0  0  0
 21 31  1  0  0  0  0
 38 43  1  0  0  0  0
  8 13  1  0  0  0  0
 18 29  1  0  0  0  0
 47 49  1  0  0  0  0
  7 12  1  0  0  0  0
 37 42  1  0  0  0  0
 17 28  1  0  0  0  0
M  END
$$$$

  -OEChem-05262214473D

 52 52  0     1  0  0  0  0  0999 V2000
   -1.8248    0.3424    3.9102 C   0  0  0  0  0  0  0  0  0  0  0  0
   -0.8774   -0.2723    3.4345 O   0  0  0  0  0  0  0  0  0  0  0  0
   -2.2566    0.0600    5.3109 C   0  0  0  0  0  0  0  0  0  0  0  0
   -3.0163   -0.7363    5.3643 H   0  0  0  0  0  0  0  0  0  0  0  0
   -1.4254   -0.2876    5.9452 H   0  0  0  0  0  0  0  0  0  0  0  0
   -2.6947    0.9149    5.8505 H   0  0  0  0  0  0  0  0  0  0  0  0
   -2.5745    1.3149    3.2691 N   0  0  0  0  0  0  0  0  0  0  0  0
   -2.3276    1.7409    1.9167 C   0  0  2  0  0  0  0  0  0  0  0  0
   -0.9926    1.1555    1.4755 C   0  0  0  0  0  0  0  0  0  0  0  0
   -0.1206    0.8028    2.2668 O   0  0  0  0  0  0  0  0  0  0  0  0
   -2.3188    3.2577    1.8072 C   0  0  0  0  0  0  0  0  0  0  0  0
   -3.3395    1.7507    3.7809 H   0  0  0  0  0  0  0  0  0  0  0  0
   -3.1317    1.3224    1.3015 H   0  0  0  0  0  0  0  0  0  0  0  0
   -1.5198    3.6949    2.4169 H   0  0  0  0  0  0  0  0  0  0  0  0
   -2.1594    3.5799    0.7729 H   0  0  0  0  0  0  0  0  0  0  0  0
   -3.2690    3.6789    2.1530 H   0  0  0  0  0  0  0  0  0  0  0  0
   -0.8700    1.1124    0.0921 N   0  0  0  0  0  0  0  0  0  0  0  0
    0.3073    0.6116   -0.5716 C   0  0  2  0  0  0  0  0  0  0  0  0
   -0.0651    0.3713   -2.0303 C   0  0  0  0  0  0  0  0  0  0  0  0
   -0.5464   -0.6857   -2.4326 O   0  0  0  0  0  0  0  0  0  0  0  0
    0.8252   -0.6826    0.0663 C   0  0  0  0  0  0  0  0  0  0  0  0
    1.3555   -0.4729    1.4637 C   0  0  0  0  0  0  0  0  0  0  0  0
    2.6452    0.0235    1.6537 C   0  0  0  0  0  0  0  0  0  0  0  0
    0.5553   -0.7755    2.5654 C   0  0  0  0  0  0  0  0  0  0  0  0
    3.1346    0.2172    2.9455 C   0  0  0  0  0  0  0  0  0  0  0  0
    1.0448   -0.5818    3.8571 C   0  0  0  0  0  0  0  0  0  0  0  0
    2.3344   -0.0853    4.0471 C   0  0  0  0  0  0  0  0  0  0  0  0
   -1.6531    1.4091   -0.4852 H   0  0  0  0  0  0  0  0  0  0  0  0
    1.0582    1.4088   -0.5195 H   0  0  0  0  0  0  0  0  0  0  0  0
    1.6071   -1.1301   -0.5622 H   0  0  0  0  0  0  0  0  0  0  0  0
    0.0263   -1.4346    0.1111 H   0  0  0  0  0  0  0  0  0  0  0  0
    3.2757    0.2622    0.8013 H   0  0  0  0  0  0  0  0  0  0  0  0
   -0.4507   -1.1626    2.4270 H   0  0  0  0  0  0  0  0  0  0  0  0
    4.1392    0.6027    3.0932 H   0  0  0  0  0  0  0  0  0  0  0  0
    0.4219   -0.8185    4.7146 H   0  0  0  0  0  0  0  0  0  0  0  0
    2.7162    0.0643    5.0529 H   0  0  0  0  0  0  0  0  0  0  0  0
    0.1582    1.4940   -2.8152 N   0  0  0  0  0  0  0  0  0  0  0  0
   -0.1317    1.5434   -4.2303 C   0  0  2  0  0  0  0  0  0  0  0  0
    0.4989    0.3201   -4.8824 C   0  0  0  0  0  0  0  0  0  0  0  0
    1.4367   -0.2980   -4.3828 O   0  0  0  0  0  0  0  0  0  0  0  0
    0.3930    2.8253   -4.8582 C   0  0  0  0  0  0  0  0  0  0  0  0
    0.5447    2.3227   -2.3729 H   0  0  0  0  0  0  0  0  0  0  0  0
   -1.2212    1.4914   -4.3319 H   0  0  0  0  0  0  0  0  0  0  0  0
    1.4830    2.8951   -4.7660 H   0  0  0  0  0  0  0  0  0  0  0  0
    0.1477    2.8742   -5.9242 H   0  0  0  0  0  0  0  0  0  0  0  0
   -0.0389    3.7045   -4.3681 H   0  0  0  0  0  0  0  0  0  0  0  0
   -0.0803    0.0255   -6.1087 N   0  0  0  0  0  0  0  0  0  0  0  0
    0.3515   -1.0820   -6.9290 C   0  0  0  0  0  0  0  0  0  0  0  0
   -0.8656    0.5802   -6.4366 H   0  0  0  0  0  0  0  0  0  0  0  0
    1.1151   -0.7357   -7.6411 H   0  0  0  0  0  0  0  0  0  0  0  0
    0.7774   -1.8683   -6.2885 H   0  0  0  0  0  0  0  0  0  0  0  0
   -0.5092   -1.4859   -7.4822 H   0  0  0  0  0  0  0  0  0  0  0  0
 25 27  1  0  0  0  0
 26 27  2  0  0  0  0
 23 25  2  0  0  0  0
 24 26  1  0  0  0  0
 22 23  1  0  0  0  0
 22 24  2  0  0  0  0
 21 22  1  0  0  0  0
  1  3  1  0  0  0  0
  1  7  1  0  0  0  0
  1  2  2  0  0  0  0
 38 39  1  0  0  0  0
 39 47  1  0  0  0  0
 39 40  2  0  0  0  0
  8  9  1  0  0  0  0
  9 17  1  0  0  0  0
  9 10  2  0  0  0  0
 18 19  1  0  0  0  0
 19 37  1  0  0  0  0
 19 20  2  0  0  0  0
 38 41  1  0  0  0  0
  8 11  1  0  0  0  0
 47 48  1  0  0  0  0
 18 21  1  0  0  0  0
 37 38  1  0  0  0  0
  7  8  1  0  0  0  0
 17 18  1  0  0  0  0
 27 36  1  0  0  0  0
 25 34  1  0  0  0  0
 26 35  1  0  0  0  0
 23 32  1  0  0  0  0
 24 33  1  0  0  0  0
  3  4  1  0  0  0  0
  3  5  1  0  0  0  0
  3  6  1  0  0  0  0
 41 44  1  0  0  0  0
 41 45  1  0  0  0  0
 41 46  1  0  0  0  0
 11 14  1  0  0  0  0
 11 15  1  0  0  0  0
 11 16  1  0  0  0  0
 48 50  1  0  0  0  0
 48 51  1  0  0  0  0
 48 52  1  0  0  0  0
 21 30  1  0  0  0  0
 21 31  1  0  0  0  0
 38 43  1  0  0  0  0
  8 13  1  0  0  0  0
 18 29  1  0  0  0  0
 47 49  1  0  0  0  0
  7 12  1  0  0  0  0
 37 42  1  0  0  0  0
 17 28  1  0  0  0  0
M  END
$$$$

  -OEChem-05262214473D

 52 52  0     1  0  0  0  0  0999 V2000
   -1.8248    0.3424    3.9102 C   0  0  0  0  0  0  0  0  0  0  0  0
   -0.8774   -0.2723    3.4345 O   0  0  0  0  0  0  0  0  0  0  0  0
   -2.2566    0.0600    5.3109 C   0  0  0  0  0  0  0  0  0  0  0  0
   -3.0163   -0.7363    5.3643 H   0  0  0  0  0  0  0  0  0  0  0  0
   -1.4254   -0.2876    5.9452 H   0  0  0  0  0  0  0  0  0  0  0  0
   -2.6947    0.9149    5.8505 H   0  0  0  0  0  0  0  0  0  0  0  0
   -2.5745    1.3149    3.2691 N   0  0  0  0  0  0  0  0  0  0  0  0
   -2.3276    1.7409    1.9167 C   0  0  2  0  0  0  0  0  0  0  0  0
   -0.9926    1.1555    1.4755 C   0  0  0  0  0  0  0  0  0  0  0  0
   -0.1206    0.8028    2.2668 O   0  0  0  0  0  0  0  0  0  0  0  0
   -2.3188    3.2577    1.8072 C   0  0  0  0  0  0  0  0  0  0  0  0
   -3.3395    1.7507    3.7809 H   0  0  0  0  0  0  0  0  0  0  0  0
   -3.1317    1.3224    1.3015 H   0  0  0  0  0  0  0  0  0  0  0  0
   -1.5198    3.6949    2.4169 H   0  0  0  0  0  0  0  0  0  0  0  0
   -2.1594    3.5799    0.7729 H   0  0  0  0  0  0  0  0  0  0  0  0
   -3.2690    3.6789    2.1530 H   0  0  0  0  0  0  0  0  0  0  0  0
   -0.8700    1.1124    0.0921 N   0  0  0  0  0  0  0  0  0  0  0  0
    0.3073    0.6116   -0.5716 C   0  0  2  0  0  0  0  0  0  0  0  0
   -0.0651    0.3713   -2.0303 C   0  0  0  0  0  0  0  0  0  0  0  0
   -0.7810   -0.5595   -2.3935 O   0  0  0  0  0  0  0  0  0  0  0  0
    0.8252   -0.6826    0.0663 C   0  0  0  0  0  0  0  0  0  0  0  0
    1.3555   -0.4729    1.4637 C   0  0  0  0  0  0  0  0  0  0  0  0
    2.6452    0.0235    1.6537 C   0  0  0  0  0  0  0  0  0  0  0  0
    0.5553   -0.7755    2.5654 C   0  0  0  0  0  0  0  0  0  0  0  0
    3.1346    0.2172    2.9455 C   0  0  0  0  0  0  0  0  0  0  0  0
    1.0448   -0.5818    3.8571 C   0  0  0  0  0  0  0  0  0  0  0  0
    2.3344   -0.0853    4.0471 C   0  0  0  0  0  0  0  0  0  0  0  0
   -1.6531    1.4091   -0.4852 H   0  0  0  0  0  0  0  0  0  0  0  0
    1.0582    1.4088   -0.5195 H   0  0  0  0  0  0  0  0  0  0  0  0
    1.6071   -1.1301   -0.5622 H   0  0  0  0  0  0  0  0  0  0  0  0
    0.0263   -1.4346    0.1111 H   0  0  0  0  0  0  0  0  0  0  0  0
    3.2757    0.2622    0.8013 H   0  0  0  0  0  0  0  0  0  0  0  0
   -0.4507   -1.1626    2.4270 H   0  0  0  0  0  0  0  0  0  0  0  0
    4.1392    0.6027    3.0932 H   0  0  0  0  0  0  0  0  0  0  0  0
    0.4219   -0.8185    4.7146 H   0  0  0  0  0  0  0  0  0  0  0  0
    2.7162    0.0643    5.0529 H   0  0  0  0  0  0  0  0  0  0  0  0
    0.4563    1.3481   -2.8673 N   0  0  0  0  0  0  0  0  0  0  0  0
    0.2345    1.3705   -4.2953 C   0  0  2  0  0  0  0  0  0  0  0  0
    0.5617   -0.0121   -4.8437 C   0  0  0  0  0  0  0  0  0  0  0  0
    1.2991   -0.8065   -4.2639 O   0  0  0  0  0  0  0  0  0  0  0  0
    1.0821    2.4376   -4.9702 C   0  0  0  0  0  0  0  0  0  0  0  0
    1.0222    2.0843   -2.4555 H   0  0  0  0  0  0  0  0  0  0  0  0
   -0.8297    1.5816   -4.4467 H   0  0  0  0  0  0  0  0  0  0  0  0
    2.1515    2.2429   -4.8293 H   0  0  0  0  0  0  0  0  0  0  0  0
    0.8918    2.4725   -6.0480 H   0  0  0  0  0  0  0  0  0  0  0  0
    0.8668    3.4275   -4.5537 H   0  0  0  0  0  0  0  0  0  0  0  0
   -0.0321   -0.2381   -6.0777 N   0  0  0  0  0  0  0  0  0  0  0  0
    0.1372   -1.4712   -6.8102 C   0  0  0  0  0  0  0  0  0  0  0  0
   -0.6433    0.4692   -6.4750 H   0  0  0  0  0  0  0  0  0  0  0  0
    0.9859   -1.3732   -7.5031 H   0  0  0  0  0  0  0  0  0  0  0  0
    0.3327   -2.2926   -6.1051 H   0  0  0  0  0  0  0  0  0  0  0  0
   -0.7784   -1.6875   -7.3803 H   0  0  0  0  0  0  0  0  0  0  0  0
 25 27  1  0  0  0  0
 26 27  2  0  0  0  0
 23 25  2  0  0  0  0
 24 26  1  0  0  0  0
 22 23  1  0  0  0  0
 22 24  2  0  0  0  0
 21 22  1  0  0  0  0
  1  3  1  0  0  0  0
  1  7  1  0  0  0  0
  1  2  2  0  0  0  0
 38 39  1  0  0  0  0
 39 47  1  0  0  0  0
 39 40  2  0  0  0  0
  8  9  1  0  0  0  0
  9 17  1  0  0  0  0
  9 10  2  0  0  0  0
 18 19  1  0  0  0  0
 19 37  1  0  0  0  0
 19 20  2  0  0  0  0
 38 41  1  0  0  0  0
  8 11  1  0  0  0  0
 47 48  1  0  0  0  0
 18 21  1  0  0  0  0
 37 38  1  0  0  0  0
  7  8  1  0  0  0  0
 17 18  1  0  0  0  0
 27 36  1  0  0  0  0
 25 34  1  0  0  0  0
 26 35  1  0  0  0  0
 23 32  1  0  0  0  0
 24 33  1  0  0  0  0
  3  4  1  0  0  0  0
  3  5  1  0  0  0  0
  3  6  1  0  0  0  0
 41 44  1  0  0  0  0
 41 45  1  0  0  0  0
 41 46  1  0  0  0  0
 11 14  1  0  0  0  0
 11 15  1  0  0  0  0
 11 16  1  0  0  0  0
 48 50  1  0  0  0  0
 48 51  1  0  0  0  0
 48 52  1  0  0  0  0
 21 30  1  0  0  0  0
 21 31  1  0  0  0  0
 38 43  1  0  0  0  0
  8 13  1  0  0  0  0
 18 29  1  0  0  0  0
 47 49  1  0  0  0  0
  7 12  1  0  0  0  0
 37 42  1  0  0  0  0
 17 28  1  0  0  0  0
M  END
$$$$

  -OEChem-05262214473D

 52 52  0     1  0  0  0  0  0999 V2000
   -1.8248    0.3424    3.9102 C   0  0  0  0  0  0  0  0  0  0  0  0
   -0.8774   -0.2723    3.4345 O   0  0  0  0  0  0  0  0  0  0  0  0
   -2.2566    0.0600    5.3109 C   0  0  0  0  0  0  0  0  0  0  0  0
   -3.0163   -0.7363    5.3643 H   0  0  0  0  0  0  0  0  0  0  0  0
   -1.4254   -0.2876    5.9452 H   0  0  0  0  0  0  0  0  0  0  0  0
   -2.6947    0.9149    5.8505 H   0  0  0  0  0  0  0  0  0  0  0  0
   -2.5745    1.3149    3.2691 N   0  0  0  0  0  0  0  0  0  0  0  0
   -2.3276    1.7409    1.9167 C   0  0  2  0  0  0  0  0  0  0  0  0
   -0.9926    1.1555    1.4755 C   0  0  0  0  0  0  0  0  0  0  0  0
   -0.1206    0.8028    2.2668 O   0  0  0  0  0  0  0  0  0  0  0  0
   -2.3188    3.2577    1.8072 C   0  0  0  0  0  0  0  0  0  0  0  0
   -3.3395    1.7507    3.7809 H   0  0  0  0  0  0  0  0  0  0  0  0
   -3.1317    1.3224    1.3015 H   0  0  0  0  0  0  0  0  0  0  0  0
   -1.5198    3.6949    2.4169 H   0  0  0  0  0  0  0  0  0  0  0  0
   -2.1594    3.5799    0.7729 H   0  0  0  0  0  0  0  0  0  0  0  0
   -3.2690    3.6789    2.1530 H   0  0  0  0  0  0  0  0  0  0  0  0
   -0.8700    1.1124    0.0921 N   0  0  0  0  0  0  0  0  0  0  0  0
    0.3073    0.6116   -0.5716 C   0  0  2  0  0  0  0  0  0  0  0  0
   -0.0651    0.3713   -2.0303 C   0  0  0  0  0  0  0  0  0  0  0  0
   -0.9778   -0.3770   -2.3733 O   0  0  0  0  0  0  0  0  0  0  0  0
    0.8252   -0.6826    0.0663 C   0  0  0  0  0  0  0  0  0  0  0  0
    1.3555   -0.4729    1.4637 C   0  0  0  0  0  0  0  0  0  0  0  0
    2.6452    0.0235    1.6537 C   0  0  0  0  0  0  0  0  0  0  0  0
    0.5553   -0.7755    2.5654 C   0  0  0  0  0  0  0  0  0  0  0  0
    3.1346    0.2172    2.9455 C   0  0  0  0  0  0  0  0  0  0  0  0
    1.0448   -0.5818    3.8571 C   0  0  0  0  0  0  0  0  0  0  0  0
    2.3344   -0.0853    4.0471 C   0  0  0  0  0  0  0  0  0  0  0  0
   -1.6531    1.4091   -0.4852 H   0  0  0  0  0  0  0  0  0  0  0  0
    1.0582    1.4088   -0.5195 H   0  0  0  0  0  0  0  0  0  0  0  0
    1.6071   -1.1301   -0.5622 H   0  0  0  0  0  0  0  0  0  0  0  0
    0.0263   -1.4346    0.1111 H   0  0  0  0  0  0  0  0  0  0  0  0
    3.2757    0.2622    0.8013 H   0  0  0  0  0  0  0  0  0  0  0  0
   -0.4507   -1.1626    2.4270 H   0  0  0  0  0  0  0  0  0  0  0  0
    4.1392    0.6027    3.0932 H   0  0  0  0  0  0  0  0  0  0  0  0
    0.4219   -0.8185    4.7146 H   0  0  0  0  0  0  0  0  0  0  0  0
    2.7162    0.0643    5.0529 H   0  0  0  0  0  0  0  0  0  0  0  0
    0.7102    1.1300   -2.8962 N   0  0  0  0  0  0  0  0  0  0  0  0
    0.5480    1.1086   -4.3322 C   0  0  2  0  0  0  0  0  0  0  0  0
    0.5385   -0.3461   -4.7828 C   0  0  0  0  0  0  0  0  0  0  0  0
    1.0355   -1.2561   -4.1225 O   0  0  0  0  0  0  0  0  0  0  0  0
    1.6562    1.8854   -5.0258 C   0  0  0  0  0  0  0  0  0  0  0  0
    1.4278    1.7304   -2.5008 H   0  0  0  0  0  0  0  0  0  0  0  0
   -0.4246    1.5646   -4.5474 H   0  0  0  0  0  0  0  0  0  0  0  0
    2.6383    1.4433   -4.8218 H   0  0  0  0  0  0  0  0  0  0  0  0
    1.5161    1.8923   -6.1118 H   0  0  0  0  0  0  0  0  0  0  0  0
    1.6806    2.9239   -4.6785 H   0  0  0  0  0  0  0  0  0  0  0  0
   -0.0520   -0.5026   -6.0290 N   0  0  0  0  0  0  0  0  0  0  0  0
   -0.1711   -1.7866   -6.6796 C   0  0  0  0  0  0  0  0  0  0  0  0
   -0.4545    0.3046   -6.4961 H   0  0  0  0  0  0  0  0  0  0  0  0
    0.6975   -1.9482   -7.3348 H   0  0  0  0  0  0  0  0  0  0  0  0
   -0.2095   -2.5806   -5.9192 H   0  0  0  0  0  0  0  0  0  0  0  0
   -1.0924   -1.8091   -7.2801 H   0  0  0  0  0  0  0  0  0  0  0  0
 25 27  1  0  0  0  0
 26 27  2  0  0  0  0
 23 25  2  0  0  0  0
 24 26  1  0  0  0  0
 22 23  1  0  0  0  0
 22 24  2  0  0  0  0
 21 22  1  0  0  0  0
  1  3  1  0  0  0  0
  1  7  1  0  0  0  0
  1  2  2  0  0  0  0
 38 39  1  0  0  0  0
 39 47  1  0  0  0  0
 39 40  2  0  0  0  0
  8  9  1  0  0  0  0
  9 17  1  0  0  0  0
  9 10  2  0  0  0  0
 18 19  1  0  0  0  0
 19 37  1  0  0  0  0
 19 20  2  0  0  0  0
 38 41  1  0  0  0  0
  8 11  1  0  0  0  0
 47 48  1  0  0  0  0
 18 21  1  0  0  0  0
 37 38  1  0  0  0  0
  7  8  1  0  0  0  0
 17 18  1  0  0  0  0
 27 36  1  0  0  0  0
 25 34  1  0  0  0  0
 26 35  1  0  0  0  0
 23 32  1  0  0  0  0
 24 33  1  0  0  0  0
  3  4  1  0  0  0  0
  3  5  1  0  0  0  0
  3  6  1  0  0  0  0
 41 44  1  0  0  0  0
 41 45  1  0  0  0  0
 41 46  1  0  0  0  0
 11 14  1  0  0  0  0
 11 15  1  0  0  0  0
 11 16  1  0  0  0  0
 48 50  1  0  0  0  0
 48 51  1  0  0  0  0
 48 52  1  0  0  0  0
 21 30  1  0  0  0  0
 21 31  1  0  0  0  0
 38 43  1  0  0  0  0
  8 13  1  0  0  0  0
 18 29  1  0  0  0  0
 47 49  1  0  0  0  0
  7 12  1  0  0  0  0
 37 42  1  0  0  0  0
 17 28  1  0  0  0  0
M  END
$$$$

  -OEChem-05262214473D

 52 52  0     1  0  0  0  0  0999 V2000
   -1.8248    0.3424    3.9102 C   0  0  0  0  0  0  0  0  0  0  0  0
   -0.8774   -0.2723    3.4345 O   0  0  0  0  0  0  0  0  0  0  0  0
   -2.2566    0.0600    5.3109 C   0  0  0  0  0  0  0  0  0  0  0  0
   -3.0163   -0.7363    5.3643 H   0  0  0  0  0  0  0  0  0  0  0  0
   -1.4254   -0.2876    5.9452 H   0  0  0  0  0  0  0  0  0  0  0  0
   -2.6947    0.9149    5.8505 H   0  0  0  0  0  0  0  0  0  0  0  0
   -2.5745    1.3149    3.2691 N   0  0  0  0  0  0  0  0  0  0  0  0
   -2.3276    1.7409    1.9167 C   0  0  2  0  0  0  0  0  0  0  0  0
   -0.9926    1.1555    1.4755 C   0  0  0  0  0  0  0  0  0  0  0  0
   -0.1206    0.8028    2.2668 O   0  0  0  0  0  0  0  0  0  0  0  0
   -2.3188    3.2577    1.8072 C   0  0  0  0  0  0  0  0  0  0  0  0
   -3.3395    1.7507    3.7809 H   0  0  0  0  0  0  0  0  0  0  0  0
   -3.1317    1.3224    1.3015 H   0  0  0  0  0  0  0  0  0  0  0  0
   -1.5198    3.6949    2.4169 H   0  0  0  0  0  0  0  0  0  0  0  0
   -2.1594    3.5799    0.7729 H   0  0  0  0  0  0  0  0  0  0  0  0
   -3.2690    3.6789    2.1530 H   0  0  0  0  0  0  0  0  0  0  0  0
   -0.8700    1.1124    0.0921 N   0  0  0  0  0  0  0  0  0  0  0  0
    0.3073    0.6116   -0.5716 C   0  0  2  0  0  0  0  0  0  0  0  0
   -0.0651    0.3713   -2.0303 C   0  0  0  0  0  0  0  0  0  0  0  0
   -1.1236   -0.1508   -2.3733 O   0  0  0  0  0  0  0  0  0  0  0  0
    0.8252   -0.6826    0.0663 C   0  0  0  0  0  0  0  0  0  0  0  0
    1.3555   -0.4729    1.4637 C   0  0  0  0  0  0  0  0  0  0  0  0
    2.6452    0.0235    1.6537 C   0  0  0  0  0  0  0  0  0  0  0  0
    0.5553   -0.7755    2.5654 C   0  0  0  0  0  0  0  0  0  0  0  0
    3.1346    0.2172    2.9455 C   0  0  0  0  0  0  0  0  0  0  0  0
    1.0448   -0.5818    3.8571 C   0  0  0  0  0  0  0  0  0  0  0  0
    2.3344   -0.0853    4.0471 C   0  0  0  0  0  0  0  0  0  0  0  0
   -1.6531    1.4091   -0.4852 H   0  0  0  0  0  0  0  0  0  0  0  0
    1.0582    1.4088   -0.5195 H   0  0  0  0  0  0  0  0  0  0  0  0
    1.6071   -1.1301   -0.5622 H   0  0  0  0  0  0  0  0  0  0  0  0
    0.0263   -1.4346    0.1111 H   0  0  0  0  0  0  0  0  0  0  0  0
    3.2757    0.2622    0.8013 H   0  0  0  0  0  0  0  0  0  0  0  0
   -0.4507   -1.1626    2.4270 H   0  0  0  0  0  0  0  0  0  0  0  0
    4.1392    0.6027    3.0932 H   0  0  0  0  0  0  0  0  0  0  0  0
    0.4219   -0.8185    4.7146 H   0  0  0  0  0  0  0  0  0  0  0  0
    2.7162    0.0643    5.0529 H   0  0  0  0  0  0  0  0  0  0  0  0
    0.9027    0.8546   -2.9000 N   0  0  0  0  0  0  0  0  0  0  0  0
    0.7874    0.7758   -4.3385 C   0  0  2  0  0  0  0  0  0  0  0  0
    0.4309   -0.6591   -4.7038 C   0  0  0  0  0  0  0  0  0  0  0  0
    0.6638   -1.6162   -3.9683 O   0  0  0  0  0  0  0  0  0  0  0  0
    2.0763    1.2063   -5.0212 C   0  0  0  0  0  0  0  0  0  0  0  0
    1.7337    1.2854   -2.5056 H   0  0  0  0  0  0  0  0  0  0  0  0
   -0.0334    1.4414   -4.6269 H   0  0  0  0  0  0  0  0  0  0  0  0
    2.9102    0.5510   -4.7442 H   0  0  0  0  0  0  0  0  0  0  0  0
    1.9781    1.1733   -6.1113 H   0  0  0  0  0  0  0  0  0  0  0  0
    2.3470    2.2280   -4.7340 H   0  0  0  0  0  0  0  0  0  0  0  0
   -0.1387   -0.7502   -5.9661 N   0  0  0  0  0  0  0  0  0  0  0  0
   -0.5523   -2.0066   -6.5460 C   0  0  0  0  0  0  0  0  0  0  0  0
   -0.3120    0.0974   -6.4984 H   0  0  0  0  0  0  0  0  0  0  0  0
    0.2698   -2.4216   -7.1476 H   0  0  0  0  0  0  0  0  0  0  0  0
   -0.8121   -2.7128   -5.7436 H   0  0  0  0  0  0  0  0  0  0  0  0
   -1.4300   -1.8425   -7.1884 H   0  0  0  0  0  0  0  0  0  0  0  0
 25 27  1  0  0  0  0
 26 27  2  0  0  0  0
 23 25  2  0  0  0  0
 24 26  1  0  0  0  0
 22 23  1  0  0  0  0
 22 24  2  0  0  0  0
 21 22  1  0  0  0  0
  1  3  1  0  0  0  0
  1  7  1  0  0  0  0
  1  2  2  0  0  0  0
 38 39  1  0  0  0  0
 39 47  1  0  0  0  0
 39 40  2  0  0  0  0
  8  9  1  0  0  0  0
  9 17  1  0  0  0  0
  9 10  2  0  0  0  0
 18 19  1  0  0  0  0
 19 37  1  0  0  0  0
 19 20  2  0  0  0  0
 38 41  1  0  0  0  0
  8 11  1  0  0  0  0
 47 48  1  0  0  0  0
 18 21  1  0  0  0  0
 37 38  1  0  0  0  0
  7  8  1  0  0  0  0
 17 18  1  0  0  0  0
 27 36  1  0  0  0  0
 25 34  1  0  0  0  0
 26 35  1  0  0  0  0
 23 32  1  0  0  0  0
 24 33  1  0  0  0  0
  3  4  1  0  0  0  0
  3  5  1  0  0  0  0
  3  6  1  0  0  0  0
 41 44  1  0  0  0  0
 41 45  1  0  0  0  0
 41 46  1  0  0  0  0
 11 14  1  0  0  0  0
 11 15  1  0  0  0  0
 11 16  1  0  0  0  0
 48 50  1  0  0  0  0
 48 51  1  0  0  0  0
 48 52  1  0  0  0  0
 21 30  1  0  0  0  0
 21 31  1  0  0  0  0
 38 43  1  0  0  0  0
  8 13  1  0  0  0  0
 18 29  1  0  0  0  0
 47 49  1  0  0  0  0
  7 12  1  0  0  0  0
 37 42  1  0  0  0  0
 17 28  1  0  0  0  0
M  END
$$$$

  -OEChem-05262214473D

 52 52  0     1  0  0  0  0  0999 V2000
   -1.8248    0.3424    3.9102 C   0  0  0  0  0  0  0  0  0  0  0  0
   -0.8774   -0.2723    3.4345 O   0  0  0  0  0  0  0  0  0  0  0  0
   -2.2566    0.0600    5.3109 C   0  0  0  0  0  0  0  0  0  0  0  0
   -3.0163   -0.7363    5.3643 H   0  0  0  0  0  0  0  0  0  0  0  0
   -1.4254   -0.2876    5.9452 H   0  0  0  0  0  0  0  0  0  0  0  0
   -2.6947    0.9149    5.8505 H   0  0  0  0  0  0  0  0  0  0  0  0
   -2.5745    1.3149    3.2691 N   0  0  0  0  0  0  0  0  0  0  0  0
   -2.3276    1.7409    1.9167 C   0  0  2  0  0  0  0  0  0  0  0  0
   -0.9926    1.1555    1.4755 C   0  0  0  0  0  0  0  0  0  0  0  0
   -0.1206    0.8028    2.2668 O   0  0  0  0  0  0  0  0  0  0  0  0
   -2.3188    3.2577    1.8072 C   0  0  0  0  0  0  0  0  0  0  0  0
   -3.3395    1.7507    3.7809 H   0  0  0  0  0  0  0  0  0  0  0  0
   -3.1317    1.3224    1.3015 H   0  0  0  0  0  0  0  0  0  0  0  0
   -1.5198    3.6949    2.4169 H   0  0  0  0  0  0  0  0  0  0  0  0
   -2.1594    3.5799    0.7729 H   0  0  0  0  0  0  0  0  0  0  0  0
   -3.2690    3.6789    2.1530 H   0  0  0  0  0  0  0  0  0  0  0  0
   -0.8700    1.1124    0.0921 N   0  0  0  0  0  0  0  0  0  0  0  0
    0.3073    0.6116   -0.5716 C   0  0  2  0  0  0  0  0  0  0  0  0
   -0.0651    0.3713   -2.0303 C   0  0  0  0  0  0  0  0  0  0  0  0
   -1.2085    0.1039   -2.3936 O   0  0  0  0  0  0  0  0  0  0  0  0
    0.8252   -0.6826    0.0663 C   0  0  0  0  0  0  0  0  0  0  0  0
    1.3555   -0.4729    1.4637 C   0  0  0  0  0  0  0  0  0  0  0  0
    2.6452    0.0235    1.6537 C   0  0  0  0  0  0  0  0  0  0  0  0
    0.5553   -0.7755    2.5654 C   0  0  0  0  0  0  0  0  0  0  0  0
    3.1346    0.2172    2.9455 C   0  0  0  0  0  0  0  0  0  0  0  0
    1.0448   -0.5818    3.8571 C   0  0  0  0  0  0  0  0  0  0  0  0
    2.3344   -0.0853    4.0471 C   0  0  0  0  0  0  0  0  0  0  0  0
   -1.6531    1.4091   -0.4852 H   0  0  0  0  0  0  0  0  0  0  0  0
    1.0582    1.4088   -0.5195 H   0  0  0  0  0  0  0  0  0  0  0  0
    1.6071   -1.1301   -0.5622 H   0  0  0  0  0  0  0  0  0  0  0  0
    0.0263   -1.4346    0.1111 H   0  0  0  0  0  0  0  0  0  0  0  0
    3.2757    0.2622    0.8013 H   0  0  0  0  0  0  0  0  0  0  0  0
   -0.4507   -1.1626    2.4270 H   0  0  0  0  0  0  0  0  0  0  0  0
    4.1392    0.6027    3.0932 H   0  0  0  0  0  0  0  0  0  0  0  0
    0.4219   -0.8185    4.7146 H   0  0  0  0  0  0  0  0  0  0  0  0
    2.7162    0.0643    5.0529 H   0  0  0  0  0  0  0  0  0  0  0  0
    1.0205    0.5407   -2.8783 N   0  0  0  0  0  0  0  0  0  0  0  0
    0.9366    0.3945   -4.3137 C   0  0  2  0  0  0  0  0  0  0  0  0
    0.2463   -0.9298   -4.6120 C   0  0  0  0  0  0  0  0  0  0  0  0
    0.2093   -1.8622   -3.8118 O   0  0  0  0  0  0  0  0  0  0  0  0
    2.3138    0.4466   -4.9567 C   0  0  0  0  0  0  0  0  0  0  0  0
    1.9193    0.7794   -2.4696 H   0  0  0  0  0  0  0  0  0  0  0  0
    0.3173    1.2205   -4.6801 H   0  0  0  0  0  0  0  0  0  0  0  0
    2.9487   -0.3734   -4.6018 H   0  0  0  0  0  0  0  0  0  0  0  0
    2.2462    0.3644   -6.0465 H   0  0  0  0  0  0  0  0  0  0  0  0
    2.8207    1.3873   -4.7165 H   0  0  0  0  0  0  0  0  0  0  0  0
   -0.2863   -0.9638   -5.8932 N   0  0  0  0  0  0  0  0  0  0  0  0
   -0.9804   -2.1162   -6.4187 C   0  0  0  0  0  0  0  0  0  0  0  0
   -0.2256   -0.1381   -6.4816 H   0  0  0  0  0  0  0  0  0  0  0  0
   -0.2683   -2.7611   -6.9543 H   0  0  0  0  0  0  0  0  0  0  0  0
   -1.4341   -2.6801   -5.5902 H   0  0  0  0  0  0  0  0  0  0  0  0
   -1.7681   -1.7853   -7.1115 H   0  0  0  0  0  0  0  0  0  0  0  0
 25 27  1  0  0  0  0
 26 27  2  0  0  0  0
 23 25  2  0  0  0  0
 24 26  1  0  0  0  0
 22 23  1  0  0  0  0
 22 24  2  0  0  0  0
 21 22  1  0  0  0  0
  1  3  1  0  0  0  0
  1  7  1  0  0  0  0
  1  2  2  0  0  0  0
 38 39  1  0  0  0  0
 39 47  1  0  0  0  0
 39 40  2  0  0  0  0
  8  9  1  0  0  0  0
  9 17  1  0  0  0  0
  9 10  2  0  0  0  0
 18 19  1  0  0  0  0
 19 37  1  0  0  0  0
 19 20  2  0  0  0  0
 38 41  1  0  0  0  0
  8 11  1  0  0  0  0
 47 48  1  0  0  0  0
 18 21  1  0  0  0  0
 37 38  1  0  0  0  0
  7  8  1  0  0  0  0
 17 18  1  0  0  0  0
 27 36  1  0  0  0  0
 25 34  1  0  0  0  0
 26 35  1  0  0  0  0
 23 32  1  0  0  0  0
 24 33  1  0  0  0  0
  3  4  1  0  0  0  0
  3  5  1  0  0  0  0
  3  6  1  0  0  0  0
 41 44  1  0  0  0  0
 41 45  1  0  0  0  0
 41 46  1  0  0  0  0
 11 14  1  0  0  0  0
 11 15  1  0  0  0  0
 11 16  1  0  0  0  0
 48 50  1  0  0  0  0
 48 51  1  0  0  0  0
 48 52  1  0  0  0  0
 21 30  1  0  0  0  0
 21 31  1  0  0  0  0
 38 43  1  0  0  0  0
  8 13  1  0  0  0  0
 18 29  1  0  0  0  0
 47 49  1  0  0  0  0
  7 12  1  0  0  0  0
 37 42  1  0  0  0  0
 17 28  1  0  0  0  0
M  END
$$$$

  -OEChem-05262214473D

 52 52  0     1  0  0  0  0  0999 V2000
   -1.8248    0.3424    3.9102 C   0  0  0  0  0  0  0  0  0  0  0  0
   -0.8774   -0.2723    3.4345 O   0  0  0  0  0  0  0  0  0  0  0  0
   -2.2566    0.0600    5.3109 C   0  0  0  0  0  0  0  0  0  0  0  0
   -3.0163   -0.7363    5.3643 H   0  0  0  0  0  0  0  0  0  0  0  0
   -1.4254   -0.2876    5.9452 H   0  0  0  0  0  0  0  0  0  0  0  0
   -2.6947    0.9149    5.8505 H   0  0  0  0  0  0  0  0  0  0  0  0
   -2.5745    1.3149    3.2691 N   0  0  0  0  0  0  0  0  0  0  0  0
   -2.3276    1.7409    1.9167 C   0  0  2  0  0  0  0  0  0  0  0  0
   -0.9926    1.1555    1.4755 C   0  0  0  0  0  0  0  0  0  0  0  0
   -0.1206    0.8028    2.2668 O   0  0  0  0  0  0  0  0  0  0  0  0
   -2.3188    3.2577    1.8072 C   0  0  0  0  0  0  0  0  0  0  0  0
   -3.3395    1.7507    3.7809 H   0  0  0  0  0  0  0  0  0  0  0  0
   -3.1317    1.3224    1.3015 H   0  0  0  0  0  0  0  0  0  0  0  0
   -1.5198    3.6949    2.4169 H   0  0  0  0  0  0  0  0  0  0  0  0
   -2.1594    3.5799    0.7729 H   0  0  0  0  0  0  0  0  0  0  0  0
   -3.2690    3.6789    2.1530 H   0  0  0  0  0  0  0  0  0  0  0  0
   -0.8700    1.1124    0.0921 N   0  0  0  0  0  0  0  0  0  0  0  0
    0.3073    0.6116   -0.5716 C   0  0  2  0  0  0  0  0  0  0  0  0
   -0.0651    0.3713   -2.0303 C   0  0  0  0  0  0  0  0  0  0  0  0
   -1.2265    0.3696   -2.4328 O   0  0  0  0  0  0  0  0  0  0  0  0
    0.8252   -0.6826    0.0663 C   0  0  0  0  0  0  0  0  0  0  0  0
    1.3555   -0.4729    1.4637 C   0  0  0  0  0  0  0  0  0  0  0  0
    2.6452    0.0235    1.6537 C   0  0  0  0  0  0  0  0  0  0  0  0
    0.5553   -0.7755    2.5654 C   0  0  0  0  0  0  0  0  0  0  0  0
    3.1346    0.2172    2.9455 C   0  0  0  0  0  0  0  0  0  0  0  0
    1.0448   -0.5818    3.8571 C   0  0  0  0  0  0  0  0  0  0  0  0
    2.3344   -0.0853    4.0471 C   0  0  0  0  0  0  0  0  0  0  0  0
   -1.6531    1.4091   -0.4852 H   0  0  0  0  0  0  0  0  0  0  0  0
    1.0582    1.4088   -0.5195 H   0  0  0  0  0  0  0  0  0  0  0  0
    1.6071   -1.1301   -0.5622 H   0  0  0  0  0  0  0  0  0  0  0  0
    0.0263   -1.4346    0.1111 H   0  0  0  0  0  0  0  0  0  0  0  0
    3.2757    0.2622    0.8013 H   0  0  0  0  0  0  0  0  0  0  0  0
   -0.4507   -1.1626    2.4270 H   0  0  0  0  0  0  0  0  0  0  0  0
    4.1392    0.6027    3.0932 H   0  0  0  0  0  0  0  0  0  0  0  0
    0.4219   -0.8185    4.7146 H   0  0  0  0  0  0  0  0  0  0  0  0
    2.7162    0.0643    5.0529 H   0  0  0  0  0  0  0  0  0  0  0  0
    1.0558    0.2097   -2.8328 N   0  0  0  0  0  0  0  0  0  0  0  0
    0.9852   -0.0091   -4.2597 C   0  0  2  0  0  0  0  0  0  0  0  0
   -0.0029   -1.1398   -4.5138 C   0  0  0  0  0  0  0  0  0  0  0  0
   -0.2971   -1.9773   -3.6635 O   0  0  0  0  0  0  0  0  0  0  0  0
    2.3523   -0.3420   -4.8367 C   0  0  0  0  0  0  0  0  0  0  0  0
    1.9717    0.2470   -2.3953 H   0  0  0  0  0  0  0  0  0  0  0  0
    0.6034    0.9170   -4.7031 H   0  0  0  0  0  0  0  0  0  0  0  0
    2.7511   -1.2669   -4.4042 H   0  0  0  0  0  0  0  0  0  0  0  0
    2.3023   -0.4793   -5.9219 H   0  0  0  0  0  0  0  0  0  0  0  0
    3.0694    0.4591   -4.6270 H   0  0  0  0  0  0  0  0  0  0  0  0
   -0.4848   -1.1290   -5.8153 N   0  0  0  0  0  0  0  0  0  0  0  0
   -1.4263   -2.1081   -6.3062 C   0  0  0  0  0  0  0  0  0  0  0  0
   -0.2012   -0.3859   -6.4471 H   0  0  0  0  0  0  0  0  0  0  0  0
   -0.8799   -2.9436   -6.7681 H   0  0  0  0  0  0  0  0  0  0  0  0
   -2.0330   -2.4848   -5.4695 H   0  0  0  0  0  0  0  0  0  0  0  0
   -2.0836   -1.6415   -7.0547 H   0  0  0  0  0  0  0  0  0  0  0  0
 25 27  1  0  0  0  0
 26 27  2  0  0  0  0
 23 25  2  0  0  0  0
 24 26  1  0  0  0  0
 22 23  1  0  0  0  0
 22 24  2  0  0  0  0
 21 22  1  0  0  0  0
  1  3  1  0  0  0  0
  1  7  1  0  0  0  0
  1  2  2  0  0  0  0
 38 39  1  0  0  0  0
 39 47  1  0  0  0  0
 39 40  2  0  0  0  0
  8  9  1  0  0  0  0
  9 17  1  0  0  0  0
  9 10  2  0  0  0  0
 18 19  1  0  0  0  0
 19 37  1  0  0  0  0
 19 20  2  0  0  0  0
 38 41  1  0  0  0  0
  8 11  1  0  0  0  0
 47 48  1  0  0  0  0
 18 21  1  0  0  0  0
 37 38  1  0  0  0  0
  7  8  1  0  0  0  0
 17 18  1  0  0  0  0
 27 36  1  0  0  0  0
 25 34  1  0  0  0  0
 26 35  1  0  0  0  0
 23 32  1  0  0  0  0
 24 33  1  0  0  0  0
  3  4  1  0  0  0  0
  3  5  1  0  0  0  0
  3  6  1  0  0  0  0
 41 44  1  0  0  0  0
 41 45  1  0  0  0  0
 41 46  1  0  0  0  0
 11 14  1  0  0  0  0
 11 15  1  0  0  0  0
 11 16  1  0  0  0  0
 48 50  1  0  0  0  0
 48 51  1  0  0  0  0
 48 52  1  0  0  0  0
 21 30  1  0  0  0  0
 21 31  1  0  0  0  0
 38 43  1  0  0  0  0
  8 13  1  0  0  0  0
 18 29  1  0  0  0  0
 47 49  1  0  0  0  0
  7 12  1  0  0  0  0
 37 42  1  0  0  0  0
 17 28  1  0  0  0  0
M  END
$$$$
