
  -OEChem-05262214473D

 49 48  0     1  0  0  0  0  0999 V2000
   -1.9833   -0.0509   -3.3423 C   0  0  0  0  0  0  0  0  0  0  0  0
   -1.6199   -1.0613   -2.7518 O   0  0  0  0  0  0  0  0  0  0  0  0
   -3.3243   -0.0235   -3.9975 C   0  0  0  0  0  0  0  0  0  0  0  0
   -3.2886   -0.3689   -5.0432 H   0  0  0  0  0  0  0  0  0  0  0  0
   -4.0503   -0.6845   -3.4973 H   0  0  0  0  0  0  0  0  0  0  0  0
   -3.8104    0.9645   -4.0351 H   0  0  0  0  0  0  0  0  0  0  0  0
   -1.2607    1.1231   -3.4768 N   0  0  0  0  0  0  0  0  0  0  0  0
    0.0536    1.3115   -2.9213 C   0  0  2  0  0  0  0  0  0  0  0  0
    0.0266    0.8315   -1.4761 C   0  0  0  0  0  0  0  0  0  0  0  0
   -1.0065    0.7530   -0.8146 O   0  0  0  0  0  0  0  0  0  0  0  0
    0.4852    2.7674   -3.0025 C   0  0  0  0  0  0  0  0  0  0  0  0
   -1.6809    1.8924   -3.9952 H   0  0  0  0  0  0  0  0  0  0  0  0
    0.7360    0.6822   -3.5030 H   0  0  0  0  0  0  0  0  0  0  0  0
   -0.1867    3.4133   -2.4256 H   0  0  0  0  0  0  0  0  0  0  0  0
    1.4966    2.9042   -2.6056 H   0  0  0  0  0  0  0  0  0  0  0  0
    0.4754    3.1196   -4.0397 H   0  0  0  0  0  0  0  0  0  0  0  0
    1.2978    0.5411   -0.9947 N   0  0  0  0  0  0  0  0  0  0  0  0
    1.5371    0.0807    0.3489 C   0  0  2  0  0  0  0  0  0  0  0  0
    3.0407   -0.1257    0.4946 C   0  0  0  0  0  0  0  0  0  0  0  0
    3.8322    0.0468   -0.4300 O   0  0  0  0  0  0  0  0  0  0  0  0
    0.7877   -1.2218    0.6568 C   0  0  0  0  0  0  0  0  0  0  0  0
   -0.7330   -1.0563    0.6860 C   0  0  0  0  0  0  0  0  0  0  0  0
   -1.4777   -2.3482    0.9666 C   0  0  0  0  0  0  0  0  0  0  0  0
   -0.9338   -3.4423    1.0845 O   0  0  0  0  0  0  0  0  0  0  0  0
   -2.8408   -2.1601    1.0490 N   0  0  0  0  0  0  0  0  0  0  0  0
    2.0949    0.6178   -1.6227 H   0  0  0  0  0  0  0  0  0  0  0  0
    1.2215    0.8880    1.0184 H   0  0  0  0  0  0  0  0  0  0  0  0
    1.0396   -1.9715   -0.1052 H   0  0  0  0  0  0  0  0  0  0  0  0
    1.1290   -1.6345    1.6146 H   0  0  0  0  0  0  0  0  0  0  0  0
   -1.0678   -0.7026   -0.2970 H   0  0  0  0  0  0  0  0  0  0  0  0
   -1.0284   -0.3001    1.4218 H   0  0  0  0  0  0  0  0  0  0  0  0
   -3.2140   -1.2251    0.9224 H   0  0  0  0  0  0  0  0  0  0  0  0
   -3.4845   -2.9232    1.2319 H   0  0  0  0  0  0  0  0  0  0  0  0
    3.3837   -0.5727    1.7630 N   0  0  0  0  0  0  0  0  0  0  0  0
    4.7417   -0.8672    2.1601 C   0  0  2  0  0  0  0  0  0  0  0  0
    5.6175    0.3090    1.7490 C   0  0  0  0  0  0  0  0  0  0  0  0
    5.3055    1.0994    0.8607 O   0  0  0  0  0  0  0  0  0  0  0  0
    5.2352   -2.1594    1.5281 C   0  0  0  0  0  0  0  0  0  0  0  0
    2.6431   -0.6992    2.4465 H   0  0  0  0  0  0  0  0  0  0  0  0
    4.7395   -0.9575    3.2519 H   0  0  0  0  0  0  0  0  0  0  0  0
    5.2444   -2.0880    0.4344 H   0  0  0  0  0  0  0  0  0  0  0  0
    6.2539   -2.3959    1.8525 H   0  0  0  0  0  0  0  0  0  0  0  0
    4.5868   -2.9990    1.8009 H   0  0  0  0  0  0  0  0  0  0  0  0
    6.8083    0.3470    2.4609 N   0  0  0  0  0  0  0  0  0  0  0  0
    7.8136    1.3612    2.2450 C   0  0  0  0  0  0  0  0  0  0  0  0
    6.9752   -0.3377    3.1923 H   0  0  0  0  0  0  0  0  0  0  0  0
    8.5439    1.0026    1.5047 H   0  0  0  0  0  0  0  0  0  0  0  0
    7.3346    2.2788    1.8727 H   0  0  0  0  0  0  0  0  0  0  0  0
    8.3281    1.5751    3.1935 H   0  0  0  0  0  0  0  0  0  0  0  0
  1  3  1  0  0  0  0
  1  7  1  0  0  0  0
  1  2  2  0  0  0  0
 22 23  1  0  0  0  0
 23 25  1  0  0  0  0
 23 24  2  0  0  0  0
 35 36  1  0  0  0  0
 36 44  1  0  0  0  0
 36 37  2  0  0  0  0
  8  9  1  0  0  0  0
  9 17  1  0  0  0  0
  9 10  2  0  0  0  0
 18 19  1  0  0  0  0
 19 34  1  0  0  0  0
 19 20  2  0  0  0  0
 35 38  1  0  0  0  0
  8 11  1  0  0  0  0
 44 45  1  0  0  0  0
 21 22  1  0  0  0  0
 18 21  1  0  0  0  0
 34 35  1  0  0  0  0
  7  8  1  0  0  0  0
 17 18  1  0  0  0  0
  3  4  1  0  0  0  0
  3  5  1  0  0  0  0
  3  6  1  0  0  0  0
 38 41  1  0  0  0  0
 38 42  1  0  0  0  0
 38 43  1  0  0  0  0
 11 14  1  0  0  0  0
 11 15  1  0  0  0  0
 11 16  1  0  0  0  0
 45 47  1  0  0  0  0
 45 48  1  0  0  0  0
 45 49  1  0  0  0  0
 22 30  1  0  0  0  0
 22 31  1  0  0  0  0
 21 28  1  0  0  0  0
 21 29  1  0  0  0  0
 35 40  1  0  0  0  0
  8 13  1  0  0  0  0
 18 27  1  0  0  0  0
 25 32  1  0  0  0  0
 25 33  1  0  0  0  0
 44 46  1  0  0  0  0
  7 12  1  0  0  0  0
 34 39  1  0  0  0  0
 17 26  1  0  0  0  0
M  END
$$$$

  -OEChem-05262214473D

 49 48  0     1  0  0  0  0  0999 V2000
   -1.9833   -0.0509   -3.3423 C   0  0  0  0  0  0  0  0  0  0  0  0
   -1.6199   -1.0613   -2.7518 O   0  0  0  0  0  0  0  0  0  0  0  0
   -3.3243   -0.0235   -3.9975 C   0  0  0  0  0  0  0  0  0  0  0  0
   -3.2886   -0.3689   -5.0432 H   0  0  0  0  0  0  0  0  0  0  0  0
   -4.0503   -0.6845   -3.4973 H   0  0  0  0  0  0  0  0  0  0  0  0
   -3.8104    0.9645   -4.0351 H   0  0  0  0  0  0  0  0  0  0  0  0
   -1.2607    1.1231   -3.4768 N   0  0  0  0  0  0  0  0  0  0  0  0
    0.0536    1.3115   -2.9213 C   0  0  2  0  0  0  0  0  0  0  0  0
    0.0266    0.8315   -1.4761 C   0  0  0  0  0  0  0  0  0  0  0  0
   -1.0065    0.7530   -0.8146 O   0  0  0  0  0  0  0  0  0  0  0  0
    0.4852    2.7674   -3.0025 C   0  0  0  0  0  0  0  0  0  0  0  0
   -1.6809    1.8924   -3.9952 H   0  0  0  0  0  0  0  0  0  0  0  0
    0.7360    0.6822   -3.5030 H   0  0  0  0  0  0  0  0  0  0  0  0
   -0.1867    3.4133   -2.4256 H   0  0  0  0  0  0  0  0  0  0  0  0
    1.4966    2.9042   -2.6056 H   0  0  0  0  0  0  0  0  0  0  0  0
    0.4754    3.1196   -4.0397 H   0  0  0  0  0  0  0  0  0  0  0  0
    1.2978    0.5411   -0.9947 N   0  0  0  0  0  0  0  0  0  0  0  0
    1.5371    0.0807    0.3489 C   0  0  2  0  0  0  0  0  0  0  0  0
    3.0407   -0.1257    0.4946 C   0  0  0  0  0  0  0  0  0  0  0  0
    3.8558    0.2934   -0.3245 O   0  0  0  0  0  0  0  0  0  0  0  0
    0.7877   -1.2218    0.6568 C   0  0  0  0  0  0  0  0  0  0  0  0
   -0.7330   -1.0563    0.6860 C   0  0  0  0  0  0  0  0  0  0  0  0
   -1.4777   -2.3482    0.9666 C   0  0  0  0  0  0  0  0  0  0  0  0
   -0.9338   -3.4423    1.0845 O   0  0  0  0  0  0  0  0  0  0  0  0
   -2.8408   -2.1601    1.0490 N   0  0  0  0  0  0  0  0  0  0  0  0
    2.0949    0.6178   -1.6227 H   0  0  0  0  0  0  0  0  0  0  0  0
    1.2215    0.8880    1.0184 H   0  0  0  0  0  0  0  0  0  0  0  0
    1.0396   -1.9715   -0.1052 H   0  0  0  0  0  0  0  0  0  0  0  0
    1.1290   -1.6345    1.6146 H   0  0  0  0  0  0  0  0  0  0  0  0
   -1.0678   -0.7026   -0.2970 H   0  0  0  0  0  0  0  0  0  0  0  0
   -1.0284   -0.3001    1.4218 H   0  0  0  0  0  0  0  0  0  0  0  0
   -3.2140   -1.2251    0.9224 H   0  0  0  0  0  0  0  0  0  0  0  0
   -3.4845   -2.9232    1.2319 H   0  0  0  0  0  0  0  0  0  0  0  0
    3.3561   -0.8751    1.6194 N   0  0  0  0  0  0  0  0  0  0  0  0
    4.7088   -1.2339    1.9800 C   0  0  2  0  0  0  0  0  0  0  0  0
    5.5625    0.0257    1.9159 C   0  0  0  0  0  0  0  0  0  0  0  0
    5.2558    1.0105    1.2471 O   0  0  0  0  0  0  0  0  0  0  0  0
    5.2598   -2.3114    1.0590 C   0  0  0  0  0  0  0  0  0  0  0  0
    2.5981   -1.1871    2.2192 H   0  0  0  0  0  0  0  0  0  0  0  0
    4.6745   -1.6004    3.0118 H   0  0  0  0  0  0  0  0  0  0  0  0
    5.3017   -1.9625    0.0207 H   0  0  0  0  0  0  0  0  0  0  0  0
    6.2742   -2.6024    1.3511 H   0  0  0  0  0  0  0  0  0  0  0  0
    4.6279   -3.2057    1.0838 H   0  0  0  0  0  0  0  0  0  0  0  0
    6.7283   -0.0955    2.6590 N   0  0  0  0  0  0  0  0  0  0  0  0
    7.7100    0.9602    2.7473 C   0  0  0  0  0  0  0  0  0  0  0  0
    6.8919   -0.9410    3.1977 H   0  0  0  0  0  0  0  0  0  0  0  0
    8.4736    0.8176    1.9686 H   0  0  0  0  0  0  0  0  0  0  0  0
    7.2164    1.9326    2.6030 H   0  0  0  0  0  0  0  0  0  0  0  0
    8.1874    0.9348    3.7379 H   0  0  0  0  0  0  0  0  0  0  0  0
  1  3  1  0  0  0  0
  1  7  1  0  0  0  0
  1  2  2  0  0  0  0
 22 23  1  0  0  0  0
 23 25  1  0  0  0  0
 23 24  2  0  0  0  0
 35 36  1  0  0  0  0
 36 44  1  0  0  0  0
 36 37  2  0  0  0  0
  8  9  1  0  0  0  0
  9 17  1  0  0  0  0
  9 10  2  0  0  0  0
 18 19  1  0  0  0  0
 19 34  1  0  0  0  0
 19 20  2  0  0  0  0
 35 38  1  0  0  0  0
  8 11  1  0  0  0  0
 44 45  1  0  0  0  0
 21 22  1  0  0  0  0
 18 21  1  0  0  0  0
 34 35  1  0  0  0  0
  7  8  1  0  0  0  0
 17 18  1  0  0  0  0
  3  4  1  0  0  0  0
  3  5  1  0  0  0  0
  3  6  1  0  0  0  0
 38 41  1  0  0  0  0
 38 42  1  0  0  0  0
 38 43  1  0  0  0  0
 11 14  1  0  0  0  0
 11 15  1  0  0  0  0
 11 16  1  0  0  0  0
 45 47  1  0  0  0  0
 45 48  1  0  0  0  0
 45 49  1  0  0  0  0
 22 30  1  0  0  0  0
 22 31  1  0  0  0  0
 21 28  1  0  0  0  0
 21 29  1  0  0  0  0
 35 40  1  0  0  0  0
  8 13  1  0  0  0  0
 18 27  1  0  0  0  0
 25 32  1  0  0  0  0
 25 33  1  0  0  0  0
 44 46  1  0  0  0  0
  7 12  1  0  0  0  0
 34 39  1  0  0  0  0
 17 26  1  0  0  0  0
M  END
$$$$

  -OEChem-05262214473D

 49 48  0     1  0  0  0  0  0999 V2000
   -1.9833   -0.0509   -3.3423 C   0  0  0  0  0  0  0  0  0  0  0  0
   -1.6199   -1.0613   -2.7518 O   0  0  0  0  0  0  0  0  0  0  0  0
   -3.3243   -0.0235   -3.9975 C   0  0  0  0  0  0  0  0  0  0  0  0
   -3.2886   -0.3689   -5.0432 H   0  0  0  0  0  0  0  0  0  0  0  0
   -4.0503   -0.6845   -3.4973 H   0  0  0  0  0  0  0  0  0  0  0  0
   -3.8104    0.9645   -4.0351 H   0  0  0  0  0  0  0  0  0  0  0  0
   -1.2607    1.1231   -3.4768 N   0  0  0  0  0  0  0  0  0  0  0  0
    0.0536    1.3115   -2.9213 C   0  0  2  0  0  0  0  0  0  0  0  0
    0.0266    0.8315   -1.4761 C   0  0  0  0  0  0  0  0  0  0  0  0
   -1.0065    0.7530   -0.8146 O   0  0  0  0  0  0  0  0  0  0  0  0
    0.4852    2.7674   -3.0025 C   0  0  0  0  0  0  0  0  0  0  0  0
   -1.6809    1.8924   -3.9952 H   0  0  0  0  0  0  0  0  0  0  0  0
    0.7360    0.6822   -3.5030 H   0  0  0  0  0  0  0  0  0  0  0  0
   -0.1867    3.4133   -2.4256 H   0  0  0  0  0  0  0  0  0  0  0  0
    1.4966    2.9042   -2.6056 H   0  0  0  0  0  0  0  0  0  0  0  0
    0.4754    3.1196   -4.0397 H   0  0  0  0  0  0  0  0  0  0  0  0
    1.2978    0.5411   -0.9947 N   0  0  0  0  0  0  0  0  0  0  0  0
    1.5371    0.0807    0.3489 C   0  0  2  0  0  0  0  0  0  0  0  0
    3.0407   -0.1257    0.4946 C   0  0  0  0  0  0  0  0  0  0  0  0
    3.8688    0.5053   -0.1589 O   0  0  0  0  0  0  0  0  0  0  0  0
    0.7877   -1.2218    0.6568 C   0  0  0  0  0  0  0  0  0  0  0  0
   -0.7330   -1.0563    0.6860 C   0  0  0  0  0  0  0  0  0  0  0  0
   -1.4777   -2.3482    0.9666 C   0  0  0  0  0  0  0  0  0  0  0  0
   -0.9338   -3.4423    1.0845 O   0  0  0  0  0  0  0  0  0  0  0  0
   -2.8408   -2.1601    1.0490 N   0  0  0  0  0  0  0  0  0  0  0  0
    2.0949    0.6178   -1.6227 H   0  0  0  0  0  0  0  0  0  0  0  0
    1.2215    0.8880    1.0184 H   0  0  0  0  0  0  0  0  0  0  0  0
    1.0396   -1.9715   -0.1052 H   0  0  0  0  0  0  0  0  0  0  0  0
    1.1290   -1.6345    1.6146 H   0  0  0  0  0  0  0  0  0  0  0  0
   -1.0678   -0.7026   -0.2970 H   0  0  0  0  0  0  0  0  0  0  0  0
   -1.0284   -0.3001    1.4218 H   0  0  0  0  0  0  0  0  0  0  0  0
   -3.2140   -1.2251    0.9224 H   0  0  0  0  0  0  0  0  0  0  0  0
   -3.4845   -2.9232    1.2319 H   0  0  0  0  0  0  0  0  0  0  0  0
    3.3419   -1.1313    1.4025 N   0  0  0  0  0  0  0  0  0  0  0  0
    4.6925   -1.5430    1.7113 C   0  0  2  0  0  0  0  0  0  0  0  0
    5.5105   -0.2919    2.0029 C   0  0  0  0  0  0  0  0  0  0  0  0
    5.1966    0.8248    1.5959 O   0  0  0  0  0  0  0  0  0  0  0  0
    5.3037   -2.3378    0.5679 C   0  0  0  0  0  0  0  0  0  0  0  0
    2.5747   -1.6015    1.8736 H   0  0  0  0  0  0  0  0  0  0  0  0
    4.6360   -2.1617    2.6135 H   0  0  0  0  0  0  0  0  0  0  0  0
    5.3685   -1.7343   -0.3449 H   0  0  0  0  0  0  0  0  0  0  0  0
    6.3164   -2.6733    0.8147 H   0  0  0  0  0  0  0  0  0  0  0  0
    4.6978   -3.2214    0.3398 H   0  0  0  0  0  0  0  0  0  0  0  0
    6.6551   -0.5756    2.7346 N   0  0  0  0  0  0  0  0  0  0  0  0
    7.6021    0.4421    3.1265 C   0  0  0  0  0  0  0  0  0  0  0  0
    6.8261   -1.5272    3.0459 H   0  0  0  0  0  0  0  0  0  0  0  0
    8.3940    0.5188    2.3669 H   0  0  0  0  0  0  0  0  0  0  0  0
    7.0851    1.4089    3.2159 H   0  0  0  0  0  0  0  0  0  0  0  0
    8.0484    0.1739    4.0955 H   0  0  0  0  0  0  0  0  0  0  0  0
  1  3  1  0  0  0  0
  1  7  1  0  0  0  0
  1  2  2  0  0  0  0
 22 23  1  0  0  0  0
 23 25  1  0  0  0  0
 23 24  2  0  0  0  0
 35 36  1  0  0  0  0
 36 44  1  0  0  0  0
 36 37  2  0  0  0  0
  8  9  1  0  0  0  0
  9 17  1  0  0  0  0
  9 10  2  0  0  0  0
 18 19  1  0  0  0  0
 19 34  1  0  0  0  0
 19 20  2  0  0  0  0
 35 38  1  0  0  0  0
  8 11  1  0  0  0  0
 44 45  1  0  0  0  0
 21 22  1  0  0  0  0
 18 21  1  0  0  0  0
 34 35  1  0  0  0  0
  7  8  1  0  0  0  0
 17 18  1  0  0  0  0
  3  4  1  0  0  0  0
  3  5  1  0  0  0  0
  3  6  1  0  0  0  0
 38 41  1  0  0  0  0
 38 42  1  0  0  0  0
 38 43  1  0  0  0  0
 11 14  1  0  0  0  0
 11 15  1  0  0  0  0
 11 16  1  0  0  0  0
 45 47  1  0  0  0  0
 45 48  1  0  0  0  0
 45 49  1  0  0  0  0
 22 30  1  0  0  0  0
 22 31  1  0  0  0  0
 21 28  1  0  0  0  0
 21 29  1  0  0  0  0
 35 40  1  0  0  0  0
  8 13  1  0  0  0  0
 18 27  1  0  0  0  0
 25 32  1  0  0  0  0
 25 33  1  0  0  0  0
 44 46  1  0  0  0  0
  7 12  1  0  0  0  0
 34 39  1  0  0  0  0
 17 26  1  0  0  0  0
M  END
$$$$

  -OEChem-05262214473D

 49 48  0     1  0  0  0  0  0999 V2000
   -1.9833   -0.0509   -3.3423 C   0  0  0  0  0  0  0  0  0  0  0  0
   -1.6199   -1.0613   -2.7518 O   0  0  0  0  0  0  0  0  0  0  0  0
   -3.3243   -0.0235   -3.9975 C   0  0  0  0  0  0  0  0  0  0  0  0
   -3.2886   -0.3689   -5.0432 H   0  0  0  0  0  0  0  0  0  0  0  0
   -4.0503   -0.6845   -3.4973 H   0  0  0  0  0  0  0  0  0  0  0  0
   -3.8104    0.9645   -4.0351 H   0  0  0  0  0  0  0  0  0  0  0  0
   -1.2607    1.1231   -3.4768 N   0  0  0  0  0  0  0  0  0  0  0  0
    0.0536    1.3115   -2.9213 C   0  0  2  0  0  0  0  0  0  0  0  0
    0.0266    0.8315   -1.4761 C   0  0  0  0  0  0  0  0  0  0  0  0
   -1.0065    0.7530   -0.8146 O   0  0  0  0  0  0  0  0  0  0  0  0
    0.4852    2.7674   -3.0025 C   0  0  0  0  0  0  0  0  0  0  0  0
   -1.6809    1.8924   -3.9952 H   0  0  0  0  0  0  0  0  0  0  0  0
    0.7360    0.6822   -3.5030 H   0  0  0  0  0  0  0  0  0  0  0  0
   -0.1867    3.4133   -2.4256 H   0  0  0  0  0  0  0  0  0  0  0  0
    1.4966    2.9042   -2.6056 H   0  0  0  0  0  0  0  0  0  0  0  0
    0.4754    3.1196   -4.0397 H   0  0  0  0  0  0  0  0  0  0  0  0
    1.2978    0.5411   -0.9947 N   0  0  0  0  0  0  0  0  0  0  0  0
    1.5371    0.0807    0.3489 C   0  0  2  0  0  0  0  0  0  0  0  0
    3.0407   -0.1257    0.4946 C   0  0  0  0  0  0  0  0  0  0  0  0
    3.8704    0.6680    0.0556 O   0  0  0  0  0  0  0  0  0  0  0  0
    0.7877   -1.2218    0.6568 C   0  0  0  0  0  0  0  0  0  0  0  0
   -0.7330   -1.0563    0.6860 C   0  0  0  0  0  0  0  0  0  0  0  0
   -1.4777   -2.3482    0.9666 C   0  0  0  0  0  0  0  0  0  0  0  0
   -0.9338   -3.4423    1.0845 O   0  0  0  0  0  0  0  0  0  0  0  0
   -2.8408   -2.1601    1.0490 N   0  0  0  0  0  0  0  0  0  0  0  0
    2.0949    0.6178   -1.6227 H   0  0  0  0  0  0  0  0  0  0  0  0
    1.2215    0.8880    1.0184 H   0  0  0  0  0  0  0  0  0  0  0  0
    1.0396   -1.9715   -0.1052 H   0  0  0  0  0  0  0  0  0  0  0  0
    1.1290   -1.6345    1.6146 H   0  0  0  0  0  0  0  0  0  0  0  0
   -1.0678   -0.7026   -0.2970 H   0  0  0  0  0  0  0  0  0  0  0  0
   -1.0284   -0.3001    1.4218 H   0  0  0  0  0  0  0  0  0  0  0  0
   -3.2140   -1.2251    0.9224 H   0  0  0  0  0  0  0  0  0  0  0  0
   -3.4845   -2.9232    1.2319 H   0  0  0  0  0  0  0  0  0  0  0  0
    3.3422   -1.3237    1.1271 N   0  0  0  0  0  0  0  0  0  0  0  0
    4.6937   -1.7734    1.3722 C   0  0  2  0  0  0  0  0  0  0  0  0
    5.4650   -0.6222    2.0041 C   0  0  0  0  0  0  0  0  0  0  0  0
    5.1317    0.5549    1.8834 O   0  0  0  0  0  0  0  0  0  0  0  0
    5.3640   -2.2369    0.0883 C   0  0  0  0  0  0  0  0  0  0  0  0
    2.5745   -1.9141    1.4332 H   0  0  0  0  0  0  0  0  0  0  0  0
    4.6267   -2.6032    2.0842 H   0  0  0  0  0  0  0  0  0  0  0  0
    5.4401   -1.4189   -0.6374 H   0  0  0  0  0  0  0  0  0  0  0  0
    6.3777   -2.6039    0.2801 H   0  0  0  0  0  0  0  0  0  0  0  0
    4.7918   -3.0448   -0.3804 H   0  0  0  0  0  0  0  0  0  0  0  0
    6.5936   -1.0604    2.6826 N   0  0  0  0  0  0  0  0  0  0  0  0
    7.4975   -0.1578    3.3567 C   0  0  0  0  0  0  0  0  0  0  0  0
    6.7824   -2.0563    2.7474 H   0  0  0  0  0  0  0  0  0  0  0  0
    8.3106    0.1265    2.6726 H   0  0  0  0  0  0  0  0  0  0  0  0
    6.9498    0.7434    3.6697 H   0  0  0  0  0  0  0  0  0  0  0  0
    7.9203   -0.6558    4.2417 H   0  0  0  0  0  0  0  0  0  0  0  0
  1  3  1  0  0  0  0
  1  7  1  0  0  0  0
  1  2  2  0  0  0  0
 22 23  1  0  0  0  0
 23 25  1  0  0  0  0
 23 24  2  0  0  0  0
 35 36  1  0  0  0  0
 36 44  1  0  0  0  0
 36 37  2  0  0  0  0
  8  9  1  0  0  0  0
  9 17  1  0  0  0  0
  9 10  2  0  0  0  0
 18 19  1  0  0  0  0
 19 34  1  0  0  0  0
 19 20  2  0  0  0  0
 35 38  1  0  0  0  0
  8 11  1  0  0  0  0
 44 45  1  0  0  0  0
 21 22  1  0  0  0  0
 18 21  1  0  0  0  0
 34 35  1  0  0  0  0
  7  8  1  0  0  0  0
 17 18  1  0  0  0  0
  3  4  1  0  0  0  0
  3  5  1  0  0  0  0
  3  6  1  0  0  0  0
 38 41  1  0  0  0  0
 38 42  1  0  0  0  0
 38 43  1  0  0  0  0
 11 14  1  0  0  0  0
 11 15  1  0  0  0  0
 11 16  1  0  0  0  0
 45 47  1  0  0  0  0
 45 48  1  0  0  0  0
 45 49  1  0  0  0  0
 22 30  1  0  0  0  0
 22 31  1  0  0  0  0
 21 28  1  0  0  0  0
 21 29  1  0  0  0  0
 35 40  1  0  0  0  0
  8 13  1  0  0  0  0
 18 27  1  0  0  0  0
 25 32  1  0  0  0  0
 25 33  1  0  0  0  0
 44 46  1  0  0  0  0
  7 12  1  0  0  0  0
 34 39  1  0  0  0  0
 17 26  1  0  0  0  0
M  END
$$$$

  -OEChem-05262214473D

 49 48  0     1  0  0  0  0  0999 V2000
   -1.9833   -0.0509   -3.3423 C   0  0  0  0  0  0  0  0  0  0  0  0
   -1.6199   -1.0613   -2.7518 O   0  0  0  0  0  0  0  0  0  0  0  0
   -3.3243   -0.0235   -3.9975 C   0  0  0  0  0  0  0  0  0  0  0  0
   -3.2886   -0.3689   -5.0432 H   0  0  0  0  0  0  0  0  0  0  0  0
   -4.0503   -0.6845   -3.4973 H   0  0  0  0  0  0  0  0  0  0  0  0
   -3.8104    0.9645   -4.0351 H   0  0  0  0  0  0  0  0  0  0  0  0
   -1.2607    1.1231   -3.4768 N   0  0  0  0  0  0  0  0  0  0  0  0
    0.0536    1.3115   -2.9213 C   0  0  2  0  0  0  0  0  0  0  0  0
    0.0266    0.8315   -1.4761 C   0  0  0  0  0  0  0  0  0  0  0  0
   -1.0065    0.7530   -0.8146 O   0  0  0  0  0  0  0  0  0  0  0  0
    0.4852    2.7674   -3.0025 C   0  0  0  0  0  0  0  0  0  0  0  0
   -1.6809    1.8924   -3.9952 H   0  0  0  0  0  0  0  0  0  0  0  0
    0.7360    0.6822   -3.5030 H   0  0  0  0  0  0  0  0  0  0  0  0
   -0.1867    3.4133   -2.4256 H   0  0  0  0  0  0  0  0  0  0  0  0
    1.4966    2.9042   -2.6056 H   0  0  0  0  0  0  0  0  0  0  0  0
    0.4754    3.1196   -4.0397 H   0  0  0  0  0  0  0  0  0  0  0  0
    1.2978    0.5411   -0.9947 N   0  0  0  0  0  0  0  0  0  0  0  0
    1.5371    0.0807    0.3489 C   0  0  2  0  0  0  0  0  0  0  0  0
    3.0407   -0.1257    0.4946 C   0  0  0  0  0  0  0  0  0  0  0  0
    3.8603    0.7704    0.3043 O   0  0  0  0  0  0  0  0  0  0  0  0
    0.7877   -1.2218    0.6568 C   0  0  0  0  0  0  0  0  0  0  0  0
   -0.7330   -1.0563    0.6860 C   0  0  0  0  0  0  0  0  0  0  0  0
   -1.4777   -2.3482    0.9666 C   0  0  0  0  0  0  0  0  0  0  0  0
   -0.9338   -3.4423    1.0845 O   0  0  0  0  0  0  0  0  0  0  0  0
   -2.8408   -2.1601    1.0490 N   0  0  0  0  0  0  0  0  0  0  0  0
    2.0949    0.6178   -1.6227 H   0  0  0  0  0  0  0  0  0  0  0  0
    1.2215    0.8880    1.0184 H   0  0  0  0  0  0  0  0  0  0  0  0
    1.0396   -1.9715   -0.1052 H   0  0  0  0  0  0  0  0  0  0  0  0
    1.1290   -1.6345    1.6146 H   0  0  0  0  0  0  0  0  0  0  0  0
   -1.0678   -0.7026   -0.2970 H   0  0  0  0  0  0  0  0  0  0  0  0
   -1.0284   -0.3001    1.4218 H   0  0  0  0  0  0  0  0  0  0  0  0
   -3.2140   -1.2251    0.9224 H   0  0  0  0  0  0  0  0  0  0  0  0
   -3.4845   -2.9232    1.2319 H   0  0  0  0  0  0  0  0  0  0  0  0
    3.3569   -1.4393    0.8120 N   0  0  0  0  0  0  0  0  0  0  0  0
    4.7124   -1.9093    0.9860 C   0  0  2  0  0  0  0  0  0  0  0  0
    5.4292   -0.9426    1.9193 C   0  0  0  0  0  0  0  0  0  0  0  0
    5.0656    0.2192    2.0898 O   0  0  0  0  0  0  0  0  0  0  0  0
    5.4366   -2.0155   -0.3471 C   0  0  0  0  0  0  0  0  0  0  0  0
    2.5974   -2.1037    0.9279 H   0  0  0  0  0  0  0  0  0  0  0  0
    4.6471   -2.8948    1.4599 H   0  0  0  0  0  0  0  0  0  0  0  0
    5.5117   -1.0378   -0.8369 H   0  0  0  0  0  0  0  0  0  0  0  0
    6.4540   -2.3988   -0.2165 H   0  0  0  0  0  0  0  0  0  0  0  0
    4.9035   -2.6881   -1.0277 H   0  0  0  0  0  0  0  0  0  0  0  0
    6.5480   -1.5169    2.5064 N   0  0  0  0  0  0  0  0  0  0  0  0
    7.4032   -0.7986    3.4223 C   0  0  0  0  0  0  0  0  0  0  0  0
    6.7637   -2.4923    2.3225 H   0  0  0  0  0  0  0  0  0  0  0  0
    8.2290   -0.3325    2.8649 H   0  0  0  0  0  0  0  0  0  0  0  0
    6.8197   -0.0187    3.9335 H   0  0  0  0  0  0  0  0  0  0  0  0
    7.8121   -1.4977    4.1667 H   0  0  0  0  0  0  0  0  0  0  0  0
  1  3  1  0  0  0  0
  1  7  1  0  0  0  0
  1  2  2  0  0  0  0
 22 23  1  0  0  0  0
 23 25  1  0  0  0  0
 23 24  2  0  0  0  0
 35 36  1  0  0  0  0
 36 44  1  0  0  0  0
 36 37  2  0  0  0  0
  8  9  1  0  0  0  0
  9 17  1  0  0  0  0
  9 10  2  0  0  0  0
 18 19  1  0  0  0  0
 19 34  1  0  0  0  0
 19 20  2  0  0  0  0
 35 38  1  0  0  0  0
  8 11  1  0  0  0  0
 44 45  1  0  0  0  0
 21 22  1  0  0  0  0
 18 21  1  0  0  0  0
 34 35  1  0  0  0  0
  7  8  1  0  0  0  0
 17 18  1  0  0  0  0
  3  4  1  0  0  0  0
  3  5  1  0  0  0  0
  3  6  1  0  0  0  0
 38 41  1  0  0  0  0
 38 42  1  0  0  0  0
 38 43  1  0  0  0  0
 11 14  1  0  0  0  0
 11 15  1  0  0  0  0
 11 16  1  0  0  0  0
 45 47  1  0  0  0  0
 45 48  1  0  0  0  0
 45 49  1  0  0  0  0
 22 30  1  0  0  0  0
 22 31  1  0  0  0  0
 21 28  1  0  0  0  0
 21 29  1  0  0  0  0
 35 40  1  0  0  0  0
  8 13  1  0  0  0  0
 18 27  1  0  0  0  0
 25 32  1  0  0  0  0
 25 33  1  0  0  0  0
 44 46  1  0  0  0  0
  7 12  1  0  0  0  0
 34 39  1  0  0  0  0
 17 26  1  0  0  0  0
M  END
$$$$

  -OEChem-05262214473D

 49 48  0     1  0  0  0  0  0999 V2000
   -1.9833   -0.0509   -3.3423 C   0  0  0  0  0  0  0  0  0  0  0  0
   -1.6199   -1.0613   -2.7518 O   0  0  0  0  0  0  0  0  0  0  0  0
   -3.3243   -0.0235   -3.9975 C   0  0  0  0  0  0  0  0  0  0  0  0
   -3.2886   -0.3689   -5.0432 H   0  0  0  0  0  0  0  0  0  0  0  0
   -4.0503   -0.6845   -3.4973 H   0  0  0  0  0  0  0  0  0  0  0  0
   -3.8104    0.9645   -4.0351 H   0  0  0  0  0  0  0  0  0  0  0  0
   -1.2607    1.1231   -3.4768 N   0  0  0  0  0  0  0  0  0  0  0  0
    0.0536    1.3115   -2.9213 C   0  0  2  0  0  0  0  0  0  0  0  0
    0.0266    0.8315   -1.4761 C   0  0  0  0  0  0  0  0  0  0  0  0
   -1.0065    0.7530   -0.8146 O   0  0  0  0  0  0  0  0  0  0  0  0
    0.4852    2.7674   -3.0025 C   0  0  0  0  0  0  0  0  0  0  0  0
   -1.6809    1.8924   -3.9952 H   0  0  0  0  0  0  0  0  0  0  0  0
    0.7360    0.6822   -3.5030 H   0  0  0  0  0  0  0  0  0  0  0  0
   -0.1867    3.4133   -2.4256 H   0  0  0  0  0  0  0  0  0  0  0  0
    1.4966    2.9042   -2.6056 H   0  0  0  0  0  0  0  0  0  0  0  0
    0.4754    3.1196   -4.0397 H   0  0  0  0  0  0  0  0  0  0  0  0
    1.2978    0.5411   -0.9947 N   0  0  0  0  0  0  0  0  0  0  0  0
    1.5371    0.0807    0.3489 C   0  0  2  0  0  0  0  0  0  0  0  0
    3.0407   -0.1257    0.4946 C   0  0  0  0  0  0  0  0  0  0  0  0
    3.8394    0.8056    0.5704 O   0  0  0  0  0  0  0  0  0  0  0  0
    0.7877   -1.2218    0.6568 C   0  0  0  0  0  0  0  0  0  0  0  0
   -0.7330   -1.0563    0.6860 C   0  0  0  0  0  0  0  0  0  0  0  0
   -1.4777   -2.3482    0.9666 C   0  0  0  0  0  0  0  0  0  0  0  0
   -0.9338   -3.4423    1.0845 O   0  0  0  0  0  0  0  0  0  0  0  0
   -2.8408   -2.1601    1.0490 N   0  0  0  0  0  0  0  0  0  0  0  0
    2.0949    0.6178   -1.6227 H   0  0  0  0  0  0  0  0  0  0  0  0
    1.2215    0.8880    1.0184 H   0  0  0  0  0  0  0  0  0  0  0  0
    1.0396   -1.9715   -0.1052 H   0  0  0  0  0  0  0  0  0  0  0  0
    1.1290   -1.6345    1.6146 H   0  0  0  0  0  0  0  0  0  0  0  0
   -1.0678   -0.7026   -0.2970 H   0  0  0  0  0  0  0  0  0  0  0  0
   -1.0284   -0.3001    1.4218 H   0  0  0  0  0  0  0  0  0  0  0  0
   -3.2140   -1.2251    0.9224 H   0  0  0  0  0  0  0  0  0  0  0  0
   -3.4845   -2.9232    1.2319 H   0  0  0  0  0  0  0  0  0  0  0  0
    3.3849   -1.4702    0.4787 N   0  0  0  0  0  0  0  0  0  0  0  0
    4.7474   -1.9416    0.5788 C   0  0  2  0  0  0  0  0  0  0  0  0
    5.4056   -1.2314    1.7544 C   0  0  0  0  0  0  0  0  0  0  0  0
    5.0029   -0.1594    2.2013 O   0  0  0  0  0  0  0  0  0  0  0  0
    5.5164   -1.6888   -0.7086 C   0  0  0  0  0  0  0  0  0  0  0  0
    2.6419   -2.1573    0.3923 H   0  0  0  0  0  0  0  0  0  0  0  0
    4.6960   -3.0166    0.7832 H   0  0  0  0  0  0  0  0  0  0  0  0
    5.5785   -0.6170   -0.9299 H   0  0  0  0  0  0  0  0  0  0  0  0
    6.5399   -2.0721   -0.6412 H   0  0  0  0  0  0  0  0  0  0  0  0
    5.0252   -2.1756   -1.5580 H   0  0  0  0  0  0  0  0  0  0  0  0
    6.5215   -1.9140    2.2181 N   0  0  0  0  0  0  0  0  0  0  0  0
    7.3256   -1.4367    3.3188 C   0  0  0  0  0  0  0  0  0  0  0  0
    6.7714   -2.8054    1.8002 H   0  0  0  0  0  0  0  0  0  0  0  0
    8.1547   -0.8270    2.9305 H   0  0  0  0  0  0  0  0  0  0  0  0
    6.7036   -0.8253    3.9891 H   0  0  0  0  0  0  0  0  0  0  0  0
    7.7309   -2.2945    3.8756 H   0  0  0  0  0  0  0  0  0  0  0  0
  1  3  1  0  0  0  0
  1  7  1  0  0  0  0
  1  2  2  0  0  0  0
 22 23  1  0  0  0  0
 23 25  1  0  0  0  0
 23 24  2  0  0  0  0
 35 36  1  0  0  0  0
 36 44  1  0  0  0  0
 36 37  2  0  0  0  0
  8  9  1  0  0  0  0
  9 17  1  0  0  0  0
  9 10  2  0  0  0  0
 18 19  1  0  0  0  0
 19 34  1  0  0  0  0
 19 20  2  0  0  0  0
 35 38  1  0  0  0  0
  8 11  1  0  0  0  0
 44 45  1  0  0  0  0
 21 22  1  0  0  0  0
 18 21  1  0  0  0  0
 34 35  1  0  0  0  0
  7  8  1  0  0  0  0
 17 18  1  0  0  0  0
  3  4  1  0  0  0  0
  3  5  1  0  0  0  0
  3  6  1  0  0  0  0
 38 41  1  0  0  0  0
 38 42  1  0  0  0  0
 38 43  1  0  0  0  0
 11 14  1  0  0  0  0
 11 15  1  0  0  0  0
 11 16  1  0  0  0  0
 45 47  1  0  0  0  0
 45 48  1  0  0  0  0
 45 49  1  0  0  0  0
 22 30  1  0  0  0  0
 22 31  1  0  0  0  0
 21 28  1  0  0  0  0
 21 29  1  0  0  0  0
 35 40  1  0  0  0  0
  8 13  1  0  0  0  0
 18 27  1  0  0  0  0
 25 32  1  0  0  0  0
 25 33  1  0  0  0  0
 44 46  1  0  0  0  0
  7 12  1  0  0  0  0
 34 39  1  0  0  0  0
 17 26  1  0  0  0  0
M  END
$$$$

  -OEChem-05262214473D

 49 48  0     1  0  0  0  0  0999 V2000
   -1.9833   -0.0509   -3.3423 C   0  0  0  0  0  0  0  0  0  0  0  0
   -1.6199   -1.0613   -2.7518 O   0  0  0  0  0  0  0  0  0  0  0  0
   -3.3243   -0.0235   -3.9975 C   0  0  0  0  0  0  0  0  0  0  0  0
   -3.2886   -0.3689   -5.0432 H   0  0  0  0  0  0  0  0  0  0  0  0
   -4.0503   -0.6845   -3.4973 H   0  0  0  0  0  0  0  0  0  0  0  0
   -3.8104    0.9645   -4.0351 H   0  0  0  0  0  0  0  0  0  0  0  0
   -1.2607    1.1231   -3.4768 N   0  0  0  0  0  0  0  0  0  0  0  0
    0.0536    1.3115   -2.9213 C   0  0  2  0  0  0  0  0  0  0  0  0
    0.0266    0.8315   -1.4761 C   0  0  0  0  0  0  0  0  0  0  0  0
   -1.0065    0.7530   -0.8146 O   0  0  0  0  0  0  0  0  0  0  0  0
    0.4852    2.7674   -3.0025 C   0  0  0  0  0  0  0  0  0  0  0  0
   -1.6809    1.8924   -3.9952 H   0  0  0  0  0  0  0  0  0  0  0  0
    0.7360    0.6822   -3.5030 H   0  0  0  0  0  0  0  0  0  0  0  0
   -0.1867    3.4133   -2.4256 H   0  0  0  0  0  0  0  0  0  0  0  0
    1.4966    2.9042   -2.6056 H   0  0  0  0  0  0  0  0  0  0  0  0
    0.4754    3.1196   -4.0397 H   0  0  0  0  0  0  0  0  0  0  0  0
    1.2978    0.5411   -0.9947 N   0  0  0  0  0  0  0  0  0  0  0  0
    1.5371    0.0807    0.3489 C   0  0  2  0  0  0  0  0  0  0  0  0
    3.0407   -0.1257    0.4946 C   0  0  0  0  0  0  0  0  0  0  0  0
    3.8090    0.7712    0.8357 O   0  0  0  0  0  0  0  0  0  0  0  0
    0.7877   -1.2218    0.6568 C   0  0  0  0  0  0  0  0  0  0  0  0
   -0.7330   -1.0563    0.6860 C   0  0  0  0  0  0  0  0  0  0  0  0
   -1.4777   -2.3482    0.9666 C   0  0  0  0  0  0  0  0  0  0  0  0
   -0.9338   -3.4423    1.0845 O   0  0  0  0  0  0  0  0  0  0  0  0
   -2.8408   -2.1601    1.0490 N   0  0  0  0  0  0  0  0  0  0  0  0
    2.0949    0.6178   -1.6227 H   0  0  0  0  0  0  0  0  0  0  0  0
    1.2215    0.8880    1.0184 H   0  0  0  0  0  0  0  0  0  0  0  0
    1.0396   -1.9715   -0.1052 H   0  0  0  0  0  0  0  0  0  0  0  0
    1.1290   -1.6345    1.6146 H   0  0  0  0  0  0  0  0  0  0  0  0
   -1.0678   -0.7026   -0.2970 H   0  0  0  0  0  0  0  0  0  0  0  0
   -1.0284   -0.3001    1.4218 H   0  0  0  0  0  0  0  0  0  0  0  0
   -3.2140   -1.2251    0.9224 H   0  0  0  0  0  0  0  0  0  0  0  0
   -3.4845   -2.9232    1.2319 H   0  0  0  0  0  0  0  0  0  0  0  0
    3.4245   -1.4142    0.1498 N   0  0  0  0  0  0  0  0  0  0  0  0
    4.7963   -1.8679    0.1785 C   0  0  2  0  0  0  0  0  0  0  0  0
    5.3956   -1.4688    1.5206 C   0  0  0  0  0  0  0  0  0  0  0  0
    4.9477   -0.5551    2.2101 O   0  0  0  0  0  0  0  0  0  0  0  0
    5.5982   -1.2789   -0.9716 C   0  0  0  0  0  0  0  0  0  0  0  0
    2.7050   -2.0713   -0.1371 H   0  0  0  0  0  0  0  0  0  0  0  0
    4.7699   -2.9603    0.1001 H   0  0  0  0  0  0  0  0  0  0  0  0
    5.6358   -0.1852   -0.9099 H   0  0  0  0  0  0  0  0  0  0  0  0
    6.6298   -1.6460   -0.9650 H   0  0  0  0  0  0  0  0  0  0  0  0
    5.1487   -1.5422   -1.9351 H   0  0  0  0  0  0  0  0  0  0  0  0
    6.5157   -2.2246    1.8374 N   0  0  0  0  0  0  0  0  0  0  0  0
    7.2701   -2.0285    3.0533 C   0  0  0  0  0  0  0  0  0  0  0  0
    6.8048   -2.9743    1.2160 H   0  0  0  0  0  0  0  0  0  0  0  0
    8.0930   -1.3232    2.8652 H   0  0  0  0  0  0  0  0  0  0  0  0
    6.6095   -1.6215    3.8329 H   0  0  0  0  0  0  0  0  0  0  0  0
    7.6824   -2.9918    3.3882 H   0  0  0  0  0  0  0  0  0  0  0  0
  1  3  1  0  0  0  0
  1  7  1  0  0  0  0
  1  2  2  0  0  0  0
 22 23  1  0  0  0  0
 23 25  1  0  0  0  0
 23 24  2  0  0  0  0
 35 36  1  0  0  0  0
 36 44  1  0  0  0  0
 36 37  2  0  0  0  0
  8  9  1  0  0  0  0
  9 17  1  0  0  0  0
  9 10  2  0  0  0  0
 18 19  1  0  0  0  0
 19 34  1  0  0  0  0
 19 20  2  0  0  0  0
 35 38  1  0  0  0  0
  8 11  1  0  0  0  0
 44 45  1  0  0  0  0
 21 22  1  0  0  0  0
 18 21  1  0  0  0  0
 34 35  1  0  0  0  0
  7  8  1  0  0  0  0
 17 18  1  0  0  0  0
  3  4  1  0  0  0  0
  3  5  1  0  0  0  0
  3  6  1  0  0  0  0
 38 41  1  0  0  0  0
 38 42  1  0  0  0  0
 38 43  1  0  0  0  0
 11 14  1  0  0  0  0
 11 15  1  0  0  0  0
 11 16  1  0  0  0  0
 45 47  1  0  0  0  0
 45 48  1  0  0  0  0
 45 49  1  0  0  0  0
 22 30  1  0  0  0  0
 22 31  1  0  0  0  0
 21 28  1  0  0  0  0
 21 29  1  0  0  0  0
 35 40  1  0  0  0  0
  8 13  1  0  0  0  0
 18 27  1  0  0  0  0
 25 32  1  0  0  0  0
 25 33  1  0  0  0  0
 44 46  1  0  0  0  0
  7 12  1  0  0  0  0
 34 39  1  0  0  0  0
 17 26  1  0  0  0  0
M  END
$$$$

  -OEChem-05262214473D

 49 48  0     1  0  0  0  0  0999 V2000
   -1.9833   -0.0509   -3.3423 C   0  0  0  0  0  0  0  0  0  0  0  0
   -1.6199   -1.0613   -2.7518 O   0  0  0  0  0  0  0  0  0  0  0  0
   -3.3243   -0.0235   -3.9975 C   0  0  0  0  0  0  0  0  0  0  0  0
   -3.2886   -0.3689   -5.0432 H   0  0  0  0  0  0  0  0  0  0  0  0
   -4.0503   -0.6845   -3.4973 H   0  0  0  0  0  0  0  0  0  0  0  0
   -3.8104    0.9645   -4.0351 H   0  0  0  0  0  0  0  0  0  0  0  0
   -1.2607    1.1231   -3.4768 N   0  0  0  0  0  0  0  0  0  0  0  0
    0.0536    1.3115   -2.9213 C   0  0  2  0  0  0  0  0  0  0  0  0
    0.0266    0.8315   -1.4761 C   0  0  0  0  0  0  0  0  0  0  0  0
   -1.0065    0.7530   -0.8146 O   0  0  0  0  0  0  0  0  0  0  0  0
    0.4852    2.7674   -3.0025 C   0  0  0  0  0  0  0  0  0  0  0  0
   -1.6809    1.8924   -3.9952 H   0  0  0  0  0  0  0  0  0  0  0  0
    0.7360    0.6822   -3.5030 H   0  0  0  0  0  0  0  0  0  0  0  0
   -0.1867    3.4133   -2.4256 H   0  0  0  0  0  0  0  0  0  0  0  0
    1.4966    2.9042   -2.6056 H   0  0  0  0  0  0  0  0  0  0  0  0
    0.4754    3.1196   -4.0397 H   0  0  0  0  0  0  0  0  0  0  0  0
    1.2978    0.5411   -0.9947 N   0  0  0  0  0  0  0  0  0  0  0  0
    1.5371    0.0807    0.3489 C   0  0  2  0  0  0  0  0  0  0  0  0
    3.0407   -0.1257    0.4946 C   0  0  0  0  0  0  0  0  0  0  0  0
    3.7712    0.6694    1.0821 O   0  0  0  0  0  0  0  0  0  0  0  0
    0.7877   -1.2218    0.6568 C   0  0  0  0  0  0  0  0  0  0  0  0
   -0.7330   -1.0563    0.6860 C   0  0  0  0  0  0  0  0  0  0  0  0
   -1.4777   -2.3482    0.9666 C   0  0  0  0  0  0  0  0  0  0  0  0
   -0.9338   -3.4423    1.0845 O   0  0  0  0  0  0  0  0  0  0  0  0
   -2.8408   -2.1601    1.0490 N   0  0  0  0  0  0  0  0  0  0  0  0
    2.0949    0.6178   -1.6227 H   0  0  0  0  0  0  0  0  0  0  0  0
    1.2215    0.8880    1.0184 H   0  0  0  0  0  0  0  0  0  0  0  0
    1.0396   -1.9715   -0.1052 H   0  0  0  0  0  0  0  0  0  0  0  0
    1.1290   -1.6345    1.6146 H   0  0  0  0  0  0  0  0  0  0  0  0
   -1.0678   -0.7026   -0.2970 H   0  0  0  0  0  0  0  0  0  0  0  0
   -1.0284   -0.3001    1.4218 H   0  0  0  0  0  0  0  0  0  0  0  0
   -3.2140   -1.2251    0.9224 H   0  0  0  0  0  0  0  0  0  0  0  0
   -3.4845   -2.9232    1.2319 H   0  0  0  0  0  0  0  0  0  0  0  0
    3.4728   -1.2752   -0.1522 N   0  0  0  0  0  0  0  0  0  0  0  0
    4.8557   -1.6934   -0.1876 C   0  0  2  0  0  0  0  0  0  0  0  0
    5.4001   -1.6387    1.2337 C   0  0  0  0  0  0  0  0  0  0  0  0
    4.9039   -0.9409    2.1157 O   0  0  0  0  0  0  0  0  0  0  0  0
    5.6762   -0.8139   -1.1181 C   0  0  0  0  0  0  0  0  0  0  0  0
    2.7824   -1.8514   -0.6244 H   0  0  0  0  0  0  0  0  0  0  0  0
    4.8638   -2.7297   -0.5427 H   0  0  0  0  0  0  0  0  0  0  0  0
    5.6798    0.2283   -0.7784 H   0  0  0  0  0  0  0  0  0  0  0  0
    6.7174   -1.1495   -1.1658 H   0  0  0  0  0  0  0  0  0  0  0  0
    5.2655   -0.8310   -2.1334 H   0  0  0  0  0  0  0  0  0  0  0  0
    6.5312   -2.4276    1.3901 N   0  0  0  0  0  0  0  0  0  0  0  0
    7.2404   -2.5338    2.6438 C   0  0  0  0  0  0  0  0  0  0  0  0
    6.8617   -2.9875    0.6097 H   0  0  0  0  0  0  0  0  0  0  0  0
    8.0479   -1.7873    2.6732 H   0  0  0  0  0  0  0  0  0  0  0  0
    6.5437   -2.3530    3.4756 H   0  0  0  0  0  0  0  0  0  0  0  0
    7.6699   -3.5421    2.7377 H   0  0  0  0  0  0  0  0  0  0  0  0
  1  3  1  0  0  0  0
  1  7  1  0  0  0  0
  1  2  2  0  0  0  0
 22 23  1  0  0  0  0
 23 25  1  0  0  0  0
 23 24  2  0  0  0  0
 35 36  1  0  0  0  0
 36 44  1  0  0  0  0
 36 37  2  0  0  0  0
  8  9  1  0  0  0  0
  9 17  1  0  0  0  0
  9 10  2  0  0  0  0
 18 19  1  0  0  0  0
 19 34  1  0  0  0  0
 19 20  2  0  0  0  0
 35 38  1  0  0  0  0
  8 11  1  0  0  0  0
 44 45  1  0  0  0  0
 21 22  1  0  0  0  0
 18 21  1  0  0  0  0
 34 35  1  0  0  0  0
  7  8  1  0  0  0  0
 17 18  1  0  0  0  0
  3  4  1  0  0  0  0
  3  5  1  0  0  0  0
  3  6  1  0  0  0  0
 38 41  1  0  0  0  0
 38 42  1  0  0  0  0
 38 43  1  0  0  0  0
 11 14  1  0  0  0  0
 11 15  1  0  0  0  0
 11 16  1  0  0  0  0
 45 47  1  0  0  0  0
 45 48  1  0  0  0  0
 45 49  1  0  0  0  0
 22 30  1  0  0  0  0
 22 31  1  0  0  0  0
 21 28  1  0  0  0  0
 21 29  1  0  0  0  0
 35 40  1  0  0  0  0
  8 13  1  0  0  0  0
 18 27  1  0  0  0  0
 25 32  1  0  0  0  0
 25 33  1  0  0  0  0
 44 46  1  0  0  0  0
  7 12  1  0  0  0  0
 34 39  1  0  0  0  0
 17 26  1  0  0  0  0
M  END
$$$$

  -OEChem-05262214473D

 49 48  0     1  0  0  0  0  0999 V2000
   -1.9833   -0.0509   -3.3423 C   0  0  0  0  0  0  0  0  0  0  0  0
   -1.6199   -1.0613   -2.7518 O   0  0  0  0  0  0  0  0  0  0  0  0
   -3.3243   -0.0235   -3.9975 C   0  0  0  0  0  0  0  0  0  0  0  0
   -3.2886   -0.3689   -5.0432 H   0  0  0  0  0  0  0  0  0  0  0  0
   -4.0503   -0.6845   -3.4973 H   0  0  0  0  0  0  0  0  0  0  0  0
   -3.8104    0.9645   -4.0351 H   0  0  0  0  0  0  0  0  0  0  0  0
   -1.2607    1.1231   -3.4768 N   0  0  0  0  0  0  0  0  0  0  0  0
    0.0536    1.3115   -2.9213 C   0  0  2  0  0  0  0  0  0  0  0  0
    0.0266    0.8315   -1.4761 C   0  0  0  0  0  0  0  0  0  0  0  0
   -1.0065    0.7530   -0.8146 O   0  0  0  0  0  0  0  0  0  0  0  0
    0.4852    2.7674   -3.0025 C   0  0  0  0  0  0  0  0  0  0  0  0
   -1.6809    1.8924   -3.9952 H   0  0  0  0  0  0  0  0  0  0  0  0
    0.7360    0.6822   -3.5030 H   0  0  0  0  0  0  0  0  0  0  0  0
   -0.1867    3.4133   -2.4256 H   0  0  0  0  0  0  0  0  0  0  0  0
    1.4966    2.9042   -2.6056 H   0  0  0  0  0  0  0  0  0  0  0  0
    0.4754    3.1196   -4.0397 H   0  0  0  0  0  0  0  0  0  0  0  0
    1.2978    0.5411   -0.9947 N   0  0  0  0  0  0  0  0  0  0  0  0
    1.5371    0.0807    0.3489 C   0  0  2  0  0  0  0  0  0  0  0  0
    3.0407   -0.1257    0.4946 C   0  0  0  0  0  0  0  0  0  0  0  0
    3.7285    0.5074    1.2928 O   0  0  0  0  0  0  0  0  0  0  0  0
    0.7877   -1.2218    0.6568 C   0  0  0  0  0  0  0  0  0  0  0  0
   -0.7330   -1.0563    0.6860 C   0  0  0  0  0  0  0  0  0  0  0  0
   -1.4777   -2.3482    0.9666 C   0  0  0  0  0  0  0  0  0  0  0  0
   -0.9338   -3.4423    1.0845 O   0  0  0  0  0  0  0  0  0  0  0  0
   -2.8408   -2.1601    1.0490 N   0  0  0  0  0  0  0  0  0  0  0  0
    2.0949    0.6178   -1.6227 H   0  0  0  0  0  0  0  0  0  0  0  0
    1.2215    0.8880    1.0184 H   0  0  0  0  0  0  0  0  0  0  0  0
    1.0396   -1.9715   -0.1052 H   0  0  0  0  0  0  0  0  0  0  0  0
    1.1290   -1.6345    1.6146 H   0  0  0  0  0  0  0  0  0  0  0  0
   -1.0678   -0.7026   -0.2970 H   0  0  0  0  0  0  0  0  0  0  0  0
   -1.0284   -0.3001    1.4218 H   0  0  0  0  0  0  0  0  0  0  0  0
   -3.2140   -1.2251    0.9224 H   0  0  0  0  0  0  0  0  0  0  0  0
   -3.4845   -2.9232    1.2319 H   0  0  0  0  0  0  0  0  0  0  0  0
    3.5266   -1.0627   -0.4068 N   0  0  0  0  0  0  0  0  0  0  0  0
    4.9216   -1.4300   -0.4946 C   0  0  2  0  0  0  0  0  0  0  0  0
    5.4187   -1.7295    0.9135 C   0  0  0  0  0  0  0  0  0  0  0  0
    4.8744   -1.2905    1.9245 O   0  0  0  0  0  0  0  0  0  0  0  0
    5.7452   -0.3253   -1.1383 C   0  0  0  0  0  0  0  0  0  0  0  0
    2.8687   -1.5128   -1.0362 H   0  0  0  0  0  0  0  0  0  0  0  0
    4.9713   -2.3406   -1.1015 H   0  0  0  0  0  0  0  0  0  0  0  0
    5.7075    0.5952   -0.5443 H   0  0  0  0  0  0  0  0  0  0  0  0
    6.7967   -0.6166   -1.2301 H   0  0  0  0  0  0  0  0  0  0  0  0
    5.3676   -0.0906   -2.1393 H   0  0  0  0  0  0  0  0  0  0  0  0
    6.5668   -2.5092    0.9068 N   0  0  0  0  0  0  0  0  0  0  0  0
    7.2386   -2.9180    2.1182 C   0  0  0  0  0  0  0  0  0  0  0  0
    6.9382   -2.8441    0.0227 H   0  0  0  0  0  0  0  0  0  0  0  0
    8.0225   -2.1878    2.3677 H   0  0  0  0  0  0  0  0  0  0  0  0
    6.5107   -2.9701    2.9413 H   0  0  0  0  0  0  0  0  0  0  0  0
    7.6942   -3.9080    1.9685 H   0  0  0  0  0  0  0  0  0  0  0  0
  1  3  1  0  0  0  0
  1  7  1  0  0  0  0
  1  2  2  0  0  0  0
 22 23  1  0  0  0  0
 23 25  1  0  0  0  0
 23 24  2  0  0  0  0
 35 36  1  0  0  0  0
 36 44  1  0  0  0  0
 36 37  2  0  0  0  0
  8  9  1  0  0  0  0
  9 17  1  0  0  0  0
  9 10  2  0  0  0  0
 18 19  1  0  0  0  0
 19 34  1  0  0  0  0
 19 20  2  0  0  0  0
 35 38  1  0  0  0  0
  8 11  1  0  0  0  0
 44 45  1  0  0  0  0
 21 22  1  0  0  0  0
 18 21  1  0  0  0  0
 34 35  1  0  0  0  0
  7  8  1  0  0  0  0
 17 18  1  0  0  0  0
  3  4  1  0  0  0  0
  3  5  1  0  0  0  0
  3  6  1  0  0  0  0
 38 41  1  0  0  0  0
 38 42  1  0  0  0  0
 38 43  1  0  0  0  0
 11 14  1  0  0  0  0
 11 15  1  0  0  0  0
 11 16  1  0  0  0  0
 45 47  1  0  0  0  0
 45 48  1  0  0  0  0
 45 49  1  0  0  0  0
 22 30  1  0  0  0  0
 22 31  1  0  0  0  0
 21 28  1  0  0  0  0
 21 29  1  0  0  0  0
 35 40  1  0  0  0  0
  8 13  1  0  0  0  0
 18 27  1  0  0  0  0
 25 32  1  0  0  0  0
 25 33  1  0  0  0  0
 44 46  1  0  0  0  0
  7 12  1  0  0  0  0
 34 39  1  0  0  0  0
 17 26  1  0  0  0  0
M  END
$$$$

  -OEChem-05262214473D

 49 48  0     1  0  0  0  0  0999 V2000
   -1.9833   -0.0509   -3.3423 C   0  0  0  0  0  0  0  0  0  0  0  0
   -1.6199   -1.0613   -2.7518 O   0  0  0  0  0  0  0  0  0  0  0  0
   -3.3243   -0.0235   -3.9975 C   0  0  0  0  0  0  0  0  0  0  0  0
   -3.2886   -0.3689   -5.0432 H   0  0  0  0  0  0  0  0  0  0  0  0
   -4.0503   -0.6845   -3.4973 H   0  0  0  0  0  0  0  0  0  0  0  0
   -3.8104    0.9645   -4.0351 H   0  0  0  0  0  0  0  0  0  0  0  0
   -1.2607    1.1231   -3.4768 N   0  0  0  0  0  0  0  0  0  0  0  0
    0.0536    1.3115   -2.9213 C   0  0  2  0  0  0  0  0  0  0  0  0
    0.0266    0.8315   -1.4761 C   0  0  0  0  0  0  0  0  0  0  0  0
   -1.0065    0.7530   -0.8146 O   0  0  0  0  0  0  0  0  0  0  0  0
    0.4852    2.7674   -3.0025 C   0  0  0  0  0  0  0  0  0  0  0  0
   -1.6809    1.8924   -3.9952 H   0  0  0  0  0  0  0  0  0  0  0  0
    0.7360    0.6822   -3.5030 H   0  0  0  0  0  0  0  0  0  0  0  0
   -0.1867    3.4133   -2.4256 H   0  0  0  0  0  0  0  0  0  0  0  0
    1.4966    2.9042   -2.6056 H   0  0  0  0  0  0  0  0  0  0  0  0
    0.4754    3.1196   -4.0397 H   0  0  0  0  0  0  0  0  0  0  0  0
    1.2978    0.5411   -0.9947 N   0  0  0  0  0  0  0  0  0  0  0  0
    1.5371    0.0807    0.3489 C   0  0  2  0  0  0  0  0  0  0  0  0
    3.0407   -0.1257    0.4946 C   0  0  0  0  0  0  0  0  0  0  0  0
    3.6839    0.2960    1.4534 O   0  0  0  0  0  0  0  0  0  0  0  0
    0.7877   -1.2218    0.6568 C   0  0  0  0  0  0  0  0  0  0  0  0
   -0.7330   -1.0563    0.6860 C   0  0  0  0  0  0  0  0  0  0  0  0
   -1.4777   -2.3482    0.9666 C   0  0  0  0  0  0  0  0  0  0  0  0
   -0.9338   -3.4423    1.0845 O   0  0  0  0  0  0  0  0  0  0  0  0
   -2.8408   -2.1601    1.0490 N   0  0  0  0  0  0  0  0  0  0  0  0
    2.0949    0.6178   -1.6227 H   0  0  0  0  0  0  0  0  0  0  0  0
    1.2215    0.8880    1.0184 H   0  0  0  0  0  0  0  0  0  0  0  0
    1.0396   -1.9715   -0.1052 H   0  0  0  0  0  0  0  0  0  0  0  0
    1.1290   -1.6345    1.6146 H   0  0  0  0  0  0  0  0  0  0  0  0
   -1.0678   -0.7026   -0.2970 H   0  0  0  0  0  0  0  0  0  0  0  0
   -1.0284   -0.3001    1.4218 H   0  0  0  0  0  0  0  0  0  0  0  0
   -3.2140   -1.2251    0.9224 H   0  0  0  0  0  0  0  0  0  0  0  0
   -3.4845   -2.9232    1.2319 H   0  0  0  0  0  0  0  0  0  0  0  0
    3.5823   -0.7911   -0.5965 N   0  0  0  0  0  0  0  0  0  0  0  0
    4.9895   -1.0955   -0.7216 C   0  0  2  0  0  0  0  0  0  0  0  0
    5.4501   -1.7350    0.5816 C   0  0  0  0  0  0  0  0  0  0  0  0
    4.8613   -1.5801    1.6495 O   0  0  0  0  0  0  0  0  0  0  0  0
    5.8004    0.1534   -1.0306 C   0  0  0  0  0  0  0  0  0  0  0  0
    2.9582   -1.0785   -1.3445 H   0  0  0  0  0  0  0  0  0  0  0  0
    5.0851   -1.8195   -1.5381 H   0  0  0  0  0  0  0  0  0  0  0  0
    5.7170    0.8905   -0.2236 H   0  0  0  0  0  0  0  0  0  0  0  0
    6.8625   -0.0834   -1.1533 H   0  0  0  0  0  0  0  0  0  0  0  0
    5.4483    0.6286   -1.9525 H   0  0  0  0  0  0  0  0  0  0  0  0
    6.6201   -2.4637    0.4204 N   0  0  0  0  0  0  0  0  0  0  0  0
    7.2648   -3.1551    1.5124 C   0  0  0  0  0  0  0  0  0  0  0  0
    7.0292   -2.5539   -0.5050 H   0  0  0  0  0  0  0  0  0  0  0  0
    8.0186   -2.4972    1.9696 H   0  0  0  0  0  0  0  0  0  0  0  0
    6.5129   -3.4305    2.2667 H   0  0  0  0  0  0  0  0  0  0  0  0
    7.7536   -4.0644    1.1329 H   0  0  0  0  0  0  0  0  0  0  0  0
  1  3  1  0  0  0  0
  1  7  1  0  0  0  0
  1  2  2  0  0  0  0
 22 23  1  0  0  0  0
 23 25  1  0  0  0  0
 23 24  2  0  0  0  0
 35 36  1  0  0  0  0
 36 44  1  0  0  0  0
 36 37  2  0  0  0  0
  8  9  1  0  0  0  0
  9 17  1  0  0  0  0
  9 10  2  0  0  0  0
 18 19  1  0  0  0  0
 19 34  1  0  0  0  0
 19 20  2  0  0  0  0
 35 38  1  0  0  0  0
  8 11  1  0  0  0  0
 44 45  1  0  0  0  0
 21 22  1  0  0  0  0
 18 21  1  0  0  0  0
 34 35  1  0  0  0  0
  7  8  1  0  0  0  0
 17 18  1  0  0  0  0
  3  4  1  0  0  0  0
  3  5  1  0  0  0  0
  3  6  1  0  0  0  0
 38 41  1  0  0  0  0
 38 42  1  0  0  0  0
 38 43  1  0  0  0  0
 11 14  1  0  0  0  0
 11 15  1  0  0  0  0
 11 16  1  0  0  0  0
 45 47  1  0  0  0  0
 45 48  1  0  0  0  0
 45 49  1  0  0  0  0
 22 30  1  0  0  0  0
 22 31  1  0  0  0  0
 21 28  1  0  0  0  0
 21 29  1  0  0  0  0
 35 40  1  0  0  0  0
  8 13  1  0  0  0  0
 18 27  1  0  0  0  0
 25 32  1  0  0  0  0
 25 33  1  0  0  0  0
 44 46  1  0  0  0  0
  7 12  1  0  0  0  0
 34 39  1  0  0  0  0
 17 26  1  0  0  0  0
M  END
$$$$

  -OEChem-05262214473D

 49 48  0     1  0  0  0  0  0999 V2000
   -1.9833   -0.0509   -3.3423 C   0  0  0  0  0  0  0  0  0  0  0  0
   -1.6199   -1.0613   -2.7518 O   0  0  0  0  0  0  0  0  0  0  0  0
   -3.3243   -0.0235   -3.9975 C   0  0  0  0  0  0  0  0  0  0  0  0
   -3.2886   -0.3689   -5.0432 H   0  0  0  0  0  0  0  0  0  0  0  0
   -4.0503   -0.6845   -3.4973 H   0  0  0  0  0  0  0  0  0  0  0  0
   -3.8104    0.9645   -4.0351 H   0  0  0  0  0  0  0  0  0  0  0  0
   -1.2607    1.1231   -3.4768 N   0  0  0  0  0  0  0  0  0  0  0  0
    0.0536    1.3115   -2.9213 C   0  0  2  0  0  0  0  0  0  0  0  0
    0.0266    0.8315   -1.4761 C   0  0  0  0  0  0  0  0  0  0  0  0
   -1.0065    0.7530   -0.8146 O   0  0  0  0  0  0  0  0  0  0  0  0
    0.4852    2.7674   -3.0025 C   0  0  0  0  0  0  0  0  0  0  0  0
   -1.6809    1.8924   -3.9952 H   0  0  0  0  0  0  0  0  0  0  0  0
    0.7360    0.6822   -3.5030 H   0  0  0  0  0  0  0  0  0  0  0  0
   -0.1867    3.4133   -2.4256 H   0  0  0  0  0  0  0  0  0  0  0  0
    1.4966    2.9042   -2.6056 H   0  0  0  0  0  0  0  0  0  0  0  0
    0.4754    3.1196   -4.0397 H   0  0  0  0  0  0  0  0  0  0  0  0
    1.2978    0.5411   -0.9947 N   0  0  0  0  0  0  0  0  0  0  0  0
    1.5371    0.0807    0.3489 C   0  0  2  0  0  0  0  0  0  0  0  0
    3.0407   -0.1257    0.4946 C   0  0  0  0  0  0  0  0  0  0  0  0
    3.6405    0.0497    1.5531 O   0  0  0  0  0  0  0  0  0  0  0  0
    0.7877   -1.2218    0.6568 C   0  0  0  0  0  0  0  0  0  0  0  0
   -0.7330   -1.0563    0.6860 C   0  0  0  0  0  0  0  0  0  0  0  0
   -1.4777   -2.3482    0.9666 C   0  0  0  0  0  0  0  0  0  0  0  0
   -0.9338   -3.4423    1.0845 O   0  0  0  0  0  0  0  0  0  0  0  0
   -2.8408   -2.1601    1.0490 N   0  0  0  0  0  0  0  0  0  0  0  0
    2.0949    0.6178   -1.6227 H   0  0  0  0  0  0  0  0  0  0  0  0
    1.2215    0.8880    1.0184 H   0  0  0  0  0  0  0  0  0  0  0  0
    1.0396   -1.9715   -0.1052 H   0  0  0  0  0  0  0  0  0  0  0  0
    1.1290   -1.6345    1.6146 H   0  0  0  0  0  0  0  0  0  0  0  0
   -1.0678   -0.7026   -0.2970 H   0  0  0  0  0  0  0  0  0  0  0  0
   -1.0284   -0.3001    1.4218 H   0  0  0  0  0  0  0  0  0  0  0  0
   -3.2140   -1.2251    0.9224 H   0  0  0  0  0  0  0  0  0  0  0  0
   -3.4845   -2.9232    1.2319 H   0  0  0  0  0  0  0  0  0  0  0  0
    3.6359   -0.4789   -0.7085 N   0  0  0  0  0  0  0  0  0  0  0  0
    5.0548   -0.7128   -0.8531 C   0  0  2  0  0  0  0  0  0  0  0  0
    5.4921   -1.6548    0.2608 C   0  0  0  0  0  0  0  0  0  0  0  0
    4.8654   -1.7901    1.3096 O   0  0  0  0  0  0  0  0  0  0  0  0
    5.8382    0.5897   -0.8024 C   0  0  0  0  0  0  0  0  0  0  0  0
    3.0447   -0.5781   -1.5284 H   0  0  0  0  0  0  0  0  0  0  0  0
    5.1975   -1.2019   -1.8229 H   0  0  0  0  0  0  0  0  0  0  0  0
    5.7076    1.0941    0.1619 H   0  0  0  0  0  0  0  0  0  0  0  0
    6.9101    0.4136   -0.9407 H   0  0  0  0  0  0  0  0  0  0  0  0
    5.5018    1.2776   -1.5856 H   0  0  0  0  0  0  0  0  0  0  0  0
    6.6876   -2.2944   -0.0360 N   0  0  0  0  0  0  0  0  0  0  0  0
    7.3171   -3.2288    0.8677 C   0  0  0  0  0  0  0  0  0  0  0  0
    7.1283   -2.1367   -0.9374 H   0  0  0  0  0  0  0  0  0  0  0  0
    8.0364   -2.6946    1.5058 H   0  0  0  0  0  0  0  0  0  0  0  0
    6.5500   -3.7030    1.4975 H   0  0  0  0  0  0  0  0  0  0  0  0
    7.8442   -4.0008    0.2880 H   0  0  0  0  0  0  0  0  0  0  0  0
  1  3  1  0  0  0  0
  1  7  1  0  0  0  0
  1  2  2  0  0  0  0
 22 23  1  0  0  0  0
 23 25  1  0  0  0  0
 23 24  2  0  0  0  0
 35 36  1  0  0  0  0
 36 44  1  0  0  0  0
 36 37  2  0  0  0  0
  8  9  1  0  0  0  0
  9 17  1  0  0  0  0
  9 10  2  0  0  0  0
 18 19  1  0  0  0  0
 19 34  1  0  0  0  0
 19 20  2  0  0  0  0
 35 38  1  0  0  0  0
  8 11  1  0  0  0  0
 44 45  1  0  0  0  0
 21 22  1  0  0  0  0
 18 21  1  0  0  0  0
 34 35  1  0  0  0  0
  7  8  1  0  0  0  0
 17 18  1  0  0  0  0
  3  4  1  0  0  0  0
  3  5  1  0  0  0  0
  3  6  1  0  0  0  0
 38 41  1  0  0  0  0
 38 42  1  0  0  0  0
 38 43  1  0  0  0  0
 11 14  1  0  0  0  0
 11 15  1  0  0  0  0
 11 16  1  0  0  0  0
 45 47  1  0  0  0  0
 45 48  1  0  0  0  0
 45 49  1  0  0  0  0
 22 30  1  0  0  0  0
 22 31  1  0  0  0  0
 21 28  1  0  0  0  0
 21 29  1  0  0  0  0
 35 40  1  0  0  0  0
  8 13  1  0  0  0  0
 18 27  1  0  0  0  0
 25 32  1  0  0  0  0
 25 33  1  0  0  0  0
 44 46  1  0  0  0  0
  7 12  1  0  0  0  0
 34 39  1  0  0  0  0
 17 26  1  0  0  0  0
M  END
$$$$

  -OEChem-05262214473D

 49 48  0     1  0  0  0  0  0999 V2000
   -1.9833   -0.0509   -3.3423 C   0  0  0  0  0  0  0  0  0  0  0  0
   -1.6199   -1.0613   -2.7518 O   0  0  0  0  0  0  0  0  0  0  0  0
   -3.3243   -0.0235   -3.9975 C   0  0  0  0  0  0  0  0  0  0  0  0
   -3.2886   -0.3689   -5.0432 H   0  0  0  0  0  0  0  0  0  0  0  0
   -4.0503   -0.6845   -3.4973 H   0  0  0  0  0  0  0  0  0  0  0  0
   -3.8104    0.9645   -4.0351 H   0  0  0  0  0  0  0  0  0  0  0  0
   -1.2607    1.1231   -3.4768 N   0  0  0  0  0  0  0  0  0  0  0  0
    0.0536    1.3115   -2.9213 C   0  0  2  0  0  0  0  0  0  0  0  0
    0.0266    0.8315   -1.4761 C   0  0  0  0  0  0  0  0  0  0  0  0
   -1.0065    0.7530   -0.8146 O   0  0  0  0  0  0  0  0  0  0  0  0
    0.4852    2.7674   -3.0025 C   0  0  0  0  0  0  0  0  0  0  0  0
   -1.6809    1.8924   -3.9952 H   0  0  0  0  0  0  0  0  0  0  0  0
    0.7360    0.6822   -3.5030 H   0  0  0  0  0  0  0  0  0  0  0  0
   -0.1867    3.4133   -2.4256 H   0  0  0  0  0  0  0  0  0  0  0  0
    1.4966    2.9042   -2.6056 H   0  0  0  0  0  0  0  0  0  0  0  0
    0.4754    3.1196   -4.0397 H   0  0  0  0  0  0  0  0  0  0  0  0
    1.2978    0.5411   -0.9947 N   0  0  0  0  0  0  0  0  0  0  0  0
    1.5371    0.0807    0.3489 C   0  0  2  0  0  0  0  0  0  0  0  0
    3.0407   -0.1257    0.4946 C   0  0  0  0  0  0  0  0  0  0  0  0
    3.6011   -0.2147    1.5849 O   0  0  0  0  0  0  0  0  0  0  0  0
    0.7877   -1.2218    0.6568 C   0  0  0  0  0  0  0  0  0  0  0  0
   -0.7330   -1.0563    0.6860 C   0  0  0  0  0  0  0  0  0  0  0  0
   -1.4777   -2.3482    0.9666 C   0  0  0  0  0  0  0  0  0  0  0  0
   -0.9338   -3.4423    1.0845 O   0  0  0  0  0  0  0  0  0  0  0  0
   -2.8408   -2.1601    1.0490 N   0  0  0  0  0  0  0  0  0  0  0  0
    2.0949    0.6178   -1.6227 H   0  0  0  0  0  0  0  0  0  0  0  0
    1.2215    0.8880    1.0184 H   0  0  0  0  0  0  0  0  0  0  0  0
    1.0396   -1.9715   -0.1052 H   0  0  0  0  0  0  0  0  0  0  0  0
    1.1290   -1.6345    1.6146 H   0  0  0  0  0  0  0  0  0  0  0  0
   -1.0678   -0.7026   -0.2970 H   0  0  0  0  0  0  0  0  0  0  0  0
   -1.0284   -0.3001    1.4218 H   0  0  0  0  0  0  0  0  0  0  0  0
   -3.2140   -1.2251    0.9224 H   0  0  0  0  0  0  0  0  0  0  0  0
   -3.4845   -2.9232    1.2319 H   0  0  0  0  0  0  0  0  0  0  0  0
    3.6840   -0.1475   -0.7351 N   0  0  0  0  0  0  0  0  0  0  0  0
    5.1130   -0.3079   -0.8802 C   0  0  2  0  0  0  0  0  0  0  0  0
    5.5421   -1.4944   -0.0272 C   0  0  0  0  0  0  0  0  0  0  0  0
    4.8865   -1.9060    0.9277 O   0  0  0  0  0  0  0  0  0  0  0  0
    5.8559    0.9538   -0.4694 C   0  0  0  0  0  0  0  0  0  0  0  0
    3.1223   -0.0456   -1.5752 H   0  0  0  0  0  0  0  0  0  0  0  0
    5.3007   -0.5298   -1.9364 H   0  0  0  0  0  0  0  0  0  0  0  0
    5.6799    1.1922    0.5859 H   0  0  0  0  0  0  0  0  0  0  0  0
    6.9364    0.8406   -0.6069 H   0  0  0  0  0  0  0  0  0  0  0  0
    5.5246    1.8122   -1.0637 H   0  0  0  0  0  0  0  0  0  0  0  0
    6.7645   -2.0126   -0.4312 N   0  0  0  0  0  0  0  0  0  0  0  0
    7.3920   -3.1341    0.2280 C   0  0  0  0  0  0  0  0  0  0  0  0
    7.2289   -1.6208   -1.2452 H   0  0  0  0  0  0  0  0  0  0  0  0
    8.0747   -2.7665    1.0082 H   0  0  0  0  0  0  0  0  0  0  0  0
    6.6195   -3.7690    0.6864 H   0  0  0  0  0  0  0  0  0  0  0  0
    7.9597   -3.7215   -0.5087 H   0  0  0  0  0  0  0  0  0  0  0  0
  1  3  1  0  0  0  0
  1  7  1  0  0  0  0
  1  2  2  0  0  0  0
 22 23  1  0  0  0  0
 23 25  1  0  0  0  0
 23 24  2  0  0  0  0
 35 36  1  0  0  0  0
 36 44  1  0  0  0  0
 36 37  2  0  0  0  0
  8  9  1  0  0  0  0
  9 17  1  0  0  0  0
  9 10  2  0  0  0  0
 18 19  1  0  0  0  0
 19 34  1  0  0  0  0
 19 20  2  0  0  0  0
 35 38  1  0  0  0  0
  8 11  1  0  0  0  0
 44 45  1  0  0  0  0
 21 22  1  0  0  0  0
 18 21  1  0  0  0  0
 34 35  1  0  0  0  0
  7  8  1  0  0  0  0
 17 18  1  0  0  0  0
  3  4  1  0  0  0  0
  3  5  1  0  0  0  0
  3  6  1  0  0  0  0
 38 41  1  0  0  0  0
 38 42  1  0  0  0  0
 38 43  1  0  0  0  0
 11 14  1  0  0  0  0
 11 15  1  0  0  0  0
 11 16  1  0  0  0  0
 45 47  1  0  0  0  0
 45 48  1  0  0  0  0
 45 49  1  0  0  0  0
 22 30  1  0  0  0  0
 22 31  1  0  0  0  0
 21 28  1  0  0  0  0
 21 29  1  0  0  0  0
 35 40  1  0  0  0  0
  8 13  1  0  0  0  0
 18 27  1  0  0  0  0
 25 32  1  0  0  0  0
 25 33  1  0  0  0  0
 44 46  1  0  0  0  0
  7 12  1  0  0  0  0
 34 39  1  0  0  0  0
 17 26  1  0  0  0  0
M  END
$$$$

  -OEChem-05262214473D

 49 48  0     1  0  0  0  0  0999 V2000
   -1.9833   -0.0509   -3.3423 C   0  0  0  0  0  0  0  0  0  0  0  0
   -1.6199   -1.0613   -2.7518 O   0  0  0  0  0  0  0  0  0  0  0  0
   -3.3243   -0.0235   -3.9975 C   0  0  0  0  0  0  0  0  0  0  0  0
   -3.2886   -0.3689   -5.0432 H   0  0  0  0  0  0  0  0  0  0  0  0
   -4.0503   -0.6845   -3.4973 H   0  0  0  0  0  0  0  0  0  0  0  0
   -3.8104    0.9645   -4.0351 H   0  0  0  0  0  0  0  0  0  0  0  0
   -1.2607    1.1231   -3.4768 N   0  0  0  0  0  0  0  0  0  0  0  0
    0.0536    1.3115   -2.9213 C   0  0  2  0  0  0  0  0  0  0  0  0
    0.0266    0.8315   -1.4761 C   0  0  0  0  0  0  0  0  0  0  0  0
   -1.0065    0.7530   -0.8146 O   0  0  0  0  0  0  0  0  0  0  0  0
    0.4852    2.7674   -3.0025 C   0  0  0  0  0  0  0  0  0  0  0  0
   -1.6809    1.8924   -3.9952 H   0  0  0  0  0  0  0  0  0  0  0  0
    0.7360    0.6822   -3.5030 H   0  0  0  0  0  0  0  0  0  0  0  0
   -0.1867    3.4133   -2.4256 H   0  0  0  0  0  0  0  0  0  0  0  0
    1.4966    2.9042   -2.6056 H   0  0  0  0  0  0  0  0  0  0  0  0
    0.4754    3.1196   -4.0397 H   0  0  0  0  0  0  0  0  0  0  0  0
    1.2978    0.5411   -0.9947 N   0  0  0  0  0  0  0  0  0  0  0  0
    1.5371    0.0807    0.3489 C   0  0  2  0  0  0  0  0  0  0  0  0
    3.0407   -0.1257    0.4946 C   0  0  0  0  0  0  0  0  0  0  0  0
    3.5685   -0.4792    1.5469 O   0  0  0  0  0  0  0  0  0  0  0  0
    0.7877   -1.2218    0.6568 C   0  0  0  0  0  0  0  0  0  0  0  0
   -0.7330   -1.0563    0.6860 C   0  0  0  0  0  0  0  0  0  0  0  0
   -1.4777   -2.3482    0.9666 C   0  0  0  0  0  0  0  0  0  0  0  0
   -0.9338   -3.4423    1.0845 O   0  0  0  0  0  0  0  0  0  0  0  0
   -2.8408   -2.1601    1.0490 N   0  0  0  0  0  0  0  0  0  0  0  0
    2.0949    0.6178   -1.6227 H   0  0  0  0  0  0  0  0  0  0  0  0
    1.2215    0.8880    1.0184 H   0  0  0  0  0  0  0  0  0  0  0  0
    1.0396   -1.9715   -0.1052 H   0  0  0  0  0  0  0  0  0  0  0  0
    1.1290   -1.6345    1.6146 H   0  0  0  0  0  0  0  0  0  0  0  0
   -1.0678   -0.7026   -0.2970 H   0  0  0  0  0  0  0  0  0  0  0  0
   -1.0284   -0.3001    1.4218 H   0  0  0  0  0  0  0  0  0  0  0  0
   -3.2140   -1.2251    0.9224 H   0  0  0  0  0  0  0  0  0  0  0  0
   -3.4845   -2.9232    1.2319 H   0  0  0  0  0  0  0  0  0  0  0  0
    3.7232    0.1806   -0.6746 N   0  0  0  0  0  0  0  0  0  0  0  0
    5.1601    0.0915   -0.8010 C   0  0  2  0  0  0  0  0  0  0  0  0
    5.5964   -1.2648   -0.2627 C   0  0  0  0  0  0  0  0  0  0  0  0
    4.9231   -1.9199    0.5301 O   0  0  0  0  0  0  0  0  0  0  0  0
    5.8524    1.2210   -0.0541 C   0  0  0  0  0  0  0  0  0  0  0  0
    3.1857    0.4825   -1.4818 H   0  0  0  0  0  0  0  0  0  0  0  0
    5.3878    0.1509   -1.8709 H   0  0  0  0  0  0  0  0  0  0  0  0
    5.6360    1.1780    1.0195 H   0  0  0  0  0  0  0  0  0  0  0  0
    6.9395    1.1685   -0.1745 H   0  0  0  0  0  0  0  0  0  0  0  0
    5.5152    2.1959   -0.4224 H   0  0  0  0  0  0  0  0  0  0  0  0
    6.8457   -1.6377   -0.7383 N   0  0  0  0  0  0  0  0  0  0  0  0
    7.4845   -2.8775   -0.3632 C   0  0  0  0  0  0  0  0  0  0  0  0
    7.3241   -1.0415   -1.4073 H   0  0  0  0  0  0  0  0  0  0  0  0
    8.1310   -2.7079    0.5105 H   0  0  0  0  0  0  0  0  0  0  0  0
    6.7167   -3.6240   -0.1116 H   0  0  0  0  0  0  0  0  0  0  0  0
    8.0923   -3.2454   -1.2030 H   0  0  0  0  0  0  0  0  0  0  0  0
  1  3  1  0  0  0  0
  1  7  1  0  0  0  0
  1  2  2  0  0  0  0
 22 23  1  0  0  0  0
 23 25  1  0  0  0  0
 23 24  2  0  0  0  0
 35 36  1  0  0  0  0
 36 44  1  0  0  0  0
 36 37  2  0  0  0  0
  8  9  1  0  0  0  0
  9 17  1  0  0  0  0
  9 10  2  0  0  0  0
 18 19  1  0  0  0  0
 19 34  1  0  0  0  0
 19 20  2  0  0  0  0
 35 38  1  0  0  0  0
  8 11  1  0  0  0  0
 44 45  1  0  0  0  0
 21 22  1  0  0  0  0
 18 21  1  0  0  0  0
 34 35  1  0  0  0  0
  7  8  1  0  0  0  0
 17 18  1  0  0  0  0
  3  4  1  0  0  0  0
  3  5  1  0  0  0  0
  3  6  1  0  0  0  0
 38 41  1  0  0  0  0
 38 42  1  0  0  0  0
 38 43  1  0  0  0  0
 11 14  1  0  0  0  0
 11 15  1  0  0  0  0
 11 16  1  0  0  0  0
 45 47  1  0  0  0  0
 45 48  1  0  0  0  0
 45 49  1  0  0  0  0
 22 30  1  0  0  0  0
 22 31  1  0  0  0  0
 21 28  1  0  0  0  0
 21 29  1  0  0  0  0
 35 40  1  0  0  0  0
  8 13  1  0  0  0  0
 18 27  1  0  0  0  0
 25 32  1  0  0  0  0
 25 33  1  0  0  0  0
 44 46  1  0  0  0  0
  7 12  1  0  0  0  0
 34 39  1  0  0  0  0
 17 26  1  0  0  0  0
M  END
$$$$

  -OEChem-05262214473D

 49 48  0     1  0  0  0  0  0999 V2000
   -1.9833   -0.0509   -3.3423 C   0  0  0  0  0  0  0  0  0  0  0  0
   -1.6199   -1.0613   -2.7518 O   0  0  0  0  0  0  0  0  0  0  0  0
   -3.3243   -0.0235   -3.9975 C   0  0  0  0  0  0  0  0  0  0  0  0
   -3.2886   -0.3689   -5.0432 H   0  0  0  0  0  0  0  0  0  0  0  0
   -4.0503   -0.6845   -3.4973 H   0  0  0  0  0  0  0  0  0  0  0  0
   -3.8104    0.9645   -4.0351 H   0  0  0  0  0  0  0  0  0  0  0  0
   -1.2607    1.1231   -3.4768 N   0  0  0  0  0  0  0  0  0  0  0  0
    0.0536    1.3115   -2.9213 C   0  0  2  0  0  0  0  0  0  0  0  0
    0.0266    0.8315   -1.4761 C   0  0  0  0  0  0  0  0  0  0  0  0
   -1.0065    0.7530   -0.8146 O   0  0  0  0  0  0  0  0  0  0  0  0
    0.4852    2.7674   -3.0025 C   0  0  0  0  0  0  0  0  0  0  0  0
   -1.6809    1.8924   -3.9952 H   0  0  0  0  0  0  0  0  0  0  0  0
    0.7360    0.6822   -3.5030 H   0  0  0  0  0  0  0  0  0  0  0  0
   -0.1867    3.4133   -2.4256 H   0  0  0  0  0  0  0  0  0  0  0  0
    1.4966    2.9042   -2.6056 H   0  0  0  0  0  0  0  0  0  0  0  0
    0.4754    3.1196   -4.0397 H   0  0  0  0  0  0  0  0  0  0  0  0
    1.2978    0.5411   -0.9947 N   0  0  0  0  0  0  0  0  0  0  0  0
    1.5371    0.0807    0.3489 C   0  0  2  0  0  0  0  0  0  0  0  0
    3.0407   -0.1257    0.4946 C   0  0  0  0  0  0  0  0  0  0  0  0
    3.5449   -0.7258    1.4414 O   0  0  0  0  0  0  0  0  0  0  0  0
    0.7877   -1.2218    0.6568 C   0  0  0  0  0  0  0  0  0  0  0  0
   -0.7330   -1.0563    0.6860 C   0  0  0  0  0  0  0  0  0  0  0  0
   -1.4777   -2.3482    0.9666 C   0  0  0  0  0  0  0  0  0  0  0  0
   -0.9338   -3.4423    1.0845 O   0  0  0  0  0  0  0  0  0  0  0  0
   -2.8408   -2.1601    1.0490 N   0  0  0  0  0  0  0  0  0  0  0  0
    2.0949    0.6178   -1.6227 H   0  0  0  0  0  0  0  0  0  0  0  0
    1.2215    0.8880    1.0184 H   0  0  0  0  0  0  0  0  0  0  0  0
    1.0396   -1.9715   -0.1052 H   0  0  0  0  0  0  0  0  0  0  0  0
    1.1290   -1.6345    1.6146 H   0  0  0  0  0  0  0  0  0  0  0  0
   -1.0678   -0.7026   -0.2970 H   0  0  0  0  0  0  0  0  0  0  0  0
   -1.0284   -0.3001    1.4218 H   0  0  0  0  0  0  0  0  0  0  0  0
   -3.2140   -1.2251    0.9224 H   0  0  0  0  0  0  0  0  0  0  0  0
   -3.4845   -2.9232    1.2319 H   0  0  0  0  0  0  0  0  0  0  0  0
    3.7508    0.4831   -0.5310 N   0  0  0  0  0  0  0  0  0  0  0  0
    5.1930    0.4582   -0.6209 C   0  0  2  0  0  0  0  0  0  0  0  0
    5.6514   -0.9815   -0.4297 C   0  0  0  0  0  0  0  0  0  0  0  0
    4.9727   -1.8310    0.1437 O   0  0  0  0  0  0  0  0  0  0  0  0
    5.8278    1.3729    0.4150 C   0  0  0  0  0  0  0  0  0  0  0  0
    3.2307    0.9704   -1.2546 H   0  0  0  0  0  0  0  0  0  0  0  0
    5.4527    0.7938   -1.6308 H   0  0  0  0  0  0  0  0  0  0  0  0
    5.5787    1.0525    1.4332 H   0  0  0  0  0  0  0  0  0  0  0  0
    6.9193    1.3749    0.3269 H   0  0  0  0  0  0  0  0  0  0  0  0
    5.4741    2.4026    0.2948 H   0  0  0  0  0  0  0  0  0  0  0  0
    6.9257   -1.1951   -0.9364 N   0  0  0  0  0  0  0  0  0  0  0  0
    7.5882   -2.4765   -0.8655 C   0  0  0  0  0  0  0  0  0  0  0  0
    7.4074   -0.4382   -1.4126 H   0  0  0  0  0  0  0  0  0  0  0  0
    8.2013   -2.5229    0.0466 H   0  0  0  0  0  0  0  0  0  0  0  0
    6.8350   -3.2778   -0.8419 H   0  0  0  0  0  0  0  0  0  0  0  0
    8.2329   -2.6051   -1.7474 H   0  0  0  0  0  0  0  0  0  0  0  0
  1  3  1  0  0  0  0
  1  7  1  0  0  0  0
  1  2  2  0  0  0  0
 22 23  1  0  0  0  0
 23 25  1  0  0  0  0
 23 24  2  0  0  0  0
 35 36  1  0  0  0  0
 36 44  1  0  0  0  0
 36 37  2  0  0  0  0
  8  9  1  0  0  0  0
  9 17  1  0  0  0  0
  9 10  2  0  0  0  0
 18 19  1  0  0  0  0
 19 34  1  0  0  0  0
 19 20  2  0  0  0  0
 35 38  1  0  0  0  0
  8 11  1  0  0  0  0
 44 45  1  0  0  0  0
 21 22  1  0  0  0  0
 18 21  1  0  0  0  0
 34 35  1  0  0  0  0
  7  8  1  0  0  0  0
 17 18  1  0  0  0  0
  3  4  1  0  0  0  0
  3  5  1  0  0  0  0
  3  6  1  0  0  0  0
 38 41  1  0  0  0  0
 38 42  1  0  0  0  0
 38 43  1  0  0  0  0
 11 14  1  0  0  0  0
 11 15  1  0  0  0  0
 11 16  1  0  0  0  0
 45 47  1  0  0  0  0
 45 48  1  0  0  0  0
 45 49  1  0  0  0  0
 22 30  1  0  0  0  0
 22 31  1  0  0  0  0
 21 28  1  0  0  0  0
 21 29  1  0  0  0  0
 35 40  1  0  0  0  0
  8 13  1  0  0  0  0
 18 27  1  0  0  0  0
 25 32  1  0  0  0  0
 25 33  1  0  0  0  0
 44 46  1  0  0  0  0
  7 12  1  0  0  0  0
 34 39  1  0  0  0  0
 17 26  1  0  0  0  0
M  END
$$$$

  -OEChem-05262214473D

 49 48  0     1  0  0  0  0  0999 V2000
   -1.9833   -0.0509   -3.3423 C   0  0  0  0  0  0  0  0  0  0  0  0
   -1.6199   -1.0613   -2.7518 O   0  0  0  0  0  0  0  0  0  0  0  0
   -3.3243   -0.0235   -3.9975 C   0  0  0  0  0  0  0  0  0  0  0  0
   -3.2886   -0.3689   -5.0432 H   0  0  0  0  0  0  0  0  0  0  0  0
   -4.0503   -0.6845   -3.4973 H   0  0  0  0  0  0  0  0  0  0  0  0
   -3.8104    0.9645   -4.0351 H   0  0  0  0  0  0  0  0  0  0  0  0
   -1.2607    1.1231   -3.4768 N   0  0  0  0  0  0  0  0  0  0  0  0
    0.0536    1.3115   -2.9213 C   0  0  2  0  0  0  0  0  0  0  0  0
    0.0266    0.8315   -1.4761 C   0  0  0  0  0  0  0  0  0  0  0  0
   -1.0065    0.7530   -0.8146 O   0  0  0  0  0  0  0  0  0  0  0  0
    0.4852    2.7674   -3.0025 C   0  0  0  0  0  0  0  0  0  0  0  0
   -1.6809    1.8924   -3.9952 H   0  0  0  0  0  0  0  0  0  0  0  0
    0.7360    0.6822   -3.5030 H   0  0  0  0  0  0  0  0  0  0  0  0
   -0.1867    3.4133   -2.4256 H   0  0  0  0  0  0  0  0  0  0  0  0
    1.4966    2.9042   -2.6056 H   0  0  0  0  0  0  0  0  0  0  0  0
    0.4754    3.1196   -4.0397 H   0  0  0  0  0  0  0  0  0  0  0  0
    1.2978    0.5411   -0.9947 N   0  0  0  0  0  0  0  0  0  0  0  0
    1.5371    0.0807    0.3489 C   0  0  2  0  0  0  0  0  0  0  0  0
    3.0407   -0.1257    0.4946 C   0  0  0  0  0  0  0  0  0  0  0  0
    3.5318   -0.9377    1.2758 O   0  0  0  0  0  0  0  0  0  0  0  0
    0.7877   -1.2218    0.6568 C   0  0  0  0  0  0  0  0  0  0  0  0
   -0.7330   -1.0563    0.6860 C   0  0  0  0  0  0  0  0  0  0  0  0
   -1.4777   -2.3482    0.9666 C   0  0  0  0  0  0  0  0  0  0  0  0
   -0.9338   -3.4423    1.0845 O   0  0  0  0  0  0  0  0  0  0  0  0
   -2.8408   -2.1601    1.0490 N   0  0  0  0  0  0  0  0  0  0  0  0
    2.0949    0.6178   -1.6227 H   0  0  0  0  0  0  0  0  0  0  0  0
    1.2215    0.8880    1.0184 H   0  0  0  0  0  0  0  0  0  0  0  0
    1.0396   -1.9715   -0.1052 H   0  0  0  0  0  0  0  0  0  0  0  0
    1.1290   -1.6345    1.6146 H   0  0  0  0  0  0  0  0  0  0  0  0
   -1.0678   -0.7026   -0.2970 H   0  0  0  0  0  0  0  0  0  0  0  0
   -1.0284   -0.3001    1.4218 H   0  0  0  0  0  0  0  0  0  0  0  0
   -3.2140   -1.2251    0.9224 H   0  0  0  0  0  0  0  0  0  0  0  0
   -3.4845   -2.9232    1.2319 H   0  0  0  0  0  0  0  0  0  0  0  0
    3.7649    0.7392   -0.3141 N   0  0  0  0  0  0  0  0  0  0  0  0
    5.2094    0.7673   -0.3521 C   0  0  2  0  0  0  0  0  0  0  0  0
    5.7034   -0.6639   -0.5167 C   0  0  0  0  0  0  0  0  0  0  0  0
    5.0320   -1.6453   -0.2051 O   0  0  0  0  0  0  0  0  0  0  0  0
    5.7839    1.3994    0.9061 C   0  0  0  0  0  0  0  0  0  0  0  0
    3.2541    1.3848   -0.9090 H   0  0  0  0  0  0  0  0  0  0  0  0
    5.4912    1.3551   -1.2325 H   0  0  0  0  0  0  0  0  0  0  0  0
    5.5120    0.8243    1.7988 H   0  0  0  0  0  0  0  0  0  0  0  0
    6.8770    1.4459    0.8632 H   0  0  0  0  0  0  0  0  0  0  0  0
    5.4041    2.4182    1.0388 H   0  0  0  0  0  0  0  0  0  0  0  0
    6.9989   -0.7151   -1.0121 N   0  0  0  0  0  0  0  0  0  0  0  0
    7.6960   -1.9584   -1.2447 C   0  0  0  0  0  0  0  0  0  0  0  0
    7.4732    0.1480   -1.2608 H   0  0  0  0  0  0  0  0  0  0  0  0
    8.2809   -2.2241   -0.3517 H   0  0  0  0  0  0  0  0  0  0  0  0
    6.9662   -2.7541   -1.4549 H   0  0  0  0  0  0  0  0  0  0  0  0
    8.3720   -1.8442   -2.1049 H   0  0  0  0  0  0  0  0  0  0  0  0
  1  3  1  0  0  0  0
  1  7  1  0  0  0  0
  1  2  2  0  0  0  0
 22 23  1  0  0  0  0
 23 25  1  0  0  0  0
 23 24  2  0  0  0  0
 35 36  1  0  0  0  0
 36 44  1  0  0  0  0
 36 37  2  0  0  0  0
  8  9  1  0  0  0  0
  9 17  1  0  0  0  0
  9 10  2  0  0  0  0
 18 19  1  0  0  0  0
 19 34  1  0  0  0  0
 19 20  2  0  0  0  0
 35 38  1  0  0  0  0
  8 11  1  0  0  0  0
 44 45  1  0  0  0  0
 21 22  1  0  0  0  0
 18 21  1  0  0  0  0
 34 35  1  0  0  0  0
  7  8  1  0  0  0  0
 17 18  1  0  0  0  0
  3  4  1  0  0  0  0
  3  5  1  0  0  0  0
  3  6  1  0  0  0  0
 38 41  1  0  0  0  0
 38 42  1  0  0  0  0
 38 43  1  0  0  0  0
 11 14  1  0  0  0  0
 11 15  1  0  0  0  0
 11 16  1  0  0  0  0
 45 47  1  0  0  0  0
 45 48  1  0  0  0  0
 45 49  1  0  0  0  0
 22 30  1  0  0  0  0
 22 31  1  0  0  0  0
 21 28  1  0  0  0  0
 21 29  1  0  0  0  0
 35 40  1  0  0  0  0
  8 13  1  0  0  0  0
 18 27  1  0  0  0  0
 25 32  1  0  0  0  0
 25 33  1  0  0  0  0
 44 46  1  0  0  0  0
  7 12  1  0  0  0  0
 34 39  1  0  0  0  0
 17 26  1  0  0  0  0
M  END
$$$$

  -OEChem-05262214473D

 49 48  0     1  0  0  0  0  0999 V2000
   -1.9833   -0.0509   -3.3423 C   0  0  0  0  0  0  0  0  0  0  0  0
   -1.6199   -1.0613   -2.7518 O   0  0  0  0  0  0  0  0  0  0  0  0
   -3.3243   -0.0235   -3.9975 C   0  0  0  0  0  0  0  0  0  0  0  0
   -3.2886   -0.3689   -5.0432 H   0  0  0  0  0  0  0  0  0  0  0  0
   -4.0503   -0.6845   -3.4973 H   0  0  0  0  0  0  0  0  0  0  0  0
   -3.8104    0.9645   -4.0351 H   0  0  0  0  0  0  0  0  0  0  0  0
   -1.2607    1.1231   -3.4768 N   0  0  0  0  0  0  0  0  0  0  0  0
    0.0536    1.3115   -2.9213 C   0  0  2  0  0  0  0  0  0  0  0  0
    0.0266    0.8315   -1.4761 C   0  0  0  0  0  0  0  0  0  0  0  0
   -1.0065    0.7530   -0.8146 O   0  0  0  0  0  0  0  0  0  0  0  0
    0.4852    2.7674   -3.0025 C   0  0  0  0  0  0  0  0  0  0  0  0
   -1.6809    1.8924   -3.9952 H   0  0  0  0  0  0  0  0  0  0  0  0
    0.7360    0.6822   -3.5030 H   0  0  0  0  0  0  0  0  0  0  0  0
   -0.1867    3.4133   -2.4256 H   0  0  0  0  0  0  0  0  0  0  0  0
    1.4966    2.9042   -2.6056 H   0  0  0  0  0  0  0  0  0  0  0  0
    0.4754    3.1196   -4.0397 H   0  0  0  0  0  0  0  0  0  0  0  0
    1.2978    0.5411   -0.9947 N   0  0  0  0  0  0  0  0  0  0  0  0
    1.5371    0.0807    0.3489 C   0  0  2  0  0  0  0  0  0  0  0  0
    3.0407   -0.1257    0.4946 C   0  0  0  0  0  0  0  0  0  0  0  0
    3.5303   -1.1004    1.0613 O   0  0  0  0  0  0  0  0  0  0  0  0
    0.7877   -1.2218    0.6568 C   0  0  0  0  0  0  0  0  0  0  0  0
   -0.7330   -1.0563    0.6860 C   0  0  0  0  0  0  0  0  0  0  0  0
   -1.4777   -2.3482    0.9666 C   0  0  0  0  0  0  0  0  0  0  0  0
   -0.9338   -3.4423    1.0845 O   0  0  0  0  0  0  0  0  0  0  0  0
   -2.8408   -2.1601    1.0490 N   0  0  0  0  0  0  0  0  0  0  0  0
    2.0949    0.6178   -1.6227 H   0  0  0  0  0  0  0  0  0  0  0  0
    1.2215    0.8880    1.0184 H   0  0  0  0  0  0  0  0  0  0  0  0
    1.0396   -1.9715   -0.1052 H   0  0  0  0  0  0  0  0  0  0  0  0
    1.1290   -1.6345    1.6146 H   0  0  0  0  0  0  0  0  0  0  0  0
   -1.0678   -0.7026   -0.2970 H   0  0  0  0  0  0  0  0  0  0  0  0
   -1.0284   -0.3001    1.4218 H   0  0  0  0  0  0  0  0  0  0  0  0
   -3.2140   -1.2251    0.9224 H   0  0  0  0  0  0  0  0  0  0  0  0
   -3.4845   -2.9232    1.2319 H   0  0  0  0  0  0  0  0  0  0  0  0
    3.7647    0.9317   -0.0387 N   0  0  0  0  0  0  0  0  0  0  0  0
    5.2082    0.9977   -0.0131 C   0  0  2  0  0  0  0  0  0  0  0  0
    5.7489   -0.3336   -0.5178 C   0  0  0  0  0  0  0  0  0  0  0  0
    5.0969   -1.3754   -0.4926 O   0  0  0  0  0  0  0  0  0  0  0  0
    5.7236    1.2985    1.3857 C   0  0  0  0  0  0  0  0  0  0  0  0
    3.2543    1.6975   -0.4685 H   0  0  0  0  0  0  0  0  0  0  0  0
    5.5005    1.7966   -0.7032 H   0  0  0  0  0  0  0  0  0  0  0  0
    5.4404    0.5089    2.0913 H   0  0  0  0  0  0  0  0  0  0  0  0
    6.8157    1.3764    1.3979 H   0  0  0  0  0  0  0  0  0  0  0  0
    5.3102    2.2416    1.7590 H   0  0  0  0  0  0  0  0  0  0  0  0
    7.0604   -0.2303   -0.9600 N   0  0  0  0  0  0  0  0  0  0  0  0
    7.8007   -1.3585   -1.4749 C   0  0  0  0  0  0  0  0  0  0  0  0
    7.5169    0.6771   -0.9623 H   0  0  0  0  0  0  0  0  0  0  0  0
    8.3644   -1.8318   -0.6574 H   0  0  0  0  0  0  0  0  0  0  0  0
    7.1015   -2.0885   -1.9087 H   0  0  0  0  0  0  0  0  0  0  0  0
    8.5000   -1.0145   -2.2512 H   0  0  0  0  0  0  0  0  0  0  0  0
  1  3  1  0  0  0  0
  1  7  1  0  0  0  0
  1  2  2  0  0  0  0
 22 23  1  0  0  0  0
 23 25  1  0  0  0  0
 23 24  2  0  0  0  0
 35 36  1  0  0  0  0
 36 44  1  0  0  0  0
 36 37  2  0  0  0  0
  8  9  1  0  0  0  0
  9 17  1  0  0  0  0
  9 10  2  0  0  0  0
 18 19  1  0  0  0  0
 19 34  1  0  0  0  0
 19 20  2  0  0  0  0
 35 38  1  0  0  0  0
  8 11  1  0  0  0  0
 44 45  1  0  0  0  0
 21 22  1  0  0  0  0
 18 21  1  0  0  0  0
 34 35  1  0  0  0  0
  7  8  1  0  0  0  0
 17 18  1  0  0  0  0
  3  4  1  0  0  0  0
  3  5  1  0  0  0  0
  3  6  1  0  0  0  0
 38 41  1  0  0  0  0
 38 42  1  0  0  0  0
 38 43  1  0  0  0  0
 11 14  1  0  0  0  0
 11 15  1  0  0  0  0
 11 16  1  0  0  0  0
 45 47  1  0  0  0  0
 45 48  1  0  0  0  0
 45 49  1  0  0  0  0
 22 30  1  0  0  0  0
 22 31  1  0  0  0  0
 21 28  1  0  0  0  0
 21 29  1  0  0  0  0
 35 40  1  0  0  0  0
  8 13  1  0  0  0  0
 18 27  1  0  0  0  0
 25 32  1  0  0  0  0
 25 33  1  0  0  0  0
 44 46  1  0  0  0  0
  7 12  1  0  0  0  0
 34 39  1  0  0  0  0
 17 26  1  0  0  0  0
M  END
$$$$

  -OEChem-05262214473D

 49 48  0     1  0  0  0  0  0999 V2000
   -1.9833   -0.0509   -3.3423 C   0  0  0  0  0  0  0  0  0  0  0  0
   -1.6199   -1.0613   -2.7518 O   0  0  0  0  0  0  0  0  0  0  0  0
   -3.3243   -0.0235   -3.9975 C   0  0  0  0  0  0  0  0  0  0  0  0
   -3.2886   -0.3689   -5.0432 H   0  0  0  0  0  0  0  0  0  0  0  0
   -4.0503   -0.6845   -3.4973 H   0  0  0  0  0  0  0  0  0  0  0  0
   -3.8104    0.9645   -4.0351 H   0  0  0  0  0  0  0  0  0  0  0  0
   -1.2607    1.1231   -3.4768 N   0  0  0  0  0  0  0  0  0  0  0  0
    0.0536    1.3115   -2.9213 C   0  0  2  0  0  0  0  0  0  0  0  0
    0.0266    0.8315   -1.4761 C   0  0  0  0  0  0  0  0  0  0  0  0
   -1.0065    0.7530   -0.8146 O   0  0  0  0  0  0  0  0  0  0  0  0
    0.4852    2.7674   -3.0025 C   0  0  0  0  0  0  0  0  0  0  0  0
   -1.6809    1.8924   -3.9952 H   0  0  0  0  0  0  0  0  0  0  0  0
    0.7360    0.6822   -3.5030 H   0  0  0  0  0  0  0  0  0  0  0  0
   -0.1867    3.4133   -2.4256 H   0  0  0  0  0  0  0  0  0  0  0  0
    1.4966    2.9042   -2.6056 H   0  0  0  0  0  0  0  0  0  0  0  0
    0.4754    3.1196   -4.0397 H   0  0  0  0  0  0  0  0  0  0  0  0
    1.2978    0.5411   -0.9947 N   0  0  0  0  0  0  0  0  0  0  0  0
    1.5371    0.0807    0.3489 C   0  0  2  0  0  0  0  0  0  0  0  0
    3.0407   -0.1257    0.4946 C   0  0  0  0  0  0  0  0  0  0  0  0
    3.5403   -1.2028    0.8126 O   0  0  0  0  0  0  0  0  0  0  0  0
    0.7877   -1.2218    0.6568 C   0  0  0  0  0  0  0  0  0  0  0  0
   -0.7330   -1.0563    0.6860 C   0  0  0  0  0  0  0  0  0  0  0  0
   -1.4777   -2.3482    0.9666 C   0  0  0  0  0  0  0  0  0  0  0  0
   -0.9338   -3.4423    1.0845 O   0  0  0  0  0  0  0  0  0  0  0  0
   -2.8408   -2.1601    1.0490 N   0  0  0  0  0  0  0  0  0  0  0  0
    2.0949    0.6178   -1.6227 H   0  0  0  0  0  0  0  0  0  0  0  0
    1.2215    0.8880    1.0184 H   0  0  0  0  0  0  0  0  0  0  0  0
    1.0396   -1.9715   -0.1052 H   0  0  0  0  0  0  0  0  0  0  0  0
    1.1290   -1.6345    1.6146 H   0  0  0  0  0  0  0  0  0  0  0  0
   -1.0678   -0.7026   -0.2970 H   0  0  0  0  0  0  0  0  0  0  0  0
   -1.0284   -0.3001    1.4218 H   0  0  0  0  0  0  0  0  0  0  0  0
   -3.2140   -1.2251    0.9224 H   0  0  0  0  0  0  0  0  0  0  0  0
   -3.4845   -2.9232    1.2319 H   0  0  0  0  0  0  0  0  0  0  0  0
    3.7500    1.0472    0.2764 N   0  0  0  0  0  0  0  0  0  0  0  0
    5.1894    1.1336    0.3732 C   0  0  2  0  0  0  0  0  0  0  0  0
    5.7847   -0.0131   -0.4331 C   0  0  0  0  0  0  0  0  0  0  0  0
    5.1630   -1.0397   -0.6990 O   0  0  0  0  0  0  0  0  0  0  0  0
    5.6510    1.0771    1.8211 C   0  0  0  0  0  0  0  0  0  0  0  0
    3.2314    1.8870    0.0367 H   0  0  0  0  0  0  0  0  0  0  0  0
    5.4801    2.0882   -0.0789 H   0  0  0  0  0  0  0  0  0  0  0  0
    5.3687    0.1278    2.2909 H   0  0  0  0  0  0  0  0  0  0  0  0
    6.7395    1.1714    1.8945 H   0  0  0  0  0  0  0  0  0  0  0  0
    5.1985    1.8850    2.4063 H   0  0  0  0  0  0  0  0  0  0  0  0
    7.1060    0.2262   -0.7838 N   0  0  0  0  0  0  0  0  0  0  0  0
    7.8950   -0.7177   -1.5405 C   0  0  0  0  0  0  0  0  0  0  0  0
    7.5356    1.1130   -0.5374 H   0  0  0  0  0  0  0  0  0  0  0  0
    8.4460   -1.3728   -0.8497 H   0  0  0  0  0  0  0  0  0  0  0  0
    7.2316   -1.3265   -2.1724 H   0  0  0  0  0  0  0  0  0  0  0  0
    8.6083   -0.1726   -2.1762 H   0  0  0  0  0  0  0  0  0  0  0  0
  1  3  1  0  0  0  0
  1  7  1  0  0  0  0
  1  2  2  0  0  0  0
 22 23  1  0  0  0  0
 23 25  1  0  0  0  0
 23 24  2  0  0  0  0
 35 36  1  0  0  0  0
 36 44  1  0  0  0  0
 36 37  2  0  0  0  0
  8  9  1  0  0  0  0
  9 17  1  0  0  0  0
  9 10  2  0  0  0  0
 18 19  1  0  0  0  0
 19 34  1  0  0  0  0
 19 20  2  0  0  0  0
 35 38  1  0  0  0  0
  8 11  1  0  0  0  0
 44 45  1  0  0  0  0
 21 22  1  0  0  0  0
 18 21  1  0  0  0  0
 34 35  1  0  0  0  0
  7  8  1  0  0  0  0
 17 18  1  0  0  0  0
  3  4  1  0  0  0  0
  3  5  1  0  0  0  0
  3  6  1  0  0  0  0
 38 41  1  0  0  0  0
 38 42  1  0  0  0  0
 38 43  1  0  0  0  0
 11 14  1  0  0  0  0
 11 15  1  0  0  0  0
 11 16  1  0  0  0  0
 45 47  1  0  0  0  0
 45 48  1  0  0  0  0
 45 49  1  0  0  0  0
 22 30  1  0  0  0  0
 22 31  1  0  0  0  0
 21 28  1  0  0  0  0
 21 29  1  0  0  0  0
 35 40  1  0  0  0  0
  8 13  1  0  0  0  0
 18 27  1  0  0  0  0
 25 32  1  0  0  0  0
 25 33  1  0  0  0  0
 44 46  1  0  0  0  0
  7 12  1  0  0  0  0
 34 39  1  0  0  0  0
 17 26  1  0  0  0  0
M  END
$$$$

  -OEChem-05262214473D

 49 48  0     1  0  0  0  0  0999 V2000
   -1.9833   -0.0509   -3.3423 C   0  0  0  0  0  0  0  0  0  0  0  0
   -1.6199   -1.0613   -2.7518 O   0  0  0  0  0  0  0  0  0  0  0  0
   -3.3243   -0.0235   -3.9975 C   0  0  0  0  0  0  0  0  0  0  0  0
   -3.2886   -0.3689   -5.0432 H   0  0  0  0  0  0  0  0  0  0  0  0
   -4.0503   -0.6845   -3.4973 H   0  0  0  0  0  0  0  0  0  0  0  0
   -3.8104    0.9645   -4.0351 H   0  0  0  0  0  0  0  0  0  0  0  0
   -1.2607    1.1231   -3.4768 N   0  0  0  0  0  0  0  0  0  0  0  0
    0.0536    1.3115   -2.9213 C   0  0  2  0  0  0  0  0  0  0  0  0
    0.0266    0.8315   -1.4761 C   0  0  0  0  0  0  0  0  0  0  0  0
   -1.0065    0.7530   -0.8146 O   0  0  0  0  0  0  0  0  0  0  0  0
    0.4852    2.7674   -3.0025 C   0  0  0  0  0  0  0  0  0  0  0  0
   -1.6809    1.8924   -3.9952 H   0  0  0  0  0  0  0  0  0  0  0  0
    0.7360    0.6822   -3.5030 H   0  0  0  0  0  0  0  0  0  0  0  0
   -0.1867    3.4133   -2.4256 H   0  0  0  0  0  0  0  0  0  0  0  0
    1.4966    2.9042   -2.6056 H   0  0  0  0  0  0  0  0  0  0  0  0
    0.4754    3.1196   -4.0397 H   0  0  0  0  0  0  0  0  0  0  0  0
    1.2978    0.5411   -0.9947 N   0  0  0  0  0  0  0  0  0  0  0  0
    1.5371    0.0807    0.3489 C   0  0  2  0  0  0  0  0  0  0  0  0
    3.0407   -0.1257    0.4946 C   0  0  0  0  0  0  0  0  0  0  0  0
    3.5612   -1.2380    0.5465 O   0  0  0  0  0  0  0  0  0  0  0  0
    0.7877   -1.2218    0.6568 C   0  0  0  0  0  0  0  0  0  0  0  0
   -0.7330   -1.0563    0.6860 C   0  0  0  0  0  0  0  0  0  0  0  0
   -1.4777   -2.3482    0.9666 C   0  0  0  0  0  0  0  0  0  0  0  0
   -0.9338   -3.4423    1.0845 O   0  0  0  0  0  0  0  0  0  0  0  0
   -2.8408   -2.1601    1.0490 N   0  0  0  0  0  0  0  0  0  0  0  0
    2.0949    0.6178   -1.6227 H   0  0  0  0  0  0  0  0  0  0  0  0
    1.2215    0.8880    1.0184 H   0  0  0  0  0  0  0  0  0  0  0  0
    1.0396   -1.9715   -0.1052 H   0  0  0  0  0  0  0  0  0  0  0  0
    1.1290   -1.6345    1.6146 H   0  0  0  0  0  0  0  0  0  0  0  0
   -1.0678   -0.7026   -0.2970 H   0  0  0  0  0  0  0  0  0  0  0  0
   -1.0284   -0.3001    1.4218 H   0  0  0  0  0  0  0  0  0  0  0  0
   -3.2140   -1.2251    0.9224 H   0  0  0  0  0  0  0  0  0  0  0  0
   -3.4845   -2.9232    1.2319 H   0  0  0  0  0  0  0  0  0  0  0  0
    3.7220    1.0781    0.6098 N   0  0  0  0  0  0  0  0  0  0  0  0
    5.1544    1.1659    0.7803 C   0  0  2  0  0  0  0  0  0  0  0  0
    5.8083    0.2756   -0.2682 C   0  0  0  0  0  0  0  0  0  0  0  0
    5.2257   -0.6611   -0.8105 O   0  0  0  0  0  0  0  0  0  0  0  0
    5.5712    0.7503    2.1826 C   0  0  0  0  0  0  0  0  0  0  0  0
    3.1869    1.9406    0.5723 H   0  0  0  0  0  0  0  0  0  0  0  0
    5.4312    2.2099    0.5978 H   0  0  0  0  0  0  0  0  0  0  0  0
    5.3020   -0.2930    2.3838 H   0  0  0  0  0  0  0  0  0  0  0  0
    6.6535    0.8446    2.3192 H   0  0  0  0  0  0  0  0  0  0  0  0
    5.0768    1.3724    2.9365 H   0  0  0  0  0  0  0  0  0  0  0  0
    7.1325    0.6233   -0.4956 N   0  0  0  0  0  0  0  0  0  0  0  0
    7.9725   -0.0796   -1.4370 C   0  0  0  0  0  0  0  0  0  0  0  0
    7.5280    1.4261   -0.0151 H   0  0  0  0  0  0  0  0  0  0  0  0
    8.5202   -0.8783   -0.9153 H   0  0  0  0  0  0  0  0  0  0  0  0
    7.3477   -0.5199   -2.2281 H   0  0  0  0  0  0  0  0  0  0  0  0
    8.6895    0.6241   -1.8851 H   0  0  0  0  0  0  0  0  0  0  0  0
  1  3  1  0  0  0  0
  1  7  1  0  0  0  0
  1  2  2  0  0  0  0
 22 23  1  0  0  0  0
 23 25  1  0  0  0  0
 23 24  2  0  0  0  0
 35 36  1  0  0  0  0
 36 44  1  0  0  0  0
 36 37  2  0  0  0  0
  8  9  1  0  0  0  0
  9 17  1  0  0  0  0
  9 10  2  0  0  0  0
 18 19  1  0  0  0  0
 19 34  1  0  0  0  0
 19 20  2  0  0  0  0
 35 38  1  0  0  0  0
  8 11  1  0  0  0  0
 44 45  1  0  0  0  0
 21 22  1  0  0  0  0
 18 21  1  0  0  0  0
 34 35  1  0  0  0  0
  7  8  1  0  0  0  0
 17 18  1  0  0  0  0
  3  4  1  0  0  0  0
  3  5  1  0  0  0  0
  3  6  1  0  0  0  0
 38 41  1  0  0  0  0
 38 42  1  0  0  0  0
 38 43  1  0  0  0  0
 11 14  1  0  0  0  0
 11 15  1  0  0  0  0
 11 16  1  0  0  0  0
 45 47  1  0  0  0  0
 45 48  1  0  0  0  0
 45 49  1  0  0  0  0
 22 30  1  0  0  0  0
 22 31  1  0  0  0  0
 21 28  1  0  0  0  0
 21 29  1  0  0  0  0
 35 40  1  0  0  0  0
  8 13  1  0  0  0  0
 18 27  1  0  0  0  0
 25 32  1  0  0  0  0
 25 33  1  0  0  0  0
 44 46  1  0  0  0  0
  7 12  1  0  0  0  0
 34 39  1  0  0  0  0
 17 26  1  0  0  0  0
M  END
$$$$

  -OEChem-05262214473D

 49 48  0     1  0  0  0  0  0999 V2000
   -1.9833   -0.0509   -3.3423 C   0  0  0  0  0  0  0  0  0  0  0  0
   -1.6199   -1.0613   -2.7518 O   0  0  0  0  0  0  0  0  0  0  0  0
   -3.3243   -0.0235   -3.9975 C   0  0  0  0  0  0  0  0  0  0  0  0
   -3.2886   -0.3689   -5.0432 H   0  0  0  0  0  0  0  0  0  0  0  0
   -4.0503   -0.6845   -3.4973 H   0  0  0  0  0  0  0  0  0  0  0  0
   -3.8104    0.9645   -4.0351 H   0  0  0  0  0  0  0  0  0  0  0  0
   -1.2607    1.1231   -3.4768 N   0  0  0  0  0  0  0  0  0  0  0  0
    0.0536    1.3115   -2.9213 C   0  0  2  0  0  0  0  0  0  0  0  0
    0.0266    0.8315   -1.4761 C   0  0  0  0  0  0  0  0  0  0  0  0
   -1.0065    0.7530   -0.8146 O   0  0  0  0  0  0  0  0  0  0  0  0
    0.4852    2.7674   -3.0025 C   0  0  0  0  0  0  0  0  0  0  0  0
   -1.6809    1.8924   -3.9952 H   0  0  0  0  0  0  0  0  0  0  0  0
    0.7360    0.6822   -3.5030 H   0  0  0  0  0  0  0  0  0  0  0  0
   -0.1867    3.4133   -2.4256 H   0  0  0  0  0  0  0  0  0  0  0  0
    1.4966    2.9042   -2.6056 H   0  0  0  0  0  0  0  0  0  0  0  0
    0.4754    3.1196   -4.0397 H   0  0  0  0  0  0  0  0  0  0  0  0
    1.2978    0.5411   -0.9947 N   0  0  0  0  0  0  0  0  0  0  0  0
    1.5371    0.0807    0.3489 C   0  0  2  0  0  0  0  0  0  0  0  0
    3.0407   -0.1257    0.4946 C   0  0  0  0  0  0  0  0  0  0  0  0
    3.5917   -1.2036    0.2812 O   0  0  0  0  0  0  0  0  0  0  0  0
    0.7877   -1.2218    0.6568 C   0  0  0  0  0  0  0  0  0  0  0  0
   -0.7330   -1.0563    0.6860 C   0  0  0  0  0  0  0  0  0  0  0  0
   -1.4777   -2.3482    0.9666 C   0  0  0  0  0  0  0  0  0  0  0  0
   -0.9338   -3.4423    1.0845 O   0  0  0  0  0  0  0  0  0  0  0  0
   -2.8408   -2.1601    1.0490 N   0  0  0  0  0  0  0  0  0  0  0  0
    2.0949    0.6178   -1.6227 H   0  0  0  0  0  0  0  0  0  0  0  0
    1.2215    0.8880    1.0184 H   0  0  0  0  0  0  0  0  0  0  0  0
    1.0396   -1.9715   -0.1052 H   0  0  0  0  0  0  0  0  0  0  0  0
    1.1290   -1.6345    1.6146 H   0  0  0  0  0  0  0  0  0  0  0  0
   -1.0678   -0.7026   -0.2970 H   0  0  0  0  0  0  0  0  0  0  0  0
   -1.0284   -0.3001    1.4218 H   0  0  0  0  0  0  0  0  0  0  0  0
   -3.2140   -1.2251    0.9224 H   0  0  0  0  0  0  0  0  0  0  0  0
   -3.4845   -2.9232    1.2319 H   0  0  0  0  0  0  0  0  0  0  0  0
    3.6824    1.0221    0.9386 N   0  0  0  0  0  0  0  0  0  0  0  0
    5.1055    1.0922    1.1806 C   0  0  2  0  0  0  0  0  0  0  0  0
    5.8183    0.5131   -0.0343 C   0  0  0  0  0  0  0  0  0  0  0  0
    5.2809   -0.2655   -0.8193 O   0  0  0  0  0  0  0  0  0  0  0  0
    5.4894    0.3405    2.4456 C   0  0  0  0  0  0  0  0  0  0  0  0
    3.1238    1.8546    1.1018 H   0  0  0  0  0  0  0  0  0  0  0  0
    5.3574    2.1536    1.2809 H   0  0  0  0  0  0  0  0  0  0  0  0
    5.2446   -0.7248    2.3639 H   0  0  0  0  0  0  0  0  0  0  0  0
    6.5637    0.4185    2.6430 H   0  0  0  0  0  0  0  0  0  0  0  0
    4.9533    0.7390    3.3137 H   0  0  0  0  0  0  0  0  0  0  0  0
    7.1383    0.9340   -0.1148 N   0  0  0  0  0  0  0  0  0  0  0  0
    8.0280    0.5122   -1.1715 C   0  0  0  0  0  0  0  0  0  0  0  0
    7.4946    1.5951    0.5691 H   0  0  0  0  0  0  0  0  0  0  0  0
    8.5820   -0.3821   -0.8500 H   0  0  0  0  0  0  0  0  0  0  0  0
    7.4419    0.2763   -2.0719 H   0  0  0  0  0  0  0  0  0  0  0  0
    8.7379    1.3215   -1.3977 H   0  0  0  0  0  0  0  0  0  0  0  0
  1  3  1  0  0  0  0
  1  7  1  0  0  0  0
  1  2  2  0  0  0  0
 22 23  1  0  0  0  0
 23 25  1  0  0  0  0
 23 24  2  0  0  0  0
 35 36  1  0  0  0  0
 36 44  1  0  0  0  0
 36 37  2  0  0  0  0
  8  9  1  0  0  0  0
  9 17  1  0  0  0  0
  9 10  2  0  0  0  0
 18 19  1  0  0  0  0
 19 34  1  0  0  0  0
 19 20  2  0  0  0  0
 35 38  1  0  0  0  0
  8 11  1  0  0  0  0
 44 45  1  0  0  0  0
 21 22  1  0  0  0  0
 18 21  1  0  0  0  0
 34 35  1  0  0  0  0
  7  8  1  0  0  0  0
 17 18  1  0  0  0  0
  3  4  1  0  0  0  0
  3  5  1  0  0  0  0
  3  6  1  0  0  0  0
 38 41  1  0  0  0  0
 38 42  1  0  0  0  0
 38 43  1  0  0  0  0
 11 14  1  0  0  0  0
 11 15  1  0  0  0  0
 11 16  1  0  0  0  0
 45 47  1  0  0  0  0
 45 48  1  0  0  0  0
 45 49  1  0  0  0  0
 22 30  1  0  0  0  0
 22 31  1  0  0  0  0
 21 28  1  0  0  0  0
 21 29  1  0  0  0  0
 35 40  1  0  0  0  0
  8 13  1  0  0  0  0
 18 27  1  0  0  0  0
 25 32  1  0  0  0  0
 25 33  1  0  0  0  0
 44 46  1  0  0  0  0
  7 12  1  0  0  0  0
 34 39  1  0  0  0  0
 17 26  1  0  0  0  0
M  END
$$$$

  -OEChem-05262214473D

 49 48  0     1  0  0  0  0  0999 V2000
   -1.9833   -0.0509   -3.3423 C   0  0  0  0  0  0  0  0  0  0  0  0
   -1.6199   -1.0613   -2.7518 O   0  0  0  0  0  0  0  0  0  0  0  0
   -3.3243   -0.0235   -3.9975 C   0  0  0  0  0  0  0  0  0  0  0  0
   -3.2886   -0.3689   -5.0432 H   0  0  0  0  0  0  0  0  0  0  0  0
   -4.0503   -0.6845   -3.4973 H   0  0  0  0  0  0  0  0  0  0  0  0
   -3.8104    0.9645   -4.0351 H   0  0  0  0  0  0  0  0  0  0  0  0
   -1.2607    1.1231   -3.4768 N   0  0  0  0  0  0  0  0  0  0  0  0
    0.0536    1.3115   -2.9213 C   0  0  2  0  0  0  0  0  0  0  0  0
    0.0266    0.8315   -1.4761 C   0  0  0  0  0  0  0  0  0  0  0  0
   -1.0065    0.7530   -0.8146 O   0  0  0  0  0  0  0  0  0  0  0  0
    0.4852    2.7674   -3.0025 C   0  0  0  0  0  0  0  0  0  0  0  0
   -1.6809    1.8924   -3.9952 H   0  0  0  0  0  0  0  0  0  0  0  0
    0.7360    0.6822   -3.5030 H   0  0  0  0  0  0  0  0  0  0  0  0
   -0.1867    3.4133   -2.4256 H   0  0  0  0  0  0  0  0  0  0  0  0
    1.4966    2.9042   -2.6056 H   0  0  0  0  0  0  0  0  0  0  0  0
    0.4754    3.1196   -4.0397 H   0  0  0  0  0  0  0  0  0  0  0  0
    1.2978    0.5411   -0.9947 N   0  0  0  0  0  0  0  0  0  0  0  0
    1.5371    0.0807    0.3489 C   0  0  2  0  0  0  0  0  0  0  0  0
    3.0407   -0.1257    0.4946 C   0  0  0  0  0  0  0  0  0  0  0  0
    3.6295   -1.1018    0.0348 O   0  0  0  0  0  0  0  0  0  0  0  0
    0.7877   -1.2218    0.6568 C   0  0  0  0  0  0  0  0  0  0  0  0
   -0.7330   -1.0563    0.6860 C   0  0  0  0  0  0  0  0  0  0  0  0
   -1.4777   -2.3482    0.9666 C   0  0  0  0  0  0  0  0  0  0  0  0
   -0.9338   -3.4423    1.0845 O   0  0  0  0  0  0  0  0  0  0  0  0
   -2.8408   -2.1601    1.0490 N   0  0  0  0  0  0  0  0  0  0  0  0
    2.0949    0.6178   -1.6227 H   0  0  0  0  0  0  0  0  0  0  0  0
    1.2215    0.8880    1.0184 H   0  0  0  0  0  0  0  0  0  0  0  0
    1.0396   -1.9715   -0.1052 H   0  0  0  0  0  0  0  0  0  0  0  0
    1.1290   -1.6345    1.6146 H   0  0  0  0  0  0  0  0  0  0  0  0
   -1.0678   -0.7026   -0.2970 H   0  0  0  0  0  0  0  0  0  0  0  0
   -1.0284   -0.3001    1.4218 H   0  0  0  0  0  0  0  0  0  0  0  0
   -3.2140   -1.2251    0.9224 H   0  0  0  0  0  0  0  0  0  0  0  0
   -3.4845   -2.9232    1.2319 H   0  0  0  0  0  0  0  0  0  0  0  0
    3.6341    0.8831    1.2406 N   0  0  0  0  0  0  0  0  0  0  0  0
    5.0461    0.9178    1.5467 C   0  0  2  0  0  0  0  0  0  0  0  0
    5.8138    0.6829    0.2525 C   0  0  0  0  0  0  0  0  0  0  0  0
    5.3247    0.1203   -0.7249 O   0  0  0  0  0  0  0  0  0  0  0  0
    5.4114   -0.1246    2.5921 C   0  0  0  0  0  0  0  0  0  0  0  0
    3.0464    1.6348    1.5890 H   0  0  0  0  0  0  0  0  0  0  0  0
    5.2634    1.9231    1.9237 H   0  0  0  0  0  0  0  0  0  0  0  0
    5.2006   -1.1383    2.2324 H   0  0  0  0  0  0  0  0  0  0  0  0
    6.4761   -0.0779    2.8438 H   0  0  0  0  0  0  0  0  0  0  0  0
    4.8365    0.0279    3.5120 H   0  0  0  0  0  0  0  0  0  0  0  0
    7.1228    1.1370    0.3325 N   0  0  0  0  0  0  0  0  0  0  0  0
    8.0577    1.0175   -0.7619 C   0  0  0  0  0  0  0  0  0  0  0  0
    7.4376    1.6083    1.1754 H   0  0  0  0  0  0  0  0  0  0  0  0
    8.6271    0.0820   -0.6580 H   0  0  0  0  0  0  0  0  0  0  0  0
    7.5077    1.0079   -1.7145 H   0  0  0  0  0  0  0  0  0  0  0  0
    8.7505    1.8718   -0.7472 H   0  0  0  0  0  0  0  0  0  0  0  0
  1  3  1  0  0  0  0
  1  7  1  0  0  0  0
  1  2  2  0  0  0  0
 22 23  1  0  0  0  0
 23 25  1  0  0  0  0
 23 24  2  0  0  0  0
 35 36  1  0  0  0  0
 36 44  1  0  0  0  0
 36 37  2  0  0  0  0
  8  9  1  0  0  0  0
  9 17  1  0  0  0  0
  9 10  2  0  0  0  0
 18 19  1  0  0  0  0
 19 34  1  0  0  0  0
 19 20  2  0  0  0  0
 35 38  1  0  0  0  0
  8 11  1  0  0  0  0
 44 45  1  0  0  0  0
 21 22  1  0  0  0  0
 18 21  1  0  0  0  0
 34 35  1  0  0  0  0
  7  8  1  0  0  0  0
 17 18  1  0  0  0  0
  3  4  1  0  0  0  0
  3  5  1  0  0  0  0
  3  6  1  0  0  0  0
 38 41  1  0  0  0  0
 38 42  1  0  0  0  0
 38 43  1  0  0  0  0
 11 14  1  0  0  0  0
 11 15  1  0  0  0  0
 11 16  1  0  0  0  0
 45 47  1  0  0  0  0
 45 48  1  0  0  0  0
 45 49  1  0  0  0  0
 22 30  1  0  0  0  0
 22 31  1  0  0  0  0
 21 28  1  0  0  0  0
 21 29  1  0  0  0  0
 35 40  1  0  0  0  0
  8 13  1  0  0  0  0
 18 27  1  0  0  0  0
 25 32  1  0  0  0  0
 25 33  1  0  0  0  0
 44 46  1  0  0  0  0
  7 12  1  0  0  0  0
 34 39  1  0  0  0  0
 17 26  1  0  0  0  0
M  END
$$$$

  -OEChem-05262214473D

 49 48  0     1  0  0  0  0  0999 V2000
   -1.9833   -0.0509   -3.3423 C   0  0  0  0  0  0  0  0  0  0  0  0
   -1.6199   -1.0613   -2.7518 O   0  0  0  0  0  0  0  0  0  0  0  0
   -3.3243   -0.0235   -3.9975 C   0  0  0  0  0  0  0  0  0  0  0  0
   -3.2886   -0.3689   -5.0432 H   0  0  0  0  0  0  0  0  0  0  0  0
   -4.0503   -0.6845   -3.4973 H   0  0  0  0  0  0  0  0  0  0  0  0
   -3.8104    0.9645   -4.0351 H   0  0  0  0  0  0  0  0  0  0  0  0
   -1.2607    1.1231   -3.4768 N   0  0  0  0  0  0  0  0  0  0  0  0
    0.0536    1.3115   -2.9213 C   0  0  2  0  0  0  0  0  0  0  0  0
    0.0266    0.8315   -1.4761 C   0  0  0  0  0  0  0  0  0  0  0  0
   -1.0065    0.7530   -0.8146 O   0  0  0  0  0  0  0  0  0  0  0  0
    0.4852    2.7674   -3.0025 C   0  0  0  0  0  0  0  0  0  0  0  0
   -1.6809    1.8924   -3.9952 H   0  0  0  0  0  0  0  0  0  0  0  0
    0.7360    0.6822   -3.5030 H   0  0  0  0  0  0  0  0  0  0  0  0
   -0.1867    3.4133   -2.4256 H   0  0  0  0  0  0  0  0  0  0  0  0
    1.4966    2.9042   -2.6056 H   0  0  0  0  0  0  0  0  0  0  0  0
    0.4754    3.1196   -4.0397 H   0  0  0  0  0  0  0  0  0  0  0  0
    1.2978    0.5411   -0.9947 N   0  0  0  0  0  0  0  0  0  0  0  0
    1.5371    0.0807    0.3489 C   0  0  2  0  0  0  0  0  0  0  0  0
    3.0407   -0.1257    0.4946 C   0  0  0  0  0  0  0  0  0  0  0  0
    3.6721   -0.9398   -0.1759 O   0  0  0  0  0  0  0  0  0  0  0  0
    0.7877   -1.2218    0.6568 C   0  0  0  0  0  0  0  0  0  0  0  0
   -0.7330   -1.0563    0.6860 C   0  0  0  0  0  0  0  0  0  0  0  0
   -1.4777   -2.3482    0.9666 C   0  0  0  0  0  0  0  0  0  0  0  0
   -0.9338   -3.4423    1.0845 O   0  0  0  0  0  0  0  0  0  0  0  0
   -2.8408   -2.1601    1.0490 N   0  0  0  0  0  0  0  0  0  0  0  0
    2.0949    0.6178   -1.6227 H   0  0  0  0  0  0  0  0  0  0  0  0
    1.2215    0.8880    1.0184 H   0  0  0  0  0  0  0  0  0  0  0  0
    1.0396   -1.9715   -0.1052 H   0  0  0  0  0  0  0  0  0  0  0  0
    1.1290   -1.6345    1.6146 H   0  0  0  0  0  0  0  0  0  0  0  0
   -1.0678   -0.7026   -0.2970 H   0  0  0  0  0  0  0  0  0  0  0  0
   -1.0284   -0.3001    1.4218 H   0  0  0  0  0  0  0  0  0  0  0  0
   -3.2140   -1.2251    0.9224 H   0  0  0  0  0  0  0  0  0  0  0  0
   -3.4845   -2.9232    1.2319 H   0  0  0  0  0  0  0  0  0  0  0  0
    3.5803    0.6706    1.4952 N   0  0  0  0  0  0  0  0  0  0  0  0
    4.9802    0.6543    1.8538 C   0  0  2  0  0  0  0  0  0  0  0  0
    5.7952    0.7737    0.5728 C   0  0  0  0  0  0  0  0  0  0  0  0
    5.3541    0.4700   -0.5337 O   0  0  0  0  0  0  0  0  0  0  0  0
    5.3424   -0.6131    2.6122 C   0  0  0  0  0  0  0  0  0  0  0  0
    2.9601    1.2962    2.0008 H   0  0  0  0  0  0  0  0  0  0  0  0
    5.1559    1.5340    2.4825 H   0  0  0  0  0  0  0  0  0  0  0  0
    5.1730   -1.5052    1.9983 H   0  0  0  0  0  0  0  0  0  0  0  0
    6.3967   -0.6109    2.9080 H   0  0  0  0  0  0  0  0  0  0  0  0
    4.7343   -0.7125    3.5179 H   0  0  0  0  0  0  0  0  0  0  0  0
    7.0872    1.2185    0.8158 N   0  0  0  0  0  0  0  0  0  0  0  0
    8.0595    1.4017   -0.2364 C   0  0  0  0  0  0  0  0  0  0  0  0
    7.3611    1.4649    1.7624 H   0  0  0  0  0  0  0  0  0  0  0  0
    8.6525    0.4825   -0.3525 H   0  0  0  0  0  0  0  0  0  0  0  0
    7.5406    1.6249   -1.1803 H   0  0  0  0  0  0  0  0  0  0  0  0
    8.7262    2.2377    0.0220 H   0  0  0  0  0  0  0  0  0  0  0  0
  1  3  1  0  0  0  0
  1  7  1  0  0  0  0
  1  2  2  0  0  0  0
 22 23  1  0  0  0  0
 23 25  1  0  0  0  0
 23 24  2  0  0  0  0
 35 36  1  0  0  0  0
 36 44  1  0  0  0  0
 36 37  2  0  0  0  0
  8  9  1  0  0  0  0
  9 17  1  0  0  0  0
  9 10  2  0  0  0  0
 18 19  1  0  0  0  0
 19 34  1  0  0  0  0
 19 20  2  0  0  0  0
 35 38  1  0  0  0  0
  8 11  1  0  0  0  0
 44 45  1  0  0  0  0
 21 22  1  0  0  0  0
 18 21  1  0  0  0  0
 34 35  1  0  0  0  0
  7  8  1  0  0  0  0
 17 18  1  0  0  0  0
  3  4  1  0  0  0  0
  3  5  1  0  0  0  0
  3  6  1  0  0  0  0
 38 41  1  0  0  0  0
 38 42  1  0  0  0  0
 38 43  1  0  0  0  0
 11 14  1  0  0  0  0
 11 15  1  0  0  0  0
 11 16  1  0  0  0  0
 45 47  1  0  0  0  0
 45 48  1  0  0  0  0
 45 49  1  0  0  0  0
 22 30  1  0  0  0  0
 22 31  1  0  0  0  0
 21 28  1  0  0  0  0
 21 29  1  0  0  0  0
 35 40  1  0  0  0  0
  8 13  1  0  0  0  0
 18 27  1  0  0  0  0
 25 32  1  0  0  0  0
 25 33  1  0  0  0  0
 44 46  1  0  0  0  0
  7 12  1  0  0  0  0
 34 39  1  0  0  0  0
 17 26  1  0  0  0  0
M  END
$$$$

  -OEChem-05262214473D

 49 48  0     1  0  0  0  0  0999 V2000
   -1.9833   -0.0509   -3.3423 C   0  0  0  0  0  0  0  0  0  0  0  0
   -1.6199   -1.0613   -2.7518 O   0  0  0  0  0  0  0  0  0  0  0  0
   -3.3243   -0.0235   -3.9975 C   0  0  0  0  0  0  0  0  0  0  0  0
   -3.2886   -0.3689   -5.0432 H   0  0  0  0  0  0  0  0  0  0  0  0
   -4.0503   -0.6845   -3.4973 H   0  0  0  0  0  0  0  0  0  0  0  0
   -3.8104    0.9645   -4.0351 H   0  0  0  0  0  0  0  0  0  0  0  0
   -1.2607    1.1231   -3.4768 N   0  0  0  0  0  0  0  0  0  0  0  0
    0.0536    1.3115   -2.9213 C   0  0  2  0  0  0  0  0  0  0  0  0
    0.0266    0.8315   -1.4761 C   0  0  0  0  0  0  0  0  0  0  0  0
   -1.0065    0.7530   -0.8146 O   0  0  0  0  0  0  0  0  0  0  0  0
    0.4852    2.7674   -3.0025 C   0  0  0  0  0  0  0  0  0  0  0  0
   -1.6809    1.8924   -3.9952 H   0  0  0  0  0  0  0  0  0  0  0  0
    0.7360    0.6822   -3.5030 H   0  0  0  0  0  0  0  0  0  0  0  0
   -0.1867    3.4133   -2.4256 H   0  0  0  0  0  0  0  0  0  0  0  0
    1.4966    2.9042   -2.6056 H   0  0  0  0  0  0  0  0  0  0  0  0
    0.4754    3.1196   -4.0397 H   0  0  0  0  0  0  0  0  0  0  0  0
    1.2978    0.5411   -0.9947 N   0  0  0  0  0  0  0  0  0  0  0  0
    1.5371    0.0807    0.3489 C   0  0  2  0  0  0  0  0  0  0  0  0
    3.0407   -0.1257    0.4946 C   0  0  0  0  0  0  0  0  0  0  0  0
    3.7167   -0.7284   -0.3365 O   0  0  0  0  0  0  0  0  0  0  0  0
    0.7877   -1.2218    0.6568 C   0  0  0  0  0  0  0  0  0  0  0  0
   -0.7330   -1.0563    0.6860 C   0  0  0  0  0  0  0  0  0  0  0  0
   -1.4777   -2.3482    0.9666 C   0  0  0  0  0  0  0  0  0  0  0  0
   -0.9338   -3.4423    1.0845 O   0  0  0  0  0  0  0  0  0  0  0  0
   -2.8408   -2.1601    1.0490 N   0  0  0  0  0  0  0  0  0  0  0  0
    2.0949    0.6178   -1.6227 H   0  0  0  0  0  0  0  0  0  0  0  0
    1.2215    0.8880    1.0184 H   0  0  0  0  0  0  0  0  0  0  0  0
    1.0396   -1.9715   -0.1052 H   0  0  0  0  0  0  0  0  0  0  0  0
    1.1290   -1.6345    1.6146 H   0  0  0  0  0  0  0  0  0  0  0  0
   -1.0678   -0.7026   -0.2970 H   0  0  0  0  0  0  0  0  0  0  0  0
   -1.0284   -0.3001    1.4218 H   0  0  0  0  0  0  0  0  0  0  0  0
   -3.2140   -1.2251    0.9224 H   0  0  0  0  0  0  0  0  0  0  0  0
   -3.4845   -2.9232    1.2319 H   0  0  0  0  0  0  0  0  0  0  0  0
    3.5246    0.3990    1.6849 N   0  0  0  0  0  0  0  0  0  0  0  0
    4.9123    0.3198    2.0808 C   0  0  2  0  0  0  0  0  0  0  0  0
    5.7638    0.7792    0.9046 C   0  0  0  0  0  0  0  0  0  0  0  0
    5.3673    0.7596   -0.2587 O   0  0  0  0  0  0  0  0  0  0  0  0
    5.2871   -1.0918    2.5046 C   0  0  0  0  0  0  0  0  0  0  0  0
    2.8706    0.8618    2.3092 H   0  0  0  0  0  0  0  0  0  0  0  0
    5.0421    1.0129    2.9191 H   0  0  0  0  0  0  0  0  0  0  0  0
    5.1635   -1.8005    1.6776 H   0  0  0  0  0  0  0  0  0  0  0  0
    6.3310   -1.1440    2.8313 H   0  0  0  0  0  0  0  0  0  0  0  0
    4.6537   -1.4317    3.3310 H   0  0  0  0  0  0  0  0  0  0  0  0
    7.0339    1.1731    1.3022 N   0  0  0  0  0  0  0  0  0  0  0  0
    8.0334    1.6388    0.3694 C   0  0  0  0  0  0  0  0  0  0  0  0
    7.2702    1.1747    2.2901 H   0  0  0  0  0  0  0  0  0  0  0  0
    8.6564    0.7920    0.0456 H   0  0  0  0  0  0  0  0  0  0  0  0
    7.5384    2.0853   -0.5056 H   0  0  0  0  0  0  0  0  0  0  0  0
    8.6667    2.3941    0.8576 H   0  0  0  0  0  0  0  0  0  0  0  0
  1  3  1  0  0  0  0
  1  7  1  0  0  0  0
  1  2  2  0  0  0  0
 22 23  1  0  0  0  0
 23 25  1  0  0  0  0
 23 24  2  0  0  0  0
 35 36  1  0  0  0  0
 36 44  1  0  0  0  0
 36 37  2  0  0  0  0
  8  9  1  0  0  0  0
  9 17  1  0  0  0  0
  9 10  2  0  0  0  0
 18 19  1  0  0  0  0
 19 34  1  0  0  0  0
 19 20  2  0  0  0  0
 35 38  1  0  0  0  0
  8 11  1  0  0  0  0
 44 45  1  0  0  0  0
 21 22  1  0  0  0  0
 18 21  1  0  0  0  0
 34 35  1  0  0  0  0
  7  8  1  0  0  0  0
 17 18  1  0  0  0  0
  3  4  1  0  0  0  0
  3  5  1  0  0  0  0
  3  6  1  0  0  0  0
 38 41  1  0  0  0  0
 38 42  1  0  0  0  0
 38 43  1  0  0  0  0
 11 14  1  0  0  0  0
 11 15  1  0  0  0  0
 11 16  1  0  0  0  0
 45 47  1  0  0  0  0
 45 48  1  0  0  0  0
 45 49  1  0  0  0  0
 22 30  1  0  0  0  0
 22 31  1  0  0  0  0
 21 28  1  0  0  0  0
 21 29  1  0  0  0  0
 35 40  1  0  0  0  0
  8 13  1  0  0  0  0
 18 27  1  0  0  0  0
 25 32  1  0  0  0  0
 25 33  1  0  0  0  0
 44 46  1  0  0  0  0
  7 12  1  0  0  0  0
 34 39  1  0  0  0  0
 17 26  1  0  0  0  0
M  END
$$$$

  -OEChem-05262214473D

 49 48  0     1  0  0  0  0  0999 V2000
   -1.9833   -0.0509   -3.3423 C   0  0  0  0  0  0  0  0  0  0  0  0
   -1.6199   -1.0613   -2.7518 O   0  0  0  0  0  0  0  0  0  0  0  0
   -3.3243   -0.0235   -3.9975 C   0  0  0  0  0  0  0  0  0  0  0  0
   -3.2886   -0.3689   -5.0432 H   0  0  0  0  0  0  0  0  0  0  0  0
   -4.0503   -0.6845   -3.4973 H   0  0  0  0  0  0  0  0  0  0  0  0
   -3.8104    0.9645   -4.0351 H   0  0  0  0  0  0  0  0  0  0  0  0
   -1.2607    1.1231   -3.4768 N   0  0  0  0  0  0  0  0  0  0  0  0
    0.0536    1.3115   -2.9213 C   0  0  2  0  0  0  0  0  0  0  0  0
    0.0266    0.8315   -1.4761 C   0  0  0  0  0  0  0  0  0  0  0  0
   -1.0065    0.7530   -0.8146 O   0  0  0  0  0  0  0  0  0  0  0  0
    0.4852    2.7674   -3.0025 C   0  0  0  0  0  0  0  0  0  0  0  0
   -1.6809    1.8924   -3.9952 H   0  0  0  0  0  0  0  0  0  0  0  0
    0.7360    0.6822   -3.5030 H   0  0  0  0  0  0  0  0  0  0  0  0
   -0.1867    3.4133   -2.4256 H   0  0  0  0  0  0  0  0  0  0  0  0
    1.4966    2.9042   -2.6056 H   0  0  0  0  0  0  0  0  0  0  0  0
    0.4754    3.1196   -4.0397 H   0  0  0  0  0  0  0  0  0  0  0  0
    1.2978    0.5411   -0.9947 N   0  0  0  0  0  0  0  0  0  0  0  0
    1.5371    0.0807    0.3489 C   0  0  2  0  0  0  0  0  0  0  0  0
    3.0407   -0.1257    0.4946 C   0  0  0  0  0  0  0  0  0  0  0  0
    3.7602   -0.4821   -0.4362 O   0  0  0  0  0  0  0  0  0  0  0  0
    0.7877   -1.2218    0.6568 C   0  0  0  0  0  0  0  0  0  0  0  0
   -0.7330   -1.0563    0.6860 C   0  0  0  0  0  0  0  0  0  0  0  0
   -1.4777   -2.3482    0.9666 C   0  0  0  0  0  0  0  0  0  0  0  0
   -0.9338   -3.4423    1.0845 O   0  0  0  0  0  0  0  0  0  0  0  0
   -2.8408   -2.1601    1.0490 N   0  0  0  0  0  0  0  0  0  0  0  0
    2.0949    0.6178   -1.6227 H   0  0  0  0  0  0  0  0  0  0  0  0
    1.2215    0.8880    1.0184 H   0  0  0  0  0  0  0  0  0  0  0  0
    1.0396   -1.9715   -0.1052 H   0  0  0  0  0  0  0  0  0  0  0  0
    1.1290   -1.6345    1.6146 H   0  0  0  0  0  0  0  0  0  0  0  0
   -1.0678   -0.7026   -0.2970 H   0  0  0  0  0  0  0  0  0  0  0  0
   -1.0284   -0.3001    1.4218 H   0  0  0  0  0  0  0  0  0  0  0  0
   -3.2140   -1.2251    0.9224 H   0  0  0  0  0  0  0  0  0  0  0  0
   -3.4845   -2.9232    1.2319 H   0  0  0  0  0  0  0  0  0  0  0  0
    3.4709    0.0868    1.7969 N   0  0  0  0  0  0  0  0  0  0  0  0
    4.8471   -0.0629    2.2123 C   0  0  2  0  0  0  0  0  0  0  0  0
    5.7218    0.6990    1.2255 C   0  0  0  0  0  0  0  0  0  0  0  0
    5.3631    0.9696    0.0812 O   0  0  0  0  0  0  0  0  0  0  0  0
    5.2494   -1.5281    2.2764 C   0  0  0  0  0  0  0  0  0  0  0  0
    2.7841    0.3614    2.4930 H   0  0  0  0  0  0  0  0  0  0  0  0
    4.9298    0.3952    3.2039 H   0  0  0  0  0  0  0  0  0  0  0  0
    5.1729   -2.0041    1.2920 H   0  0  0  0  0  0  0  0  0  0  0  0
    6.2833   -1.6410    2.6187 H   0  0  0  0  0  0  0  0  0  0  0  0
    4.6002   -2.0807    2.9642 H   0  0  0  0  0  0  0  0  0  0  0  0
    6.9664    1.0037    1.7585 N   0  0  0  0  0  0  0  0  0  0  0  0
    7.9811    1.7125    1.0141 C   0  0  0  0  0  0  0  0  0  0  0  0
    7.1710    0.7575    2.7225 H   0  0  0  0  0  0  0  0  0  0  0  0
    8.6385    0.9893    0.5093 H   0  0  0  0  0  0  0  0  0  0  0  0
    7.5013    2.3578    0.2635 H   0  0  0  0  0  0  0  0  0  0  0  0
    8.5761    2.3305    1.7025 H   0  0  0  0  0  0  0  0  0  0  0  0
  1  3  1  0  0  0  0
  1  7  1  0  0  0  0
  1  2  2  0  0  0  0
 22 23  1  0  0  0  0
 23 25  1  0  0  0  0
 23 24  2  0  0  0  0
 35 36  1  0  0  0  0
 36 44  1  0  0  0  0
 36 37  2  0  0  0  0
  8  9  1  0  0  0  0
  9 17  1  0  0  0  0
  9 10  2  0  0  0  0
 18 19  1  0  0  0  0
 19 34  1  0  0  0  0
 19 20  2  0  0  0  0
 35 38  1  0  0  0  0
  8 11  1  0  0  0  0
 44 45  1  0  0  0  0
 21 22  1  0  0  0  0
 18 21  1  0  0  0  0
 34 35  1  0  0  0  0
  7  8  1  0  0  0  0
 17 18  1  0  0  0  0
  3  4  1  0  0  0  0
  3  5  1  0  0  0  0
  3  6  1  0  0  0  0
 38 41  1  0  0  0  0
 38 42  1  0  0  0  0
 38 43  1  0  0  0  0
 11 14  1  0  0  0  0
 11 15  1  0  0  0  0
 11 16  1  0  0  0  0
 45 47  1  0  0  0  0
 45 48  1  0  0  0  0
 45 49  1  0  0  0  0
 22 30  1  0  0  0  0
 22 31  1  0  0  0  0
 21 28  1  0  0  0  0
 21 29  1  0  0  0  0
 35 40  1  0  0  0  0
  8 13  1  0  0  0  0
 18 27  1  0  0  0  0
 25 32  1  0  0  0  0
 25 33  1  0  0  0  0
 44 46  1  0  0  0  0
  7 12  1  0  0  0  0
 34 39  1  0  0  0  0
 17 26  1  0  0  0  0
M  END
$$$$

  -OEChem-05262214473D

 49 48  0     1  0  0  0  0  0999 V2000
   -1.9833   -0.0509   -3.3423 C   0  0  0  0  0  0  0  0  0  0  0  0
   -1.6199   -1.0613   -2.7518 O   0  0  0  0  0  0  0  0  0  0  0  0
   -3.3243   -0.0235   -3.9975 C   0  0  0  0  0  0  0  0  0  0  0  0
   -3.2886   -0.3689   -5.0432 H   0  0  0  0  0  0  0  0  0  0  0  0
   -4.0503   -0.6845   -3.4973 H   0  0  0  0  0  0  0  0  0  0  0  0
   -3.8104    0.9645   -4.0351 H   0  0  0  0  0  0  0  0  0  0  0  0
   -1.2607    1.1231   -3.4768 N   0  0  0  0  0  0  0  0  0  0  0  0
    0.0536    1.3115   -2.9213 C   0  0  2  0  0  0  0  0  0  0  0  0
    0.0266    0.8315   -1.4761 C   0  0  0  0  0  0  0  0  0  0  0  0
   -1.0065    0.7530   -0.8146 O   0  0  0  0  0  0  0  0  0  0  0  0
    0.4852    2.7674   -3.0025 C   0  0  0  0  0  0  0  0  0  0  0  0
   -1.6809    1.8924   -3.9952 H   0  0  0  0  0  0  0  0  0  0  0  0
    0.7360    0.6822   -3.5030 H   0  0  0  0  0  0  0  0  0  0  0  0
   -0.1867    3.4133   -2.4256 H   0  0  0  0  0  0  0  0  0  0  0  0
    1.4966    2.9042   -2.6056 H   0  0  0  0  0  0  0  0  0  0  0  0
    0.4754    3.1196   -4.0397 H   0  0  0  0  0  0  0  0  0  0  0  0
    1.2978    0.5411   -0.9947 N   0  0  0  0  0  0  0  0  0  0  0  0
    1.5371    0.0807    0.3489 C   0  0  2  0  0  0  0  0  0  0  0  0
    3.0407   -0.1257    0.4946 C   0  0  0  0  0  0  0  0  0  0  0  0
    3.7995   -0.2177   -0.4681 O   0  0  0  0  0  0  0  0  0  0  0  0
    0.7877   -1.2218    0.6568 C   0  0  0  0  0  0  0  0  0  0  0  0
   -0.7330   -1.0563    0.6860 C   0  0  0  0  0  0  0  0  0  0  0  0
   -1.4777   -2.3482    0.9666 C   0  0  0  0  0  0  0  0  0  0  0  0
   -0.9338   -3.4423    1.0845 O   0  0  0  0  0  0  0  0  0  0  0  0
   -2.8408   -2.1601    1.0490 N   0  0  0  0  0  0  0  0  0  0  0  0
    2.0949    0.6178   -1.6227 H   0  0  0  0  0  0  0  0  0  0  0  0
    1.2215    0.8880    1.0184 H   0  0  0  0  0  0  0  0  0  0  0  0
    1.0396   -1.9715   -0.1052 H   0  0  0  0  0  0  0  0  0  0  0  0
    1.1290   -1.6345    1.6146 H   0  0  0  0  0  0  0  0  0  0  0  0
   -1.0678   -0.7026   -0.2970 H   0  0  0  0  0  0  0  0  0  0  0  0
   -1.0284   -0.3001    1.4218 H   0  0  0  0  0  0  0  0  0  0  0  0
   -3.2140   -1.2251    0.9224 H   0  0  0  0  0  0  0  0  0  0  0  0
   -3.4845   -2.9232    1.2319 H   0  0  0  0  0  0  0  0  0  0  0  0
    3.4229   -0.2446    1.8235 N   0  0  0  0  0  0  0  0  0  0  0  0
    4.7889   -0.4678    2.2394 C   0  0  2  0  0  0  0  0  0  0  0  0
    5.6719    0.5387    1.5135 C   0  0  0  0  0  0  0  0  0  0  0  0
    5.3421    1.0854    0.4631 O   0  0  0  0  0  0  0  0  0  0  0  0
    5.2316   -1.8922    1.9434 C   0  0  0  0  0  0  0  0  0  0  0  0
    2.7065   -0.1710    2.5399 H   0  0  0  0  0  0  0  0  0  0  0  0
    4.8265   -0.2768    3.3174 H   0  0  0  0  0  0  0  0  0  0  0  0
    5.2005   -2.1022    0.8680 H   0  0  0  0  0  0  0  0  0  0  0  0
    6.2571   -2.0680    2.2849 H   0  0  0  0  0  0  0  0  0  0  0  0
    4.5774   -2.6153    2.4423 H   0  0  0  0  0  0  0  0  0  0  0  0
    6.8895    0.7220    2.1538 N   0  0  0  0  0  0  0  0  0  0  0  0
    7.9061    1.6178    1.6539 C   0  0  0  0  0  0  0  0  0  0  0  0
    7.0704    0.2416    3.0303 H   0  0  0  0  0  0  0  0  0  0  0  0
    8.6002    1.0612    1.0070 H   0  0  0  0  0  0  0  0  0  0  0  0
    7.4318    2.4238    1.0747 H   0  0  0  0  0  0  0  0  0  0  0  0
    8.4606    2.0512    2.4993 H   0  0  0  0  0  0  0  0  0  0  0  0
  1  3  1  0  0  0  0
  1  7  1  0  0  0  0
  1  2  2  0  0  0  0
 22 23  1  0  0  0  0
 23 25  1  0  0  0  0
 23 24  2  0  0  0  0
 35 36  1  0  0  0  0
 36 44  1  0  0  0  0
 36 37  2  0  0  0  0
  8  9  1  0  0  0  0
  9 17  1  0  0  0  0
  9 10  2  0  0  0  0
 18 19  1  0  0  0  0
 19 34  1  0  0  0  0
 19 20  2  0  0  0  0
 35 38  1  0  0  0  0
  8 11  1  0  0  0  0
 44 45  1  0  0  0  0
 21 22  1  0  0  0  0
 18 21  1  0  0  0  0
 34 35  1  0  0  0  0
  7  8  1  0  0  0  0
 17 18  1  0  0  0  0
  3  4  1  0  0  0  0
  3  5  1  0  0  0  0
  3  6  1  0  0  0  0
 38 41  1  0  0  0  0
 38 42  1  0  0  0  0
 38 43  1  0  0  0  0
 11 14  1  0  0  0  0
 11 15  1  0  0  0  0
 11 16  1  0  0  0  0
 45 47  1  0  0  0  0
 45 48  1  0  0  0  0
 45 49  1  0  0  0  0
 22 30  1  0  0  0  0
 22 31  1  0  0  0  0
 21 28  1  0  0  0  0
 21 29  1  0  0  0  0
 35 40  1  0  0  0  0
  8 13  1  0  0  0  0
 18 27  1  0  0  0  0
 25 32  1  0  0  0  0
 25 33  1  0  0  0  0
 44 46  1  0  0  0  0
  7 12  1  0  0  0  0
 34 39  1  0  0  0  0
 17 26  1  0  0  0  0
M  END
$$$$

  -OEChem-05262214473D

 49 48  0     1  0  0  0  0  0999 V2000
   -1.9833   -0.0509   -3.3423 C   0  0  0  0  0  0  0  0  0  0  0  0
   -1.6199   -1.0613   -2.7518 O   0  0  0  0  0  0  0  0  0  0  0  0
   -3.3243   -0.0235   -3.9975 C   0  0  0  0  0  0  0  0  0  0  0  0
   -3.2886   -0.3689   -5.0432 H   0  0  0  0  0  0  0  0  0  0  0  0
   -4.0503   -0.6845   -3.4973 H   0  0  0  0  0  0  0  0  0  0  0  0
   -3.8104    0.9645   -4.0351 H   0  0  0  0  0  0  0  0  0  0  0  0
   -1.2607    1.1231   -3.4768 N   0  0  0  0  0  0  0  0  0  0  0  0
    0.0536    1.3115   -2.9213 C   0  0  2  0  0  0  0  0  0  0  0  0
    0.0266    0.8315   -1.4761 C   0  0  0  0  0  0  0  0  0  0  0  0
   -1.0065    0.7530   -0.8146 O   0  0  0  0  0  0  0  0  0  0  0  0
    0.4852    2.7674   -3.0025 C   0  0  0  0  0  0  0  0  0  0  0  0
   -1.6809    1.8924   -3.9952 H   0  0  0  0  0  0  0  0  0  0  0  0
    0.7360    0.6822   -3.5030 H   0  0  0  0  0  0  0  0  0  0  0  0
   -0.1867    3.4133   -2.4256 H   0  0  0  0  0  0  0  0  0  0  0  0
    1.4966    2.9042   -2.6056 H   0  0  0  0  0  0  0  0  0  0  0  0
    0.4754    3.1196   -4.0397 H   0  0  0  0  0  0  0  0  0  0  0  0
    1.2978    0.5411   -0.9947 N   0  0  0  0  0  0  0  0  0  0  0  0
    1.5371    0.0807    0.3489 C   0  0  2  0  0  0  0  0  0  0  0  0
    3.0298    0.2332    0.6195 C   0  0  0  0  0  0  0  0  0  0  0  0
    3.8247    0.6392   -0.2257 O   0  0  0  0  0  0  0  0  0  0  0  0
    1.1055   -1.3779    0.5467 C   0  0  0  0  0  0  0  0  0  0  0  0
   -0.4073   -1.5835    0.4474 C   0  0  0  0  0  0  0  0  0  0  0  0
   -0.8349   -3.0292    0.6187 C   0  0  0  0  0  0  0  0  0  0  0  0
   -0.0519   -3.9657    0.7481 O   0  0  0  0  0  0  0  0  0  0  0  0
   -2.2049   -3.1778    0.5871 N   0  0  0  0  0  0  0  0  0  0  0  0
    2.0949    0.6178   -1.6227 H   0  0  0  0  0  0  0  0  0  0  0  0
    0.9838    0.7521    1.0141 H   0  0  0  0  0  0  0  0  0  0  0  0
    1.5905   -2.0038   -0.2143 H   0  0  0  0  0  0  0  0  0  0  0  0
    1.4617   -1.7471    1.5167 H   0  0  0  0  0  0  0  0  0  0  0  0
   -0.7409   -1.2685   -0.5491 H   0  0  0  0  0  0  0  0  0  0  0  0
   -0.9338   -0.9602    1.1788 H   0  0  0  0  0  0  0  0  0  0  0  0
   -2.7833   -2.3542    0.4589 H   0  0  0  0  0  0  0  0  0  0  0  0
   -2.6558   -4.0816    0.6874 H   0  0  0  0  0  0  0  0  0  0  0  0
    3.3719   -0.1854    1.8978 N   0  0  0  0  0  0  0  0  0  0  0  0
    4.7258   -0.1665    2.4030 C   0  0  2  0  0  0  0  0  0  0  0  0
    5.3184    1.2054    2.1094 C   0  0  0  0  0  0  0  0  0  0  0  0
    4.8932    1.9441    1.2236 O   0  0  0  0  0  0  0  0  0  0  0  0
    5.5662   -1.2674    1.7748 C   0  0  0  0  0  0  0  0  0  0  0  0
    2.6337   -0.5218    2.5089 H   0  0  0  0  0  0  0  0  0  0  0  0
    4.6611   -0.3127    3.4868 H   0  0  0  0  0  0  0  0  0  0  0  0
    5.6425   -1.1378    0.6891 H   0  0  0  0  0  0  0  0  0  0  0  0
    6.5837   -1.2698    2.1797 H   0  0  0  0  0  0  0  0  0  0  0  0
    5.1225   -2.2512    1.9617 H   0  0  0  0  0  0  0  0  0  0  0  0
    6.4053    1.4897    2.9242 N   0  0  0  0  0  0  0  0  0  0  0  0
    7.1473    2.7253    2.8311 C   0  0  0  0  0  0  0  0  0  0  0  0
    6.6766    0.8271    3.6446 H   0  0  0  0  0  0  0  0  0  0  0  0
    7.9980    2.5920    2.1466 H   0  0  0  0  0  0  0  0  0  0  0  0
    6.4898    3.5198    2.4483 H   0  0  0  0  0  0  0  0  0  0  0  0
    7.5192    3.0055    3.8277 H   0  0  0  0  0  0  0  0  0  0  0  0
  1  3  1  0  0  0  0
  1  7  1  0  0  0  0
  1  2  2  0  0  0  0
 22 23  1  0  0  0  0
 23 25  1  0  0  0  0
 23 24  2  0  0  0  0
 35 36  1  0  0  0  0
 36 44  1  0  0  0  0
 36 37  2  0  0  0  0
  8  9  1  0  0  0  0
  9 17  1  0  0  0  0
  9 10  2  0  0  0  0
 18 19  1  0  0  0  0
 19 34  1  0  0  0  0
 19 20  2  0  0  0  0
 35 38  1  0  0  0  0
  8 11  1  0  0  0  0
 44 45  1  0  0  0  0
 21 22  1  0  0  0  0
 18 21  1  0  0  0  0
 34 35  1  0  0  0  0
  7  8  1  0  0  0  0
 17 18  1  0  0  0  0
  3  4  1  0  0  0  0
  3  5  1  0  0  0  0
  3  6  1  0  0  0  0
 38 41  1  0  0  0  0
 38 42  1  0  0  0  0
 38 43  1  0  0  0  0
 11 14  1  0  0  0  0
 11 15  1  0  0  0  0
 11 16  1  0  0  0  0
 45 47  1  0  0  0  0
 45 48  1  0  0  0  0
 45 49  1  0  0  0  0
 22 30  1  0  0  0  0
 22 31  1  0  0  0  0
 21 28  1  0  0  0  0
 21 29  1  0  0  0  0
 35 40  1  0  0  0  0
  8 13  1  0  0  0  0
 18 27  1  0  0  0  0
 25 32  1  0  0  0  0
 25 33  1  0  0  0  0
 44 46  1  0  0  0  0
  7 12  1  0  0  0  0
 34 39  1  0  0  0  0
 17 26  1  0  0  0  0
M  END
$$$$

  -OEChem-05262214473D

 49 48  0     1  0  0  0  0  0999 V2000
   -1.9833   -0.0509   -3.3423 C   0  0  0  0  0  0  0  0  0  0  0  0
   -1.6199   -1.0613   -2.7518 O   0  0  0  0  0  0  0  0  0  0  0  0
   -3.3243   -0.0235   -3.9975 C   0  0  0  0  0  0  0  0  0  0  0  0
   -3.2886   -0.3689   -5.0432 H   0  0  0  0  0  0  0  0  0  0  0  0
   -4.0503   -0.6845   -3.4973 H   0  0  0  0  0  0  0  0  0  0  0  0
   -3.8104    0.9645   -4.0351 H   0  0  0  0  0  0  0  0  0  0  0  0
   -1.2607    1.1231   -3.4768 N   0  0  0  0  0  0  0  0  0  0  0  0
    0.0536    1.3115   -2.9213 C   0  0  2  0  0  0  0  0  0  0  0  0
    0.0266    0.8315   -1.4761 C   0  0  0  0  0  0  0  0  0  0  0  0
   -1.0065    0.7530   -0.8146 O   0  0  0  0  0  0  0  0  0  0  0  0
    0.4852    2.7674   -3.0025 C   0  0  0  0  0  0  0  0  0  0  0  0
   -1.6809    1.8924   -3.9952 H   0  0  0  0  0  0  0  0  0  0  0  0
    0.7360    0.6822   -3.5030 H   0  0  0  0  0  0  0  0  0  0  0  0
   -0.1867    3.4133   -2.4256 H   0  0  0  0  0  0  0  0  0  0  0  0
    1.4966    2.9042   -2.6056 H   0  0  0  0  0  0  0  0  0  0  0  0
    0.4754    3.1196   -4.0397 H   0  0  0  0  0  0  0  0  0  0  0  0
    1.2978    0.5411   -0.9947 N   0  0  0  0  0  0  0  0  0  0  0  0
    1.5371    0.0807    0.3489 C   0  0  2  0  0  0  0  0  0  0  0  0
    3.0298    0.2332    0.6195 C   0  0  0  0  0  0  0  0  0  0  0  0
    3.7794    0.8783   -0.1105 O   0  0  0  0  0  0  0  0  0  0  0  0
    1.1055   -1.3779    0.5467 C   0  0  0  0  0  0  0  0  0  0  0  0
   -0.4073   -1.5835    0.4474 C   0  0  0  0  0  0  0  0  0  0  0  0
   -0.8349   -3.0292    0.6187 C   0  0  0  0  0  0  0  0  0  0  0  0
   -0.0519   -3.9657    0.7481 O   0  0  0  0  0  0  0  0  0  0  0  0
   -2.2049   -3.1778    0.5871 N   0  0  0  0  0  0  0  0  0  0  0  0
    2.0949    0.6178   -1.6227 H   0  0  0  0  0  0  0  0  0  0  0  0
    0.9838    0.7521    1.0141 H   0  0  0  0  0  0  0  0  0  0  0  0
    1.5905   -2.0038   -0.2143 H   0  0  0  0  0  0  0  0  0  0  0  0
    1.4617   -1.7471    1.5167 H   0  0  0  0  0  0  0  0  0  0  0  0
   -0.7409   -1.2685   -0.5491 H   0  0  0  0  0  0  0  0  0  0  0  0
   -0.9338   -0.9602    1.1788 H   0  0  0  0  0  0  0  0  0  0  0  0
   -2.7833   -2.3542    0.4589 H   0  0  0  0  0  0  0  0  0  0  0  0
   -2.6558   -4.0816    0.6874 H   0  0  0  0  0  0  0  0  0  0  0  0
    3.4299   -0.4776    1.7425 N   0  0  0  0  0  0  0  0  0  0  0  0
    4.7972   -0.5204    2.2088 C   0  0  2  0  0  0  0  0  0  0  0  0
    5.3211    0.9087    2.2614 C   0  0  0  0  0  0  0  0  0  0  0  0
    4.8369    1.8254    1.6010 O   0  0  0  0  0  0  0  0  0  0  0  0
    5.6633   -1.3838    1.3049 C   0  0  0  0  0  0  0  0  0  0  0  0
    2.7265   -0.9935    2.2627 H   0  0  0  0  0  0  0  0  0  0  0  0
    4.7732   -0.9387    3.2209 H   0  0  0  0  0  0  0  0  0  0  0  0
    5.6994   -0.9804    0.2864 H   0  0  0  0  0  0  0  0  0  0  0  0
    6.6923   -1.4384    1.6754 H   0  0  0  0  0  0  0  0  0  0  0  0
    5.2680   -2.4036    1.2446 H   0  0  0  0  0  0  0  0  0  0  0  0
    6.4203    1.0310    3.0999 N   0  0  0  0  0  0  0  0  0  0  0  0
    7.1057    2.2850    3.3089 C   0  0  0  0  0  0  0  0  0  0  0  0
    6.7424    0.2220    3.6228 H   0  0  0  0  0  0  0  0  0  0  0  0
    7.9391    2.3712    2.5961 H   0  0  0  0  0  0  0  0  0  0  0  0
    6.4032    3.1171    3.1537 H   0  0  0  0  0  0  0  0  0  0  0  0
    7.4969    2.3222    4.3363 H   0  0  0  0  0  0  0  0  0  0  0  0
  1  3  1  0  0  0  0
  1  7  1  0  0  0  0
  1  2  2  0  0  0  0
 22 23  1  0  0  0  0
 23 25  1  0  0  0  0
 23 24  2  0  0  0  0
 35 36  1  0  0  0  0
 36 44  1  0  0  0  0
 36 37  2  0  0  0  0
  8  9  1  0  0  0  0
  9 17  1  0  0  0  0
  9 10  2  0  0  0  0
 18 19  1  0  0  0  0
 19 34  1  0  0  0  0
 19 20  2  0  0  0  0
 35 38  1  0  0  0  0
  8 11  1  0  0  0  0
 44 45  1  0  0  0  0
 21 22  1  0  0  0  0
 18 21  1  0  0  0  0
 34 35  1  0  0  0  0
  7  8  1  0  0  0  0
 17 18  1  0  0  0  0
  3  4  1  0  0  0  0
  3  5  1  0  0  0  0
  3  6  1  0  0  0  0
 38 41  1  0  0  0  0
 38 42  1  0  0  0  0
 38 43  1  0  0  0  0
 11 14  1  0  0  0  0
 11 15  1  0  0  0  0
 11 16  1  0  0  0  0
 45 47  1  0  0  0  0
 45 48  1  0  0  0  0
 45 49  1  0  0  0  0
 22 30  1  0  0  0  0
 22 31  1  0  0  0  0
 21 28  1  0  0  0  0
 21 29  1  0  0  0  0
 35 40  1  0  0  0  0
  8 13  1  0  0  0  0
 18 27  1  0  0  0  0
 25 32  1  0  0  0  0
 25 33  1  0  0  0  0
 44 46  1  0  0  0  0
  7 12  1  0  0  0  0
 34 39  1  0  0  0  0
 17 26  1  0  0  0  0
M  END
$$$$

  -OEChem-05262214473D

 49 48  0     1  0  0  0  0  0999 V2000
   -1.9833   -0.0509   -3.3423 C   0  0  0  0  0  0  0  0  0  0  0  0
   -1.6199   -1.0613   -2.7518 O   0  0  0  0  0  0  0  0  0  0  0  0
   -3.3243   -0.0235   -3.9975 C   0  0  0  0  0  0  0  0  0  0  0  0
   -3.2886   -0.3689   -5.0432 H   0  0  0  0  0  0  0  0  0  0  0  0
   -4.0503   -0.6845   -3.4973 H   0  0  0  0  0  0  0  0  0  0  0  0
   -3.8104    0.9645   -4.0351 H   0  0  0  0  0  0  0  0  0  0  0  0
   -1.2607    1.1231   -3.4768 N   0  0  0  0  0  0  0  0  0  0  0  0
    0.0536    1.3115   -2.9213 C   0  0  2  0  0  0  0  0  0  0  0  0
    0.0266    0.8315   -1.4761 C   0  0  0  0  0  0  0  0  0  0  0  0
   -1.0065    0.7530   -0.8146 O   0  0  0  0  0  0  0  0  0  0  0  0
    0.4852    2.7674   -3.0025 C   0  0  0  0  0  0  0  0  0  0  0  0
   -1.6809    1.8924   -3.9952 H   0  0  0  0  0  0  0  0  0  0  0  0
    0.7360    0.6822   -3.5030 H   0  0  0  0  0  0  0  0  0  0  0  0
   -0.1867    3.4133   -2.4256 H   0  0  0  0  0  0  0  0  0  0  0  0
    1.4966    2.9042   -2.6056 H   0  0  0  0  0  0  0  0  0  0  0  0
    0.4754    3.1196   -4.0397 H   0  0  0  0  0  0  0  0  0  0  0  0
    1.2978    0.5411   -0.9947 N   0  0  0  0  0  0  0  0  0  0  0  0
    1.5371    0.0807    0.3489 C   0  0  2  0  0  0  0  0  0  0  0  0
    3.0298    0.2332    0.6195 C   0  0  0  0  0  0  0  0  0  0  0  0
    3.7276    1.0780    0.0625 O   0  0  0  0  0  0  0  0  0  0  0  0
    1.1055   -1.3779    0.5467 C   0  0  0  0  0  0  0  0  0  0  0  0
   -0.4073   -1.5835    0.4474 C   0  0  0  0  0  0  0  0  0  0  0  0
   -0.8349   -3.0292    0.6187 C   0  0  0  0  0  0  0  0  0  0  0  0
   -0.0519   -3.9657    0.7481 O   0  0  0  0  0  0  0  0  0  0  0  0
   -2.2049   -3.1778    0.5871 N   0  0  0  0  0  0  0  0  0  0  0  0
    2.0949    0.6178   -1.6227 H   0  0  0  0  0  0  0  0  0  0  0  0
    0.9838    0.7521    1.0141 H   0  0  0  0  0  0  0  0  0  0  0  0
    1.5905   -2.0038   -0.2143 H   0  0  0  0  0  0  0  0  0  0  0  0
    1.4617   -1.7471    1.5167 H   0  0  0  0  0  0  0  0  0  0  0  0
   -0.7409   -1.2685   -0.5491 H   0  0  0  0  0  0  0  0  0  0  0  0
   -0.9338   -0.9602    1.1788 H   0  0  0  0  0  0  0  0  0  0  0  0
   -2.7833   -2.3542    0.4589 H   0  0  0  0  0  0  0  0  0  0  0  0
   -2.6558   -4.0816    0.6874 H   0  0  0  0  0  0  0  0  0  0  0  0
    3.4954   -0.7177    1.5169 N   0  0  0  0  0  0  0  0  0  0  0  0
    4.8774   -0.8096    1.9296 C   0  0  2  0  0  0  0  0  0  0  0  0
    5.3413    0.5837    2.3331 C   0  0  0  0  0  0  0  0  0  0  0  0
    4.7977    1.6126    1.9369 O   0  0  0  0  0  0  0  0  0  0  0  0
    5.7503   -1.3728    0.8190 C   0  0  0  0  0  0  0  0  0  0  0  0
    2.8314   -1.3825    1.9029 H   0  0  0  0  0  0  0  0  0  0  0  0
    4.9034   -1.4709    2.8026 H   0  0  0  0  0  0  0  0  0  0  0  0
    5.7367   -0.7237   -0.0642 H   0  0  0  0  0  0  0  0  0  0  0  0
    6.7919   -1.4685    1.1429 H   0  0  0  0  0  0  0  0  0  0  0  0
    5.3971   -2.3624    0.5095 H   0  0  0  0  0  0  0  0  0  0  0  0
    6.4604    0.5441    3.1530 N   0  0  0  0  0  0  0  0  0  0  0  0
    7.0981    1.7368    3.6599 C   0  0  0  0  0  0  0  0  0  0  0  0
    6.8331   -0.3540    3.4467 H   0  0  0  0  0  0  0  0  0  0  0  0
    7.9040    2.0413    2.9758 H   0  0  0  0  0  0  0  0  0  0  0  0
    6.3562    2.5454    3.7352 H   0  0  0  0  0  0  0  0  0  0  0  0
    7.5198    1.5322    4.6550 H   0  0  0  0  0  0  0  0  0  0  0  0
  1  3  1  0  0  0  0
  1  7  1  0  0  0  0
  1  2  2  0  0  0  0
 22 23  1  0  0  0  0
 23 25  1  0  0  0  0
 23 24  2  0  0  0  0
 35 36  1  0  0  0  0
 36 44  1  0  0  0  0
 36 37  2  0  0  0  0
  8  9  1  0  0  0  0
  9 17  1  0  0  0  0
  9 10  2  0  0  0  0
 18 19  1  0  0  0  0
 19 34  1  0  0  0  0
 19 20  2  0  0  0  0
 35 38  1  0  0  0  0
  8 11  1  0  0  0  0
 44 45  1  0  0  0  0
 21 22  1  0  0  0  0
 18 21  1  0  0  0  0
 34 35  1  0  0  0  0
  7  8  1  0  0  0  0
 17 18  1  0  0  0  0
  3  4  1  0  0  0  0
  3  5  1  0  0  0  0
  3  6  1  0  0  0  0
 38 41  1  0  0  0  0
 38 42  1  0  0  0  0
 38 43  1  0  0  0  0
 11 14  1  0  0  0  0
 11 15  1  0  0  0  0
 11 16  1  0  0  0  0
 45 47  1  0  0  0  0
 45 48  1  0  0  0  0
 45 49  1  0  0  0  0
 22 30  1  0  0  0  0
 22 31  1  0  0  0  0
 21 28  1  0  0  0  0
 21 29  1  0  0  0  0
 35 40  1  0  0  0  0
  8 13  1  0  0  0  0
 18 27  1  0  0  0  0
 25 32  1  0  0  0  0
 25 33  1  0  0  0  0
 44 46  1  0  0  0  0
  7 12  1  0  0  0  0
 34 39  1  0  0  0  0
 17 26  1  0  0  0  0
M  END
$$$$

  -OEChem-05262214473D

 49 48  0     1  0  0  0  0  0999 V2000
   -1.9833   -0.0509   -3.3423 C   0  0  0  0  0  0  0  0  0  0  0  0
   -1.6199   -1.0613   -2.7518 O   0  0  0  0  0  0  0  0  0  0  0  0
   -3.3243   -0.0235   -3.9975 C   0  0  0  0  0  0  0  0  0  0  0  0
   -3.2886   -0.3689   -5.0432 H   0  0  0  0  0  0  0  0  0  0  0  0
   -4.0503   -0.6845   -3.4973 H   0  0  0  0  0  0  0  0  0  0  0  0
   -3.8104    0.9645   -4.0351 H   0  0  0  0  0  0  0  0  0  0  0  0
   -1.2607    1.1231   -3.4768 N   0  0  0  0  0  0  0  0  0  0  0  0
    0.0536    1.3115   -2.9213 C   0  0  2  0  0  0  0  0  0  0  0  0
    0.0266    0.8315   -1.4761 C   0  0  0  0  0  0  0  0  0  0  0  0
   -1.0065    0.7530   -0.8146 O   0  0  0  0  0  0  0  0  0  0  0  0
    0.4852    2.7674   -3.0025 C   0  0  0  0  0  0  0  0  0  0  0  0
   -1.6809    1.8924   -3.9952 H   0  0  0  0  0  0  0  0  0  0  0  0
    0.7360    0.6822   -3.5030 H   0  0  0  0  0  0  0  0  0  0  0  0
   -0.1867    3.4133   -2.4256 H   0  0  0  0  0  0  0  0  0  0  0  0
    1.4966    2.9042   -2.6056 H   0  0  0  0  0  0  0  0  0  0  0  0
    0.4754    3.1196   -4.0397 H   0  0  0  0  0  0  0  0  0  0  0  0
    1.2978    0.5411   -0.9947 N   0  0  0  0  0  0  0  0  0  0  0  0
    1.5371    0.0807    0.3489 C   0  0  2  0  0  0  0  0  0  0  0  0
    3.0298    0.2332    0.6195 C   0  0  0  0  0  0  0  0  0  0  0  0
    3.6729    1.2247    0.2815 O   0  0  0  0  0  0  0  0  0  0  0  0
    1.1055   -1.3779    0.5467 C   0  0  0  0  0  0  0  0  0  0  0  0
   -0.4073   -1.5835    0.4474 C   0  0  0  0  0  0  0  0  0  0  0  0
   -0.8349   -3.0292    0.6187 C   0  0  0  0  0  0  0  0  0  0  0  0
   -0.0519   -3.9657    0.7481 O   0  0  0  0  0  0  0  0  0  0  0  0
   -2.2049   -3.1778    0.5871 N   0  0  0  0  0  0  0  0  0  0  0  0
    2.0949    0.6178   -1.6227 H   0  0  0  0  0  0  0  0  0  0  0  0
    0.9838    0.7521    1.0141 H   0  0  0  0  0  0  0  0  0  0  0  0
    1.5905   -2.0038   -0.2143 H   0  0  0  0  0  0  0  0  0  0  0  0
    1.4617   -1.7471    1.5167 H   0  0  0  0  0  0  0  0  0  0  0  0
   -0.7409   -1.2685   -0.5491 H   0  0  0  0  0  0  0  0  0  0  0  0
   -0.9338   -0.9602    1.1788 H   0  0  0  0  0  0  0  0  0  0  0  0
   -2.7833   -2.3542    0.4589 H   0  0  0  0  0  0  0  0  0  0  0  0
   -2.6558   -4.0816    0.6874 H   0  0  0  0  0  0  0  0  0  0  0  0
    3.5638   -0.8896    1.2364 N   0  0  0  0  0  0  0  0  0  0  0  0
    4.9608   -1.0146    1.5846 C   0  0  2  0  0  0  0  0  0  0  0  0
    5.3777    0.2526    2.3194 C   0  0  0  0  0  0  0  0  0  0  0  0
    4.7784    1.3202    2.2085 O   0  0  0  0  0  0  0  0  0  0  0  0
    5.8212   -1.2351    0.3501 C   0  0  0  0  0  0  0  0  0  0  0  0
    2.9414   -1.6622    1.4542 H   0  0  0  0  0  0  0  0  0  0  0  0
    5.0428   -1.8730    2.2603 H   0  0  0  0  0  0  0  0  0  0  0  0
    5.7519   -0.3853   -0.3388 H   0  0  0  0  0  0  0  0  0  0  0  0
    6.8757   -1.3581    0.6182 H   0  0  0  0  0  0  0  0  0  0  0  0
    5.5008   -2.1305   -0.1934 H   0  0  0  0  0  0  0  0  0  0  0  0
    6.5229    0.0622    3.0798 N   0  0  0  0  0  0  0  0  0  0  0  0
    7.1251    1.1179    3.8602 C   0  0  0  0  0  0  0  0  0  0  0  0
    6.9427   -0.8615    3.1283 H   0  0  0  0  0  0  0  0  0  0  0  0
    7.8950    1.6247    3.2600 H   0  0  0  0  0  0  0  0  0  0  0  0
    6.3521    1.8436    4.1532 H   0  0  0  0  0  0  0  0  0  0  0  0
    7.5865    0.6894    4.7621 H   0  0  0  0  0  0  0  0  0  0  0  0
  1  3  1  0  0  0  0
  1  7  1  0  0  0  0
  1  2  2  0  0  0  0
 22 23  1  0  0  0  0
 23 25  1  0  0  0  0
 23 24  2  0  0  0  0
 35 36  1  0  0  0  0
 36 44  1  0  0  0  0
 36 37  2  0  0  0  0
  8  9  1  0  0  0  0
  9 17  1  0  0  0  0
  9 10  2  0  0  0  0
 18 19  1  0  0  0  0
 19 34  1  0  0  0  0
 19 20  2  0  0  0  0
 35 38  1  0  0  0  0
  8 11  1  0  0  0  0
 44 45  1  0  0  0  0
 21 22  1  0  0  0  0
 18 21  1  0  0  0  0
 34 35  1  0  0  0  0
  7  8  1  0  0  0  0
 17 18  1  0  0  0  0
  3  4  1  0  0  0  0
  3  5  1  0  0  0  0
  3  6  1  0  0  0  0
 38 41  1  0  0  0  0
 38 42  1  0  0  0  0
 38 43  1  0  0  0  0
 11 14  1  0  0  0  0
 11 15  1  0  0  0  0
 11 16  1  0  0  0  0
 45 47  1  0  0  0  0
 45 48  1  0  0  0  0
 45 49  1  0  0  0  0
 22 30  1  0  0  0  0
 22 31  1  0  0  0  0
 21 28  1  0  0  0  0
 21 29  1  0  0  0  0
 35 40  1  0  0  0  0
  8 13  1  0  0  0  0
 18 27  1  0  0  0  0
 25 32  1  0  0  0  0
 25 33  1  0  0  0  0
 44 46  1  0  0  0  0
  7 12  1  0  0  0  0
 34 39  1  0  0  0  0
 17 26  1  0  0  0  0
M  END
$$$$

  -OEChem-05262214473D

 49 48  0     1  0  0  0  0  0999 V2000
   -1.9833   -0.0509   -3.3423 C   0  0  0  0  0  0  0  0  0  0  0  0
   -1.6199   -1.0613   -2.7518 O   0  0  0  0  0  0  0  0  0  0  0  0
   -3.3243   -0.0235   -3.9975 C   0  0  0  0  0  0  0  0  0  0  0  0
   -3.2886   -0.3689   -5.0432 H   0  0  0  0  0  0  0  0  0  0  0  0
   -4.0503   -0.6845   -3.4973 H   0  0  0  0  0  0  0  0  0  0  0  0
   -3.8104    0.9645   -4.0351 H   0  0  0  0  0  0  0  0  0  0  0  0
   -1.2607    1.1231   -3.4768 N   0  0  0  0  0  0  0  0  0  0  0  0
    0.0536    1.3115   -2.9213 C   0  0  2  0  0  0  0  0  0  0  0  0
    0.0266    0.8315   -1.4761 C   0  0  0  0  0  0  0  0  0  0  0  0
   -1.0065    0.7530   -0.8146 O   0  0  0  0  0  0  0  0  0  0  0  0
    0.4852    2.7674   -3.0025 C   0  0  0  0  0  0  0  0  0  0  0  0
   -1.6809    1.8924   -3.9952 H   0  0  0  0  0  0  0  0  0  0  0  0
    0.7360    0.6822   -3.5030 H   0  0  0  0  0  0  0  0  0  0  0  0
   -0.1867    3.4133   -2.4256 H   0  0  0  0  0  0  0  0  0  0  0  0
    1.4966    2.9042   -2.6056 H   0  0  0  0  0  0  0  0  0  0  0  0
    0.4754    3.1196   -4.0397 H   0  0  0  0  0  0  0  0  0  0  0  0
    1.2978    0.5411   -0.9947 N   0  0  0  0  0  0  0  0  0  0  0  0
    1.5371    0.0807    0.3489 C   0  0  2  0  0  0  0  0  0  0  0  0
    3.0298    0.2332    0.6195 C   0  0  0  0  0  0  0  0  0  0  0  0
    3.6190    1.3084    0.5316 O   0  0  0  0  0  0  0  0  0  0  0  0
    1.1055   -1.3779    0.5467 C   0  0  0  0  0  0  0  0  0  0  0  0
   -0.4073   -1.5835    0.4474 C   0  0  0  0  0  0  0  0  0  0  0  0
   -0.8349   -3.0292    0.6187 C   0  0  0  0  0  0  0  0  0  0  0  0
   -0.0519   -3.9657    0.7481 O   0  0  0  0  0  0  0  0  0  0  0  0
   -2.2049   -3.1778    0.5871 N   0  0  0  0  0  0  0  0  0  0  0  0
    2.0949    0.6178   -1.6227 H   0  0  0  0  0  0  0  0  0  0  0  0
    0.9838    0.7521    1.0141 H   0  0  0  0  0  0  0  0  0  0  0  0
    1.5905   -2.0038   -0.2143 H   0  0  0  0  0  0  0  0  0  0  0  0
    1.4617   -1.7471    1.5167 H   0  0  0  0  0  0  0  0  0  0  0  0
   -0.7409   -1.2685   -0.5491 H   0  0  0  0  0  0  0  0  0  0  0  0
   -0.9338   -0.9602    1.1788 H   0  0  0  0  0  0  0  0  0  0  0  0
   -2.7833   -2.3542    0.4589 H   0  0  0  0  0  0  0  0  0  0  0  0
   -2.6558   -4.0816    0.6874 H   0  0  0  0  0  0  0  0  0  0  0  0
    3.6304   -0.9814    0.9202 N   0  0  0  0  0  0  0  0  0  0  0  0
    5.0420   -1.1214    1.1972 C   0  0  2  0  0  0  0  0  0  0  0  0
    5.4276   -0.0621    2.2213 C   0  0  0  0  0  0  0  0  0  0  0  0
    4.7802    0.9679    2.3972 O   0  0  0  0  0  0  0  0  0  0  0  0
    5.8712   -0.9799   -0.0697 C   0  0  0  0  0  0  0  0  0  0  0  0
    3.0488   -1.8136    0.9470 H   0  0  0  0  0  0  0  0  0  0  0  0
    5.1818   -2.1175    1.6310 H   0  0  0  0  0  0  0  0  0  0  0  0
    5.7439    0.0119   -0.5186 H   0  0  0  0  0  0  0  0  0  0  0  0
    6.9380   -1.1146    0.1373 H   0  0  0  0  0  0  0  0  0  0  0  0
    5.5721   -1.7235   -0.8163 H   0  0  0  0  0  0  0  0  0  0  0  0
    6.6035   -0.3819    2.8854 N   0  0  0  0  0  0  0  0  0  0  0  0
    7.1847    0.4706    3.8961 C   0  0  0  0  0  0  0  0  0  0  0  0
    7.0636   -1.2660    2.6893 H   0  0  0  0  0  0  0  0  0  0  0  0
    7.9129    1.1500    3.4291 H   0  0  0  0  0  0  0  0  0  0  0  0
    6.3912    1.0597    4.3793 H   0  0  0  0  0  0  0  0  0  0  0  0
    7.6924   -0.1487    4.6503 H   0  0  0  0  0  0  0  0  0  0  0  0
  1  3  1  0  0  0  0
  1  7  1  0  0  0  0
  1  2  2  0  0  0  0
 22 23  1  0  0  0  0
 23 25  1  0  0  0  0
 23 24  2  0  0  0  0
 35 36  1  0  0  0  0
 36 44  1  0  0  0  0
 36 37  2  0  0  0  0
  8  9  1  0  0  0  0
  9 17  1  0  0  0  0
  9 10  2  0  0  0  0
 18 19  1  0  0  0  0
 19 34  1  0  0  0  0
 19 20  2  0  0  0  0
 35 38  1  0  0  0  0
  8 11  1  0  0  0  0
 44 45  1  0  0  0  0
 21 22  1  0  0  0  0
 18 21  1  0  0  0  0
 34 35  1  0  0  0  0
  7  8  1  0  0  0  0
 17 18  1  0  0  0  0
  3  4  1  0  0  0  0
  3  5  1  0  0  0  0
  3  6  1  0  0  0  0
 38 41  1  0  0  0  0
 38 42  1  0  0  0  0
 38 43  1  0  0  0  0
 11 14  1  0  0  0  0
 11 15  1  0  0  0  0
 11 16  1  0  0  0  0
 45 47  1  0  0  0  0
 45 48  1  0  0  0  0
 45 49  1  0  0  0  0
 22 30  1  0  0  0  0
 22 31  1  0  0  0  0
 21 28  1  0  0  0  0
 21 29  1  0  0  0  0
 35 40  1  0  0  0  0
  8 13  1  0  0  0  0
 18 27  1  0  0  0  0
 25 32  1  0  0  0  0
 25 33  1  0  0  0  0
 44 46  1  0  0  0  0
  7 12  1  0  0  0  0
 34 39  1  0  0  0  0
 17 26  1  0  0  0  0
M  END
$$$$

  -OEChem-05262214473D

 49 48  0     1  0  0  0  0  0999 V2000
   -1.9833   -0.0509   -3.3423 C   0  0  0  0  0  0  0  0  0  0  0  0
   -1.6199   -1.0613   -2.7518 O   0  0  0  0  0  0  0  0  0  0  0  0
   -3.3243   -0.0235   -3.9975 C   0  0  0  0  0  0  0  0  0  0  0  0
   -3.2886   -0.3689   -5.0432 H   0  0  0  0  0  0  0  0  0  0  0  0
   -4.0503   -0.6845   -3.4973 H   0  0  0  0  0  0  0  0  0  0  0  0
   -3.8104    0.9645   -4.0351 H   0  0  0  0  0  0  0  0  0  0  0  0
   -1.2607    1.1231   -3.4768 N   0  0  0  0  0  0  0  0  0  0  0  0
    0.0536    1.3115   -2.9213 C   0  0  2  0  0  0  0  0  0  0  0  0
    0.0266    0.8315   -1.4761 C   0  0  0  0  0  0  0  0  0  0  0  0
   -1.0065    0.7530   -0.8146 O   0  0  0  0  0  0  0  0  0  0  0  0
    0.4852    2.7674   -3.0025 C   0  0  0  0  0  0  0  0  0  0  0  0
   -1.6809    1.8924   -3.9952 H   0  0  0  0  0  0  0  0  0  0  0  0
    0.7360    0.6822   -3.5030 H   0  0  0  0  0  0  0  0  0  0  0  0
   -0.1867    3.4133   -2.4256 H   0  0  0  0  0  0  0  0  0  0  0  0
    1.4966    2.9042   -2.6056 H   0  0  0  0  0  0  0  0  0  0  0  0
    0.4754    3.1196   -4.0397 H   0  0  0  0  0  0  0  0  0  0  0  0
    1.2978    0.5411   -0.9947 N   0  0  0  0  0  0  0  0  0  0  0  0
    1.5371    0.0807    0.3489 C   0  0  2  0  0  0  0  0  0  0  0  0
    3.0298    0.2332    0.6195 C   0  0  0  0  0  0  0  0  0  0  0  0
    3.5696    1.3233    0.7959 O   0  0  0  0  0  0  0  0  0  0  0  0
    1.1055   -1.3779    0.5467 C   0  0  0  0  0  0  0  0  0  0  0  0
   -0.4073   -1.5835    0.4474 C   0  0  0  0  0  0  0  0  0  0  0  0
   -0.8349   -3.0292    0.6187 C   0  0  0  0  0  0  0  0  0  0  0  0
   -0.0519   -3.9657    0.7481 O   0  0  0  0  0  0  0  0  0  0  0  0
   -2.2049   -3.1778    0.5871 N   0  0  0  0  0  0  0  0  0  0  0  0
    2.0949    0.6178   -1.6227 H   0  0  0  0  0  0  0  0  0  0  0  0
    0.9838    0.7521    1.0141 H   0  0  0  0  0  0  0  0  0  0  0  0
    1.5905   -2.0038   -0.2143 H   0  0  0  0  0  0  0  0  0  0  0  0
    1.4617   -1.7471    1.5167 H   0  0  0  0  0  0  0  0  0  0  0  0
   -0.7409   -1.2685   -0.5491 H   0  0  0  0  0  0  0  0  0  0  0  0
   -0.9338   -0.9602    1.1788 H   0  0  0  0  0  0  0  0  0  0  0  0
   -2.7833   -2.3542    0.4589 H   0  0  0  0  0  0  0  0  0  0  0  0
   -2.6558   -4.0816    0.6874 H   0  0  0  0  0  0  0  0  0  0  0  0
    3.6909   -0.9868    0.5898 N   0  0  0  0  0  0  0  0  0  0  0  0
    5.1152   -1.1226    0.7939 C   0  0  2  0  0  0  0  0  0  0  0  0
    5.4877   -0.3390    2.0456 C   0  0  0  0  0  0  0  0  0  0  0  0
    4.8030    0.5800    2.4902 O   0  0  0  0  0  0  0  0  0  0  0  0
    5.8969   -0.6248   -0.4118 C   0  0  0  0  0  0  0  0  0  0  0  0
    3.1463   -1.8264    0.4159 H   0  0  0  0  0  0  0  0  0  0  0  0
    5.3111   -2.1879    0.9575 H   0  0  0  0  0  0  0  0  0  0  0  0
    5.7133    0.4408   -0.5915 H   0  0  0  0  0  0  0  0  0  0  0  0
    6.9745   -0.7548   -0.2672 H   0  0  0  0  0  0  0  0  0  0  0  0
    5.6061   -1.1693   -1.3167 H   0  0  0  0  0  0  0  0  0  0  0  0
    6.6968   -0.7579    2.5830 N   0  0  0  0  0  0  0  0  0  0  0  0
    7.2729   -0.1611    3.7653 C   0  0  0  0  0  0  0  0  0  0  0  0
    7.1876   -1.5399    2.1596 H   0  0  0  0  0  0  0  0  0  0  0  0
    7.9563    0.6494    3.4717 H   0  0  0  0  0  0  0  0  0  0  0  0
    6.4709    0.2470    4.3980 H   0  0  0  0  0  0  0  0  0  0  0  0
    7.8303   -0.9251    4.3271 H   0  0  0  0  0  0  0  0  0  0  0  0
  1  3  1  0  0  0  0
  1  7  1  0  0  0  0
  1  2  2  0  0  0  0
 22 23  1  0  0  0  0
 23 25  1  0  0  0  0
 23 24  2  0  0  0  0
 35 36  1  0  0  0  0
 36 44  1  0  0  0  0
 36 37  2  0  0  0  0
  8  9  1  0  0  0  0
  9 17  1  0  0  0  0
  9 10  2  0  0  0  0
 18 19  1  0  0  0  0
 19 34  1  0  0  0  0
 19 20  2  0  0  0  0
 35 38  1  0  0  0  0
  8 11  1  0  0  0  0
 44 45  1  0  0  0  0
 21 22  1  0  0  0  0
 18 21  1  0  0  0  0
 34 35  1  0  0  0  0
  7  8  1  0  0  0  0
 17 18  1  0  0  0  0
  3  4  1  0  0  0  0
  3  5  1  0  0  0  0
  3  6  1  0  0  0  0
 38 41  1  0  0  0  0
 38 42  1  0  0  0  0
 38 43  1  0  0  0  0
 11 14  1  0  0  0  0
 11 15  1  0  0  0  0
 11 16  1  0  0  0  0
 45 47  1  0  0  0  0
 45 48  1  0  0  0  0
 45 49  1  0  0  0  0
 22 30  1  0  0  0  0
 22 31  1  0  0  0  0
 21 28  1  0  0  0  0
 21 29  1  0  0  0  0
 35 40  1  0  0  0  0
  8 13  1  0  0  0  0
 18 27  1  0  0  0  0
 25 32  1  0  0  0  0
 25 33  1  0  0  0  0
 44 46  1  0  0  0  0
  7 12  1  0  0  0  0
 34 39  1  0  0  0  0
 17 26  1  0  0  0  0
M  END
$$$$

  -OEChem-05262214473D

 49 48  0     1  0  0  0  0  0999 V2000
   -1.9833   -0.0509   -3.3423 C   0  0  0  0  0  0  0  0  0  0  0  0
   -1.6199   -1.0613   -2.7518 O   0  0  0  0  0  0  0  0  0  0  0  0
   -3.3243   -0.0235   -3.9975 C   0  0  0  0  0  0  0  0  0  0  0  0
   -3.2886   -0.3689   -5.0432 H   0  0  0  0  0  0  0  0  0  0  0  0
   -4.0503   -0.6845   -3.4973 H   0  0  0  0  0  0  0  0  0  0  0  0
   -3.8104    0.9645   -4.0351 H   0  0  0  0  0  0  0  0  0  0  0  0
   -1.2607    1.1231   -3.4768 N   0  0  0  0  0  0  0  0  0  0  0  0
    0.0536    1.3115   -2.9213 C   0  0  2  0  0  0  0  0  0  0  0  0
    0.0266    0.8315   -1.4761 C   0  0  0  0  0  0  0  0  0  0  0  0
   -1.0065    0.7530   -0.8146 O   0  0  0  0  0  0  0  0  0  0  0  0
    0.4852    2.7674   -3.0025 C   0  0  0  0  0  0  0  0  0  0  0  0
   -1.6809    1.8924   -3.9952 H   0  0  0  0  0  0  0  0  0  0  0  0
    0.7360    0.6822   -3.5030 H   0  0  0  0  0  0  0  0  0  0  0  0
   -0.1867    3.4133   -2.4256 H   0  0  0  0  0  0  0  0  0  0  0  0
    1.4966    2.9042   -2.6056 H   0  0  0  0  0  0  0  0  0  0  0  0
    0.4754    3.1196   -4.0397 H   0  0  0  0  0  0  0  0  0  0  0  0
    1.2978    0.5411   -0.9947 N   0  0  0  0  0  0  0  0  0  0  0  0
    1.5371    0.0807    0.3489 C   0  0  2  0  0  0  0  0  0  0  0  0
    3.0298    0.2332    0.6195 C   0  0  0  0  0  0  0  0  0  0  0  0
    3.5280    1.2686    1.0562 O   0  0  0  0  0  0  0  0  0  0  0  0
    1.1055   -1.3779    0.5467 C   0  0  0  0  0  0  0  0  0  0  0  0
   -0.4073   -1.5835    0.4474 C   0  0  0  0  0  0  0  0  0  0  0  0
   -0.8349   -3.0292    0.6187 C   0  0  0  0  0  0  0  0  0  0  0  0
   -0.0519   -3.9657    0.7481 O   0  0  0  0  0  0  0  0  0  0  0  0
   -2.2049   -3.1778    0.5871 N   0  0  0  0  0  0  0  0  0  0  0  0
    2.0949    0.6178   -1.6227 H   0  0  0  0  0  0  0  0  0  0  0  0
    0.9838    0.7521    1.0141 H   0  0  0  0  0  0  0  0  0  0  0  0
    1.5905   -2.0038   -0.2143 H   0  0  0  0  0  0  0  0  0  0  0  0
    1.4617   -1.7471    1.5167 H   0  0  0  0  0  0  0  0  0  0  0  0
   -0.7409   -1.2685   -0.5491 H   0  0  0  0  0  0  0  0  0  0  0  0
   -0.9338   -0.9602    1.1788 H   0  0  0  0  0  0  0  0  0  0  0  0
   -2.7833   -2.3542    0.4589 H   0  0  0  0  0  0  0  0  0  0  0  0
   -2.6558   -4.0816    0.6874 H   0  0  0  0  0  0  0  0  0  0  0  0
    3.7410   -0.9056    0.2677 N   0  0  0  0  0  0  0  0  0  0  0  0
    5.1755   -1.0183    0.4021 C   0  0  2  0  0  0  0  0  0  0  0  0
    5.5540   -0.5591    1.8041 C   0  0  0  0  0  0  0  0  0  0  0  0
    4.8452    0.1827    2.4811 O   0  0  0  0  0  0  0  0  0  0  0  0
    5.8966   -0.1940   -0.6530 C   0  0  0  0  0  0  0  0  0  0  0  0
    3.2274   -1.6997   -0.1029 H   0  0  0  0  0  0  0  0  0  0  0  0
    5.4217   -2.0793    0.2859 H   0  0  0  0  0  0  0  0  0  0  0  0
    5.6622    0.8721   -0.5524 H   0  0  0  0  0  0  0  0  0  0  0  0
    6.9828   -0.3029   -0.5677 H   0  0  0  0  0  0  0  0  0  0  0  0
    5.6006   -0.5057   -1.6605 H   0  0  0  0  0  0  0  0  0  0  0  0
    6.7962   -1.0402    2.1933 N   0  0  0  0  0  0  0  0  0  0  0  0
    7.3838   -0.7340    3.4766 C   0  0  0  0  0  0  0  0  0  0  0  0
    7.3062   -1.6646    1.5754 H   0  0  0  0  0  0  0  0  0  0  0  0
    8.0224    0.1570    3.3849 H   0  0  0  0  0  0  0  0  0  0  0  0
    6.5856   -0.5391    4.2080 H   0  0  0  0  0  0  0  0  0  0  0  0
    7.9908   -1.5867    3.8147 H   0  0  0  0  0  0  0  0  0  0  0  0
  1  3  1  0  0  0  0
  1  7  1  0  0  0  0
  1  2  2  0  0  0  0
 22 23  1  0  0  0  0
 23 25  1  0  0  0  0
 23 24  2  0  0  0  0
 35 36  1  0  0  0  0
 36 44  1  0  0  0  0
 36 37  2  0  0  0  0
  8  9  1  0  0  0  0
  9 17  1  0  0  0  0
  9 10  2  0  0  0  0
 18 19  1  0  0  0  0
 19 34  1  0  0  0  0
 19 20  2  0  0  0  0
 35 38  1  0  0  0  0
  8 11  1  0  0  0  0
 44 45  1  0  0  0  0
 21 22  1  0  0  0  0
 18 21  1  0  0  0  0
 34 35  1  0  0  0  0
  7  8  1  0  0  0  0
 17 18  1  0  0  0  0
  3  4  1  0  0  0  0
  3  5  1  0  0  0  0
  3  6  1  0  0  0  0
 38 41  1  0  0  0  0
 38 42  1  0  0  0  0
 38 43  1  0  0  0  0
 11 14  1  0  0  0  0
 11 15  1  0  0  0  0
 11 16  1  0  0  0  0
 45 47  1  0  0  0  0
 45 48  1  0  0  0  0
 45 49  1  0  0  0  0
 22 30  1  0  0  0  0
 22 31  1  0  0  0  0
 21 28  1  0  0  0  0
 21 29  1  0  0  0  0
 35 40  1  0  0  0  0
  8 13  1  0  0  0  0
 18 27  1  0  0  0  0
 25 32  1  0  0  0  0
 25 33  1  0  0  0  0
 44 46  1  0  0  0  0
  7 12  1  0  0  0  0
 34 39  1  0  0  0  0
 17 26  1  0  0  0  0
M  END
$$$$

  -OEChem-05262214473D

 49 48  0     1  0  0  0  0  0999 V2000
   -1.9833   -0.0509   -3.3423 C   0  0  0  0  0  0  0  0  0  0  0  0
   -1.6199   -1.0613   -2.7518 O   0  0  0  0  0  0  0  0  0  0  0  0
   -3.3243   -0.0235   -3.9975 C   0  0  0  0  0  0  0  0  0  0  0  0
   -3.2886   -0.3689   -5.0432 H   0  0  0  0  0  0  0  0  0  0  0  0
   -4.0503   -0.6845   -3.4973 H   0  0  0  0  0  0  0  0  0  0  0  0
   -3.8104    0.9645   -4.0351 H   0  0  0  0  0  0  0  0  0  0  0  0
   -1.2607    1.1231   -3.4768 N   0  0  0  0  0  0  0  0  0  0  0  0
    0.0536    1.3115   -2.9213 C   0  0  2  0  0  0  0  0  0  0  0  0
    0.0266    0.8315   -1.4761 C   0  0  0  0  0  0  0  0  0  0  0  0
   -1.0065    0.7530   -0.8146 O   0  0  0  0  0  0  0  0  0  0  0  0
    0.4852    2.7674   -3.0025 C   0  0  0  0  0  0  0  0  0  0  0  0
   -1.6809    1.8924   -3.9952 H   0  0  0  0  0  0  0  0  0  0  0  0
    0.7360    0.6822   -3.5030 H   0  0  0  0  0  0  0  0  0  0  0  0
   -0.1867    3.4133   -2.4256 H   0  0  0  0  0  0  0  0  0  0  0  0
    1.4966    2.9042   -2.6056 H   0  0  0  0  0  0  0  0  0  0  0  0
    0.4754    3.1196   -4.0397 H   0  0  0  0  0  0  0  0  0  0  0  0
    1.2978    0.5411   -0.9947 N   0  0  0  0  0  0  0  0  0  0  0  0
    1.5371    0.0807    0.3489 C   0  0  2  0  0  0  0  0  0  0  0  0
    3.0298    0.2332    0.6195 C   0  0  0  0  0  0  0  0  0  0  0  0
    3.4971    1.1478    1.2948 O   0  0  0  0  0  0  0  0  0  0  0  0
    1.1055   -1.3779    0.5467 C   0  0  0  0  0  0  0  0  0  0  0  0
   -0.4073   -1.5835    0.4474 C   0  0  0  0  0  0  0  0  0  0  0  0
   -0.8349   -3.0292    0.6187 C   0  0  0  0  0  0  0  0  0  0  0  0
   -0.0519   -3.9657    0.7481 O   0  0  0  0  0  0  0  0  0  0  0  0
   -2.2049   -3.1778    0.5871 N   0  0  0  0  0  0  0  0  0  0  0  0
    2.0949    0.6178   -1.6227 H   0  0  0  0  0  0  0  0  0  0  0  0
    0.9838    0.7521    1.0141 H   0  0  0  0  0  0  0  0  0  0  0  0
    1.5905   -2.0038   -0.2143 H   0  0  0  0  0  0  0  0  0  0  0  0
    1.4617   -1.7471    1.5167 H   0  0  0  0  0  0  0  0  0  0  0  0
   -0.7409   -1.2685   -0.5491 H   0  0  0  0  0  0  0  0  0  0  0  0
   -0.9338   -0.9602    1.1788 H   0  0  0  0  0  0  0  0  0  0  0  0
   -2.7833   -2.3542    0.4589 H   0  0  0  0  0  0  0  0  0  0  0  0
   -2.6558   -4.0816    0.6874 H   0  0  0  0  0  0  0  0  0  0  0  0
    3.7773   -0.7432   -0.0242 N   0  0  0  0  0  0  0  0  0  0  0  0
    5.2189   -0.8154    0.0486 C   0  0  2  0  0  0  0  0  0  0  0  0
    5.6218   -0.7074    1.5133 C   0  0  0  0  0  0  0  0  0  0  0  0
    4.9040   -0.1967    2.3706 O   0  0  0  0  0  0  0  0  0  0  0  0
    5.8703    0.2833   -0.7767 C   0  0  0  0  0  0  0  0  0  0  0  0
    3.2865   -1.4422   -0.5739 H   0  0  0  0  0  0  0  0  0  0  0  0
    5.5062   -1.7992   -0.3383 H   0  0  0  0  0  0  0  0  0  0  0  0
    5.5940    1.2764   -0.4040 H   0  0  0  0  0  0  0  0  0  0  0  0
    6.9623    0.2100   -0.7436 H   0  0  0  0  0  0  0  0  0  0  0  0
    5.5560    0.2222   -1.8243 H   0  0  0  0  0  0  0  0  0  0  0  0
    6.8952   -1.2095    1.7427 N   0  0  0  0  0  0  0  0  0  0  0  0
    7.5097   -1.2091    3.0497 C   0  0  0  0  0  0  0  0  0  0  0  0
    7.4114   -1.6316    0.9764 H   0  0  0  0  0  0  0  0  0  0  0  0
    8.1065   -0.2935    3.1746 H   0  0  0  0  0  0  0  0  0  0  0  0
    6.7277   -1.2451    3.8224 H   0  0  0  0  0  0  0  0  0  0  0  0
    8.1629   -2.0887    3.1479 H   0  0  0  0  0  0  0  0  0  0  0  0
  1  3  1  0  0  0  0
  1  7  1  0  0  0  0
  1  2  2  0  0  0  0
 22 23  1  0  0  0  0
 23 25  1  0  0  0  0
 23 24  2  0  0  0  0
 35 36  1  0  0  0  0
 36 44  1  0  0  0  0
 36 37  2  0  0  0  0
  8  9  1  0  0  0  0
  9 17  1  0  0  0  0
  9 10  2  0  0  0  0
 18 19  1  0  0  0  0
 19 34  1  0  0  0  0
 19 20  2  0  0  0  0
 35 38  1  0  0  0  0
  8 11  1  0  0  0  0
 44 45  1  0  0  0  0
 21 22  1  0  0  0  0
 18 21  1  0  0  0  0
 34 35  1  0  0  0  0
  7  8  1  0  0  0  0
 17 18  1  0  0  0  0
  3  4  1  0  0  0  0
  3  5  1  0  0  0  0
  3  6  1  0  0  0  0
 38 41  1  0  0  0  0
 38 42  1  0  0  0  0
 38 43  1  0  0  0  0
 11 14  1  0  0  0  0
 11 15  1  0  0  0  0
 11 16  1  0  0  0  0
 45 47  1  0  0  0  0
 45 48  1  0  0  0  0
 45 49  1  0  0  0  0
 22 30  1  0  0  0  0
 22 31  1  0  0  0  0
 21 28  1  0  0  0  0
 21 29  1  0  0  0  0
 35 40  1  0  0  0  0
  8 13  1  0  0  0  0
 18 27  1  0  0  0  0
 25 32  1  0  0  0  0
 25 33  1  0  0  0  0
 44 46  1  0  0  0  0
  7 12  1  0  0  0  0
 34 39  1  0  0  0  0
 17 26  1  0  0  0  0
M  END
$$$$

  -OEChem-05262214473D

 49 48  0     1  0  0  0  0  0999 V2000
   -1.9833   -0.0509   -3.3423 C   0  0  0  0  0  0  0  0  0  0  0  0
   -1.6199   -1.0613   -2.7518 O   0  0  0  0  0  0  0  0  0  0  0  0
   -3.3243   -0.0235   -3.9975 C   0  0  0  0  0  0  0  0  0  0  0  0
   -3.2886   -0.3689   -5.0432 H   0  0  0  0  0  0  0  0  0  0  0  0
   -4.0503   -0.6845   -3.4973 H   0  0  0  0  0  0  0  0  0  0  0  0
   -3.8104    0.9645   -4.0351 H   0  0  0  0  0  0  0  0  0  0  0  0
   -1.2607    1.1231   -3.4768 N   0  0  0  0  0  0  0  0  0  0  0  0
    0.0536    1.3115   -2.9213 C   0  0  2  0  0  0  0  0  0  0  0  0
    0.0266    0.8315   -1.4761 C   0  0  0  0  0  0  0  0  0  0  0  0
   -1.0065    0.7530   -0.8146 O   0  0  0  0  0  0  0  0  0  0  0  0
    0.4852    2.7674   -3.0025 C   0  0  0  0  0  0  0  0  0  0  0  0
   -1.6809    1.8924   -3.9952 H   0  0  0  0  0  0  0  0  0  0  0  0
    0.7360    0.6822   -3.5030 H   0  0  0  0  0  0  0  0  0  0  0  0
   -0.1867    3.4133   -2.4256 H   0  0  0  0  0  0  0  0  0  0  0  0
    1.4966    2.9042   -2.6056 H   0  0  0  0  0  0  0  0  0  0  0  0
    0.4754    3.1196   -4.0397 H   0  0  0  0  0  0  0  0  0  0  0  0
    1.2978    0.5411   -0.9947 N   0  0  0  0  0  0  0  0  0  0  0  0
    1.5371    0.0807    0.3489 C   0  0  2  0  0  0  0  0  0  0  0  0
    3.0298    0.2332    0.6195 C   0  0  0  0  0  0  0  0  0  0  0  0
    3.4790    0.9693    1.4955 O   0  0  0  0  0  0  0  0  0  0  0  0
    1.1055   -1.3779    0.5467 C   0  0  0  0  0  0  0  0  0  0  0  0
   -0.4073   -1.5835    0.4474 C   0  0  0  0  0  0  0  0  0  0  0  0
   -0.8349   -3.0292    0.6187 C   0  0  0  0  0  0  0  0  0  0  0  0
   -0.0519   -3.9657    0.7481 O   0  0  0  0  0  0  0  0  0  0  0  0
   -2.2049   -3.1778    0.5871 N   0  0  0  0  0  0  0  0  0  0  0  0
    2.0949    0.6178   -1.6227 H   0  0  0  0  0  0  0  0  0  0  0  0
    0.9838    0.7521    1.0141 H   0  0  0  0  0  0  0  0  0  0  0  0
    1.5905   -2.0038   -0.2143 H   0  0  0  0  0  0  0  0  0  0  0  0
    1.4617   -1.7471    1.5167 H   0  0  0  0  0  0  0  0  0  0  0  0
   -0.7409   -1.2685   -0.5491 H   0  0  0  0  0  0  0  0  0  0  0  0
   -0.9338   -0.9602    1.1788 H   0  0  0  0  0  0  0  0  0  0  0  0
   -2.7833   -2.3542    0.4589 H   0  0  0  0  0  0  0  0  0  0  0  0
   -2.6558   -4.0816    0.6874 H   0  0  0  0  0  0  0  0  0  0  0  0
    3.7973   -0.5108   -0.2659 N   0  0  0  0  0  0  0  0  0  0  0  0
    5.2423   -0.5279   -0.2426 C   0  0  2  0  0  0  0  0  0  0  0  0
    5.6867   -0.7740    1.1931 C   0  0  0  0  0  0  0  0  0  0  0  0
    4.9754   -0.5326    2.1662 O   0  0  0  0  0  0  0  0  0  0  0  0
    5.8197    0.7745   -0.7747 C   0  0  0  0  0  0  0  0  0  0  0  0
    3.3195   -1.0714   -0.9652 H   0  0  0  0  0  0  0  0  0  0  0  0
    5.5588   -1.3665   -0.8724 H   0  0  0  0  0  0  0  0  0  0  0  0
    5.5133    1.6263   -0.1565 H   0  0  0  0  0  0  0  0  0  0  0  0
    6.9144    0.7491   -0.7831 H   0  0  0  0  0  0  0  0  0  0  0  0
    5.4751    0.9648   -1.7968 H   0  0  0  0  0  0  0  0  0  0  0  0
    6.9869   -1.2544    1.2620 N   0  0  0  0  0  0  0  0  0  0  0  0
    7.6421   -1.5541    2.5137 C   0  0  0  0  0  0  0  0  0  0  0  0
    7.4960   -1.4431    0.4035 H   0  0  0  0  0  0  0  0  0  0  0  0
    8.2031   -0.6716    2.8551 H   0  0  0  0  0  0  0  0  0  0  0  0
    6.8873   -1.8227    3.2674 H   0  0  0  0  0  0  0  0  0  0  0  0
    8.3350   -2.3966    2.3722 H   0  0  0  0  0  0  0  0  0  0  0  0
  1  3  1  0  0  0  0
  1  7  1  0  0  0  0
  1  2  2  0  0  0  0
 22 23  1  0  0  0  0
 23 25  1  0  0  0  0
 23 24  2  0  0  0  0
 35 36  1  0  0  0  0
 36 44  1  0  0  0  0
 36 37  2  0  0  0  0
  8  9  1  0  0  0  0
  9 17  1  0  0  0  0
  9 10  2  0  0  0  0
 18 19  1  0  0  0  0
 19 34  1  0  0  0  0
 19 20  2  0  0  0  0
 35 38  1  0  0  0  0
  8 11  1  0  0  0  0
 44 45  1  0  0  0  0
 21 22  1  0  0  0  0
 18 21  1  0  0  0  0
 34 35  1  0  0  0  0
  7  8  1  0  0  0  0
 17 18  1  0  0  0  0
  3  4  1  0  0  0  0
  3  5  1  0  0  0  0
  3  6  1  0  0  0  0
 38 41  1  0  0  0  0
 38 42  1  0  0  0  0
 38 43  1  0  0  0  0
 11 14  1  0  0  0  0
 11 15  1  0  0  0  0
 11 16  1  0  0  0  0
 45 47  1  0  0  0  0
 45 48  1  0  0  0  0
 45 49  1  0  0  0  0
 22 30  1  0  0  0  0
 22 31  1  0  0  0  0
 21 28  1  0  0  0  0
 21 29  1  0  0  0  0
 35 40  1  0  0  0  0
  8 13  1  0  0  0  0
 18 27  1  0  0  0  0
 25 32  1  0  0  0  0
 25 33  1  0  0  0  0
 44 46  1  0  0  0  0
  7 12  1  0  0  0  0
 34 39  1  0  0  0  0
 17 26  1  0  0  0  0
M  END
$$$$

  -OEChem-05262214473D

 49 48  0     1  0  0  0  0  0999 V2000
   -1.9833   -0.0509   -3.3423 C   0  0  0  0  0  0  0  0  0  0  0  0
   -1.6199   -1.0613   -2.7518 O   0  0  0  0  0  0  0  0  0  0  0  0
   -3.3243   -0.0235   -3.9975 C   0  0  0  0  0  0  0  0  0  0  0  0
   -3.2886   -0.3689   -5.0432 H   0  0  0  0  0  0  0  0  0  0  0  0
   -4.0503   -0.6845   -3.4973 H   0  0  0  0  0  0  0  0  0  0  0  0
   -3.8104    0.9645   -4.0351 H   0  0  0  0  0  0  0  0  0  0  0  0
   -1.2607    1.1231   -3.4768 N   0  0  0  0  0  0  0  0  0  0  0  0
    0.0536    1.3115   -2.9213 C   0  0  2  0  0  0  0  0  0  0  0  0
    0.0266    0.8315   -1.4761 C   0  0  0  0  0  0  0  0  0  0  0  0
   -1.0065    0.7530   -0.8146 O   0  0  0  0  0  0  0  0  0  0  0  0
    0.4852    2.7674   -3.0025 C   0  0  0  0  0  0  0  0  0  0  0  0
   -1.6809    1.8924   -3.9952 H   0  0  0  0  0  0  0  0  0  0  0  0
    0.7360    0.6822   -3.5030 H   0  0  0  0  0  0  0  0  0  0  0  0
   -0.1867    3.4133   -2.4256 H   0  0  0  0  0  0  0  0  0  0  0  0
    1.4966    2.9042   -2.6056 H   0  0  0  0  0  0  0  0  0  0  0  0
    0.4754    3.1196   -4.0397 H   0  0  0  0  0  0  0  0  0  0  0  0
    1.2978    0.5411   -0.9947 N   0  0  0  0  0  0  0  0  0  0  0  0
    1.5371    0.0807    0.3489 C   0  0  2  0  0  0  0  0  0  0  0  0
    3.0298    0.2332    0.6195 C   0  0  0  0  0  0  0  0  0  0  0  0
    3.4749    0.7451    1.6445 O   0  0  0  0  0  0  0  0  0  0  0  0
    1.1055   -1.3779    0.5467 C   0  0  0  0  0  0  0  0  0  0  0  0
   -0.4073   -1.5835    0.4474 C   0  0  0  0  0  0  0  0  0  0  0  0
   -0.8349   -3.0292    0.6187 C   0  0  0  0  0  0  0  0  0  0  0  0
   -0.0519   -3.9657    0.7481 O   0  0  0  0  0  0  0  0  0  0  0  0
   -2.2049   -3.1778    0.5871 N   0  0  0  0  0  0  0  0  0  0  0  0
    2.0949    0.6178   -1.6227 H   0  0  0  0  0  0  0  0  0  0  0  0
    0.9838    0.7521    1.0141 H   0  0  0  0  0  0  0  0  0  0  0  0
    1.5905   -2.0038   -0.2143 H   0  0  0  0  0  0  0  0  0  0  0  0
    1.4617   -1.7471    1.5167 H   0  0  0  0  0  0  0  0  0  0  0  0
   -0.7409   -1.2685   -0.5491 H   0  0  0  0  0  0  0  0  0  0  0  0
   -0.9338   -0.9602    1.1788 H   0  0  0  0  0  0  0  0  0  0  0  0
   -2.7833   -2.3542    0.4589 H   0  0  0  0  0  0  0  0  0  0  0  0
   -2.6558   -4.0816    0.6874 H   0  0  0  0  0  0  0  0  0  0  0  0
    3.7998   -0.2241   -0.4409 N   0  0  0  0  0  0  0  0  0  0  0  0
    5.2441   -0.1753   -0.4517 C   0  0  2  0  0  0  0  0  0  0  0  0
    5.7441   -0.7541    0.8653 C   0  0  0  0  0  0  0  0  0  0  0  0
    5.0544   -0.8019    1.8818 O   0  0  0  0  0  0  0  0  0  0  0  0
    5.7483    1.2461   -0.6469 C   0  0  0  0  0  0  0  0  0  0  0  0
    3.3242   -0.6125   -1.2501 H   0  0  0  0  0  0  0  0  0  0  0  0
    5.5759   -0.8108   -1.2799 H   0  0  0  0  0  0  0  0  0  0  0  0
    5.4258    1.8978    0.1734 H   0  0  0  0  0  0  0  0  0  0  0  0
    6.8423    1.2776   -0.6834 H   0  0  0  0  0  0  0  0  0  0  0  0
    5.3636    1.6714   -1.5801 H   0  0  0  0  0  0  0  0  0  0  0  0
    7.0651   -1.1716    0.7839 N   0  0  0  0  0  0  0  0  0  0  0  0
    7.7720   -1.7454    1.9051 C   0  0  0  0  0  0  0  0  0  0  0  0
    7.5542   -1.1119   -0.1044 H   0  0  0  0  0  0  0  0  0  0  0  0
    8.3054   -0.9513    2.4482 H   0  0  0  0  0  0  0  0  0  0  0  0
    7.0536   -2.2327    2.5808 H   0  0  0  0  0  0  0  0  0  0  0  0
    8.4953   -2.4896    1.5404 H   0  0  0  0  0  0  0  0  0  0  0  0
  1  3  1  0  0  0  0
  1  7  1  0  0  0  0
  1  2  2  0  0  0  0
 22 23  1  0  0  0  0
 23 25  1  0  0  0  0
 23 24  2  0  0  0  0
 35 36  1  0  0  0  0
 36 44  1  0  0  0  0
 36 37  2  0  0  0  0
  8  9  1  0  0  0  0
  9 17  1  0  0  0  0
  9 10  2  0  0  0  0
 18 19  1  0  0  0  0
 19 34  1  0  0  0  0
 19 20  2  0  0  0  0
 35 38  1  0  0  0  0
  8 11  1  0  0  0  0
 44 45  1  0  0  0  0
 21 22  1  0  0  0  0
 18 21  1  0  0  0  0
 34 35  1  0  0  0  0
  7  8  1  0  0  0  0
 17 18  1  0  0  0  0
  3  4  1  0  0  0  0
  3  5  1  0  0  0  0
  3  6  1  0  0  0  0
 38 41  1  0  0  0  0
 38 42  1  0  0  0  0
 38 43  1  0  0  0  0
 11 14  1  0  0  0  0
 11 15  1  0  0  0  0
 11 16  1  0  0  0  0
 45 47  1  0  0  0  0
 45 48  1  0  0  0  0
 45 49  1  0  0  0  0
 22 30  1  0  0  0  0
 22 31  1  0  0  0  0
 21 28  1  0  0  0  0
 21 29  1  0  0  0  0
 35 40  1  0  0  0  0
  8 13  1  0  0  0  0
 18 27  1  0  0  0  0
 25 32  1  0  0  0  0
 25 33  1  0  0  0  0
 44 46  1  0  0  0  0
  7 12  1  0  0  0  0
 34 39  1  0  0  0  0
 17 26  1  0  0  0  0
M  END
$$$$

  -OEChem-05262214473D

 49 48  0     1  0  0  0  0  0999 V2000
   -1.9833   -0.0509   -3.3423 C   0  0  0  0  0  0  0  0  0  0  0  0
   -1.6199   -1.0613   -2.7518 O   0  0  0  0  0  0  0  0  0  0  0  0
   -3.3243   -0.0235   -3.9975 C   0  0  0  0  0  0  0  0  0  0  0  0
   -3.2886   -0.3689   -5.0432 H   0  0  0  0  0  0  0  0  0  0  0  0
   -4.0503   -0.6845   -3.4973 H   0  0  0  0  0  0  0  0  0  0  0  0
   -3.8104    0.9645   -4.0351 H   0  0  0  0  0  0  0  0  0  0  0  0
   -1.2607    1.1231   -3.4768 N   0  0  0  0  0  0  0  0  0  0  0  0
    0.0536    1.3115   -2.9213 C   0  0  2  0  0  0  0  0  0  0  0  0
    0.0266    0.8315   -1.4761 C   0  0  0  0  0  0  0  0  0  0  0  0
   -1.0065    0.7530   -0.8146 O   0  0  0  0  0  0  0  0  0  0  0  0
    0.4852    2.7674   -3.0025 C   0  0  0  0  0  0  0  0  0  0  0  0
   -1.6809    1.8924   -3.9952 H   0  0  0  0  0  0  0  0  0  0  0  0
    0.7360    0.6822   -3.5030 H   0  0  0  0  0  0  0  0  0  0  0  0
   -0.1867    3.4133   -2.4256 H   0  0  0  0  0  0  0  0  0  0  0  0
    1.4966    2.9042   -2.6056 H   0  0  0  0  0  0  0  0  0  0  0  0
    0.4754    3.1196   -4.0397 H   0  0  0  0  0  0  0  0  0  0  0  0
    1.2978    0.5411   -0.9947 N   0  0  0  0  0  0  0  0  0  0  0  0
    1.5371    0.0807    0.3489 C   0  0  2  0  0  0  0  0  0  0  0  0
    3.0298    0.2332    0.6195 C   0  0  0  0  0  0  0  0  0  0  0  0
    3.4851    0.4907    1.7318 O   0  0  0  0  0  0  0  0  0  0  0  0
    1.1055   -1.3779    0.5467 C   0  0  0  0  0  0  0  0  0  0  0  0
   -0.4073   -1.5835    0.4474 C   0  0  0  0  0  0  0  0  0  0  0  0
   -0.8349   -3.0292    0.6187 C   0  0  0  0  0  0  0  0  0  0  0  0
   -0.0519   -3.9657    0.7481 O   0  0  0  0  0  0  0  0  0  0  0  0
   -2.2049   -3.1778    0.5871 N   0  0  0  0  0  0  0  0  0  0  0  0
    2.0949    0.6178   -1.6227 H   0  0  0  0  0  0  0  0  0  0  0  0
    0.9838    0.7521    1.0141 H   0  0  0  0  0  0  0  0  0  0  0  0
    1.5905   -2.0038   -0.2143 H   0  0  0  0  0  0  0  0  0  0  0  0
    1.4617   -1.7471    1.5167 H   0  0  0  0  0  0  0  0  0  0  0  0
   -0.7409   -1.2685   -0.5491 H   0  0  0  0  0  0  0  0  0  0  0  0
   -0.9338   -0.9602    1.1788 H   0  0  0  0  0  0  0  0  0  0  0  0
   -2.7833   -2.3542    0.4589 H   0  0  0  0  0  0  0  0  0  0  0  0
   -2.6558   -4.0816    0.6874 H   0  0  0  0  0  0  0  0  0  0  0  0
    3.7844    0.0973   -0.5375 N   0  0  0  0  0  0  0  0  0  0  0  0
    5.2243    0.2184   -0.5643 C   0  0  2  0  0  0  0  0  0  0  0  0
    5.7901   -0.6493    0.5522 C   0  0  0  0  0  0  0  0  0  0  0  0
    5.1358   -0.9863    1.5368 O   0  0  0  0  0  0  0  0  0  0  0  0
    5.6611    1.6660   -0.4021 C   0  0  0  0  0  0  0  0  0  0  0  0
    3.3004   -0.0969   -1.4090 H   0  0  0  0  0  0  0  0  0  0  0  0
    5.5564   -0.1700   -1.5333 H   0  0  0  0  0  0  0  0  0  0  0  0
    5.3373    2.0724    0.5630 H   0  0  0  0  0  0  0  0  0  0  0  0
    6.7510    1.7595   -0.4512 H   0  0  0  0  0  0  0  0  0  0  0  0
    5.2291    2.2939   -1.1888 H   0  0  0  0  0  0  0  0  0  0  0  0
    7.1245   -0.9670    0.3410 N   0  0  0  0  0  0  0  0  0  0  0  0
    7.8904   -1.7700    1.2654 C   0  0  0  0  0  0  0  0  0  0  0  0
    7.5821   -0.6606   -0.5125 H   0  0  0  0  0  0  0  0  0  0  0  0
    8.4066   -1.1138    1.9816 H   0  0  0  0  0  0  0  0  0  0  0  0
    7.2153   -2.4471    1.8094 H   0  0  0  0  0  0  0  0  0  0  0  0
    8.6328   -2.3614    0.7093 H   0  0  0  0  0  0  0  0  0  0  0  0
  1  3  1  0  0  0  0
  1  7  1  0  0  0  0
  1  2  2  0  0  0  0
 22 23  1  0  0  0  0
 23 25  1  0  0  0  0
 23 24  2  0  0  0  0
 35 36  1  0  0  0  0
 36 44  1  0  0  0  0
 36 37  2  0  0  0  0
  8  9  1  0  0  0  0
  9 17  1  0  0  0  0
  9 10  2  0  0  0  0
 18 19  1  0  0  0  0
 19 34  1  0  0  0  0
 19 20  2  0  0  0  0
 35 38  1  0  0  0  0
  8 11  1  0  0  0  0
 44 45  1  0  0  0  0
 21 22  1  0  0  0  0
 18 21  1  0  0  0  0
 34 35  1  0  0  0  0
  7  8  1  0  0  0  0
 17 18  1  0  0  0  0
  3  4  1  0  0  0  0
  3  5  1  0  0  0  0
  3  6  1  0  0  0  0
 38 41  1  0  0  0  0
 38 42  1  0  0  0  0
 38 43  1  0  0  0  0
 11 14  1  0  0  0  0
 11 15  1  0  0  0  0
 11 16  1  0  0  0  0
 45 47  1  0  0  0  0
 45 48  1  0  0  0  0
 45 49  1  0  0  0  0
 22 30  1  0  0  0  0
 22 31  1  0  0  0  0
 21 28  1  0  0  0  0
 21 29  1  0  0  0  0
 35 40  1  0  0  0  0
  8 13  1  0  0  0  0
 18 27  1  0  0  0  0
 25 32  1  0  0  0  0
 25 33  1  0  0  0  0
 44 46  1  0  0  0  0
  7 12  1  0  0  0  0
 34 39  1  0  0  0  0
 17 26  1  0  0  0  0
M  END
$$$$

  -OEChem-05262214473D

 49 48  0     1  0  0  0  0  0999 V2000
   -1.9833   -0.0509   -3.3423 C   0  0  0  0  0  0  0  0  0  0  0  0
   -1.6199   -1.0613   -2.7518 O   0  0  0  0  0  0  0  0  0  0  0  0
   -3.3243   -0.0235   -3.9975 C   0  0  0  0  0  0  0  0  0  0  0  0
   -3.2886   -0.3689   -5.0432 H   0  0  0  0  0  0  0  0  0  0  0  0
   -4.0503   -0.6845   -3.4973 H   0  0  0  0  0  0  0  0  0  0  0  0
   -3.8104    0.9645   -4.0351 H   0  0  0  0  0  0  0  0  0  0  0  0
   -1.2607    1.1231   -3.4768 N   0  0  0  0  0  0  0  0  0  0  0  0
    0.0536    1.3115   -2.9213 C   0  0  2  0  0  0  0  0  0  0  0  0
    0.0266    0.8315   -1.4761 C   0  0  0  0  0  0  0  0  0  0  0  0
   -1.0065    0.7530   -0.8146 O   0  0  0  0  0  0  0  0  0  0  0  0
    0.4852    2.7674   -3.0025 C   0  0  0  0  0  0  0  0  0  0  0  0
   -1.6809    1.8924   -3.9952 H   0  0  0  0  0  0  0  0  0  0  0  0
    0.7360    0.6822   -3.5030 H   0  0  0  0  0  0  0  0  0  0  0  0
   -0.1867    3.4133   -2.4256 H   0  0  0  0  0  0  0  0  0  0  0  0
    1.4966    2.9042   -2.6056 H   0  0  0  0  0  0  0  0  0  0  0  0
    0.4754    3.1196   -4.0397 H   0  0  0  0  0  0  0  0  0  0  0  0
    1.2978    0.5411   -0.9947 N   0  0  0  0  0  0  0  0  0  0  0  0
    1.5371    0.0807    0.3489 C   0  0  2  0  0  0  0  0  0  0  0  0
    3.0298    0.2332    0.6195 C   0  0  0  0  0  0  0  0  0  0  0  0
    3.5088    0.2232    1.7514 O   0  0  0  0  0  0  0  0  0  0  0  0
    1.1055   -1.3779    0.5467 C   0  0  0  0  0  0  0  0  0  0  0  0
   -0.4073   -1.5835    0.4474 C   0  0  0  0  0  0  0  0  0  0  0  0
   -0.8349   -3.0292    0.6187 C   0  0  0  0  0  0  0  0  0  0  0  0
   -0.0519   -3.9657    0.7481 O   0  0  0  0  0  0  0  0  0  0  0  0
   -2.2049   -3.1778    0.5871 N   0  0  0  0  0  0  0  0  0  0  0  0
    2.0949    0.6178   -1.6227 H   0  0  0  0  0  0  0  0  0  0  0  0
    0.9838    0.7521    1.0141 H   0  0  0  0  0  0  0  0  0  0  0  0
    1.5905   -2.0038   -0.2143 H   0  0  0  0  0  0  0  0  0  0  0  0
    1.4617   -1.7471    1.5167 H   0  0  0  0  0  0  0  0  0  0  0  0
   -0.7409   -1.2685   -0.5491 H   0  0  0  0  0  0  0  0  0  0  0  0
   -0.9338   -0.9602    1.1788 H   0  0  0  0  0  0  0  0  0  0  0  0
   -2.7833   -2.3542    0.4589 H   0  0  0  0  0  0  0  0  0  0  0  0
   -2.6558   -4.0816    0.6874 H   0  0  0  0  0  0  0  0  0  0  0  0
    3.7523    0.4316   -0.5489 N   0  0  0  0  0  0  0  0  0  0  0  0
    5.1842    0.6262   -0.5728 C   0  0  2  0  0  0  0  0  0  0  0  0
    5.8216   -0.4665    0.2752 C   0  0  0  0  0  0  0  0  0  0  0  0
    5.2140   -1.0733    1.1547 O   0  0  0  0  0  0  0  0  0  0  0  0
    5.5638    2.0055   -0.0570 C   0  0  0  0  0  0  0  0  0  0  0  0
    3.2495    0.4404   -1.4313 H   0  0  0  0  0  0  0  0  0  0  0  0
    5.5015    0.5122   -1.6151 H   0  0  0  0  0  0  0  0  0  0  0  0
    5.2540    2.1383    0.9860 H   0  0  0  0  0  0  0  0  0  0  0  0
    6.6466    2.1620   -0.1025 H   0  0  0  0  0  0  0  0  0  0  0  0
    5.0807    2.7898   -0.6497 H   0  0  0  0  0  0  0  0  0  0  0  0
    7.1609   -0.6544   -0.0364 N   0  0  0  0  0  0  0  0  0  0  0  0
    7.9894   -1.6263    0.6382 C   0  0  0  0  0  0  0  0  0  0  0  0
    7.5777   -0.1201   -0.7931 H   0  0  0  0  0  0  0  0  0  0  0  0
    8.4996   -1.1478    1.4871 H   0  0  0  0  0  0  0  0  0  0  0  0
    7.3614   -2.4513    1.0057 H   0  0  0  0  0  0  0  0  0  0  0  0
    8.7382   -2.0205   -0.0646 H   0  0  0  0  0  0  0  0  0  0  0  0
  1  3  1  0  0  0  0
  1  7  1  0  0  0  0
  1  2  2  0  0  0  0
 22 23  1  0  0  0  0
 23 25  1  0  0  0  0
 23 24  2  0  0  0  0
 35 36  1  0  0  0  0
 36 44  1  0  0  0  0
 36 37  2  0  0  0  0
  8  9  1  0  0  0  0
  9 17  1  0  0  0  0
  9 10  2  0  0  0  0
 18 19  1  0  0  0  0
 19 34  1  0  0  0  0
 19 20  2  0  0  0  0
 35 38  1  0  0  0  0
  8 11  1  0  0  0  0
 44 45  1  0  0  0  0
 21 22  1  0  0  0  0
 18 21  1  0  0  0  0
 34 35  1  0  0  0  0
  7  8  1  0  0  0  0
 17 18  1  0  0  0  0
  3  4  1  0  0  0  0
  3  5  1  0  0  0  0
  3  6  1  0  0  0  0
 38 41  1  0  0  0  0
 38 42  1  0  0  0  0
 38 43  1  0  0  0  0
 11 14  1  0  0  0  0
 11 15  1  0  0  0  0
 11 16  1  0  0  0  0
 45 47  1  0  0  0  0
 45 48  1  0  0  0  0
 45 49  1  0  0  0  0
 22 30  1  0  0  0  0
 22 31  1  0  0  0  0
 21 28  1  0  0  0  0
 21 29  1  0  0  0  0
 35 40  1  0  0  0  0
  8 13  1  0  0  0  0
 18 27  1  0  0  0  0
 25 32  1  0  0  0  0
 25 33  1  0  0  0  0
 44 46  1  0  0  0  0
  7 12  1  0  0  0  0
 34 39  1  0  0  0  0
 17 26  1  0  0  0  0
M  END
$$$$

  -OEChem-05262214473D

 49 48  0     1  0  0  0  0  0999 V2000
   -1.9833   -0.0509   -3.3423 C   0  0  0  0  0  0  0  0  0  0  0  0
   -1.6199   -1.0613   -2.7518 O   0  0  0  0  0  0  0  0  0  0  0  0
   -3.3243   -0.0235   -3.9975 C   0  0  0  0  0  0  0  0  0  0  0  0
   -3.2886   -0.3689   -5.0432 H   0  0  0  0  0  0  0  0  0  0  0  0
   -4.0503   -0.6845   -3.4973 H   0  0  0  0  0  0  0  0  0  0  0  0
   -3.8104    0.9645   -4.0351 H   0  0  0  0  0  0  0  0  0  0  0  0
   -1.2607    1.1231   -3.4768 N   0  0  0  0  0  0  0  0  0  0  0  0
    0.0536    1.3115   -2.9213 C   0  0  2  0  0  0  0  0  0  0  0  0
    0.0266    0.8315   -1.4761 C   0  0  0  0  0  0  0  0  0  0  0  0
   -1.0065    0.7530   -0.8146 O   0  0  0  0  0  0  0  0  0  0  0  0
    0.4852    2.7674   -3.0025 C   0  0  0  0  0  0  0  0  0  0  0  0
   -1.6809    1.8924   -3.9952 H   0  0  0  0  0  0  0  0  0  0  0  0
    0.7360    0.6822   -3.5030 H   0  0  0  0  0  0  0  0  0  0  0  0
   -0.1867    3.4133   -2.4256 H   0  0  0  0  0  0  0  0  0  0  0  0
    1.4966    2.9042   -2.6056 H   0  0  0  0  0  0  0  0  0  0  0  0
    0.4754    3.1196   -4.0397 H   0  0  0  0  0  0  0  0  0  0  0  0
    1.2978    0.5411   -0.9947 N   0  0  0  0  0  0  0  0  0  0  0  0
    1.5371    0.0807    0.3489 C   0  0  2  0  0  0  0  0  0  0  0  0
    3.0298    0.2332    0.6195 C   0  0  0  0  0  0  0  0  0  0  0  0
    3.5446   -0.0390    1.7020 O   0  0  0  0  0  0  0  0  0  0  0  0
    1.1055   -1.3779    0.5467 C   0  0  0  0  0  0  0  0  0  0  0  0
   -0.4073   -1.5835    0.4474 C   0  0  0  0  0  0  0  0  0  0  0  0
   -0.8349   -3.0292    0.6187 C   0  0  0  0  0  0  0  0  0  0  0  0
   -0.0519   -3.9657    0.7481 O   0  0  0  0  0  0  0  0  0  0  0  0
   -2.2049   -3.1778    0.5871 N   0  0  0  0  0  0  0  0  0  0  0  0
    2.0949    0.6178   -1.6227 H   0  0  0  0  0  0  0  0  0  0  0  0
    0.9838    0.7521    1.0141 H   0  0  0  0  0  0  0  0  0  0  0  0
    1.5905   -2.0038   -0.2143 H   0  0  0  0  0  0  0  0  0  0  0  0
    1.4617   -1.7471    1.5167 H   0  0  0  0  0  0  0  0  0  0  0  0
   -0.7409   -1.2685   -0.5491 H   0  0  0  0  0  0  0  0  0  0  0  0
   -0.9338   -0.9602    1.1788 H   0  0  0  0  0  0  0  0  0  0  0  0
   -2.7833   -2.3542    0.4589 H   0  0  0  0  0  0  0  0  0  0  0  0
   -2.6558   -4.0816    0.6874 H   0  0  0  0  0  0  0  0  0  0  0  0
    3.7057    0.7558   -0.4744 N   0  0  0  0  0  0  0  0  0  0  0  0
    5.1265    1.0205   -0.4767 C   0  0  2  0  0  0  0  0  0  0  0  0
    5.8365   -0.2184    0.0531 C   0  0  0  0  0  0  0  0  0  0  0  0
    5.2835   -1.0570    0.7616 O   0  0  0  0  0  0  0  0  0  0  0  0
    5.4633    2.2416    0.3649 C   0  0  0  0  0  0  0  0  0  0  0  0
    3.1752    0.9626   -1.3154 H   0  0  0  0  0  0  0  0  0  0  0  0
    5.4150    1.1895   -1.5199 H   0  0  0  0  0  0  0  0  0  0  0  0
    5.1813    2.0910    1.4133 H   0  0  0  0  0  0  0  0  0  0  0  0
    6.5364    2.4576    0.3390 H   0  0  0  0  0  0  0  0  0  0  0  0
    4.9286    3.1255    0.0006 H   0  0  0  0  0  0  0  0  0  0  0  0
    7.1720   -0.2552   -0.3227 N   0  0  0  0  0  0  0  0  0  0  0  0
    8.0622   -1.3240    0.0662 C   0  0  0  0  0  0  0  0  0  0  0  0
    7.5414    0.4729   -0.9270 H   0  0  0  0  0  0  0  0  0  0  0  0
    8.5783   -1.0511    0.9985 H   0  0  0  0  0  0  0  0  0  0  0  0
    7.4819   -2.2449    0.2246 H   0  0  0  0  0  0  0  0  0  0  0  0
    8.8044   -1.4904   -0.7284 H   0  0  0  0  0  0  0  0  0  0  0  0
  1  3  1  0  0  0  0
  1  7  1  0  0  0  0
  1  2  2  0  0  0  0
 22 23  1  0  0  0  0
 23 25  1  0  0  0  0
 23 24  2  0  0  0  0
 35 36  1  0  0  0  0
 36 44  1  0  0  0  0
 36 37  2  0  0  0  0
  8  9  1  0  0  0  0
  9 17  1  0  0  0  0
  9 10  2  0  0  0  0
 18 19  1  0  0  0  0
 19 34  1  0  0  0  0
 19 20  2  0  0  0  0
 35 38  1  0  0  0  0
  8 11  1  0  0  0  0
 44 45  1  0  0  0  0
 21 22  1  0  0  0  0
 18 21  1  0  0  0  0
 34 35  1  0  0  0  0
  7  8  1  0  0  0  0
 17 18  1  0  0  0  0
  3  4  1  0  0  0  0
  3  5  1  0  0  0  0
  3  6  1  0  0  0  0
 38 41  1  0  0  0  0
 38 42  1  0  0  0  0
 38 43  1  0  0  0  0
 11 14  1  0  0  0  0
 11 15  1  0  0  0  0
 11 16  1  0  0  0  0
 45 47  1  0  0  0  0
 45 48  1  0  0  0  0
 45 49  1  0  0  0  0
 22 30  1  0  0  0  0
 22 31  1  0  0  0  0
 21 28  1  0  0  0  0
 21 29  1  0  0  0  0
 35 40  1  0  0  0  0
  8 13  1  0  0  0  0
 18 27  1  0  0  0  0
 25 32  1  0  0  0  0
 25 33  1  0  0  0  0
 44 46  1  0  0  0  0
  7 12  1  0  0  0  0
 34 39  1  0  0  0  0
 17 26  1  0  0  0  0
M  END
$$$$

  -OEChem-05262214473D

 49 48  0     1  0  0  0  0  0999 V2000
   -1.9833   -0.0509   -3.3423 C   0  0  0  0  0  0  0  0  0  0  0  0
   -1.6199   -1.0613   -2.7518 O   0  0  0  0  0  0  0  0  0  0  0  0
   -3.3243   -0.0235   -3.9975 C   0  0  0  0  0  0  0  0  0  0  0  0
   -3.2886   -0.3689   -5.0432 H   0  0  0  0  0  0  0  0  0  0  0  0
   -4.0503   -0.6845   -3.4973 H   0  0  0  0  0  0  0  0  0  0  0  0
   -3.8104    0.9645   -4.0351 H   0  0  0  0  0  0  0  0  0  0  0  0
   -1.2607    1.1231   -3.4768 N   0  0  0  0  0  0  0  0  0  0  0  0
    0.0536    1.3115   -2.9213 C   0  0  2  0  0  0  0  0  0  0  0  0
    0.0266    0.8315   -1.4761 C   0  0  0  0  0  0  0  0  0  0  0  0
   -1.0065    0.7530   -0.8146 O   0  0  0  0  0  0  0  0  0  0  0  0
    0.4852    2.7674   -3.0025 C   0  0  0  0  0  0  0  0  0  0  0  0
   -1.6809    1.8924   -3.9952 H   0  0  0  0  0  0  0  0  0  0  0  0
    0.7360    0.6822   -3.5030 H   0  0  0  0  0  0  0  0  0  0  0  0
   -0.1867    3.4133   -2.4256 H   0  0  0  0  0  0  0  0  0  0  0  0
    1.4966    2.9042   -2.6056 H   0  0  0  0  0  0  0  0  0  0  0  0
    0.4754    3.1196   -4.0397 H   0  0  0  0  0  0  0  0  0  0  0  0
    1.2978    0.5411   -0.9947 N   0  0  0  0  0  0  0  0  0  0  0  0
    1.5371    0.0807    0.3489 C   0  0  2  0  0  0  0  0  0  0  0  0
    3.0298    0.2332    0.6195 C   0  0  0  0  0  0  0  0  0  0  0  0
    3.5899   -0.2781    1.5868 O   0  0  0  0  0  0  0  0  0  0  0  0
    1.1055   -1.3779    0.5467 C   0  0  0  0  0  0  0  0  0  0  0  0
   -0.4073   -1.5835    0.4474 C   0  0  0  0  0  0  0  0  0  0  0  0
   -0.8349   -3.0292    0.6187 C   0  0  0  0  0  0  0  0  0  0  0  0
   -0.0519   -3.9657    0.7481 O   0  0  0  0  0  0  0  0  0  0  0  0
   -2.2049   -3.1778    0.5871 N   0  0  0  0  0  0  0  0  0  0  0  0
    2.0949    0.6178   -1.6227 H   0  0  0  0  0  0  0  0  0  0  0  0
    0.9838    0.7521    1.0141 H   0  0  0  0  0  0  0  0  0  0  0  0
    1.5905   -2.0038   -0.2143 H   0  0  0  0  0  0  0  0  0  0  0  0
    1.4617   -1.7471    1.5167 H   0  0  0  0  0  0  0  0  0  0  0  0
   -0.7409   -1.2685   -0.5491 H   0  0  0  0  0  0  0  0  0  0  0  0
   -0.9338   -0.9602    1.1788 H   0  0  0  0  0  0  0  0  0  0  0  0
   -2.7833   -2.3542    0.4589 H   0  0  0  0  0  0  0  0  0  0  0  0
   -2.6558   -4.0816    0.6874 H   0  0  0  0  0  0  0  0  0  0  0  0
    3.6477    1.0480   -0.3190 N   0  0  0  0  0  0  0  0  0  0  0  0
    5.0551    1.3743   -0.2824 C   0  0  2  0  0  0  0  0  0  0  0  0
    5.8338    0.0783   -0.0990 C   0  0  0  0  0  0  0  0  0  0  0  0
    5.3398   -0.9383    0.3842 O   0  0  0  0  0  0  0  0  0  0  0  0
    5.3662    2.3581    0.8348 C   0  0  0  0  0  0  0  0  0  0  0  0
    3.0823    1.4343   -1.0692 H   0  0  0  0  0  0  0  0  0  0  0  0
    5.3029    1.8155   -1.2540 H   0  0  0  0  0  0  0  0  0  0  0  0
    5.1244    1.9336    1.8160 H   0  0  0  0  0  0  0  0  0  0  0  0
    6.4278    2.6262    0.8432 H   0  0  0  0  0  0  0  0  0  0  0  0
    4.7830    3.2779    0.7177 H   0  0  0  0  0  0  0  0  0  0  0  0
    7.1570    0.2035   -0.4984 N   0  0  0  0  0  0  0  0  0  0  0  0
    8.1038   -0.8837   -0.4115 C   0  0  0  0  0  0  0  0  0  0  0  0
    7.4756    1.0780   -0.9052 H   0  0  0  0  0  0  0  0  0  0  0  0
    8.6372   -0.8302    0.5490 H   0  0  0  0  0  0  0  0  0  0  0  0
    7.5686   -1.8422   -0.4807 H   0  0  0  0  0  0  0  0  0  0  0  0
    8.8267   -0.8070   -1.2371 H   0  0  0  0  0  0  0  0  0  0  0  0
  1  3  1  0  0  0  0
  1  7  1  0  0  0  0
  1  2  2  0  0  0  0
 22 23  1  0  0  0  0
 23 25  1  0  0  0  0
 23 24  2  0  0  0  0
 35 36  1  0  0  0  0
 36 44  1  0  0  0  0
 36 37  2  0  0  0  0
  8  9  1  0  0  0  0
  9 17  1  0  0  0  0
  9 10  2  0  0  0  0
 18 19  1  0  0  0  0
 19 34  1  0  0  0  0
 19 20  2  0  0  0  0
 35 38  1  0  0  0  0
  8 11  1  0  0  0  0
 44 45  1  0  0  0  0
 21 22  1  0  0  0  0
 18 21  1  0  0  0  0
 34 35  1  0  0  0  0
  7  8  1  0  0  0  0
 17 18  1  0  0  0  0
  3  4  1  0  0  0  0
  3  5  1  0  0  0  0
  3  6  1  0  0  0  0
 38 41  1  0  0  0  0
 38 42  1  0  0  0  0
 38 43  1  0  0  0  0
 11 14  1  0  0  0  0
 11 15  1  0  0  0  0
 11 16  1  0  0  0  0
 45 47  1  0  0  0  0
 45 48  1  0  0  0  0
 45 49  1  0  0  0  0
 22 30  1  0  0  0  0
 22 31  1  0  0  0  0
 21 28  1  0  0  0  0
 21 29  1  0  0  0  0
 35 40  1  0  0  0  0
  8 13  1  0  0  0  0
 18 27  1  0  0  0  0
 25 32  1  0  0  0  0
 25 33  1  0  0  0  0
 44 46  1  0  0  0  0
  7 12  1  0  0  0  0
 34 39  1  0  0  0  0
 17 26  1  0  0  0  0
M  END
$$$$

  -OEChem-05262214473D

 49 48  0     1  0  0  0  0  0999 V2000
   -1.9833   -0.0509   -3.3423 C   0  0  0  0  0  0  0  0  0  0  0  0
   -1.6199   -1.0613   -2.7518 O   0  0  0  0  0  0  0  0  0  0  0  0
   -3.3243   -0.0235   -3.9975 C   0  0  0  0  0  0  0  0  0  0  0  0
   -3.2886   -0.3689   -5.0432 H   0  0  0  0  0  0  0  0  0  0  0  0
   -4.0503   -0.6845   -3.4973 H   0  0  0  0  0  0  0  0  0  0  0  0
   -3.8104    0.9645   -4.0351 H   0  0  0  0  0  0  0  0  0  0  0  0
   -1.2607    1.1231   -3.4768 N   0  0  0  0  0  0  0  0  0  0  0  0
    0.0536    1.3115   -2.9213 C   0  0  2  0  0  0  0  0  0  0  0  0
    0.0266    0.8315   -1.4761 C   0  0  0  0  0  0  0  0  0  0  0  0
   -1.0065    0.7530   -0.8146 O   0  0  0  0  0  0  0  0  0  0  0  0
    0.4852    2.7674   -3.0025 C   0  0  0  0  0  0  0  0  0  0  0  0
   -1.6809    1.8924   -3.9952 H   0  0  0  0  0  0  0  0  0  0  0  0
    0.7360    0.6822   -3.5030 H   0  0  0  0  0  0  0  0  0  0  0  0
   -0.1867    3.4133   -2.4256 H   0  0  0  0  0  0  0  0  0  0  0  0
    1.4966    2.9042   -2.6056 H   0  0  0  0  0  0  0  0  0  0  0  0
    0.4754    3.1196   -4.0397 H   0  0  0  0  0  0  0  0  0  0  0  0
    1.2978    0.5411   -0.9947 N   0  0  0  0  0  0  0  0  0  0  0  0
    1.5371    0.0807    0.3489 C   0  0  2  0  0  0  0  0  0  0  0  0
    3.0298    0.2332    0.6195 C   0  0  0  0  0  0  0  0  0  0  0  0
    3.6417   -0.4778    1.4138 O   0  0  0  0  0  0  0  0  0  0  0  0
    1.1055   -1.3779    0.5467 C   0  0  0  0  0  0  0  0  0  0  0  0
   -0.4073   -1.5835    0.4474 C   0  0  0  0  0  0  0  0  0  0  0  0
   -0.8349   -3.0292    0.6187 C   0  0  0  0  0  0  0  0  0  0  0  0
   -0.0519   -3.9657    0.7481 O   0  0  0  0  0  0  0  0  0  0  0  0
   -2.2049   -3.1778    0.5871 N   0  0  0  0  0  0  0  0  0  0  0  0
    2.0949    0.6178   -1.6227 H   0  0  0  0  0  0  0  0  0  0  0  0
    0.9838    0.7521    1.0141 H   0  0  0  0  0  0  0  0  0  0  0  0
    1.5905   -2.0038   -0.2143 H   0  0  0  0  0  0  0  0  0  0  0  0
    1.4617   -1.7471    1.5167 H   0  0  0  0  0  0  0  0  0  0  0  0
   -0.7409   -1.2685   -0.5491 H   0  0  0  0  0  0  0  0  0  0  0  0
   -0.9338   -0.9602    1.1788 H   0  0  0  0  0  0  0  0  0  0  0  0
   -2.7833   -2.3542    0.4589 H   0  0  0  0  0  0  0  0  0  0  0  0
   -2.6558   -4.0816    0.6874 H   0  0  0  0  0  0  0  0  0  0  0  0
    3.5823    1.2882   -0.0934 N   0  0  0  0  0  0  0  0  0  0  0  0
    4.9750    1.6636   -0.0033 C   0  0  2  0  0  0  0  0  0  0  0  0
    5.8136    0.4033   -0.1706 C   0  0  0  0  0  0  0  0  0  0  0  0
    5.3790   -0.7255    0.0482 O   0  0  0  0  0  0  0  0  0  0  0  0
    5.2792    2.3471    1.3207 C   0  0  0  0  0  0  0  0  0  0  0  0
    2.9774    1.8232   -0.7095 H   0  0  0  0  0  0  0  0  0  0  0  0
    5.1727    2.3477   -0.8357 H   0  0  0  0  0  0  0  0  0  0  0  0
    5.0871    1.6770    2.1666 H   0  0  0  0  0  0  0  0  0  0  0  0
    6.3282    2.6564    1.3758 H   0  0  0  0  0  0  0  0  0  0  0  0
    4.6540    3.2367    1.4528 H   0  0  0  0  0  0  0  0  0  0  0  0
    7.1169    0.6904   -0.5515 N   0  0  0  0  0  0  0  0  0  0  0  0
    8.1114   -0.3354   -0.7625 C   0  0  0  0  0  0  0  0  0  0  0  0
    7.3848    1.6540   -0.7291 H   0  0  0  0  0  0  0  0  0  0  0  0
    8.6724   -0.5003    0.1692 H   0  0  0  0  0  0  0  0  0  0  0  0
    7.6156   -1.2705   -1.0622 H   0  0  0  0  0  0  0  0  0  0  0  0
    8.8038   -0.0170   -1.5558 H   0  0  0  0  0  0  0  0  0  0  0  0
  1  3  1  0  0  0  0
  1  7  1  0  0  0  0
  1  2  2  0  0  0  0
 22 23  1  0  0  0  0
 23 25  1  0  0  0  0
 23 24  2  0  0  0  0
 35 36  1  0  0  0  0
 36 44  1  0  0  0  0
 36 37  2  0  0  0  0
  8  9  1  0  0  0  0
  9 17  1  0  0  0  0
  9 10  2  0  0  0  0
 18 19  1  0  0  0  0
 19 34  1  0  0  0  0
 19 20  2  0  0  0  0
 35 38  1  0  0  0  0
  8 11  1  0  0  0  0
 44 45  1  0  0  0  0
 21 22  1  0  0  0  0
 18 21  1  0  0  0  0
 34 35  1  0  0  0  0
  7  8  1  0  0  0  0
 17 18  1  0  0  0  0
  3  4  1  0  0  0  0
  3  5  1  0  0  0  0
  3  6  1  0  0  0  0
 38 41  1  0  0  0  0
 38 42  1  0  0  0  0
 38 43  1  0  0  0  0
 11 14  1  0  0  0  0
 11 15  1  0  0  0  0
 11 16  1  0  0  0  0
 45 47  1  0  0  0  0
 45 48  1  0  0  0  0
 45 49  1  0  0  0  0
 22 30  1  0  0  0  0
 22 31  1  0  0  0  0
 21 28  1  0  0  0  0
 21 29  1  0  0  0  0
 35 40  1  0  0  0  0
  8 13  1  0  0  0  0
 18 27  1  0  0  0  0
 25 32  1  0  0  0  0
 25 33  1  0  0  0  0
 44 46  1  0  0  0  0
  7 12  1  0  0  0  0
 34 39  1  0  0  0  0
 17 26  1  0  0  0  0
M  END
$$$$

  -OEChem-05262214473D

 49 48  0     1  0  0  0  0  0999 V2000
   -1.9833   -0.0509   -3.3423 C   0  0  0  0  0  0  0  0  0  0  0  0
   -1.6199   -1.0613   -2.7518 O   0  0  0  0  0  0  0  0  0  0  0  0
   -3.3243   -0.0235   -3.9975 C   0  0  0  0  0  0  0  0  0  0  0  0
   -3.2886   -0.3689   -5.0432 H   0  0  0  0  0  0  0  0  0  0  0  0
   -4.0503   -0.6845   -3.4973 H   0  0  0  0  0  0  0  0  0  0  0  0
   -3.8104    0.9645   -4.0351 H   0  0  0  0  0  0  0  0  0  0  0  0
   -1.2607    1.1231   -3.4768 N   0  0  0  0  0  0  0  0  0  0  0  0
    0.0536    1.3115   -2.9213 C   0  0  2  0  0  0  0  0  0  0  0  0
    0.0266    0.8315   -1.4761 C   0  0  0  0  0  0  0  0  0  0  0  0
   -1.0065    0.7530   -0.8146 O   0  0  0  0  0  0  0  0  0  0  0  0
    0.4852    2.7674   -3.0025 C   0  0  0  0  0  0  0  0  0  0  0  0
   -1.6809    1.8924   -3.9952 H   0  0  0  0  0  0  0  0  0  0  0  0
    0.7360    0.6822   -3.5030 H   0  0  0  0  0  0  0  0  0  0  0  0
   -0.1867    3.4133   -2.4256 H   0  0  0  0  0  0  0  0  0  0  0  0
    1.4966    2.9042   -2.6056 H   0  0  0  0  0  0  0  0  0  0  0  0
    0.4754    3.1196   -4.0397 H   0  0  0  0  0  0  0  0  0  0  0  0
    1.2978    0.5411   -0.9947 N   0  0  0  0  0  0  0  0  0  0  0  0
    1.5371    0.0807    0.3489 C   0  0  2  0  0  0  0  0  0  0  0  0
    3.0298    0.2332    0.6195 C   0  0  0  0  0  0  0  0  0  0  0  0
    3.6963   -0.6245    1.1948 O   0  0  0  0  0  0  0  0  0  0  0  0
    1.1055   -1.3779    0.5467 C   0  0  0  0  0  0  0  0  0  0  0  0
   -0.4073   -1.5835    0.4474 C   0  0  0  0  0  0  0  0  0  0  0  0
   -0.8349   -3.0292    0.6187 C   0  0  0  0  0  0  0  0  0  0  0  0
   -0.0519   -3.9657    0.7481 O   0  0  0  0  0  0  0  0  0  0  0  0
   -2.2049   -3.1778    0.5871 N   0  0  0  0  0  0  0  0  0  0  0  0
    2.0949    0.6178   -1.6227 H   0  0  0  0  0  0  0  0  0  0  0  0
    0.9838    0.7521    1.0141 H   0  0  0  0  0  0  0  0  0  0  0  0
    1.5905   -2.0038   -0.2143 H   0  0  0  0  0  0  0  0  0  0  0  0
    1.4617   -1.7471    1.5167 H   0  0  0  0  0  0  0  0  0  0  0  0
   -0.7409   -1.2685   -0.5491 H   0  0  0  0  0  0  0  0  0  0  0  0
   -0.9338   -0.9602    1.1788 H   0  0  0  0  0  0  0  0  0  0  0  0
   -2.7833   -2.3542    0.4589 H   0  0  0  0  0  0  0  0  0  0  0  0
   -2.6558   -4.0816    0.6874 H   0  0  0  0  0  0  0  0  0  0  0  0
    3.5139    1.4600    0.1870 N   0  0  0  0  0  0  0  0  0  0  0  0
    4.8915    1.8686    0.3417 C   0  0  2  0  0  0  0  0  0  0  0  0
    5.7772    0.7344   -0.1569 C   0  0  0  0  0  0  0  0  0  0  0  0
    5.3983   -0.4331   -0.2234 O   0  0  0  0  0  0  0  0  0  0  0  0
    5.2083    2.2093    1.7896 C   0  0  0  0  0  0  0  0  0  0  0  0
    2.8675    2.1030   -0.2607 H   0  0  0  0  0  0  0  0  0  0  0  0
    5.0333    2.7498   -0.2934 H   0  0  0  0  0  0  0  0  0  0  0  0
    5.0719    1.3385    2.4412 H   0  0  0  0  0  0  0  0  0  0  0  0
    6.2444    2.5459    1.9004 H   0  0  0  0  0  0  0  0  0  0  0  0
    4.5503    3.0047    2.1558 H   0  0  0  0  0  0  0  0  0  0  0  0
    7.0544    1.1724   -0.4783 N   0  0  0  0  0  0  0  0  0  0  0  0
    8.0845    0.2834   -0.9629 C   0  0  0  0  0  0  0  0  0  0  0  0
    7.2752    2.1615   -0.4107 H   0  0  0  0  0  0  0  0  0  0  0  0
    8.6813   -0.0837   -0.1149 H   0  0  0  0  0  0  0  0  0  0  0  0
    7.6196   -0.5688   -1.4802 H   0  0  0  0  0  0  0  0  0  0  0  0
    8.7371    0.8257   -1.6629 H   0  0  0  0  0  0  0  0  0  0  0  0
  1  3  1  0  0  0  0
  1  7  1  0  0  0  0
  1  2  2  0  0  0  0
 22 23  1  0  0  0  0
 23 25  1  0  0  0  0
 23 24  2  0  0  0  0
 35 36  1  0  0  0  0
 36 44  1  0  0  0  0
 36 37  2  0  0  0  0
  8  9  1  0  0  0  0
  9 17  1  0  0  0  0
  9 10  2  0  0  0  0
 18 19  1  0  0  0  0
 19 34  1  0  0  0  0
 19 20  2  0  0  0  0
 35 38  1  0  0  0  0
  8 11  1  0  0  0  0
 44 45  1  0  0  0  0
 21 22  1  0  0  0  0
 18 21  1  0  0  0  0
 34 35  1  0  0  0  0
  7  8  1  0  0  0  0
 17 18  1  0  0  0  0
  3  4  1  0  0  0  0
  3  5  1  0  0  0  0
  3  6  1  0  0  0  0
 38 41  1  0  0  0  0
 38 42  1  0  0  0  0
 38 43  1  0  0  0  0
 11 14  1  0  0  0  0
 11 15  1  0  0  0  0
 11 16  1  0  0  0  0
 45 47  1  0  0  0  0
 45 48  1  0  0  0  0
 45 49  1  0  0  0  0
 22 30  1  0  0  0  0
 22 31  1  0  0  0  0
 21 28  1  0  0  0  0
 21 29  1  0  0  0  0
 35 40  1  0  0  0  0
  8 13  1  0  0  0  0
 18 27  1  0  0  0  0
 25 32  1  0  0  0  0
 25 33  1  0  0  0  0
 44 46  1  0  0  0  0
  7 12  1  0  0  0  0
 34 39  1  0  0  0  0
 17 26  1  0  0  0  0
M  END
$$$$

  -OEChem-05262214473D

 49 48  0     1  0  0  0  0  0999 V2000
   -1.9833   -0.0509   -3.3423 C   0  0  0  0  0  0  0  0  0  0  0  0
   -1.6199   -1.0613   -2.7518 O   0  0  0  0  0  0  0  0  0  0  0  0
   -3.3243   -0.0235   -3.9975 C   0  0  0  0  0  0  0  0  0  0  0  0
   -3.2886   -0.3689   -5.0432 H   0  0  0  0  0  0  0  0  0  0  0  0
   -4.0503   -0.6845   -3.4973 H   0  0  0  0  0  0  0  0  0  0  0  0
   -3.8104    0.9645   -4.0351 H   0  0  0  0  0  0  0  0  0  0  0  0
   -1.2607    1.1231   -3.4768 N   0  0  0  0  0  0  0  0  0  0  0  0
    0.0536    1.3115   -2.9213 C   0  0  2  0  0  0  0  0  0  0  0  0
    0.0266    0.8315   -1.4761 C   0  0  0  0  0  0  0  0  0  0  0  0
   -1.0065    0.7530   -0.8146 O   0  0  0  0  0  0  0  0  0  0  0  0
    0.4852    2.7674   -3.0025 C   0  0  0  0  0  0  0  0  0  0  0  0
   -1.6809    1.8924   -3.9952 H   0  0  0  0  0  0  0  0  0  0  0  0
    0.7360    0.6822   -3.5030 H   0  0  0  0  0  0  0  0  0  0  0  0
   -0.1867    3.4133   -2.4256 H   0  0  0  0  0  0  0  0  0  0  0  0
    1.4966    2.9042   -2.6056 H   0  0  0  0  0  0  0  0  0  0  0  0
    0.4754    3.1196   -4.0397 H   0  0  0  0  0  0  0  0  0  0  0  0
    1.2978    0.5411   -0.9947 N   0  0  0  0  0  0  0  0  0  0  0  0
    1.5371    0.0807    0.3489 C   0  0  2  0  0  0  0  0  0  0  0  0
    3.0298    0.2332    0.6195 C   0  0  0  0  0  0  0  0  0  0  0  0
    3.7502   -0.7082    0.9447 O   0  0  0  0  0  0  0  0  0  0  0  0
    1.1055   -1.3779    0.5467 C   0  0  0  0  0  0  0  0  0  0  0  0
   -0.4073   -1.5835    0.4474 C   0  0  0  0  0  0  0  0  0  0  0  0
   -0.8349   -3.0292    0.6187 C   0  0  0  0  0  0  0  0  0  0  0  0
   -0.0519   -3.9657    0.7481 O   0  0  0  0  0  0  0  0  0  0  0  0
   -2.2049   -3.1778    0.5871 N   0  0  0  0  0  0  0  0  0  0  0  0
    2.0949    0.6178   -1.6227 H   0  0  0  0  0  0  0  0  0  0  0  0
    0.9838    0.7521    1.0141 H   0  0  0  0  0  0  0  0  0  0  0  0
    1.5905   -2.0038   -0.2143 H   0  0  0  0  0  0  0  0  0  0  0  0
    1.4617   -1.7471    1.5167 H   0  0  0  0  0  0  0  0  0  0  0  0
   -0.7409   -1.2685   -0.5491 H   0  0  0  0  0  0  0  0  0  0  0  0
   -0.9338   -0.9602    1.1788 H   0  0  0  0  0  0  0  0  0  0  0  0
   -2.7833   -2.3542    0.4589 H   0  0  0  0  0  0  0  0  0  0  0  0
   -2.6558   -4.0816    0.6874 H   0  0  0  0  0  0  0  0  0  0  0  0
    3.4472    1.5518    0.5032 N   0  0  0  0  0  0  0  0  0  0  0  0
    4.8104    1.9753    0.7291 C   0  0  2  0  0  0  0  0  0  0  0  0
    5.7273    1.0491   -0.0589 C   0  0  0  0  0  0  0  0  0  0  0  0
    5.3965   -0.0809   -0.4121 O   0  0  0  0  0  0  0  0  0  0  0  0
    5.1583    1.9542    2.2094 C   0  0  0  0  0  0  0  0  0  0  0  0
    2.7601    2.2544    0.2465 H   0  0  0  0  0  0  0  0  0  0  0  0
    4.8942    2.9944    0.3359 H   0  0  0  0  0  0  0  0  0  0  0  0
    5.0799    0.9413    2.6210 H   0  0  0  0  0  0  0  0  0  0  0  0
    6.1821    2.3025    2.3814 H   0  0  0  0  0  0  0  0  0  0  0  0
    4.4790    2.5978    2.7786 H   0  0  0  0  0  0  0  0  0  0  0  0
    6.9738    1.6164   -0.2839 N   0  0  0  0  0  0  0  0  0  0  0  0
    8.0249    0.9308   -0.9988 C   0  0  0  0  0  0  0  0  0  0  0  0
    7.1544    2.5660    0.0283 H   0  0  0  0  0  0  0  0  0  0  0  0
    8.6634    0.3910   -0.2841 H   0  0  0  0  0  0  0  0  0  0  0  0
    7.5805    0.2152   -1.7063 H   0  0  0  0  0  0  0  0  0  0  0  0
    8.6312    1.6639   -1.5510 H   0  0  0  0  0  0  0  0  0  0  0  0
  1  3  1  0  0  0  0
  1  7  1  0  0  0  0
  1  2  2  0  0  0  0
 22 23  1  0  0  0  0
 23 25  1  0  0  0  0
 23 24  2  0  0  0  0
 35 36  1  0  0  0  0
 36 44  1  0  0  0  0
 36 37  2  0  0  0  0
  8  9  1  0  0  0  0
  9 17  1  0  0  0  0
  9 10  2  0  0  0  0
 18 19  1  0  0  0  0
 19 34  1  0  0  0  0
 19 20  2  0  0  0  0
 35 38  1  0  0  0  0
  8 11  1  0  0  0  0
 44 45  1  0  0  0  0
 21 22  1  0  0  0  0
 18 21  1  0  0  0  0
 34 35  1  0  0  0  0
  7  8  1  0  0  0  0
 17 18  1  0  0  0  0
  3  4  1  0  0  0  0
  3  5  1  0  0  0  0
  3  6  1  0  0  0  0
 38 41  1  0  0  0  0
 38 42  1  0  0  0  0
 38 43  1  0  0  0  0
 11 14  1  0  0  0  0
 11 15  1  0  0  0  0
 11 16  1  0  0  0  0
 45 47  1  0  0  0  0
 45 48  1  0  0  0  0
 45 49  1  0  0  0  0
 22 30  1  0  0  0  0
 22 31  1  0  0  0  0
 21 28  1  0  0  0  0
 21 29  1  0  0  0  0
 35 40  1  0  0  0  0
  8 13  1  0  0  0  0
 18 27  1  0  0  0  0
 25 32  1  0  0  0  0
 25 33  1  0  0  0  0
 44 46  1  0  0  0  0
  7 12  1  0  0  0  0
 34 39  1  0  0  0  0
 17 26  1  0  0  0  0
M  END
$$$$

  -OEChem-05262214473D

 49 48  0     1  0  0  0  0  0999 V2000
   -1.9833   -0.0509   -3.3423 C   0  0  0  0  0  0  0  0  0  0  0  0
   -1.6199   -1.0613   -2.7518 O   0  0  0  0  0  0  0  0  0  0  0  0
   -3.3243   -0.0235   -3.9975 C   0  0  0  0  0  0  0  0  0  0  0  0
   -3.2886   -0.3689   -5.0432 H   0  0  0  0  0  0  0  0  0  0  0  0
   -4.0503   -0.6845   -3.4973 H   0  0  0  0  0  0  0  0  0  0  0  0
   -3.8104    0.9645   -4.0351 H   0  0  0  0  0  0  0  0  0  0  0  0
   -1.2607    1.1231   -3.4768 N   0  0  0  0  0  0  0  0  0  0  0  0
    0.0536    1.3115   -2.9213 C   0  0  2  0  0  0  0  0  0  0  0  0
    0.0266    0.8315   -1.4761 C   0  0  0  0  0  0  0  0  0  0  0  0
   -1.0065    0.7530   -0.8146 O   0  0  0  0  0  0  0  0  0  0  0  0
    0.4852    2.7674   -3.0025 C   0  0  0  0  0  0  0  0  0  0  0  0
   -1.6809    1.8924   -3.9952 H   0  0  0  0  0  0  0  0  0  0  0  0
    0.7360    0.6822   -3.5030 H   0  0  0  0  0  0  0  0  0  0  0  0
   -0.1867    3.4133   -2.4256 H   0  0  0  0  0  0  0  0  0  0  0  0
    1.4966    2.9042   -2.6056 H   0  0  0  0  0  0  0  0  0  0  0  0
    0.4754    3.1196   -4.0397 H   0  0  0  0  0  0  0  0  0  0  0  0
    1.2978    0.5411   -0.9947 N   0  0  0  0  0  0  0  0  0  0  0  0
    1.5371    0.0807    0.3489 C   0  0  2  0  0  0  0  0  0  0  0  0
    3.0298    0.2332    0.6195 C   0  0  0  0  0  0  0  0  0  0  0  0
    3.7996   -0.7231    0.6804 O   0  0  0  0  0  0  0  0  0  0  0  0
    1.1055   -1.3779    0.5467 C   0  0  0  0  0  0  0  0  0  0  0  0
   -0.4073   -1.5835    0.4474 C   0  0  0  0  0  0  0  0  0  0  0  0
   -0.8349   -3.0292    0.6187 C   0  0  0  0  0  0  0  0  0  0  0  0
   -0.0519   -3.9657    0.7481 O   0  0  0  0  0  0  0  0  0  0  0  0
   -2.2049   -3.1778    0.5871 N   0  0  0  0  0  0  0  0  0  0  0  0
    2.0949    0.6178   -1.6227 H   0  0  0  0  0  0  0  0  0  0  0  0
    0.9838    0.7521    1.0141 H   0  0  0  0  0  0  0  0  0  0  0  0
    1.5905   -2.0038   -0.2143 H   0  0  0  0  0  0  0  0  0  0  0  0
    1.4617   -1.7471    1.5167 H   0  0  0  0  0  0  0  0  0  0  0  0
   -0.7409   -1.2685   -0.5491 H   0  0  0  0  0  0  0  0  0  0  0  0
   -0.9338   -0.9602    1.1788 H   0  0  0  0  0  0  0  0  0  0  0  0
   -2.7833   -2.3542    0.4589 H   0  0  0  0  0  0  0  0  0  0  0  0
   -2.6558   -4.0816    0.6874 H   0  0  0  0  0  0  0  0  0  0  0  0
    3.3867    1.5573    0.8336 N   0  0  0  0  0  0  0  0  0  0  0  0
    4.7372    1.9766    1.1324 C   0  0  2  0  0  0  0  0  0  0  0  0
    5.6672    1.3260    0.1169 C   0  0  0  0  0  0  0  0  0  0  0  0
    5.3737    0.3071   -0.5051 O   0  0  0  0  0  0  0  0  0  0  0  0
    5.1326    1.5991    2.5515 C   0  0  0  0  0  0  0  0  0  0  0  0
    2.6625    2.2672    0.7776 H   0  0  0  0  0  0  0  0  0  0  0  0
    4.7650    3.0647    1.0094 H   0  0  0  0  0  0  0  0  0  0  0  0
    5.1105    0.5124    2.6939 H   0  0  0  0  0  0  0  0  0  0  0  0
    6.1456    1.9426    2.7858 H   0  0  0  0  0  0  0  0  0  0  0  0
    4.4449    2.0436    3.2790 H   0  0  0  0  0  0  0  0  0  0  0  0
    6.8806    1.9924    0.0184 N   0  0  0  0  0  0  0  0  0  0  0  0
    7.9366    1.5624   -0.8680 C   0  0  0  0  0  0  0  0  0  0  0  0
    7.0304    2.8399    0.5580 H   0  0  0  0  0  0  0  0  0  0  0  0
    8.6200    0.8916   -0.3267 H   0  0  0  0  0  0  0  0  0  0  0  0
    7.5009    1.0279   -1.7250 H   0  0  0  0  0  0  0  0  0  0  0  0
    8.4933    2.4402   -1.2279 H   0  0  0  0  0  0  0  0  0  0  0  0
  1  3  1  0  0  0  0
  1  7  1  0  0  0  0
  1  2  2  0  0  0  0
 22 23  1  0  0  0  0
 23 25  1  0  0  0  0
 23 24  2  0  0  0  0
 35 36  1  0  0  0  0
 36 44  1  0  0  0  0
 36 37  2  0  0  0  0
  8  9  1  0  0  0  0
  9 17  1  0  0  0  0
  9 10  2  0  0  0  0
 18 19  1  0  0  0  0
 19 34  1  0  0  0  0
 19 20  2  0  0  0  0
 35 38  1  0  0  0  0
  8 11  1  0  0  0  0
 44 45  1  0  0  0  0
 21 22  1  0  0  0  0
 18 21  1  0  0  0  0
 34 35  1  0  0  0  0
  7  8  1  0  0  0  0
 17 18  1  0  0  0  0
  3  4  1  0  0  0  0
  3  5  1  0  0  0  0
  3  6  1  0  0  0  0
 38 41  1  0  0  0  0
 38 42  1  0  0  0  0
 38 43  1  0  0  0  0
 11 14  1  0  0  0  0
 11 15  1  0  0  0  0
 11 16  1  0  0  0  0
 45 47  1  0  0  0  0
 45 48  1  0  0  0  0
 45 49  1  0  0  0  0
 22 30  1  0  0  0  0
 22 31  1  0  0  0  0
 21 28  1  0  0  0  0
 21 29  1  0  0  0  0
 35 40  1  0  0  0  0
  8 13  1  0  0  0  0
 18 27  1  0  0  0  0
 25 32  1  0  0  0  0
 25 33  1  0  0  0  0
 44 46  1  0  0  0  0
  7 12  1  0  0  0  0
 34 39  1  0  0  0  0
 17 26  1  0  0  0  0
M  END
$$$$

  -OEChem-05262214473D

 49 48  0     1  0  0  0  0  0999 V2000
   -1.9833   -0.0509   -3.3423 C   0  0  0  0  0  0  0  0  0  0  0  0
   -1.6199   -1.0613   -2.7518 O   0  0  0  0  0  0  0  0  0  0  0  0
   -3.3243   -0.0235   -3.9975 C   0  0  0  0  0  0  0  0  0  0  0  0
   -3.2886   -0.3689   -5.0432 H   0  0  0  0  0  0  0  0  0  0  0  0
   -4.0503   -0.6845   -3.4973 H   0  0  0  0  0  0  0  0  0  0  0  0
   -3.8104    0.9645   -4.0351 H   0  0  0  0  0  0  0  0  0  0  0  0
   -1.2607    1.1231   -3.4768 N   0  0  0  0  0  0  0  0  0  0  0  0
    0.0536    1.3115   -2.9213 C   0  0  2  0  0  0  0  0  0  0  0  0
    0.0266    0.8315   -1.4761 C   0  0  0  0  0  0  0  0  0  0  0  0
   -1.0065    0.7530   -0.8146 O   0  0  0  0  0  0  0  0  0  0  0  0
    0.4852    2.7674   -3.0025 C   0  0  0  0  0  0  0  0  0  0  0  0
   -1.6809    1.8924   -3.9952 H   0  0  0  0  0  0  0  0  0  0  0  0
    0.7360    0.6822   -3.5030 H   0  0  0  0  0  0  0  0  0  0  0  0
   -0.1867    3.4133   -2.4256 H   0  0  0  0  0  0  0  0  0  0  0  0
    1.4966    2.9042   -2.6056 H   0  0  0  0  0  0  0  0  0  0  0  0
    0.4754    3.1196   -4.0397 H   0  0  0  0  0  0  0  0  0  0  0  0
    1.2978    0.5411   -0.9947 N   0  0  0  0  0  0  0  0  0  0  0  0
    1.5371    0.0807    0.3489 C   0  0  2  0  0  0  0  0  0  0  0  0
    3.0298    0.2332    0.6195 C   0  0  0  0  0  0  0  0  0  0  0  0
    3.8412   -0.6683    0.4201 O   0  0  0  0  0  0  0  0  0  0  0  0
    1.1055   -1.3779    0.5467 C   0  0  0  0  0  0  0  0  0  0  0  0
   -0.4073   -1.5835    0.4474 C   0  0  0  0  0  0  0  0  0  0  0  0
   -0.8349   -3.0292    0.6187 C   0  0  0  0  0  0  0  0  0  0  0  0
   -0.0519   -3.9657    0.7481 O   0  0  0  0  0  0  0  0  0  0  0  0
   -2.2049   -3.1778    0.5871 N   0  0  0  0  0  0  0  0  0  0  0  0
    2.0949    0.6178   -1.6227 H   0  0  0  0  0  0  0  0  0  0  0  0
    0.9838    0.7521    1.0141 H   0  0  0  0  0  0  0  0  0  0  0  0
    1.5905   -2.0038   -0.2143 H   0  0  0  0  0  0  0  0  0  0  0  0
    1.4617   -1.7471    1.5167 H   0  0  0  0  0  0  0  0  0  0  0  0
   -0.7409   -1.2685   -0.5491 H   0  0  0  0  0  0  0  0  0  0  0  0
   -0.9338   -0.9602    1.1788 H   0  0  0  0  0  0  0  0  0  0  0  0
   -2.7833   -2.3542    0.4589 H   0  0  0  0  0  0  0  0  0  0  0  0
   -2.6558   -4.0816    0.6874 H   0  0  0  0  0  0  0  0  0  0  0  0
    3.3367    1.4760    1.1558 N   0  0  0  0  0  0  0  0  0  0  0  0
    4.6768    1.8722    1.5242 C   0  0  2  0  0  0  0  0  0  0  0  0
    5.6009    1.5461    0.3584 C   0  0  0  0  0  0  0  0  0  0  0  0
    5.3315    0.7043   -0.4960 O   0  0  0  0  0  0  0  0  0  0  0  0
    5.1329    1.1682    2.7927 C   0  0  0  0  0  0  0  0  0  0  0  0
    2.5814    2.1405    1.2963 H   0  0  0  0  0  0  0  0  0  0  0  0
    4.6543    2.9561    1.6810 H   0  0  0  0  0  0  0  0  0  0  0  0
    5.1617    0.0811    2.6548 H   0  0  0  0  0  0  0  0  0  0  0  0
    6.1373    1.4908    3.0863 H   0  0  0  0  0  0  0  0  0  0  0  0
    4.4504    1.3799    3.6228 H   0  0  0  0  0  0  0  0  0  0  0  0
    6.7811    2.2747    0.4082 N   0  0  0  0  0  0  0  0  0  0  0  0
    7.8257    2.1353   -0.5793 C   0  0  0  0  0  0  0  0  0  0  0  0
    6.9117    2.9646    1.1422 H   0  0  0  0  0  0  0  0  0  0  0  0
    8.5540    1.3840   -0.2399 H   0  0  0  0  0  0  0  0  0  0  0  0
    7.3861    1.8140   -1.5351 H   0  0  0  0  0  0  0  0  0  0  0  0
    8.3328    3.1019   -0.7155 H   0  0  0  0  0  0  0  0  0  0  0  0
  1  3  1  0  0  0  0
  1  7  1  0  0  0  0
  1  2  2  0  0  0  0
 22 23  1  0  0  0  0
 23 25  1  0  0  0  0
 23 24  2  0  0  0  0
 35 36  1  0  0  0  0
 36 44  1  0  0  0  0
 36 37  2  0  0  0  0
  8  9  1  0  0  0  0
  9 17  1  0  0  0  0
  9 10  2  0  0  0  0
 18 19  1  0  0  0  0
 19 34  1  0  0  0  0
 19 20  2  0  0  0  0
 35 38  1  0  0  0  0
  8 11  1  0  0  0  0
 44 45  1  0  0  0  0
 21 22  1  0  0  0  0
 18 21  1  0  0  0  0
 34 35  1  0  0  0  0
  7  8  1  0  0  0  0
 17 18  1  0  0  0  0
  3  4  1  0  0  0  0
  3  5  1  0  0  0  0
  3  6  1  0  0  0  0
 38 41  1  0  0  0  0
 38 42  1  0  0  0  0
 38 43  1  0  0  0  0
 11 14  1  0  0  0  0
 11 15  1  0  0  0  0
 11 16  1  0  0  0  0
 45 47  1  0  0  0  0
 45 48  1  0  0  0  0
 45 49  1  0  0  0  0
 22 30  1  0  0  0  0
 22 31  1  0  0  0  0
 21 28  1  0  0  0  0
 21 29  1  0  0  0  0
 35 40  1  0  0  0  0
  8 13  1  0  0  0  0
 18 27  1  0  0  0  0
 25 32  1  0  0  0  0
 25 33  1  0  0  0  0
 44 46  1  0  0  0  0
  7 12  1  0  0  0  0
 34 39  1  0  0  0  0
 17 26  1  0  0  0  0
M  END
$$$$

  -OEChem-05262214473D

 49 48  0     1  0  0  0  0  0999 V2000
   -1.9833   -0.0509   -3.3423 C   0  0  0  0  0  0  0  0  0  0  0  0
   -1.6199   -1.0613   -2.7518 O   0  0  0  0  0  0  0  0  0  0  0  0
   -3.3243   -0.0235   -3.9975 C   0  0  0  0  0  0  0  0  0  0  0  0
   -3.2886   -0.3689   -5.0432 H   0  0  0  0  0  0  0  0  0  0  0  0
   -4.0503   -0.6845   -3.4973 H   0  0  0  0  0  0  0  0  0  0  0  0
   -3.8104    0.9645   -4.0351 H   0  0  0  0  0  0  0  0  0  0  0  0
   -1.2607    1.1231   -3.4768 N   0  0  0  0  0  0  0  0  0  0  0  0
    0.0536    1.3115   -2.9213 C   0  0  2  0  0  0  0  0  0  0  0  0
    0.0266    0.8315   -1.4761 C   0  0  0  0  0  0  0  0  0  0  0  0
   -1.0065    0.7530   -0.8146 O   0  0  0  0  0  0  0  0  0  0  0  0
    0.4852    2.7674   -3.0025 C   0  0  0  0  0  0  0  0  0  0  0  0
   -1.6809    1.8924   -3.9952 H   0  0  0  0  0  0  0  0  0  0  0  0
    0.7360    0.6822   -3.5030 H   0  0  0  0  0  0  0  0  0  0  0  0
   -0.1867    3.4133   -2.4256 H   0  0  0  0  0  0  0  0  0  0  0  0
    1.4966    2.9042   -2.6056 H   0  0  0  0  0  0  0  0  0  0  0  0
    0.4754    3.1196   -4.0397 H   0  0  0  0  0  0  0  0  0  0  0  0
    1.2978    0.5411   -0.9947 N   0  0  0  0  0  0  0  0  0  0  0  0
    1.5371    0.0807    0.3489 C   0  0  2  0  0  0  0  0  0  0  0  0
    3.0298    0.2332    0.6195 C   0  0  0  0  0  0  0  0  0  0  0  0
    3.8721   -0.5476    0.1815 O   0  0  0  0  0  0  0  0  0  0  0  0
    1.1055   -1.3779    0.5467 C   0  0  0  0  0  0  0  0  0  0  0  0
   -0.4073   -1.5835    0.4474 C   0  0  0  0  0  0  0  0  0  0  0  0
   -0.8349   -3.0292    0.6187 C   0  0  0  0  0  0  0  0  0  0  0  0
   -0.0519   -3.9657    0.7481 O   0  0  0  0  0  0  0  0  0  0  0  0
   -2.2049   -3.1778    0.5871 N   0  0  0  0  0  0  0  0  0  0  0  0
    2.0949    0.6178   -1.6227 H   0  0  0  0  0  0  0  0  0  0  0  0
    0.9838    0.7521    1.0141 H   0  0  0  0  0  0  0  0  0  0  0  0
    1.5905   -2.0038   -0.2143 H   0  0  0  0  0  0  0  0  0  0  0  0
    1.4617   -1.7471    1.5167 H   0  0  0  0  0  0  0  0  0  0  0  0
   -0.7409   -1.2685   -0.5491 H   0  0  0  0  0  0  0  0  0  0  0  0
   -0.9338   -0.9602    1.1788 H   0  0  0  0  0  0  0  0  0  0  0  0
   -2.7833   -2.3542    0.4589 H   0  0  0  0  0  0  0  0  0  0  0  0
   -2.6558   -4.0816    0.6874 H   0  0  0  0  0  0  0  0  0  0  0  0
    3.3004    1.3137    1.4476 N   0  0  0  0  0  0  0  0  0  0  0  0
    4.6335    1.6693    1.8777 C   0  0  2  0  0  0  0  0  0  0  0  0
    5.5331    1.6945    0.6491 C   0  0  0  0  0  0  0  0  0  0  0  0
    5.2727    1.0838   -0.3855 O   0  0  0  0  0  0  0  0  0  0  0  0
    5.1592    0.6909    2.9164 C   0  0  0  0  0  0  0  0  0  0  0  0
    2.5224    1.8830    1.7674 H   0  0  0  0  0  0  0  0  0  0  0  0
    4.5699    2.6760    2.3052 H   0  0  0  0  0  0  0  0  0  0  0  0
    5.2299   -0.3232    2.5064 H   0  0  0  0  0  0  0  0  0  0  0  0
    6.1578    0.9779    3.2623 H   0  0  0  0  0  0  0  0  0  0  0  0
    4.4951    0.6520    3.7866 H   0  0  0  0  0  0  0  0  0  0  0  0
    6.6821    2.4441    0.8588 N   0  0  0  0  0  0  0  0  0  0  0  0
    7.6998    2.6104   -0.1524 C   0  0  0  0  0  0  0  0  0  0  0  0
    6.8065    2.9316    1.7412 H   0  0  0  0  0  0  0  0  0  0  0  0
    8.4698    1.8345   -0.0295 H   0  0  0  0  0  0  0  0  0  0  0  0
    7.2441    2.5199   -1.1495 H   0  0  0  0  0  0  0  0  0  0  0  0
    8.1607    3.6038   -0.0487 H   0  0  0  0  0  0  0  0  0  0  0  0
  1  3  1  0  0  0  0
  1  7  1  0  0  0  0
  1  2  2  0  0  0  0
 22 23  1  0  0  0  0
 23 25  1  0  0  0  0
 23 24  2  0  0  0  0
 35 36  1  0  0  0  0
 36 44  1  0  0  0  0
 36 37  2  0  0  0  0
  8  9  1  0  0  0  0
  9 17  1  0  0  0  0
  9 10  2  0  0  0  0
 18 19  1  0  0  0  0
 19 34  1  0  0  0  0
 19 20  2  0  0  0  0
 35 38  1  0  0  0  0
  8 11  1  0  0  0  0
 44 45  1  0  0  0  0
 21 22  1  0  0  0  0
 18 21  1  0  0  0  0
 34 35  1  0  0  0  0
  7  8  1  0  0  0  0
 17 18  1  0  0  0  0
  3  4  1  0  0  0  0
  3  5  1  0  0  0  0
  3  6  1  0  0  0  0
 38 41  1  0  0  0  0
 38 42  1  0  0  0  0
 38 43  1  0  0  0  0
 11 14  1  0  0  0  0
 11 15  1  0  0  0  0
 11 16  1  0  0  0  0
 45 47  1  0  0  0  0
 45 48  1  0  0  0  0
 45 49  1  0  0  0  0
 22 30  1  0  0  0  0
 22 31  1  0  0  0  0
 21 28  1  0  0  0  0
 21 29  1  0  0  0  0
 35 40  1  0  0  0  0
  8 13  1  0  0  0  0
 18 27  1  0  0  0  0
 25 32  1  0  0  0  0
 25 33  1  0  0  0  0
 44 46  1  0  0  0  0
  7 12  1  0  0  0  0
 34 39  1  0  0  0  0
 17 26  1  0  0  0  0
M  END
$$$$

  -OEChem-05262214473D

 49 48  0     1  0  0  0  0  0999 V2000
   -1.9833   -0.0509   -3.3423 C   0  0  0  0  0  0  0  0  0  0  0  0
   -1.6199   -1.0613   -2.7518 O   0  0  0  0  0  0  0  0  0  0  0  0
   -3.3243   -0.0235   -3.9975 C   0  0  0  0  0  0  0  0  0  0  0  0
   -3.2886   -0.3689   -5.0432 H   0  0  0  0  0  0  0  0  0  0  0  0
   -4.0503   -0.6845   -3.4973 H   0  0  0  0  0  0  0  0  0  0  0  0
   -3.8104    0.9645   -4.0351 H   0  0  0  0  0  0  0  0  0  0  0  0
   -1.2607    1.1231   -3.4768 N   0  0  0  0  0  0  0  0  0  0  0  0
    0.0536    1.3115   -2.9213 C   0  0  2  0  0  0  0  0  0  0  0  0
    0.0266    0.8315   -1.4761 C   0  0  0  0  0  0  0  0  0  0  0  0
   -1.0065    0.7530   -0.8146 O   0  0  0  0  0  0  0  0  0  0  0  0
    0.4852    2.7674   -3.0025 C   0  0  0  0  0  0  0  0  0  0  0  0
   -1.6809    1.8924   -3.9952 H   0  0  0  0  0  0  0  0  0  0  0  0
    0.7360    0.6822   -3.5030 H   0  0  0  0  0  0  0  0  0  0  0  0
   -0.1867    3.4133   -2.4256 H   0  0  0  0  0  0  0  0  0  0  0  0
    1.4966    2.9042   -2.6056 H   0  0  0  0  0  0  0  0  0  0  0  0
    0.4754    3.1196   -4.0397 H   0  0  0  0  0  0  0  0  0  0  0  0
    1.2978    0.5411   -0.9947 N   0  0  0  0  0  0  0  0  0  0  0  0
    1.5371    0.0807    0.3489 C   0  0  2  0  0  0  0  0  0  0  0  0
    3.0298    0.2332    0.6195 C   0  0  0  0  0  0  0  0  0  0  0  0
    3.8903   -0.3690   -0.0192 O   0  0  0  0  0  0  0  0  0  0  0  0
    1.1055   -1.3779    0.5467 C   0  0  0  0  0  0  0  0  0  0  0  0
   -0.4073   -1.5835    0.4474 C   0  0  0  0  0  0  0  0  0  0  0  0
   -0.8349   -3.0292    0.6187 C   0  0  0  0  0  0  0  0  0  0  0  0
   -0.0519   -3.9657    0.7481 O   0  0  0  0  0  0  0  0  0  0  0  0
   -2.2049   -3.1778    0.5871 N   0  0  0  0  0  0  0  0  0  0  0  0
    2.0949    0.6178   -1.6227 H   0  0  0  0  0  0  0  0  0  0  0  0
    0.9838    0.7521    1.0141 H   0  0  0  0  0  0  0  0  0  0  0  0
    1.5905   -2.0038   -0.2143 H   0  0  0  0  0  0  0  0  0  0  0  0
    1.4617   -1.7471    1.5167 H   0  0  0  0  0  0  0  0  0  0  0  0
   -0.7409   -1.2685   -0.5491 H   0  0  0  0  0  0  0  0  0  0  0  0
   -0.9338   -0.9602    1.1788 H   0  0  0  0  0  0  0  0  0  0  0  0
   -2.7833   -2.3542    0.4589 H   0  0  0  0  0  0  0  0  0  0  0  0
   -2.6558   -4.0816    0.6874 H   0  0  0  0  0  0  0  0  0  0  0  0
    3.2803    1.0812    1.6893 N   0  0  0  0  0  0  0  0  0  0  0  0
    4.6101    1.3818    2.1690 C   0  0  2  0  0  0  0  0  0  0  0  0
    5.4682    1.7610    0.9693 C   0  0  0  0  0  0  0  0  0  0  0  0
    5.2013    1.4197   -0.1811 O   0  0  0  0  0  0  0  0  0  0  0  0
    5.2098    0.1997    2.9144 C   0  0  0  0  0  0  0  0  0  0  0  0
    2.4893    1.5122    2.1587 H   0  0  0  0  0  0  0  0  0  0  0  0
    4.5173    2.2433    2.8392 H   0  0  0  0  0  0  0  0  0  0  0  0
    5.3105   -0.6731    2.2589 H   0  0  0  0  0  0  0  0  0  0  0  0
    6.2057    0.4388    3.3017 H   0  0  0  0  0  0  0  0  0  0  0  0
    4.5759   -0.0906    3.7592 H   0  0  0  0  0  0  0  0  0  0  0  0
    6.5904    2.4889    1.3395 N   0  0  0  0  0  0  0  0  0  0  0  0
    7.5674    2.9554    0.3836 C   0  0  0  0  0  0  0  0  0  0  0  0
    6.7220    2.7431    2.3141 H   0  0  0  0  0  0  0  0  0  0  0  0
    8.3733    2.2126    0.2900 H   0  0  0  0  0  0  0  0  0  0  0  0
    7.0845    3.0975   -0.5944 H   0  0  0  0  0  0  0  0  0  0  0  0
    7.9886    3.9118    0.7270 H   0  0  0  0  0  0  0  0  0  0  0  0
  1  3  1  0  0  0  0
  1  7  1  0  0  0  0
  1  2  2  0  0  0  0
 22 23  1  0  0  0  0
 23 25  1  0  0  0  0
 23 24  2  0  0  0  0
 35 36  1  0  0  0  0
 36 44  1  0  0  0  0
 36 37  2  0  0  0  0
  8  9  1  0  0  0  0
  9 17  1  0  0  0  0
  9 10  2  0  0  0  0
 18 19  1  0  0  0  0
 19 34  1  0  0  0  0
 19 20  2  0  0  0  0
 35 38  1  0  0  0  0
  8 11  1  0  0  0  0
 44 45  1  0  0  0  0
 21 22  1  0  0  0  0
 18 21  1  0  0  0  0
 34 35  1  0  0  0  0
  7  8  1  0  0  0  0
 17 18  1  0  0  0  0
  3  4  1  0  0  0  0
  3  5  1  0  0  0  0
  3  6  1  0  0  0  0
 38 41  1  0  0  0  0
 38 42  1  0  0  0  0
 38 43  1  0  0  0  0
 11 14  1  0  0  0  0
 11 15  1  0  0  0  0
 11 16  1  0  0  0  0
 45 47  1  0  0  0  0
 45 48  1  0  0  0  0
 45 49  1  0  0  0  0
 22 30  1  0  0  0  0
 22 31  1  0  0  0  0
 21 28  1  0  0  0  0
 21 29  1  0  0  0  0
 35 40  1  0  0  0  0
  8 13  1  0  0  0  0
 18 27  1  0  0  0  0
 25 32  1  0  0  0  0
 25 33  1  0  0  0  0
 44 46  1  0  0  0  0
  7 12  1  0  0  0  0
 34 39  1  0  0  0  0
 17 26  1  0  0  0  0
M  END
$$$$

  -OEChem-05262214473D

 49 48  0     1  0  0  0  0  0999 V2000
   -1.9833   -0.0509   -3.3423 C   0  0  0  0  0  0  0  0  0  0  0  0
   -1.6199   -1.0613   -2.7518 O   0  0  0  0  0  0  0  0  0  0  0  0
   -3.3243   -0.0235   -3.9975 C   0  0  0  0  0  0  0  0  0  0  0  0
   -3.2886   -0.3689   -5.0432 H   0  0  0  0  0  0  0  0  0  0  0  0
   -4.0503   -0.6845   -3.4973 H   0  0  0  0  0  0  0  0  0  0  0  0
   -3.8104    0.9645   -4.0351 H   0  0  0  0  0  0  0  0  0  0  0  0
   -1.2607    1.1231   -3.4768 N   0  0  0  0  0  0  0  0  0  0  0  0
    0.0536    1.3115   -2.9213 C   0  0  2  0  0  0  0  0  0  0  0  0
    0.0266    0.8315   -1.4761 C   0  0  0  0  0  0  0  0  0  0  0  0
   -1.0065    0.7530   -0.8146 O   0  0  0  0  0  0  0  0  0  0  0  0
    0.4852    2.7674   -3.0025 C   0  0  0  0  0  0  0  0  0  0  0  0
   -1.6809    1.8924   -3.9952 H   0  0  0  0  0  0  0  0  0  0  0  0
    0.7360    0.6822   -3.5030 H   0  0  0  0  0  0  0  0  0  0  0  0
   -0.1867    3.4133   -2.4256 H   0  0  0  0  0  0  0  0  0  0  0  0
    1.4966    2.9042   -2.6056 H   0  0  0  0  0  0  0  0  0  0  0  0
    0.4754    3.1196   -4.0397 H   0  0  0  0  0  0  0  0  0  0  0  0
    1.2978    0.5411   -0.9947 N   0  0  0  0  0  0  0  0  0  0  0  0
    1.5371    0.0807    0.3489 C   0  0  2  0  0  0  0  0  0  0  0  0
    3.0298    0.2332    0.6195 C   0  0  0  0  0  0  0  0  0  0  0  0
    3.8944   -0.1449   -0.1682 O   0  0  0  0  0  0  0  0  0  0  0  0
    1.1055   -1.3779    0.5467 C   0  0  0  0  0  0  0  0  0  0  0  0
   -0.4073   -1.5835    0.4474 C   0  0  0  0  0  0  0  0  0  0  0  0
   -0.8349   -3.0292    0.6187 C   0  0  0  0  0  0  0  0  0  0  0  0
   -0.0519   -3.9657    0.7481 O   0  0  0  0  0  0  0  0  0  0  0  0
   -2.2049   -3.1778    0.5871 N   0  0  0  0  0  0  0  0  0  0  0  0
    2.0949    0.6178   -1.6227 H   0  0  0  0  0  0  0  0  0  0  0  0
    0.9838    0.7521    1.0141 H   0  0  0  0  0  0  0  0  0  0  0  0
    1.5905   -2.0038   -0.2143 H   0  0  0  0  0  0  0  0  0  0  0  0
    1.4617   -1.7471    1.5167 H   0  0  0  0  0  0  0  0  0  0  0  0
   -0.7409   -1.2685   -0.5491 H   0  0  0  0  0  0  0  0  0  0  0  0
   -0.9338   -0.9602    1.1788 H   0  0  0  0  0  0  0  0  0  0  0  0
   -2.7833   -2.3542    0.4589 H   0  0  0  0  0  0  0  0  0  0  0  0
   -2.6558   -4.0816    0.6874 H   0  0  0  0  0  0  0  0  0  0  0  0
    3.2779    0.7945    1.8644 N   0  0  0  0  0  0  0  0  0  0  0  0
    4.6082    1.0292    2.3780 C   0  0  2  0  0  0  0  0  0  0  0  0
    5.4108    1.7412    1.2971 C   0  0  0  0  0  0  0  0  0  0  0  0
    5.1223    1.6890    0.1033 O   0  0  0  0  0  0  0  0  0  0  0  0
    5.2811   -0.2719    2.7866 C   0  0  0  0  0  0  0  0  0  0  0  0
    2.4846    1.0533    2.4435 H   0  0  0  0  0  0  0  0  0  0  0  0
    4.5002    1.6876    3.2468 H   0  0  0  0  0  0  0  0  0  0  0  0
    5.3980   -0.9446    1.9291 H   0  0  0  0  0  0  0  0  0  0  0  0
    6.2778   -0.0897    3.2020 H   0  0  0  0  0  0  0  0  0  0  0  0
    4.6874   -0.7972    3.5425 H   0  0  0  0  0  0  0  0  0  0  0  0
    6.5122    2.4062    1.8176 N   0  0  0  0  0  0  0  0  0  0  0  0
    7.4376    3.1467    0.9922 C   0  0  0  0  0  0  0  0  0  0  0  0
    6.6638    2.4119    2.8220 H   0  0  0  0  0  0  0  0  0  0  0  0
    8.2709    2.4923    0.6969 H   0  0  0  0  0  0  0  0  0  0  0  0
    6.9181    3.5075    0.0922 H   0  0  0  0  0  0  0  0  0  0  0  0
    7.8283    4.0048    1.5588 H   0  0  0  0  0  0  0  0  0  0  0  0
  1  3  1  0  0  0  0
  1  7  1  0  0  0  0
  1  2  2  0  0  0  0
 22 23  1  0  0  0  0
 23 25  1  0  0  0  0
 23 24  2  0  0  0  0
 35 36  1  0  0  0  0
 36 44  1  0  0  0  0
 36 37  2  0  0  0  0
  8  9  1  0  0  0  0
  9 17  1  0  0  0  0
  9 10  2  0  0  0  0
 18 19  1  0  0  0  0
 19 34  1  0  0  0  0
 19 20  2  0  0  0  0
 35 38  1  0  0  0  0
  8 11  1  0  0  0  0
 44 45  1  0  0  0  0
 21 22  1  0  0  0  0
 18 21  1  0  0  0  0
 34 35  1  0  0  0  0
  7  8  1  0  0  0  0
 17 18  1  0  0  0  0
  3  4  1  0  0  0  0
  3  5  1  0  0  0  0
  3  6  1  0  0  0  0
 38 41  1  0  0  0  0
 38 42  1  0  0  0  0
 38 43  1  0  0  0  0
 11 14  1  0  0  0  0
 11 15  1  0  0  0  0
 11 16  1  0  0  0  0
 45 47  1  0  0  0  0
 45 48  1  0  0  0  0
 45 49  1  0  0  0  0
 22 30  1  0  0  0  0
 22 31  1  0  0  0  0
 21 28  1  0  0  0  0
 21 29  1  0  0  0  0
 35 40  1  0  0  0  0
  8 13  1  0  0  0  0
 18 27  1  0  0  0  0
 25 32  1  0  0  0  0
 25 33  1  0  0  0  0
 44 46  1  0  0  0  0
  7 12  1  0  0  0  0
 34 39  1  0  0  0  0
 17 26  1  0  0  0  0
M  END
$$$$

  -OEChem-05262214473D

 49 48  0     1  0  0  0  0  0999 V2000
   -1.9833   -0.0509   -3.3423 C   0  0  0  0  0  0  0  0  0  0  0  0
   -1.6199   -1.0613   -2.7518 O   0  0  0  0  0  0  0  0  0  0  0  0
   -3.3243   -0.0235   -3.9975 C   0  0  0  0  0  0  0  0  0  0  0  0
   -3.2886   -0.3689   -5.0432 H   0  0  0  0  0  0  0  0  0  0  0  0
   -4.0503   -0.6845   -3.4973 H   0  0  0  0  0  0  0  0  0  0  0  0
   -3.8104    0.9645   -4.0351 H   0  0  0  0  0  0  0  0  0  0  0  0
   -1.2607    1.1231   -3.4768 N   0  0  0  0  0  0  0  0  0  0  0  0
    0.0536    1.3115   -2.9213 C   0  0  2  0  0  0  0  0  0  0  0  0
    0.0266    0.8315   -1.4761 C   0  0  0  0  0  0  0  0  0  0  0  0
   -1.0065    0.7530   -0.8146 O   0  0  0  0  0  0  0  0  0  0  0  0
    0.4852    2.7674   -3.0025 C   0  0  0  0  0  0  0  0  0  0  0  0
   -1.6809    1.8924   -3.9952 H   0  0  0  0  0  0  0  0  0  0  0  0
    0.7360    0.6822   -3.5030 H   0  0  0  0  0  0  0  0  0  0  0  0
   -0.1867    3.4133   -2.4256 H   0  0  0  0  0  0  0  0  0  0  0  0
    1.4966    2.9042   -2.6056 H   0  0  0  0  0  0  0  0  0  0  0  0
    0.4754    3.1196   -4.0397 H   0  0  0  0  0  0  0  0  0  0  0  0
    1.2978    0.5411   -0.9947 N   0  0  0  0  0  0  0  0  0  0  0  0
    1.5371    0.0807    0.3489 C   0  0  2  0  0  0  0  0  0  0  0  0
    3.0298    0.2332    0.6195 C   0  0  0  0  0  0  0  0  0  0  0  0
    3.8842    0.1096   -0.2555 O   0  0  0  0  0  0  0  0  0  0  0  0
    1.1055   -1.3779    0.5467 C   0  0  0  0  0  0  0  0  0  0  0  0
   -0.4073   -1.5835    0.4474 C   0  0  0  0  0  0  0  0  0  0  0  0
   -0.8349   -3.0292    0.6187 C   0  0  0  0  0  0  0  0  0  0  0  0
   -0.0519   -3.9657    0.7481 O   0  0  0  0  0  0  0  0  0  0  0  0
   -2.2049   -3.1778    0.5871 N   0  0  0  0  0  0  0  0  0  0  0  0
    2.0949    0.6178   -1.6227 H   0  0  0  0  0  0  0  0  0  0  0  0
    0.9838    0.7521    1.0141 H   0  0  0  0  0  0  0  0  0  0  0  0
    1.5905   -2.0038   -0.2143 H   0  0  0  0  0  0  0  0  0  0  0  0
    1.4617   -1.7471    1.5167 H   0  0  0  0  0  0  0  0  0  0  0  0
   -0.7409   -1.2685   -0.5491 H   0  0  0  0  0  0  0  0  0  0  0  0
   -0.9338   -0.9602    1.1788 H   0  0  0  0  0  0  0  0  0  0  0  0
   -2.7833   -2.3542    0.4589 H   0  0  0  0  0  0  0  0  0  0  0  0
   -2.6558   -4.0816    0.6874 H   0  0  0  0  0  0  0  0  0  0  0  0
    3.2932    0.4731    1.9609 N   0  0  0  0  0  0  0  0  0  0  0  0
    4.6280    0.6356    2.4906 C   0  0  2  0  0  0  0  0  0  0  0  0
    5.3648    1.6363    1.6102 C   0  0  0  0  0  0  0  0  0  0  0  0
    5.0409    1.8734    0.4483 O   0  0  0  0  0  0  0  0  0  0  0  0
    5.3684   -0.6918    2.5418 C   0  0  0  0  0  0  0  0  0  0  0  0
    2.5085    0.5377    2.6025 H   0  0  0  0  0  0  0  0  0  0  0  0
    4.5197    1.0468    3.5002 H   0  0  0  0  0  0  0  0  0  0  0  0
    5.4865   -1.1192    1.5394 H   0  0  0  0  0  0  0  0  0  0  0  0
    6.3691   -0.5717    2.9699 H   0  0  0  0  0  0  0  0  0  0  0  0
    4.8219   -1.4196    3.1512 H   0  0  0  0  0  0  0  0  0  0  0  0
    6.4528    2.2016    2.2604 N   0  0  0  0  0  0  0  0  0  0  0  0
    7.3191    3.1714    1.6319 C   0  0  0  0  0  0  0  0  0  0  0  0
    6.6359    1.9607    3.2301 H   0  0  0  0  0  0  0  0  0  0  0  0
    8.1698    2.6547    1.1635 H   0  0  0  0  0  0  0  0  0  0  0  0
    6.7564    3.7219    0.8636 H   0  0  0  0  0  0  0  0  0  0  0  0
    7.6908    3.8765    2.3899 H   0  0  0  0  0  0  0  0  0  0  0  0
  1  3  1  0  0  0  0
  1  7  1  0  0  0  0
  1  2  2  0  0  0  0
 22 23  1  0  0  0  0
 23 25  1  0  0  0  0
 23 24  2  0  0  0  0
 35 36  1  0  0  0  0
 36 44  1  0  0  0  0
 36 37  2  0  0  0  0
  8  9  1  0  0  0  0
  9 17  1  0  0  0  0
  9 10  2  0  0  0  0
 18 19  1  0  0  0  0
 19 34  1  0  0  0  0
 19 20  2  0  0  0  0
 35 38  1  0  0  0  0
  8 11  1  0  0  0  0
 44 45  1  0  0  0  0
 21 22  1  0  0  0  0
 18 21  1  0  0  0  0
 34 35  1  0  0  0  0
  7  8  1  0  0  0  0
 17 18  1  0  0  0  0
  3  4  1  0  0  0  0
  3  5  1  0  0  0  0
  3  6  1  0  0  0  0
 38 41  1  0  0  0  0
 38 42  1  0  0  0  0
 38 43  1  0  0  0  0
 11 14  1  0  0  0  0
 11 15  1  0  0  0  0
 11 16  1  0  0  0  0
 45 47  1  0  0  0  0
 45 48  1  0  0  0  0
 45 49  1  0  0  0  0
 22 30  1  0  0  0  0
 22 31  1  0  0  0  0
 21 28  1  0  0  0  0
 21 29  1  0  0  0  0
 35 40  1  0  0  0  0
  8 13  1  0  0  0  0
 18 27  1  0  0  0  0
 25 32  1  0  0  0  0
 25 33  1  0  0  0  0
 44 46  1  0  0  0  0
  7 12  1  0  0  0  0
 34 39  1  0  0  0  0
 17 26  1  0  0  0  0
M  END
$$$$

  -OEChem-05262214473D

 49 48  0     1  0  0  0  0  0999 V2000
   -1.9833   -0.0509   -3.3423 C   0  0  0  0  0  0  0  0  0  0  0  0
   -1.6199   -1.0613   -2.7518 O   0  0  0  0  0  0  0  0  0  0  0  0
   -3.3243   -0.0235   -3.9975 C   0  0  0  0  0  0  0  0  0  0  0  0
   -3.2886   -0.3689   -5.0432 H   0  0  0  0  0  0  0  0  0  0  0  0
   -4.0503   -0.6845   -3.4973 H   0  0  0  0  0  0  0  0  0  0  0  0
   -3.8104    0.9645   -4.0351 H   0  0  0  0  0  0  0  0  0  0  0  0
   -1.2607    1.1231   -3.4768 N   0  0  0  0  0  0  0  0  0  0  0  0
    0.0536    1.3115   -2.9213 C   0  0  2  0  0  0  0  0  0  0  0  0
    0.0266    0.8315   -1.4761 C   0  0  0  0  0  0  0  0  0  0  0  0
   -1.0065    0.7530   -0.8146 O   0  0  0  0  0  0  0  0  0  0  0  0
    0.4852    2.7674   -3.0025 C   0  0  0  0  0  0  0  0  0  0  0  0
   -1.6809    1.8924   -3.9952 H   0  0  0  0  0  0  0  0  0  0  0  0
    0.7360    0.6822   -3.5030 H   0  0  0  0  0  0  0  0  0  0  0  0
   -0.1867    3.4133   -2.4256 H   0  0  0  0  0  0  0  0  0  0  0  0
    1.4966    2.9042   -2.6056 H   0  0  0  0  0  0  0  0  0  0  0  0
    0.4754    3.1196   -4.0397 H   0  0  0  0  0  0  0  0  0  0  0  0
    1.2978    0.5411   -0.9947 N   0  0  0  0  0  0  0  0  0  0  0  0
    1.5371    0.0807    0.3489 C   0  0  2  0  0  0  0  0  0  0  0  0
    3.0298    0.2332    0.6195 C   0  0  0  0  0  0  0  0  0  0  0  0
    3.8604    0.3770   -0.2751 O   0  0  0  0  0  0  0  0  0  0  0  0
    1.1055   -1.3779    0.5467 C   0  0  0  0  0  0  0  0  0  0  0  0
   -0.4073   -1.5835    0.4474 C   0  0  0  0  0  0  0  0  0  0  0  0
   -0.8349   -3.0292    0.6187 C   0  0  0  0  0  0  0  0  0  0  0  0
   -0.0519   -3.9657    0.7481 O   0  0  0  0  0  0  0  0  0  0  0  0
   -2.2049   -3.1778    0.5871 N   0  0  0  0  0  0  0  0  0  0  0  0
    2.0949    0.6178   -1.6227 H   0  0  0  0  0  0  0  0  0  0  0  0
    0.9838    0.7521    1.0141 H   0  0  0  0  0  0  0  0  0  0  0  0
    1.5905   -2.0038   -0.2143 H   0  0  0  0  0  0  0  0  0  0  0  0
    1.4617   -1.7471    1.5167 H   0  0  0  0  0  0  0  0  0  0  0  0
   -0.7409   -1.2685   -0.5491 H   0  0  0  0  0  0  0  0  0  0  0  0
   -0.9338   -0.9602    1.1788 H   0  0  0  0  0  0  0  0  0  0  0  0
   -2.7833   -2.3542    0.4589 H   0  0  0  0  0  0  0  0  0  0  0  0
   -2.6558   -4.0816    0.6874 H   0  0  0  0  0  0  0  0  0  0  0  0
    3.3253    0.1389    1.9723 N   0  0  0  0  0  0  0  0  0  0  0  0
    4.6681    0.2277    2.4992 C   0  0  2  0  0  0  0  0  0  0  0  0
    5.3333    1.4536    1.8873 C   0  0  0  0  0  0  0  0  0  0  0  0
    4.9627    1.9604    0.8304 O   0  0  0  0  0  0  0  0  0  0  0  0
    5.4657   -1.0313    2.1967 C   0  0  0  0  0  0  0  0  0  0  0  0
    2.5593    0.0004    2.6248 H   0  0  0  0  0  0  0  0  0  0  0  0
    4.5746    0.3646    3.5820 H   0  0  0  0  0  0  0  0  0  0  0  0
    5.5699   -1.1851    1.1165 H   0  0  0  0  0  0  0  0  0  0  0  0
    6.4734   -0.9742    2.6212 H   0  0  0  0  0  0  0  0  0  0  0  0
    4.9703   -1.9156    2.6120 H   0  0  0  0  0  0  0  0  0  0  0  0
    6.4164    1.8890    2.6379 N   0  0  0  0  0  0  0  0  0  0  0  0
    7.2201    3.0276    2.2591 C   0  0  0  0  0  0  0  0  0  0  0  0
    6.6403    1.4201    3.5107 H   0  0  0  0  0  0  0  0  0  0  0  0
    8.0767    2.6887    1.6579 H   0  0  0  0  0  0  0  0  0  0  0  0
    6.6103    3.7261    1.6672 H   0  0  0  0  0  0  0  0  0  0  0  0
    7.5854    3.5357    3.1638 H   0  0  0  0  0  0  0  0  0  0  0  0
  1  3  1  0  0  0  0
  1  7  1  0  0  0  0
  1  2  2  0  0  0  0
 22 23  1  0  0  0  0
 23 25  1  0  0  0  0
 23 24  2  0  0  0  0
 35 36  1  0  0  0  0
 36 44  1  0  0  0  0
 36 37  2  0  0  0  0
  8  9  1  0  0  0  0
  9 17  1  0  0  0  0
  9 10  2  0  0  0  0
 18 19  1  0  0  0  0
 19 34  1  0  0  0  0
 19 20  2  0  0  0  0
 35 38  1  0  0  0  0
  8 11  1  0  0  0  0
 44 45  1  0  0  0  0
 21 22  1  0  0  0  0
 18 21  1  0  0  0  0
 34 35  1  0  0  0  0
  7  8  1  0  0  0  0
 17 18  1  0  0  0  0
  3  4  1  0  0  0  0
  3  5  1  0  0  0  0
  3  6  1  0  0  0  0
 38 41  1  0  0  0  0
 38 42  1  0  0  0  0
 38 43  1  0  0  0  0
 11 14  1  0  0  0  0
 11 15  1  0  0  0  0
 11 16  1  0  0  0  0
 45 47  1  0  0  0  0
 45 48  1  0  0  0  0
 45 49  1  0  0  0  0
 22 30  1  0  0  0  0
 22 31  1  0  0  0  0
 21 28  1  0  0  0  0
 21 29  1  0  0  0  0
 35 40  1  0  0  0  0
  8 13  1  0  0  0  0
 18 27  1  0  0  0  0
 25 32  1  0  0  0  0
 25 33  1  0  0  0  0
 44 46  1  0  0  0  0
  7 12  1  0  0  0  0
 34 39  1  0  0  0  0
 17 26  1  0  0  0  0
M  END
$$$$

  -OEChem-05262214473D

 49 48  0     1  0  0  0  0  0999 V2000
   -1.9833   -0.0509   -3.3423 C   0  0  0  0  0  0  0  0  0  0  0  0
   -1.6199   -1.0613   -2.7518 O   0  0  0  0  0  0  0  0  0  0  0  0
   -3.3243   -0.0235   -3.9975 C   0  0  0  0  0  0  0  0  0  0  0  0
   -3.2886   -0.3689   -5.0432 H   0  0  0  0  0  0  0  0  0  0  0  0
   -4.0503   -0.6845   -3.4973 H   0  0  0  0  0  0  0  0  0  0  0  0
   -3.8104    0.9645   -4.0351 H   0  0  0  0  0  0  0  0  0  0  0  0
   -1.2607    1.1231   -3.4768 N   0  0  0  0  0  0  0  0  0  0  0  0
    0.0536    1.3115   -2.9213 C   0  0  2  0  0  0  0  0  0  0  0  0
    0.0266    0.8315   -1.4761 C   0  0  0  0  0  0  0  0  0  0  0  0
   -1.0065    0.7530   -0.8146 O   0  0  0  0  0  0  0  0  0  0  0  0
    0.4852    2.7674   -3.0025 C   0  0  0  0  0  0  0  0  0  0  0  0
   -1.6809    1.8924   -3.9952 H   0  0  0  0  0  0  0  0  0  0  0  0
    0.7360    0.6822   -3.5030 H   0  0  0  0  0  0  0  0  0  0  0  0
   -0.1867    3.4133   -2.4256 H   0  0  0  0  0  0  0  0  0  0  0  0
    1.4966    2.9042   -2.6056 H   0  0  0  0  0  0  0  0  0  0  0  0
    0.4754    3.1196   -4.0397 H   0  0  0  0  0  0  0  0  0  0  0  0
    1.2978    0.5411   -0.9947 N   0  0  0  0  0  0  0  0  0  0  0  0
    1.5371    0.0807    0.3489 C   0  0  2  0  0  0  0  0  0  0  0  0
    2.9223    0.5719    0.7546 C   0  0  0  0  0  0  0  0  0  0  0  0
    3.6575    1.2009   -0.0035 O   0  0  0  0  0  0  0  0  0  0  0  0
    1.4593   -1.4472    0.4599 C   0  0  0  0  0  0  0  0  0  0  0  0
    0.0543   -2.0037    0.2211 C   0  0  0  0  0  0  0  0  0  0  0  0
   -0.0207   -3.5168    0.3067 C   0  0  0  0  0  0  0  0  0  0  0  0
    0.9541   -4.2440    0.4736 O   0  0  0  0  0  0  0  0  0  0  0  0
   -1.3067   -3.9875    0.1497 N   0  0  0  0  0  0  0  0  0  0  0  0
    2.0949    0.6178   -1.6227 H   0  0  0  0  0  0  0  0  0  0  0  0
    0.7873    0.5636    0.9845 H   0  0  0  0  0  0  0  0  0  0  0  0
    2.1394   -1.8973   -0.2756 H   0  0  0  0  0  0  0  0  0  0  0  0
    1.8184   -1.7714    1.4449 H   0  0  0  0  0  0  0  0  0  0  0  0
   -0.2677   -1.7254   -0.7900 H   0  0  0  0  0  0  0  0  0  0  0  0
   -0.6630   -1.5646    0.9234 H   0  0  0  0  0  0  0  0  0  0  0  0
   -2.0564   -3.3209   -0.0018 H   0  0  0  0  0  0  0  0  0  0  0  0
   -1.5306   -4.9770    0.1802 H   0  0  0  0  0  0  0  0  0  0  0  0
    3.2559    0.1801    2.0437 N   0  0  0  0  0  0  0  0  0  0  0  0
    4.5212    0.4959    2.6665 C   0  0  2  0  0  0  0  0  0  0  0  0
    4.7831    1.9835    2.4713 C   0  0  0  0  0  0  0  0  0  0  0  0
    4.2610    2.6448    1.5763 O   0  0  0  0  0  0  0  0  0  0  0  0
    5.6502   -0.3364    2.0789 C   0  0  0  0  0  0  0  0  0  0  0  0
    2.5766   -0.3555    2.5761 H   0  0  0  0  0  0  0  0  0  0  0  0
    4.4102    0.2812    3.7349 H   0  0  0  0  0  0  0  0  0  0  0  0
    5.7765   -0.1348    1.0089 H   0  0  0  0  0  0  0  0  0  0  0  0
    6.6032   -0.1165    2.5714 H   0  0  0  0  0  0  0  0  0  0  0  0
    5.4460   -1.4064    2.1936 H   0  0  0  0  0  0  0  0  0  0  0  0
    5.7018    2.4763    3.3875 N   0  0  0  0  0  0  0  0  0  0  0  0
    6.1259    3.8568    3.4007 C   0  0  0  0  0  0  0  0  0  0  0  0
    6.0695    1.8606    4.1069 H   0  0  0  0  0  0  0  0  0  0  0  0
    7.0338    3.9679    2.7897 H   0  0  0  0  0  0  0  0  0  0  0  0
    5.3266    4.4898    2.9879 H   0  0  0  0  0  0  0  0  0  0  0  0
    6.3401    4.1646    4.4348 H   0  0  0  0  0  0  0  0  0  0  0  0
  1  3  1  0  0  0  0
  1  7  1  0  0  0  0
  1  2  2  0  0  0  0
 22 23  1  0  0  0  0
 23 25  1  0  0  0  0
 23 24  2  0  0  0  0
 35 36  1  0  0  0  0
 36 44  1  0  0  0  0
 36 37  2  0  0  0  0
  8  9  1  0  0  0  0
  9 17  1  0  0  0  0
  9 10  2  0  0  0  0
 18 19  1  0  0  0  0
 19 34  1  0  0  0  0
 19 20  2  0  0  0  0
 35 38  1  0  0  0  0
  8 11  1  0  0  0  0
 44 45  1  0  0  0  0
 21 22  1  0  0  0  0
 18 21  1  0  0  0  0
 34 35  1  0  0  0  0
  7  8  1  0  0  0  0
 17 18  1  0  0  0  0
  3  4  1  0  0  0  0
  3  5  1  0  0  0  0
  3  6  1  0  0  0  0
 38 41  1  0  0  0  0
 38 42  1  0  0  0  0
 38 43  1  0  0  0  0
 11 14  1  0  0  0  0
 11 15  1  0  0  0  0
 11 16  1  0  0  0  0
 45 47  1  0  0  0  0
 45 48  1  0  0  0  0
 45 49  1  0  0  0  0
 22 30  1  0  0  0  0
 22 31  1  0  0  0  0
 21 28  1  0  0  0  0
 21 29  1  0  0  0  0
 35 40  1  0  0  0  0
  8 13  1  0  0  0  0
 18 27  1  0  0  0  0
 25 32  1  0  0  0  0
 25 33  1  0  0  0  0
 44 46  1  0  0  0  0
  7 12  1  0  0  0  0
 34 39  1  0  0  0  0
 17 26  1  0  0  0  0
M  END
$$$$

  -OEChem-05262214473D

 49 48  0     1  0  0  0  0  0999 V2000
   -1.9833   -0.0509   -3.3423 C   0  0  0  0  0  0  0  0  0  0  0  0
   -1.6199   -1.0613   -2.7518 O   0  0  0  0  0  0  0  0  0  0  0  0
   -3.3243   -0.0235   -3.9975 C   0  0  0  0  0  0  0  0  0  0  0  0
   -3.2886   -0.3689   -5.0432 H   0  0  0  0  0  0  0  0  0  0  0  0
   -4.0503   -0.6845   -3.4973 H   0  0  0  0  0  0  0  0  0  0  0  0
   -3.8104    0.9645   -4.0351 H   0  0  0  0  0  0  0  0  0  0  0  0
   -1.2607    1.1231   -3.4768 N   0  0  0  0  0  0  0  0  0  0  0  0
    0.0536    1.3115   -2.9213 C   0  0  2  0  0  0  0  0  0  0  0  0
    0.0266    0.8315   -1.4761 C   0  0  0  0  0  0  0  0  0  0  0  0
   -1.0065    0.7530   -0.8146 O   0  0  0  0  0  0  0  0  0  0  0  0
    0.4852    2.7674   -3.0025 C   0  0  0  0  0  0  0  0  0  0  0  0
   -1.6809    1.8924   -3.9952 H   0  0  0  0  0  0  0  0  0  0  0  0
    0.7360    0.6822   -3.5030 H   0  0  0  0  0  0  0  0  0  0  0  0
   -0.1867    3.4133   -2.4256 H   0  0  0  0  0  0  0  0  0  0  0  0
    1.4966    2.9042   -2.6056 H   0  0  0  0  0  0  0  0  0  0  0  0
    0.4754    3.1196   -4.0397 H   0  0  0  0  0  0  0  0  0  0  0  0
    1.2978    0.5411   -0.9947 N   0  0  0  0  0  0  0  0  0  0  0  0
    1.5371    0.0807    0.3489 C   0  0  2  0  0  0  0  0  0  0  0  0
    2.9223    0.5719    0.7546 C   0  0  0  0  0  0  0  0  0  0  0  0
    3.5466    1.4157    0.1150 O   0  0  0  0  0  0  0  0  0  0  0  0
    1.4593   -1.4472    0.4599 C   0  0  0  0  0  0  0  0  0  0  0  0
    0.0543   -2.0037    0.2211 C   0  0  0  0  0  0  0  0  0  0  0  0
   -0.0207   -3.5168    0.3067 C   0  0  0  0  0  0  0  0  0  0  0  0
    0.9541   -4.2440    0.4736 O   0  0  0  0  0  0  0  0  0  0  0  0
   -1.3067   -3.9875    0.1497 N   0  0  0  0  0  0  0  0  0  0  0  0
    2.0949    0.6178   -1.6227 H   0  0  0  0  0  0  0  0  0  0  0  0
    0.7873    0.5636    0.9845 H   0  0  0  0  0  0  0  0  0  0  0  0
    2.1394   -1.8973   -0.2756 H   0  0  0  0  0  0  0  0  0  0  0  0
    1.8184   -1.7714    1.4449 H   0  0  0  0  0  0  0  0  0  0  0  0
   -0.2677   -1.7254   -0.7900 H   0  0  0  0  0  0  0  0  0  0  0  0
   -0.6630   -1.5646    0.9234 H   0  0  0  0  0  0  0  0  0  0  0  0
   -2.0564   -3.3209   -0.0018 H   0  0  0  0  0  0  0  0  0  0  0  0
   -1.5306   -4.9770    0.1802 H   0  0  0  0  0  0  0  0  0  0  0  0
    3.3951   -0.0810    1.8846 N   0  0  0  0  0  0  0  0  0  0  0  0
    4.6914    0.1804    2.4677 C   0  0  2  0  0  0  0  0  0  0  0  0
    4.8462    1.6885    2.6132 C   0  0  0  0  0  0  0  0  0  0  0  0
    4.2062    2.4962    1.9431 O   0  0  0  0  0  0  0  0  0  0  0  0
    5.8088   -0.4011    1.6157 C   0  0  0  0  0  0  0  0  0  0  0  0
    2.8002   -0.7774    2.3236 H   0  0  0  0  0  0  0  0  0  0  0  0
    4.6915   -0.2847    3.4596 H   0  0  0  0  0  0  0  0  0  0  0  0
    5.8245    0.0528    0.6181 H   0  0  0  0  0  0  0  0  0  0  0  0
    6.7883   -0.2271    2.0734 H   0  0  0  0  0  0  0  0  0  0  0  0
    5.6794   -1.4812    1.4874 H   0  0  0  0  0  0  0  0  0  0  0  0
    5.8143    2.0259    3.5487 N   0  0  0  0  0  0  0  0  0  0  0  0
    6.1558    3.3946    3.8583 C   0  0  0  0  0  0  0  0  0  0  0  0
    6.2820    1.2909    4.0711 H   0  0  0  0  0  0  0  0  0  0  0  0
    6.9958    3.7158    3.2248 H   0  0  0  0  0  0  0  0  0  0  0  0
    5.2861    4.0411    3.6692 H   0  0  0  0  0  0  0  0  0  0  0  0
    6.4453    3.4698    4.9168 H   0  0  0  0  0  0  0  0  0  0  0  0
  1  3  1  0  0  0  0
  1  7  1  0  0  0  0
  1  2  2  0  0  0  0
 22 23  1  0  0  0  0
 23 25  1  0  0  0  0
 23 24  2  0  0  0  0
 35 36  1  0  0  0  0
 36 44  1  0  0  0  0
 36 37  2  0  0  0  0
  8  9  1  0  0  0  0
  9 17  1  0  0  0  0
  9 10  2  0  0  0  0
 18 19  1  0  0  0  0
 19 34  1  0  0  0  0
 19 20  2  0  0  0  0
 35 38  1  0  0  0  0
  8 11  1  0  0  0  0
 44 45  1  0  0  0  0
 21 22  1  0  0  0  0
 18 21  1  0  0  0  0
 34 35  1  0  0  0  0
  7  8  1  0  0  0  0
 17 18  1  0  0  0  0
  3  4  1  0  0  0  0
  3  5  1  0  0  0  0
  3  6  1  0  0  0  0
 38 41  1  0  0  0  0
 38 42  1  0  0  0  0
 38 43  1  0  0  0  0
 11 14  1  0  0  0  0
 11 15  1  0  0  0  0
 11 16  1  0  0  0  0
 45 47  1  0  0  0  0
 45 48  1  0  0  0  0
 45 49  1  0  0  0  0
 22 30  1  0  0  0  0
 22 31  1  0  0  0  0
 21 28  1  0  0  0  0
 21 29  1  0  0  0  0
 35 40  1  0  0  0  0
  8 13  1  0  0  0  0
 18 27  1  0  0  0  0
 25 32  1  0  0  0  0
 25 33  1  0  0  0  0
 44 46  1  0  0  0  0
  7 12  1  0  0  0  0
 34 39  1  0  0  0  0
 17 26  1  0  0  0  0
M  END
$$$$

  -OEChem-05262214473D

 49 48  0     1  0  0  0  0  0999 V2000
   -1.9833   -0.0509   -3.3423 C   0  0  0  0  0  0  0  0  0  0  0  0
   -1.6199   -1.0613   -2.7518 O   0  0  0  0  0  0  0  0  0  0  0  0
   -3.3243   -0.0235   -3.9975 C   0  0  0  0  0  0  0  0  0  0  0  0
   -3.2886   -0.3689   -5.0432 H   0  0  0  0  0  0  0  0  0  0  0  0
   -4.0503   -0.6845   -3.4973 H   0  0  0  0  0  0  0  0  0  0  0  0
   -3.8104    0.9645   -4.0351 H   0  0  0  0  0  0  0  0  0  0  0  0
   -1.2607    1.1231   -3.4768 N   0  0  0  0  0  0  0  0  0  0  0  0
    0.0536    1.3115   -2.9213 C   0  0  2  0  0  0  0  0  0  0  0  0
    0.0266    0.8315   -1.4761 C   0  0  0  0  0  0  0  0  0  0  0  0
   -1.0065    0.7530   -0.8146 O   0  0  0  0  0  0  0  0  0  0  0  0
    0.4852    2.7674   -3.0025 C   0  0  0  0  0  0  0  0  0  0  0  0
   -1.6809    1.8924   -3.9952 H   0  0  0  0  0  0  0  0  0  0  0  0
    0.7360    0.6822   -3.5030 H   0  0  0  0  0  0  0  0  0  0  0  0
   -0.1867    3.4133   -2.4256 H   0  0  0  0  0  0  0  0  0  0  0  0
    1.4966    2.9042   -2.6056 H   0  0  0  0  0  0  0  0  0  0  0  0
    0.4754    3.1196   -4.0397 H   0  0  0  0  0  0  0  0  0  0  0  0
    1.2978    0.5411   -0.9947 N   0  0  0  0  0  0  0  0  0  0  0  0
    1.5371    0.0807    0.3489 C   0  0  2  0  0  0  0  0  0  0  0  0
    2.9223    0.5719    0.7546 C   0  0  0  0  0  0  0  0  0  0  0  0
    3.4346    1.5877    0.2893 O   0  0  0  0  0  0  0  0  0  0  0  0
    1.4593   -1.4472    0.4599 C   0  0  0  0  0  0  0  0  0  0  0  0
    0.0543   -2.0037    0.2211 C   0  0  0  0  0  0  0  0  0  0  0  0
   -0.0207   -3.5168    0.3067 C   0  0  0  0  0  0  0  0  0  0  0  0
    0.9541   -4.2440    0.4736 O   0  0  0  0  0  0  0  0  0  0  0  0
   -1.3067   -3.9875    0.1497 N   0  0  0  0  0  0  0  0  0  0  0  0
    2.0949    0.6178   -1.6227 H   0  0  0  0  0  0  0  0  0  0  0  0
    0.7873    0.5636    0.9845 H   0  0  0  0  0  0  0  0  0  0  0  0
    2.1394   -1.8973   -0.2756 H   0  0  0  0  0  0  0  0  0  0  0  0
    1.8184   -1.7714    1.4449 H   0  0  0  0  0  0  0  0  0  0  0  0
   -0.2677   -1.7254   -0.7900 H   0  0  0  0  0  0  0  0  0  0  0  0
   -0.6630   -1.5646    0.9234 H   0  0  0  0  0  0  0  0  0  0  0  0
   -2.0564   -3.3209   -0.0018 H   0  0  0  0  0  0  0  0  0  0  0  0
   -1.5306   -4.9770    0.1802 H   0  0  0  0  0  0  0  0  0  0  0  0
    3.5342   -0.2861    1.6578 N   0  0  0  0  0  0  0  0  0  0  0  0
    4.8608   -0.0660    2.1874 C   0  0  2  0  0  0  0  0  0  0  0  0
    4.9393    1.3745    2.6756 C   0  0  0  0  0  0  0  0  0  0  0  0
    4.1941    2.2627    2.2672 O   0  0  0  0  0  0  0  0  0  0  0  0
    5.9278   -0.3438    1.1399 C   0  0  0  0  0  0  0  0  0  0  0  0
    3.0241   -1.1101    1.9619 H   0  0  0  0  0  0  0  0  0  0  0  0
    4.9793   -0.7472    3.0371 H   0  0  0  0  0  0  0  0  0  0  0  0
    5.8253    0.3292    0.2808 H   0  0  0  0  0  0  0  0  0  0  0  0
    6.9331   -0.2041    1.5509 H   0  0  0  0  0  0  0  0  0  0  0  0
    5.8510   -1.3713    0.7683 H   0  0  0  0  0  0  0  0  0  0  0  0
    5.9674    1.5607    3.5891 N   0  0  0  0  0  0  0  0  0  0  0  0
    6.2546    2.8427    4.1890 C   0  0  0  0  0  0  0  0  0  0  0  0
    6.5235    0.7637    3.8848 H   0  0  0  0  0  0  0  0  0  0  0  0
    7.0127    3.3673    3.5890 H   0  0  0  0  0  0  0  0  0  0  0  0
    5.3347    3.4447    4.2253 H   0  0  0  0  0  0  0  0  0  0  0  0
    6.6350    2.6925    5.2102 H   0  0  0  0  0  0  0  0  0  0  0  0
  1  3  1  0  0  0  0
  1  7  1  0  0  0  0
  1  2  2  0  0  0  0
 22 23  1  0  0  0  0
 23 25  1  0  0  0  0
 23 24  2  0  0  0  0
 35 36  1  0  0  0  0
 36 44  1  0  0  0  0
 36 37  2  0  0  0  0
  8  9  1  0  0  0  0
  9 17  1  0  0  0  0
  9 10  2  0  0  0  0
 18 19  1  0  0  0  0
 19 34  1  0  0  0  0
 19 20  2  0  0  0  0
 35 38  1  0  0  0  0
  8 11  1  0  0  0  0
 44 45  1  0  0  0  0
 21 22  1  0  0  0  0
 18 21  1  0  0  0  0
 34 35  1  0  0  0  0
  7  8  1  0  0  0  0
 17 18  1  0  0  0  0
  3  4  1  0  0  0  0
  3  5  1  0  0  0  0
  3  6  1  0  0  0  0
 38 41  1  0  0  0  0
 38 42  1  0  0  0  0
 38 43  1  0  0  0  0
 11 14  1  0  0  0  0
 11 15  1  0  0  0  0
 11 16  1  0  0  0  0
 45 47  1  0  0  0  0
 45 48  1  0  0  0  0
 45 49  1  0  0  0  0
 22 30  1  0  0  0  0
 22 31  1  0  0  0  0
 21 28  1  0  0  0  0
 21 29  1  0  0  0  0
 35 40  1  0  0  0  0
  8 13  1  0  0  0  0
 18 27  1  0  0  0  0
 25 32  1  0  0  0  0
 25 33  1  0  0  0  0
 44 46  1  0  0  0  0
  7 12  1  0  0  0  0
 34 39  1  0  0  0  0
 17 26  1  0  0  0  0
M  END
$$$$

  -OEChem-05262214473D

 49 48  0     1  0  0  0  0  0999 V2000
   -1.9833   -0.0509   -3.3423 C   0  0  0  0  0  0  0  0  0  0  0  0
   -1.6199   -1.0613   -2.7518 O   0  0  0  0  0  0  0  0  0  0  0  0
   -3.3243   -0.0235   -3.9975 C   0  0  0  0  0  0  0  0  0  0  0  0
   -3.2886   -0.3689   -5.0432 H   0  0  0  0  0  0  0  0  0  0  0  0
   -4.0503   -0.6845   -3.4973 H   0  0  0  0  0  0  0  0  0  0  0  0
   -3.8104    0.9645   -4.0351 H   0  0  0  0  0  0  0  0  0  0  0  0
   -1.2607    1.1231   -3.4768 N   0  0  0  0  0  0  0  0  0  0  0  0
    0.0536    1.3115   -2.9213 C   0  0  2  0  0  0  0  0  0  0  0  0
    0.0266    0.8315   -1.4761 C   0  0  0  0  0  0  0  0  0  0  0  0
   -1.0065    0.7530   -0.8146 O   0  0  0  0  0  0  0  0  0  0  0  0
    0.4852    2.7674   -3.0025 C   0  0  0  0  0  0  0  0  0  0  0  0
   -1.6809    1.8924   -3.9952 H   0  0  0  0  0  0  0  0  0  0  0  0
    0.7360    0.6822   -3.5030 H   0  0  0  0  0  0  0  0  0  0  0  0
   -0.1867    3.4133   -2.4256 H   0  0  0  0  0  0  0  0  0  0  0  0
    1.4966    2.9042   -2.6056 H   0  0  0  0  0  0  0  0  0  0  0  0
    0.4754    3.1196   -4.0397 H   0  0  0  0  0  0  0  0  0  0  0  0
    1.2978    0.5411   -0.9947 N   0  0  0  0  0  0  0  0  0  0  0  0
    1.5371    0.0807    0.3489 C   0  0  2  0  0  0  0  0  0  0  0  0
    2.9223    0.5719    0.7546 C   0  0  0  0  0  0  0  0  0  0  0  0
    3.3291    1.7051    0.5073 O   0  0  0  0  0  0  0  0  0  0  0  0
    1.4593   -1.4472    0.4599 C   0  0  0  0  0  0  0  0  0  0  0  0
    0.0543   -2.0037    0.2211 C   0  0  0  0  0  0  0  0  0  0  0  0
   -0.0207   -3.5168    0.3067 C   0  0  0  0  0  0  0  0  0  0  0  0
    0.9541   -4.2440    0.4736 O   0  0  0  0  0  0  0  0  0  0  0  0
   -1.3067   -3.9875    0.1497 N   0  0  0  0  0  0  0  0  0  0  0  0
    2.0949    0.6178   -1.6227 H   0  0  0  0  0  0  0  0  0  0  0  0
    0.7873    0.5636    0.9845 H   0  0  0  0  0  0  0  0  0  0  0  0
    2.1394   -1.8973   -0.2756 H   0  0  0  0  0  0  0  0  0  0  0  0
    1.8184   -1.7714    1.4449 H   0  0  0  0  0  0  0  0  0  0  0  0
   -0.2677   -1.7254   -0.7900 H   0  0  0  0  0  0  0  0  0  0  0  0
   -0.6630   -1.5646    0.9234 H   0  0  0  0  0  0  0  0  0  0  0  0
   -2.0564   -3.3209   -0.0018 H   0  0  0  0  0  0  0  0  0  0  0  0
   -1.5306   -4.9770    0.1802 H   0  0  0  0  0  0  0  0  0  0  0  0
    3.6639   -0.4214    1.3790 N   0  0  0  0  0  0  0  0  0  0  0  0
    5.0181   -0.2264    1.8445 C   0  0  2  0  0  0  0  0  0  0  0  0
    5.0560    1.0629    2.6543 C   0  0  0  0  0  0  0  0  0  0  0  0
    4.2255    1.9601    2.5262 O   0  0  0  0  0  0  0  0  0  0  0  0
    5.9992   -0.1683    0.6839 C   0  0  0  0  0  0  0  0  0  0  0  0
    3.2332   -1.3311    1.5156 H   0  0  0  0  0  0  0  0  0  0  0  0
    5.2538   -1.0747    2.4962 H   0  0  0  0  0  0  0  0  0  0  0  0
    5.7789    0.6755    0.0199 H   0  0  0  0  0  0  0  0  0  0  0  0
    7.0279   -0.0491    1.0396 H   0  0  0  0  0  0  0  0  0  0  0  0
    5.9493   -1.0842    0.0852 H   0  0  0  0  0  0  0  0  0  0  0  0
    6.1507    1.1123    3.5059 N   0  0  0  0  0  0  0  0  0  0  0  0
    6.4157    2.2385    4.3705 C   0  0  0  0  0  0  0  0  0  0  0  0
    6.7775    0.3149    3.5608 H   0  0  0  0  0  0  0  0  0  0  0  0
    7.0833    2.9463    3.8574 H   0  0  0  0  0  0  0  0  0  0  0  0
    5.4691    2.7413    4.6180 H   0  0  0  0  0  0  0  0  0  0  0  0
    6.8962    1.8858    5.2950 H   0  0  0  0  0  0  0  0  0  0  0  0
  1  3  1  0  0  0  0
  1  7  1  0  0  0  0
  1  2  2  0  0  0  0
 22 23  1  0  0  0  0
 23 25  1  0  0  0  0
 23 24  2  0  0  0  0
 35 36  1  0  0  0  0
 36 44  1  0  0  0  0
 36 37  2  0  0  0  0
  8  9  1  0  0  0  0
  9 17  1  0  0  0  0
  9 10  2  0  0  0  0
 18 19  1  0  0  0  0
 19 34  1  0  0  0  0
 19 20  2  0  0  0  0
 35 38  1  0  0  0  0
  8 11  1  0  0  0  0
 44 45  1  0  0  0  0
 21 22  1  0  0  0  0
 18 21  1  0  0  0  0
 34 35  1  0  0  0  0
  7  8  1  0  0  0  0
 17 18  1  0  0  0  0
  3  4  1  0  0  0  0
  3  5  1  0  0  0  0
  3  6  1  0  0  0  0
 38 41  1  0  0  0  0
 38 42  1  0  0  0  0
 38 43  1  0  0  0  0
 11 14  1  0  0  0  0
 11 15  1  0  0  0  0
 11 16  1  0  0  0  0
 45 47  1  0  0  0  0
 45 48  1  0  0  0  0
 45 49  1  0  0  0  0
 22 30  1  0  0  0  0
 22 31  1  0  0  0  0
 21 28  1  0  0  0  0
 21 29  1  0  0  0  0
 35 40  1  0  0  0  0
  8 13  1  0  0  0  0
 18 27  1  0  0  0  0
 25 32  1  0  0  0  0
 25 33  1  0  0  0  0
 44 46  1  0  0  0  0
  7 12  1  0  0  0  0
 34 39  1  0  0  0  0
 17 26  1  0  0  0  0
M  END
$$$$

  -OEChem-05262214473D

 49 48  0     1  0  0  0  0  0999 V2000
   -1.9833   -0.0509   -3.3423 C   0  0  0  0  0  0  0  0  0  0  0  0
   -1.6199   -1.0613   -2.7518 O   0  0  0  0  0  0  0  0  0  0  0  0
   -3.3243   -0.0235   -3.9975 C   0  0  0  0  0  0  0  0  0  0  0  0
   -3.2886   -0.3689   -5.0432 H   0  0  0  0  0  0  0  0  0  0  0  0
   -4.0503   -0.6845   -3.4973 H   0  0  0  0  0  0  0  0  0  0  0  0
   -3.8104    0.9645   -4.0351 H   0  0  0  0  0  0  0  0  0  0  0  0
   -1.2607    1.1231   -3.4768 N   0  0  0  0  0  0  0  0  0  0  0  0
    0.0536    1.3115   -2.9213 C   0  0  2  0  0  0  0  0  0  0  0  0
    0.0266    0.8315   -1.4761 C   0  0  0  0  0  0  0  0  0  0  0  0
   -1.0065    0.7530   -0.8146 O   0  0  0  0  0  0  0  0  0  0  0  0
    0.4852    2.7674   -3.0025 C   0  0  0  0  0  0  0  0  0  0  0  0
   -1.6809    1.8924   -3.9952 H   0  0  0  0  0  0  0  0  0  0  0  0
    0.7360    0.6822   -3.5030 H   0  0  0  0  0  0  0  0  0  0  0  0
   -0.1867    3.4133   -2.4256 H   0  0  0  0  0  0  0  0  0  0  0  0
    1.4966    2.9042   -2.6056 H   0  0  0  0  0  0  0  0  0  0  0  0
    0.4754    3.1196   -4.0397 H   0  0  0  0  0  0  0  0  0  0  0  0
    1.2978    0.5411   -0.9947 N   0  0  0  0  0  0  0  0  0  0  0  0
    1.5371    0.0807    0.3489 C   0  0  2  0  0  0  0  0  0  0  0  0
    2.9223    0.5719    0.7546 C   0  0  0  0  0  0  0  0  0  0  0  0
    3.2373    1.7600    0.7544 O   0  0  0  0  0  0  0  0  0  0  0  0
    1.4593   -1.4472    0.4599 C   0  0  0  0  0  0  0  0  0  0  0  0
    0.0543   -2.0037    0.2211 C   0  0  0  0  0  0  0  0  0  0  0  0
   -0.0207   -3.5168    0.3067 C   0  0  0  0  0  0  0  0  0  0  0  0
    0.9541   -4.2440    0.4736 O   0  0  0  0  0  0  0  0  0  0  0  0
   -1.3067   -3.9875    0.1497 N   0  0  0  0  0  0  0  0  0  0  0  0
    2.0949    0.6178   -1.6227 H   0  0  0  0  0  0  0  0  0  0  0  0
    0.7873    0.5636    0.9845 H   0  0  0  0  0  0  0  0  0  0  0  0
    2.1394   -1.8973   -0.2756 H   0  0  0  0  0  0  0  0  0  0  0  0
    1.8184   -1.7714    1.4449 H   0  0  0  0  0  0  0  0  0  0  0  0
   -0.2677   -1.7254   -0.7900 H   0  0  0  0  0  0  0  0  0  0  0  0
   -0.6630   -1.5646    0.9234 H   0  0  0  0  0  0  0  0  0  0  0  0
   -2.0564   -3.3209   -0.0018 H   0  0  0  0  0  0  0  0  0  0  0  0
   -1.5306   -4.9770    0.1802 H   0  0  0  0  0  0  0  0  0  0  0  0
    3.7752   -0.4776    1.0670 N   0  0  0  0  0  0  0  0  0  0  0  0
    5.1525   -0.2898    1.4625 C   0  0  2  0  0  0  0  0  0  0  0  0
    5.1884    0.7750    2.5507 C   0  0  0  0  0  0  0  0  0  0  0  0
    4.2983    1.6090    2.7027 O   0  0  0  0  0  0  0  0  0  0  0  0
    6.0180    0.1133    0.2788 C   0  0  0  0  0  0  0  0  0  0  0  0
    3.4132   -1.4252    1.0151 H   0  0  0  0  0  0  0  0  0  0  0  0
    5.4965   -1.2451    1.8739 H   0  0  0  0  0  0  0  0  0  0  0  0
    5.6885    1.0682   -0.1468 H   0  0  0  0  0  0  0  0  0  0  0  0
    7.0662    0.2274    0.5743 H   0  0  0  0  0  0  0  0  0  0  0  0
    5.9675   -0.6395   -0.5153 H   0  0  0  0  0  0  0  0  0  0  0  0
    6.3517    0.7115    3.3049 N   0  0  0  0  0  0  0  0  0  0  0  0
    6.6280    1.6234    4.3903 C   0  0  0  0  0  0  0  0  0  0  0  0
    7.0268   -0.0249    3.1211 H   0  0  0  0  0  0  0  0  0  0  0  0
    7.2030    2.4814    4.0117 H   0  0  0  0  0  0  0  0  0  0  0  0
    5.6801    1.9787    4.8208 H   0  0  0  0  0  0  0  0  0  0  0  0
    7.2111    1.1047    5.1654 H   0  0  0  0  0  0  0  0  0  0  0  0
  1  3  1  0  0  0  0
  1  7  1  0  0  0  0
  1  2  2  0  0  0  0
 22 23  1  0  0  0  0
 23 25  1  0  0  0  0
 23 24  2  0  0  0  0
 35 36  1  0  0  0  0
 36 44  1  0  0  0  0
 36 37  2  0  0  0  0
  8  9  1  0  0  0  0
  9 17  1  0  0  0  0
  9 10  2  0  0  0  0
 18 19  1  0  0  0  0
 19 34  1  0  0  0  0
 19 20  2  0  0  0  0
 35 38  1  0  0  0  0
  8 11  1  0  0  0  0
 44 45  1  0  0  0  0
 21 22  1  0  0  0  0
 18 21  1  0  0  0  0
 34 35  1  0  0  0  0
  7  8  1  0  0  0  0
 17 18  1  0  0  0  0
  3  4  1  0  0  0  0
  3  5  1  0  0  0  0
  3  6  1  0  0  0  0
 38 41  1  0  0  0  0
 38 42  1  0  0  0  0
 38 43  1  0  0  0  0
 11 14  1  0  0  0  0
 11 15  1  0  0  0  0
 11 16  1  0  0  0  0
 45 47  1  0  0  0  0
 45 48  1  0  0  0  0
 45 49  1  0  0  0  0
 22 30  1  0  0  0  0
 22 31  1  0  0  0  0
 21 28  1  0  0  0  0
 21 29  1  0  0  0  0
 35 40  1  0  0  0  0
  8 13  1  0  0  0  0
 18 27  1  0  0  0  0
 25 32  1  0  0  0  0
 25 33  1  0  0  0  0
 44 46  1  0  0  0  0
  7 12  1  0  0  0  0
 34 39  1  0  0  0  0
 17 26  1  0  0  0  0
M  END
$$$$

  -OEChem-05262214473D

 49 48  0     1  0  0  0  0  0999 V2000
   -1.9833   -0.0509   -3.3423 C   0  0  0  0  0  0  0  0  0  0  0  0
   -1.6199   -1.0613   -2.7518 O   0  0  0  0  0  0  0  0  0  0  0  0
   -3.3243   -0.0235   -3.9975 C   0  0  0  0  0  0  0  0  0  0  0  0
   -3.2886   -0.3689   -5.0432 H   0  0  0  0  0  0  0  0  0  0  0  0
   -4.0503   -0.6845   -3.4973 H   0  0  0  0  0  0  0  0  0  0  0  0
   -3.8104    0.9645   -4.0351 H   0  0  0  0  0  0  0  0  0  0  0  0
   -1.2607    1.1231   -3.4768 N   0  0  0  0  0  0  0  0  0  0  0  0
    0.0536    1.3115   -2.9213 C   0  0  2  0  0  0  0  0  0  0  0  0
    0.0266    0.8315   -1.4761 C   0  0  0  0  0  0  0  0  0  0  0  0
   -1.0065    0.7530   -0.8146 O   0  0  0  0  0  0  0  0  0  0  0  0
    0.4852    2.7674   -3.0025 C   0  0  0  0  0  0  0  0  0  0  0  0
   -1.6809    1.8924   -3.9952 H   0  0  0  0  0  0  0  0  0  0  0  0
    0.7360    0.6822   -3.5030 H   0  0  0  0  0  0  0  0  0  0  0  0
   -0.1867    3.4133   -2.4256 H   0  0  0  0  0  0  0  0  0  0  0  0
    1.4966    2.9042   -2.6056 H   0  0  0  0  0  0  0  0  0  0  0  0
    0.4754    3.1196   -4.0397 H   0  0  0  0  0  0  0  0  0  0  0  0
    1.2978    0.5411   -0.9947 N   0  0  0  0  0  0  0  0  0  0  0  0
    1.5371    0.0807    0.3489 C   0  0  2  0  0  0  0  0  0  0  0  0
    2.9223    0.5719    0.7546 C   0  0  0  0  0  0  0  0  0  0  0  0
    3.1654    1.7486    1.0136 O   0  0  0  0  0  0  0  0  0  0  0  0
    1.4593   -1.4472    0.4599 C   0  0  0  0  0  0  0  0  0  0  0  0
    0.0543   -2.0037    0.2211 C   0  0  0  0  0  0  0  0  0  0  0  0
   -0.0207   -3.5168    0.3067 C   0  0  0  0  0  0  0  0  0  0  0  0
    0.9541   -4.2440    0.4736 O   0  0  0  0  0  0  0  0  0  0  0  0
   -1.3067   -3.9875    0.1497 N   0  0  0  0  0  0  0  0  0  0  0  0
    2.0949    0.6178   -1.6227 H   0  0  0  0  0  0  0  0  0  0  0  0
    0.7873    0.5636    0.9845 H   0  0  0  0  0  0  0  0  0  0  0  0
    2.1394   -1.8973   -0.2756 H   0  0  0  0  0  0  0  0  0  0  0  0
    1.8184   -1.7714    1.4449 H   0  0  0  0  0  0  0  0  0  0  0  0
   -0.2677   -1.7254   -0.7900 H   0  0  0  0  0  0  0  0  0  0  0  0
   -0.6630   -1.5646    0.9234 H   0  0  0  0  0  0  0  0  0  0  0  0
   -2.0564   -3.3209   -0.0018 H   0  0  0  0  0  0  0  0  0  0  0  0
   -1.5306   -4.9770    0.1802 H   0  0  0  0  0  0  0  0  0  0  0  0
    3.8605   -0.4509    0.7432 N   0  0  0  0  0  0  0  0  0  0  0  0
    5.2549   -0.2520    1.0673 C   0  0  2  0  0  0  0  0  0  0  0  0
    5.3275    0.5304    2.3720 C   0  0  0  0  0  0  0  0  0  0  0  0
    4.4075    1.2335    2.7846 O   0  0  0  0  0  0  0  0  0  0  0  0
    5.9830    0.4819   -0.0479 C   0  0  0  0  0  0  0  0  0  0  0  0
    3.5517   -1.3860    0.4946 H   0  0  0  0  0  0  0  0  0  0  0  0
    5.6908   -1.2465    1.2125 H   0  0  0  0  0  0  0  0  0  0  0  0
    5.5602    1.4805   -0.2079 H   0  0  0  0  0  0  0  0  0  0  0  0
    7.0453    0.6065    0.1866 H   0  0  0  0  0  0  0  0  0  0  0  0
    5.9044   -0.0675   -0.9923 H   0  0  0  0  0  0  0  0  0  0  0  0
    6.5568    0.3854    2.9997 N   0  0  0  0  0  0  0  0  0  0  0  0
    6.8771    1.0392    4.2471 C   0  0  0  0  0  0  0  0  0  0  0  0
    7.2543   -0.2326    2.5957 H   0  0  0  0  0  0  0  0  0  0  0  0
    7.3635    2.0042    4.0415 H   0  0  0  0  0  0  0  0  0  0  0  0
    5.9534    1.2089    4.8197 H   0  0  0  0  0  0  0  0  0  0  0  0
    7.5583    0.4023    4.8304 H   0  0  0  0  0  0  0  0  0  0  0  0
  1  3  1  0  0  0  0
  1  7  1  0  0  0  0
  1  2  2  0  0  0  0
 22 23  1  0  0  0  0
 23 25  1  0  0  0  0
 23 24  2  0  0  0  0
 35 36  1  0  0  0  0
 36 44  1  0  0  0  0
 36 37  2  0  0  0  0
  8  9  1  0  0  0  0
  9 17  1  0  0  0  0
  9 10  2  0  0  0  0
 18 19  1  0  0  0  0
 19 34  1  0  0  0  0
 19 20  2  0  0  0  0
 35 38  1  0  0  0  0
  8 11  1  0  0  0  0
 44 45  1  0  0  0  0
 21 22  1  0  0  0  0
 18 21  1  0  0  0  0
 34 35  1  0  0  0  0
  7  8  1  0  0  0  0
 17 18  1  0  0  0  0
  3  4  1  0  0  0  0
  3  5  1  0  0  0  0
  3  6  1  0  0  0  0
 38 41  1  0  0  0  0
 38 42  1  0  0  0  0
 38 43  1  0  0  0  0
 11 14  1  0  0  0  0
 11 15  1  0  0  0  0
 11 16  1  0  0  0  0
 45 47  1  0  0  0  0
 45 48  1  0  0  0  0
 45 49  1  0  0  0  0
 22 30  1  0  0  0  0
 22 31  1  0  0  0  0
 21 28  1  0  0  0  0
 21 29  1  0  0  0  0
 35 40  1  0  0  0  0
  8 13  1  0  0  0  0
 18 27  1  0  0  0  0
 25 32  1  0  0  0  0
 25 33  1  0  0  0  0
 44 46  1  0  0  0  0
  7 12  1  0  0  0  0
 34 39  1  0  0  0  0
 17 26  1  0  0  0  0
M  END
$$$$

  -OEChem-05262214473D

 49 48  0     1  0  0  0  0  0999 V2000
   -1.9833   -0.0509   -3.3423 C   0  0  0  0  0  0  0  0  0  0  0  0
   -1.6199   -1.0613   -2.7518 O   0  0  0  0  0  0  0  0  0  0  0  0
   -3.3243   -0.0235   -3.9975 C   0  0  0  0  0  0  0  0  0  0  0  0
   -3.2886   -0.3689   -5.0432 H   0  0  0  0  0  0  0  0  0  0  0  0
   -4.0503   -0.6845   -3.4973 H   0  0  0  0  0  0  0  0  0  0  0  0
   -3.8104    0.9645   -4.0351 H   0  0  0  0  0  0  0  0  0  0  0  0
   -1.2607    1.1231   -3.4768 N   0  0  0  0  0  0  0  0  0  0  0  0
    0.0536    1.3115   -2.9213 C   0  0  2  0  0  0  0  0  0  0  0  0
    0.0266    0.8315   -1.4761 C   0  0  0  0  0  0  0  0  0  0  0  0
   -1.0065    0.7530   -0.8146 O   0  0  0  0  0  0  0  0  0  0  0  0
    0.4852    2.7674   -3.0025 C   0  0  0  0  0  0  0  0  0  0  0  0
   -1.6809    1.8924   -3.9952 H   0  0  0  0  0  0  0  0  0  0  0  0
    0.7360    0.6822   -3.5030 H   0  0  0  0  0  0  0  0  0  0  0  0
   -0.1867    3.4133   -2.4256 H   0  0  0  0  0  0  0  0  0  0  0  0
    1.4966    2.9042   -2.6056 H   0  0  0  0  0  0  0  0  0  0  0  0
    0.4754    3.1196   -4.0397 H   0  0  0  0  0  0  0  0  0  0  0  0
    1.2978    0.5411   -0.9947 N   0  0  0  0  0  0  0  0  0  0  0  0
    1.5371    0.0807    0.3489 C   0  0  2  0  0  0  0  0  0  0  0  0
    2.9223    0.5719    0.7546 C   0  0  0  0  0  0  0  0  0  0  0  0
    3.1184    1.6717    1.2673 O   0  0  0  0  0  0  0  0  0  0  0  0
    1.4593   -1.4472    0.4599 C   0  0  0  0  0  0  0  0  0  0  0  0
    0.0543   -2.0037    0.2211 C   0  0  0  0  0  0  0  0  0  0  0  0
   -0.0207   -3.5168    0.3067 C   0  0  0  0  0  0  0  0  0  0  0  0
    0.9541   -4.2440    0.4736 O   0  0  0  0  0  0  0  0  0  0  0  0
   -1.3067   -3.9875    0.1497 N   0  0  0  0  0  0  0  0  0  0  0  0
    2.0949    0.6178   -1.6227 H   0  0  0  0  0  0  0  0  0  0  0  0
    0.7873    0.5636    0.9845 H   0  0  0  0  0  0  0  0  0  0  0  0
    2.1394   -1.8973   -0.2756 H   0  0  0  0  0  0  0  0  0  0  0  0
    1.8184   -1.7714    1.4449 H   0  0  0  0  0  0  0  0  0  0  0  0
   -0.2677   -1.7254   -0.7900 H   0  0  0  0  0  0  0  0  0  0  0  0
   -0.6630   -1.5646    0.9234 H   0  0  0  0  0  0  0  0  0  0  0  0
   -2.0564   -3.3209   -0.0018 H   0  0  0  0  0  0  0  0  0  0  0  0
   -1.5306   -4.9770    0.1802 H   0  0  0  0  0  0  0  0  0  0  0  0
    3.9142   -0.3430    0.4296 N   0  0  0  0  0  0  0  0  0  0  0  0
    5.3182   -0.1156    0.6860 C   0  0  2  0  0  0  0  0  0  0  0  0
    5.4638    0.3457    2.1302 C   0  0  0  0  0  0  0  0  0  0  0  0
    4.5456    0.8590    2.7662 O   0  0  0  0  0  0  0  0  0  0  0  0
    5.8966    0.9124   -0.2739 C   0  0  0  0  0  0  0  0  0  0  0  0
    3.6395   -1.2162   -0.0106 H   0  0  0  0  0  0  0  0  0  0  0  0
    5.8233   -1.0790    0.5571 H   0  0  0  0  0  0  0  0  0  0  0  0
    5.4028    1.8843   -0.1594 H   0  0  0  0  0  0  0  0  0  0  0  0
    6.9667    1.0625   -0.0970 H   0  0  0  0  0  0  0  0  0  0  0  0
    5.7643    0.5928   -1.3132 H   0  0  0  0  0  0  0  0  0  0  0  0
    6.7518    0.1563    2.6111 N   0  0  0  0  0  0  0  0  0  0  0  0
    7.1460    0.5257    3.9506 C   0  0  0  0  0  0  0  0  0  0  0  0
    7.4446   -0.2940    2.0204 H   0  0  0  0  0  0  0  0  0  0  0  0
    7.5538    1.5473    3.9447 H   0  0  0  0  0  0  0  0  0  0  0  0
    6.2703    0.4845    4.6149 H   0  0  0  0  0  0  0  0  0  0  0  0
    7.9142   -0.1735    4.3126 H   0  0  0  0  0  0  0  0  0  0  0  0
  1  3  1  0  0  0  0
  1  7  1  0  0  0  0
  1  2  2  0  0  0  0
 22 23  1  0  0  0  0
 23 25  1  0  0  0  0
 23 24  2  0  0  0  0
 35 36  1  0  0  0  0
 36 44  1  0  0  0  0
 36 37  2  0  0  0  0
  8  9  1  0  0  0  0
  9 17  1  0  0  0  0
  9 10  2  0  0  0  0
 18 19  1  0  0  0  0
 19 34  1  0  0  0  0
 19 20  2  0  0  0  0
 35 38  1  0  0  0  0
  8 11  1  0  0  0  0
 44 45  1  0  0  0  0
 21 22  1  0  0  0  0
 18 21  1  0  0  0  0
 34 35  1  0  0  0  0
  7  8  1  0  0  0  0
 17 18  1  0  0  0  0
  3  4  1  0  0  0  0
  3  5  1  0  0  0  0
  3  6  1  0  0  0  0
 38 41  1  0  0  0  0
 38 42  1  0  0  0  0
 38 43  1  0  0  0  0
 11 14  1  0  0  0  0
 11 15  1  0  0  0  0
 11 16  1  0  0  0  0
 45 47  1  0  0  0  0
 45 48  1  0  0  0  0
 45 49  1  0  0  0  0
 22 30  1  0  0  0  0
 22 31  1  0  0  0  0
 21 28  1  0  0  0  0
 21 29  1  0  0  0  0
 35 40  1  0  0  0  0
  8 13  1  0  0  0  0
 18 27  1  0  0  0  0
 25 32  1  0  0  0  0
 25 33  1  0  0  0  0
 44 46  1  0  0  0  0
  7 12  1  0  0  0  0
 34 39  1  0  0  0  0
 17 26  1  0  0  0  0
M  END
$$$$

  -OEChem-05262214473D

 49 48  0     1  0  0  0  0  0999 V2000
   -1.9833   -0.0509   -3.3423 C   0  0  0  0  0  0  0  0  0  0  0  0
   -1.6199   -1.0613   -2.7518 O   0  0  0  0  0  0  0  0  0  0  0  0
   -3.3243   -0.0235   -3.9975 C   0  0  0  0  0  0  0  0  0  0  0  0
   -3.2886   -0.3689   -5.0432 H   0  0  0  0  0  0  0  0  0  0  0  0
   -4.0503   -0.6845   -3.4973 H   0  0  0  0  0  0  0  0  0  0  0  0
   -3.8104    0.9645   -4.0351 H   0  0  0  0  0  0  0  0  0  0  0  0
   -1.2607    1.1231   -3.4768 N   0  0  0  0  0  0  0  0  0  0  0  0
    0.0536    1.3115   -2.9213 C   0  0  2  0  0  0  0  0  0  0  0  0
    0.0266    0.8315   -1.4761 C   0  0  0  0  0  0  0  0  0  0  0  0
   -1.0065    0.7530   -0.8146 O   0  0  0  0  0  0  0  0  0  0  0  0
    0.4852    2.7674   -3.0025 C   0  0  0  0  0  0  0  0  0  0  0  0
   -1.6809    1.8924   -3.9952 H   0  0  0  0  0  0  0  0  0  0  0  0
    0.7360    0.6822   -3.5030 H   0  0  0  0  0  0  0  0  0  0  0  0
   -0.1867    3.4133   -2.4256 H   0  0  0  0  0  0  0  0  0  0  0  0
    1.4966    2.9042   -2.6056 H   0  0  0  0  0  0  0  0  0  0  0  0
    0.4754    3.1196   -4.0397 H   0  0  0  0  0  0  0  0  0  0  0  0
    1.2978    0.5411   -0.9947 N   0  0  0  0  0  0  0  0  0  0  0  0
    1.5371    0.0807    0.3489 C   0  0  2  0  0  0  0  0  0  0  0  0
    2.9223    0.5719    0.7546 C   0  0  0  0  0  0  0  0  0  0  0  0
    3.0994    1.5346    1.4981 O   0  0  0  0  0  0  0  0  0  0  0  0
    1.4593   -1.4472    0.4599 C   0  0  0  0  0  0  0  0  0  0  0  0
    0.0543   -2.0037    0.2211 C   0  0  0  0  0  0  0  0  0  0  0  0
   -0.0207   -3.5168    0.3067 C   0  0  0  0  0  0  0  0  0  0  0  0
    0.9541   -4.2440    0.4736 O   0  0  0  0  0  0  0  0  0  0  0  0
   -1.3067   -3.9875    0.1497 N   0  0  0  0  0  0  0  0  0  0  0  0
    2.0949    0.6178   -1.6227 H   0  0  0  0  0  0  0  0  0  0  0  0
    0.7873    0.5636    0.9845 H   0  0  0  0  0  0  0  0  0  0  0  0
    2.1394   -1.8973   -0.2756 H   0  0  0  0  0  0  0  0  0  0  0  0
    1.8184   -1.7714    1.4449 H   0  0  0  0  0  0  0  0  0  0  0  0
   -0.2677   -1.7254   -0.7900 H   0  0  0  0  0  0  0  0  0  0  0  0
   -0.6630   -1.5646    0.9234 H   0  0  0  0  0  0  0  0  0  0  0  0
   -2.0564   -3.3209   -0.0018 H   0  0  0  0  0  0  0  0  0  0  0  0
   -1.5306   -4.9770    0.1802 H   0  0  0  0  0  0  0  0  0  0  0  0
    3.9324   -0.1614    0.1476 N   0  0  0  0  0  0  0  0  0  0  0  0
    5.3381    0.1103    0.3445 C   0  0  2  0  0  0  0  0  0  0  0  0
    5.5880    0.2336    1.8418 C   0  0  0  0  0  0  0  0  0  0  0  0
    4.7033    0.5111    2.6489 O   0  0  0  0  0  0  0  0  0  0  0  0
    5.7646    1.3753   -0.3838 C   0  0  0  0  0  0  0  0  0  0  0  0
    3.6704   -0.9273   -0.4659 H   0  0  0  0  0  0  0  0  0  0  0  0
    5.8852   -0.7540   -0.0477 H   0  0  0  0  0  0  0  0  0  0  0  0
    5.2270    2.2520   -0.0044 H   0  0  0  0  0  0  0  0  0  0  0  0
    6.8357    1.5641   -0.2571 H   0  0  0  0  0  0  0  0  0  0  0  0
    5.5567    1.2965   -1.4563 H   0  0  0  0  0  0  0  0  0  0  0  0
    6.9236    0.0398    2.1657 N   0  0  0  0  0  0  0  0  0  0  0  0
    7.4164    0.1180    3.5211 C   0  0  0  0  0  0  0  0  0  0  0  0
    7.5847   -0.2049    1.4344 H   0  0  0  0  0  0  0  0  0  0  0  0
    7.7610    1.1419    3.7280 H   0  0  0  0  0  0  0  0  0  0  0  0
    6.6092   -0.1453    4.2204 H   0  0  0  0  0  0  0  0  0  0  0  0
    8.2543   -0.5833    3.6474 H   0  0  0  0  0  0  0  0  0  0  0  0
  1  3  1  0  0  0  0
  1  7  1  0  0  0  0
  1  2  2  0  0  0  0
 22 23  1  0  0  0  0
 23 25  1  0  0  0  0
 23 24  2  0  0  0  0
 35 36  1  0  0  0  0
 36 44  1  0  0  0  0
 36 37  2  0  0  0  0
  8  9  1  0  0  0  0
  9 17  1  0  0  0  0
  9 10  2  0  0  0  0
 18 19  1  0  0  0  0
 19 34  1  0  0  0  0
 19 20  2  0  0  0  0
 35 38  1  0  0  0  0
  8 11  1  0  0  0  0
 44 45  1  0  0  0  0
 21 22  1  0  0  0  0
 18 21  1  0  0  0  0
 34 35  1  0  0  0  0
  7  8  1  0  0  0  0
 17 18  1  0  0  0  0
  3  4  1  0  0  0  0
  3  5  1  0  0  0  0
  3  6  1  0  0  0  0
 38 41  1  0  0  0  0
 38 42  1  0  0  0  0
 38 43  1  0  0  0  0
 11 14  1  0  0  0  0
 11 15  1  0  0  0  0
 11 16  1  0  0  0  0
 45 47  1  0  0  0  0
 45 48  1  0  0  0  0
 45 49  1  0  0  0  0
 22 30  1  0  0  0  0
 22 31  1  0  0  0  0
 21 28  1  0  0  0  0
 21 29  1  0  0  0  0
 35 40  1  0  0  0  0
  8 13  1  0  0  0  0
 18 27  1  0  0  0  0
 25 32  1  0  0  0  0
 25 33  1  0  0  0  0
 44 46  1  0  0  0  0
  7 12  1  0  0  0  0
 34 39  1  0  0  0  0
 17 26  1  0  0  0  0
M  END
$$$$

  -OEChem-05262214473D

 49 48  0     1  0  0  0  0  0999 V2000
   -1.9833   -0.0509   -3.3423 C   0  0  0  0  0  0  0  0  0  0  0  0
   -1.6199   -1.0613   -2.7518 O   0  0  0  0  0  0  0  0  0  0  0  0
   -3.3243   -0.0235   -3.9975 C   0  0  0  0  0  0  0  0  0  0  0  0
   -3.2886   -0.3689   -5.0432 H   0  0  0  0  0  0  0  0  0  0  0  0
   -4.0503   -0.6845   -3.4973 H   0  0  0  0  0  0  0  0  0  0  0  0
   -3.8104    0.9645   -4.0351 H   0  0  0  0  0  0  0  0  0  0  0  0
   -1.2607    1.1231   -3.4768 N   0  0  0  0  0  0  0  0  0  0  0  0
    0.0536    1.3115   -2.9213 C   0  0  2  0  0  0  0  0  0  0  0  0
    0.0266    0.8315   -1.4761 C   0  0  0  0  0  0  0  0  0  0  0  0
   -1.0065    0.7530   -0.8146 O   0  0  0  0  0  0  0  0  0  0  0  0
    0.4852    2.7674   -3.0025 C   0  0  0  0  0  0  0  0  0  0  0  0
   -1.6809    1.8924   -3.9952 H   0  0  0  0  0  0  0  0  0  0  0  0
    0.7360    0.6822   -3.5030 H   0  0  0  0  0  0  0  0  0  0  0  0
   -0.1867    3.4133   -2.4256 H   0  0  0  0  0  0  0  0  0  0  0  0
    1.4966    2.9042   -2.6056 H   0  0  0  0  0  0  0  0  0  0  0  0
    0.4754    3.1196   -4.0397 H   0  0  0  0  0  0  0  0  0  0  0  0
    1.2978    0.5411   -0.9947 N   0  0  0  0  0  0  0  0  0  0  0  0
    1.5371    0.0807    0.3489 C   0  0  2  0  0  0  0  0  0  0  0  0
    2.9223    0.5719    0.7546 C   0  0  0  0  0  0  0  0  0  0  0  0
    3.1097    1.3465    1.6905 O   0  0  0  0  0  0  0  0  0  0  0  0
    1.4593   -1.4472    0.4599 C   0  0  0  0  0  0  0  0  0  0  0  0
    0.0543   -2.0037    0.2211 C   0  0  0  0  0  0  0  0  0  0  0  0
   -0.0207   -3.5168    0.3067 C   0  0  0  0  0  0  0  0  0  0  0  0
    0.9541   -4.2440    0.4736 O   0  0  0  0  0  0  0  0  0  0  0  0
   -1.3067   -3.9875    0.1497 N   0  0  0  0  0  0  0  0  0  0  0  0
    2.0949    0.6178   -1.6227 H   0  0  0  0  0  0  0  0  0  0  0  0
    0.7873    0.5636    0.9845 H   0  0  0  0  0  0  0  0  0  0  0  0
    2.1394   -1.8973   -0.2756 H   0  0  0  0  0  0  0  0  0  0  0  0
    1.8184   -1.7714    1.4449 H   0  0  0  0  0  0  0  0  0  0  0  0
   -0.2677   -1.7254   -0.7900 H   0  0  0  0  0  0  0  0  0  0  0  0
   -0.6630   -1.5646    0.9234 H   0  0  0  0  0  0  0  0  0  0  0  0
   -2.0564   -3.3209   -0.0018 H   0  0  0  0  0  0  0  0  0  0  0  0
   -1.5306   -4.9770    0.1802 H   0  0  0  0  0  0  0  0  0  0  0  0
    3.9139    0.0816   -0.0837 N   0  0  0  0  0  0  0  0  0  0  0  0
    5.3134    0.4101    0.0661 C   0  0  2  0  0  0  0  0  0  0  0  0
    5.6917    0.2017    1.5265 C   0  0  0  0  0  0  0  0  0  0  0  0
    4.8699    0.2135    2.4406 O   0  0  0  0  0  0  0  0  0  0  0  0
    5.5960    1.8393   -0.3700 C   0  0  0  0  0  0  0  0  0  0  0  0
    3.6425   -0.5391   -0.8404 H   0  0  0  0  0  0  0  0  0  0  0  0
    5.8722   -0.2936   -0.5605 H   0  0  0  0  0  0  0  0  0  0  0  0
    5.0448    2.5587    0.2465 H   0  0  0  0  0  0  0  0  0  0  0  0
    6.6613    2.0774   -0.2829 H   0  0  0  0  0  0  0  0  0  0  0  0
    5.2958    1.9955   -1.4117 H   0  0  0  0  0  0  0  0  0  0  0  0
    7.0604    0.0439    1.6937 N   0  0  0  0  0  0  0  0  0  0  0  0
    7.6698   -0.1562    2.9877 C   0  0  0  0  0  0  0  0  0  0  0  0
    7.6650    0.0286    0.8776 H   0  0  0  0  0  0  0  0  0  0  0  0
    7.9711    0.8156    3.4060 H   0  0  0  0  0  0  0  0  0  0  0  0
    6.9470   -0.6375    3.6629 H   0  0  0  0  0  0  0  0  0  0  0  0
    8.5557   -0.7994    2.8802 H   0  0  0  0  0  0  0  0  0  0  0  0
  1  3  1  0  0  0  0
  1  7  1  0  0  0  0
  1  2  2  0  0  0  0
 22 23  1  0  0  0  0
 23 25  1  0  0  0  0
 23 24  2  0  0  0  0
 35 36  1  0  0  0  0
 36 44  1  0  0  0  0
 36 37  2  0  0  0  0
  8  9  1  0  0  0  0
  9 17  1  0  0  0  0
  9 10  2  0  0  0  0
 18 19  1  0  0  0  0
 19 34  1  0  0  0  0
 19 20  2  0  0  0  0
 35 38  1  0  0  0  0
  8 11  1  0  0  0  0
 44 45  1  0  0  0  0
 21 22  1  0  0  0  0
 18 21  1  0  0  0  0
 34 35  1  0  0  0  0
  7  8  1  0  0  0  0
 17 18  1  0  0  0  0
  3  4  1  0  0  0  0
  3  5  1  0  0  0  0
  3  6  1  0  0  0  0
 38 41  1  0  0  0  0
 38 42  1  0  0  0  0
 38 43  1  0  0  0  0
 11 14  1  0  0  0  0
 11 15  1  0  0  0  0
 11 16  1  0  0  0  0
 45 47  1  0  0  0  0
 45 48  1  0  0  0  0
 45 49  1  0  0  0  0
 22 30  1  0  0  0  0
 22 31  1  0  0  0  0
 21 28  1  0  0  0  0
 21 29  1  0  0  0  0
 35 40  1  0  0  0  0
  8 13  1  0  0  0  0
 18 27  1  0  0  0  0
 25 32  1  0  0  0  0
 25 33  1  0  0  0  0
 44 46  1  0  0  0  0
  7 12  1  0  0  0  0
 34 39  1  0  0  0  0
 17 26  1  0  0  0  0
M  END
$$$$

  -OEChem-05262214473D

 49 48  0     1  0  0  0  0  0999 V2000
   -1.9833   -0.0509   -3.3423 C   0  0  0  0  0  0  0  0  0  0  0  0
   -1.6199   -1.0613   -2.7518 O   0  0  0  0  0  0  0  0  0  0  0  0
   -3.3243   -0.0235   -3.9975 C   0  0  0  0  0  0  0  0  0  0  0  0
   -3.2886   -0.3689   -5.0432 H   0  0  0  0  0  0  0  0  0  0  0  0
   -4.0503   -0.6845   -3.4973 H   0  0  0  0  0  0  0  0  0  0  0  0
   -3.8104    0.9645   -4.0351 H   0  0  0  0  0  0  0  0  0  0  0  0
   -1.2607    1.1231   -3.4768 N   0  0  0  0  0  0  0  0  0  0  0  0
    0.0536    1.3115   -2.9213 C   0  0  2  0  0  0  0  0  0  0  0  0
    0.0266    0.8315   -1.4761 C   0  0  0  0  0  0  0  0  0  0  0  0
   -1.0065    0.7530   -0.8146 O   0  0  0  0  0  0  0  0  0  0  0  0
    0.4852    2.7674   -3.0025 C   0  0  0  0  0  0  0  0  0  0  0  0
   -1.6809    1.8924   -3.9952 H   0  0  0  0  0  0  0  0  0  0  0  0
    0.7360    0.6822   -3.5030 H   0  0  0  0  0  0  0  0  0  0  0  0
   -0.1867    3.4133   -2.4256 H   0  0  0  0  0  0  0  0  0  0  0  0
    1.4966    2.9042   -2.6056 H   0  0  0  0  0  0  0  0  0  0  0  0
    0.4754    3.1196   -4.0397 H   0  0  0  0  0  0  0  0  0  0  0  0
    1.2978    0.5411   -0.9947 N   0  0  0  0  0  0  0  0  0  0  0  0
    1.5371    0.0807    0.3489 C   0  0  2  0  0  0  0  0  0  0  0  0
    2.9223    0.5719    0.7546 C   0  0  0  0  0  0  0  0  0  0  0  0
    3.1487    1.1203    1.8312 O   0  0  0  0  0  0  0  0  0  0  0  0
    1.4593   -1.4472    0.4599 C   0  0  0  0  0  0  0  0  0  0  0  0
    0.0543   -2.0037    0.2211 C   0  0  0  0  0  0  0  0  0  0  0  0
   -0.0207   -3.5168    0.3067 C   0  0  0  0  0  0  0  0  0  0  0  0
    0.9541   -4.2440    0.4736 O   0  0  0  0  0  0  0  0  0  0  0  0
   -1.3067   -3.9875    0.1497 N   0  0  0  0  0  0  0  0  0  0  0  0
    2.0949    0.6178   -1.6227 H   0  0  0  0  0  0  0  0  0  0  0  0
    0.7873    0.5636    0.9845 H   0  0  0  0  0  0  0  0  0  0  0  0
    2.1394   -1.8973   -0.2756 H   0  0  0  0  0  0  0  0  0  0  0  0
    1.8184   -1.7714    1.4449 H   0  0  0  0  0  0  0  0  0  0  0  0
   -0.2677   -1.7254   -0.7900 H   0  0  0  0  0  0  0  0  0  0  0  0
   -0.6630   -1.5646    0.9234 H   0  0  0  0  0  0  0  0  0  0  0  0
   -2.0564   -3.3209   -0.0018 H   0  0  0  0  0  0  0  0  0  0  0  0
   -1.5306   -4.9770    0.1802 H   0  0  0  0  0  0  0  0  0  0  0  0
    3.8601    0.3695   -0.2483 N   0  0  0  0  0  0  0  0  0  0  0  0
    5.2456    0.7634   -0.1303 C   0  0  2  0  0  0  0  0  0  0  0  0
    5.7677    0.2521    1.2059 C   0  0  0  0  0  0  0  0  0  0  0  0
    5.0339   -0.0135    2.1556 O   0  0  0  0  0  0  0  0  0  0  0  0
    5.4024    2.2726   -0.2336 C   0  0  0  0  0  0  0  0  0  0  0  0
    3.5575   -0.0780   -1.1085 H   0  0  0  0  0  0  0  0  0  0  0  0
    5.7851    0.2709   -0.9466 H   0  0  0  0  0  0  0  0  0  0  0  0
    4.8686    2.7834    0.5761 H   0  0  0  0  0  0  0  0  0  0  0  0
    6.4553    2.5671   -0.1726 H   0  0  0  0  0  0  0  0  0  0  0  0
    4.9993    2.6422   -1.1826 H   0  0  0  0  0  0  0  0  0  0  0  0
    7.1529    0.1682    1.2274 N   0  0  0  0  0  0  0  0  0  0  0  0
    7.8891   -0.2782    2.3870 C   0  0  0  0  0  0  0  0  0  0  0  0
    7.6800    0.3906    0.3880 H   0  0  0  0  0  0  0  0  0  0  0  0
    8.1696    0.5905    3.0007 H   0  0  0  0  0  0  0  0  0  0  0  0
    7.2607   -0.9586    2.9804 H   0  0  0  0  0  0  0  0  0  0  0  0
    8.7977   -0.8070    2.0631 H   0  0  0  0  0  0  0  0  0  0  0  0
  1  3  1  0  0  0  0
  1  7  1  0  0  0  0
  1  2  2  0  0  0  0
 22 23  1  0  0  0  0
 23 25  1  0  0  0  0
 23 24  2  0  0  0  0
 35 36  1  0  0  0  0
 36 44  1  0  0  0  0
 36 37  2  0  0  0  0
  8  9  1  0  0  0  0
  9 17  1  0  0  0  0
  9 10  2  0  0  0  0
 18 19  1  0  0  0  0
 19 34  1  0  0  0  0
 19 20  2  0  0  0  0
 35 38  1  0  0  0  0
  8 11  1  0  0  0  0
 44 45  1  0  0  0  0
 21 22  1  0  0  0  0
 18 21  1  0  0  0  0
 34 35  1  0  0  0  0
  7  8  1  0  0  0  0
 17 18  1  0  0  0  0
  3  4  1  0  0  0  0
  3  5  1  0  0  0  0
  3  6  1  0  0  0  0
 38 41  1  0  0  0  0
 38 42  1  0  0  0  0
 38 43  1  0  0  0  0
 11 14  1  0  0  0  0
 11 15  1  0  0  0  0
 11 16  1  0  0  0  0
 45 47  1  0  0  0  0
 45 48  1  0  0  0  0
 45 49  1  0  0  0  0
 22 30  1  0  0  0  0
 22 31  1  0  0  0  0
 21 28  1  0  0  0  0
 21 29  1  0  0  0  0
 35 40  1  0  0  0  0
  8 13  1  0  0  0  0
 18 27  1  0  0  0  0
 25 32  1  0  0  0  0
 25 33  1  0  0  0  0
 44 46  1  0  0  0  0
  7 12  1  0  0  0  0
 34 39  1  0  0  0  0
 17 26  1  0  0  0  0
M  END
$$$$

  -OEChem-05262214473D

 49 48  0     1  0  0  0  0  0999 V2000
   -1.9833   -0.0509   -3.3423 C   0  0  0  0  0  0  0  0  0  0  0  0
   -1.6199   -1.0613   -2.7518 O   0  0  0  0  0  0  0  0  0  0  0  0
   -3.3243   -0.0235   -3.9975 C   0  0  0  0  0  0  0  0  0  0  0  0
   -3.2886   -0.3689   -5.0432 H   0  0  0  0  0  0  0  0  0  0  0  0
   -4.0503   -0.6845   -3.4973 H   0  0  0  0  0  0  0  0  0  0  0  0
   -3.8104    0.9645   -4.0351 H   0  0  0  0  0  0  0  0  0  0  0  0
   -1.2607    1.1231   -3.4768 N   0  0  0  0  0  0  0  0  0  0  0  0
    0.0536    1.3115   -2.9213 C   0  0  2  0  0  0  0  0  0  0  0  0
    0.0266    0.8315   -1.4761 C   0  0  0  0  0  0  0  0  0  0  0  0
   -1.0065    0.7530   -0.8146 O   0  0  0  0  0  0  0  0  0  0  0  0
    0.4852    2.7674   -3.0025 C   0  0  0  0  0  0  0  0  0  0  0  0
   -1.6809    1.8924   -3.9952 H   0  0  0  0  0  0  0  0  0  0  0  0
    0.7360    0.6822   -3.5030 H   0  0  0  0  0  0  0  0  0  0  0  0
   -0.1867    3.4133   -2.4256 H   0  0  0  0  0  0  0  0  0  0  0  0
    1.4966    2.9042   -2.6056 H   0  0  0  0  0  0  0  0  0  0  0  0
    0.4754    3.1196   -4.0397 H   0  0  0  0  0  0  0  0  0  0  0  0
    1.2978    0.5411   -0.9947 N   0  0  0  0  0  0  0  0  0  0  0  0
    1.5371    0.0807    0.3489 C   0  0  2  0  0  0  0  0  0  0  0  0
    2.9223    0.5719    0.7546 C   0  0  0  0  0  0  0  0  0  0  0  0
    3.2137    0.8714    1.9106 O   0  0  0  0  0  0  0  0  0  0  0  0
    1.4593   -1.4472    0.4599 C   0  0  0  0  0  0  0  0  0  0  0  0
    0.0543   -2.0037    0.2211 C   0  0  0  0  0  0  0  0  0  0  0  0
   -0.0207   -3.5168    0.3067 C   0  0  0  0  0  0  0  0  0  0  0  0
    0.9541   -4.2440    0.4736 O   0  0  0  0  0  0  0  0  0  0  0  0
   -1.3067   -3.9875    0.1497 N   0  0  0  0  0  0  0  0  0  0  0  0
    2.0949    0.6178   -1.6227 H   0  0  0  0  0  0  0  0  0  0  0  0
    0.7873    0.5636    0.9845 H   0  0  0  0  0  0  0  0  0  0  0  0
    2.1394   -1.8973   -0.2756 H   0  0  0  0  0  0  0  0  0  0  0  0
    1.8184   -1.7714    1.4449 H   0  0  0  0  0  0  0  0  0  0  0  0
   -0.2677   -1.7254   -0.7900 H   0  0  0  0  0  0  0  0  0  0  0  0
   -0.6630   -1.5646    0.9234 H   0  0  0  0  0  0  0  0  0  0  0  0
   -2.0564   -3.3209   -0.0018 H   0  0  0  0  0  0  0  0  0  0  0  0
   -1.5306   -4.9770    0.1802 H   0  0  0  0  0  0  0  0  0  0  0  0
    3.7746    0.6825   -0.3352 N   0  0  0  0  0  0  0  0  0  0  0  0
    5.1394    1.1463   -0.2312 C   0  0  2  0  0  0  0  0  0  0  0  0
    5.8110    0.3814    0.9017 C   0  0  0  0  0  0  0  0  0  0  0  0
    5.1841   -0.1545    1.8132 O   0  0  0  0  0  0  0  0  0  0  0  0
    5.1970    2.6457    0.0162 C   0  0  0  0  0  0  0  0  0  0  0  0
    3.4213    0.4246   -1.2519 H   0  0  0  0  0  0  0  0  0  0  0  0
    5.6299    0.9008   -1.1795 H   0  0  0  0  0  0  0  0  0  0  0  0
    4.7104    2.9108    0.9620 H   0  0  0  0  0  0  0  0  0  0  0  0
    6.2318    3.0001    0.0663 H   0  0  0  0  0  0  0  0  0  0  0  0
    4.6875    3.1926   -0.7844 H   0  0  0  0  0  0  0  0  0  0  0  0
    7.1948    0.4044    0.7984 N   0  0  0  0  0  0  0  0  0  0  0  0
    8.0591   -0.2397    1.7597 C   0  0  0  0  0  0  0  0  0  0  0  0
    7.6288    0.8564   -0.0010 H   0  0  0  0  0  0  0  0  0  0  0  0
    8.3431    0.4821    2.5397 H   0  0  0  0  0  0  0  0  0  0  0  0
    7.5290   -1.0867    2.2196 H   0  0  0  0  0  0  0  0  0  0  0  0
    8.9638   -0.6054    1.2520 H   0  0  0  0  0  0  0  0  0  0  0  0
  1  3  1  0  0  0  0
  1  7  1  0  0  0  0
  1  2  2  0  0  0  0
 22 23  1  0  0  0  0
 23 25  1  0  0  0  0
 23 24  2  0  0  0  0
 35 36  1  0  0  0  0
 36 44  1  0  0  0  0
 36 37  2  0  0  0  0
  8  9  1  0  0  0  0
  9 17  1  0  0  0  0
  9 10  2  0  0  0  0
 18 19  1  0  0  0  0
 19 34  1  0  0  0  0
 19 20  2  0  0  0  0
 35 38  1  0  0  0  0
  8 11  1  0  0  0  0
 44 45  1  0  0  0  0
 21 22  1  0  0  0  0
 18 21  1  0  0  0  0
 34 35  1  0  0  0  0
  7  8  1  0  0  0  0
 17 18  1  0  0  0  0
  3  4  1  0  0  0  0
  3  5  1  0  0  0  0
  3  6  1  0  0  0  0
 38 41  1  0  0  0  0
 38 42  1  0  0  0  0
 38 43  1  0  0  0  0
 11 14  1  0  0  0  0
 11 15  1  0  0  0  0
 11 16  1  0  0  0  0
 45 47  1  0  0  0  0
 45 48  1  0  0  0  0
 45 49  1  0  0  0  0
 22 30  1  0  0  0  0
 22 31  1  0  0  0  0
 21 28  1  0  0  0  0
 21 29  1  0  0  0  0
 35 40  1  0  0  0  0
  8 13  1  0  0  0  0
 18 27  1  0  0  0  0
 25 32  1  0  0  0  0
 25 33  1  0  0  0  0
 44 46  1  0  0  0  0
  7 12  1  0  0  0  0
 34 39  1  0  0  0  0
 17 26  1  0  0  0  0
M  END
$$$$

  -OEChem-05262214473D

 49 48  0     1  0  0  0  0  0999 V2000
   -1.9833   -0.0509   -3.3423 C   0  0  0  0  0  0  0  0  0  0  0  0
   -1.6199   -1.0613   -2.7518 O   0  0  0  0  0  0  0  0  0  0  0  0
   -3.3243   -0.0235   -3.9975 C   0  0  0  0  0  0  0  0  0  0  0  0
   -3.2886   -0.3689   -5.0432 H   0  0  0  0  0  0  0  0  0  0  0  0
   -4.0503   -0.6845   -3.4973 H   0  0  0  0  0  0  0  0  0  0  0  0
   -3.8104    0.9645   -4.0351 H   0  0  0  0  0  0  0  0  0  0  0  0
   -1.2607    1.1231   -3.4768 N   0  0  0  0  0  0  0  0  0  0  0  0
    0.0536    1.3115   -2.9213 C   0  0  2  0  0  0  0  0  0  0  0  0
    0.0266    0.8315   -1.4761 C   0  0  0  0  0  0  0  0  0  0  0  0
   -1.0065    0.7530   -0.8146 O   0  0  0  0  0  0  0  0  0  0  0  0
    0.4852    2.7674   -3.0025 C   0  0  0  0  0  0  0  0  0  0  0  0
   -1.6809    1.8924   -3.9952 H   0  0  0  0  0  0  0  0  0  0  0  0
    0.7360    0.6822   -3.5030 H   0  0  0  0  0  0  0  0  0  0  0  0
   -0.1867    3.4133   -2.4256 H   0  0  0  0  0  0  0  0  0  0  0  0
    1.4966    2.9042   -2.6056 H   0  0  0  0  0  0  0  0  0  0  0  0
    0.4754    3.1196   -4.0397 H   0  0  0  0  0  0  0  0  0  0  0  0
    1.2978    0.5411   -0.9947 N   0  0  0  0  0  0  0  0  0  0  0  0
    1.5371    0.0807    0.3489 C   0  0  2  0  0  0  0  0  0  0  0  0
    2.9223    0.5719    0.7546 C   0  0  0  0  0  0  0  0  0  0  0  0
    3.3002    0.6168    1.9234 O   0  0  0  0  0  0  0  0  0  0  0  0
    1.4593   -1.4472    0.4599 C   0  0  0  0  0  0  0  0  0  0  0  0
    0.0543   -2.0037    0.2211 C   0  0  0  0  0  0  0  0  0  0  0  0
   -0.0207   -3.5168    0.3067 C   0  0  0  0  0  0  0  0  0  0  0  0
    0.9541   -4.2440    0.4736 O   0  0  0  0  0  0  0  0  0  0  0  0
   -1.3067   -3.9875    0.1497 N   0  0  0  0  0  0  0  0  0  0  0  0
    2.0949    0.6178   -1.6227 H   0  0  0  0  0  0  0  0  0  0  0  0
    0.7873    0.5636    0.9845 H   0  0  0  0  0  0  0  0  0  0  0  0
    2.1394   -1.8973   -0.2756 H   0  0  0  0  0  0  0  0  0  0  0  0
    1.8184   -1.7714    1.4449 H   0  0  0  0  0  0  0  0  0  0  0  0
   -0.2677   -1.7254   -0.7900 H   0  0  0  0  0  0  0  0  0  0  0  0
   -0.6630   -1.5646    0.9234 H   0  0  0  0  0  0  0  0  0  0  0  0
   -2.0564   -3.3209   -0.0018 H   0  0  0  0  0  0  0  0  0  0  0  0
   -1.5306   -4.9770    0.1802 H   0  0  0  0  0  0  0  0  0  0  0  0
    3.6631    0.9994   -0.3384 N   0  0  0  0  0  0  0  0  0  0  0  0
    5.0021    1.5325   -0.2299 C   0  0  2  0  0  0  0  0  0  0  0  0
    5.8185    0.5808    0.6346 C   0  0  0  0  0  0  0  0  0  0  0  0
    5.3104   -0.1998    1.4368 O   0  0  0  0  0  0  0  0  0  0  0  0
    4.9936    2.9332    0.3624 C   0  0  0  0  0  0  0  0  0  0  0  0
    3.2432    0.9344   -1.2610 H   0  0  0  0  0  0  0  0  0  0  0  0
    5.4173    1.5534   -1.2434 H   0  0  0  0  0  0  0  0  0  0  0  0
    4.5809    2.9322    1.3778 H   0  0  0  0  0  0  0  0  0  0  0  0
    6.0060    3.3467    0.4175 H   0  0  0  0  0  0  0  0  0  0  0  0
    4.3816    3.6092   -0.2444 H   0  0  0  0  0  0  0  0  0  0  0  0
    7.1833    0.7362    0.4361 N   0  0  0  0  0  0  0  0  0  0  0  0
    8.1685   -0.0433    1.1487 C   0  0  0  0  0  0  0  0  0  0  0  0
    7.5148    1.3943   -0.2630 H   0  0  0  0  0  0  0  0  0  0  0  0
    8.4796    0.4978    2.0545 H   0  0  0  0  0  0  0  0  0  0  0  0
    7.7335   -1.0130    1.4323 H   0  0  0  0  0  0  0  0  0  0  0  0
    9.0428   -0.2086    0.5020 H   0  0  0  0  0  0  0  0  0  0  0  0
  1  3  1  0  0  0  0
  1  7  1  0  0  0  0
  1  2  2  0  0  0  0
 22 23  1  0  0  0  0
 23 25  1  0  0  0  0
 23 24  2  0  0  0  0
 35 36  1  0  0  0  0
 36 44  1  0  0  0  0
 36 37  2  0  0  0  0
  8  9  1  0  0  0  0
  9 17  1  0  0  0  0
  9 10  2  0  0  0  0
 18 19  1  0  0  0  0
 19 34  1  0  0  0  0
 19 20  2  0  0  0  0
 35 38  1  0  0  0  0
  8 11  1  0  0  0  0
 44 45  1  0  0  0  0
 21 22  1  0  0  0  0
 18 21  1  0  0  0  0
 34 35  1  0  0  0  0
  7  8  1  0  0  0  0
 17 18  1  0  0  0  0
  3  4  1  0  0  0  0
  3  5  1  0  0  0  0
  3  6  1  0  0  0  0
 38 41  1  0  0  0  0
 38 42  1  0  0  0  0
 38 43  1  0  0  0  0
 11 14  1  0  0  0  0
 11 15  1  0  0  0  0
 11 16  1  0  0  0  0
 45 47  1  0  0  0  0
 45 48  1  0  0  0  0
 45 49  1  0  0  0  0
 22 30  1  0  0  0  0
 22 31  1  0  0  0  0
 21 28  1  0  0  0  0
 21 29  1  0  0  0  0
 35 40  1  0  0  0  0
  8 13  1  0  0  0  0
 18 27  1  0  0  0  0
 25 32  1  0  0  0  0
 25 33  1  0  0  0  0
 44 46  1  0  0  0  0
  7 12  1  0  0  0  0
 34 39  1  0  0  0  0
 17 26  1  0  0  0  0
M  END
$$$$

  -OEChem-05262214473D

 49 48  0     1  0  0  0  0  0999 V2000
   -1.9833   -0.0509   -3.3423 C   0  0  0  0  0  0  0  0  0  0  0  0
   -1.6199   -1.0613   -2.7518 O   0  0  0  0  0  0  0  0  0  0  0  0
   -3.3243   -0.0235   -3.9975 C   0  0  0  0  0  0  0  0  0  0  0  0
   -3.2886   -0.3689   -5.0432 H   0  0  0  0  0  0  0  0  0  0  0  0
   -4.0503   -0.6845   -3.4973 H   0  0  0  0  0  0  0  0  0  0  0  0
   -3.8104    0.9645   -4.0351 H   0  0  0  0  0  0  0  0  0  0  0  0
   -1.2607    1.1231   -3.4768 N   0  0  0  0  0  0  0  0  0  0  0  0
    0.0536    1.3115   -2.9213 C   0  0  2  0  0  0  0  0  0  0  0  0
    0.0266    0.8315   -1.4761 C   0  0  0  0  0  0  0  0  0  0  0  0
   -1.0065    0.7530   -0.8146 O   0  0  0  0  0  0  0  0  0  0  0  0
    0.4852    2.7674   -3.0025 C   0  0  0  0  0  0  0  0  0  0  0  0
   -1.6809    1.8924   -3.9952 H   0  0  0  0  0  0  0  0  0  0  0  0
    0.7360    0.6822   -3.5030 H   0  0  0  0  0  0  0  0  0  0  0  0
   -0.1867    3.4133   -2.4256 H   0  0  0  0  0  0  0  0  0  0  0  0
    1.4966    2.9042   -2.6056 H   0  0  0  0  0  0  0  0  0  0  0  0
    0.4754    3.1196   -4.0397 H   0  0  0  0  0  0  0  0  0  0  0  0
    1.2978    0.5411   -0.9947 N   0  0  0  0  0  0  0  0  0  0  0  0
    1.5371    0.0807    0.3489 C   0  0  2  0  0  0  0  0  0  0  0  0
    2.9223    0.5719    0.7546 C   0  0  0  0  0  0  0  0  0  0  0  0
    3.4024    0.3738    1.8687 O   0  0  0  0  0  0  0  0  0  0  0  0
    1.4593   -1.4472    0.4599 C   0  0  0  0  0  0  0  0  0  0  0  0
    0.0543   -2.0037    0.2211 C   0  0  0  0  0  0  0  0  0  0  0  0
   -0.0207   -3.5168    0.3067 C   0  0  0  0  0  0  0  0  0  0  0  0
    0.9541   -4.2440    0.4736 O   0  0  0  0  0  0  0  0  0  0  0  0
   -1.3067   -3.9875    0.1497 N   0  0  0  0  0  0  0  0  0  0  0  0
    2.0949    0.6178   -1.6227 H   0  0  0  0  0  0  0  0  0  0  0  0
    0.7873    0.5636    0.9845 H   0  0  0  0  0  0  0  0  0  0  0  0
    2.1394   -1.8973   -0.2756 H   0  0  0  0  0  0  0  0  0  0  0  0
    1.8184   -1.7714    1.4449 H   0  0  0  0  0  0  0  0  0  0  0  0
   -0.2677   -1.7254   -0.7900 H   0  0  0  0  0  0  0  0  0  0  0  0
   -0.6630   -1.5646    0.9234 H   0  0  0  0  0  0  0  0  0  0  0  0
   -2.0564   -3.3209   -0.0018 H   0  0  0  0  0  0  0  0  0  0  0  0
   -1.5306   -4.9770    0.1802 H   0  0  0  0  0  0  0  0  0  0  0  0
    3.5334    1.2986   -0.2577 N   0  0  0  0  0  0  0  0  0  0  0  0
    4.8429    1.8958   -0.1263 C   0  0  2  0  0  0  0  0  0  0  0  0
    5.7897    0.8368    0.4229 C   0  0  0  0  0  0  0  0  0  0  0  0
    5.4042   -0.1463    1.0521 O   0  0  0  0  0  0  0  0  0  0  0  0
    4.8063    3.1155    0.7813 C   0  0  0  0  0  0  0  0  0  0  0  0
    3.0352    1.4167   -1.1349 H   0  0  0  0  0  0  0  0  0  0  0  0
    5.1616    2.1842   -1.1339 H   0  0  0  0  0  0  0  0  0  0  0  0
    4.4891    2.8462    1.7954 H   0  0  0  0  0  0  0  0  0  0  0  0
    5.7934    3.5834    0.8570 H   0  0  0  0  0  0  0  0  0  0  0  0
    4.1025    3.8635    0.4006 H   0  0  0  0  0  0  0  0  0  0  0  0
    7.1191    1.1411    0.1651 N   0  0  0  0  0  0  0  0  0  0  0  0
    8.2096    0.2976    0.5956 C   0  0  0  0  0  0  0  0  0  0  0  0
    7.3458    1.9676   -0.3801 H   0  0  0  0  0  0  0  0  0  0  0  0
    8.5700    0.6363    1.5781 H   0  0  0  0  0  0  0  0  0  0  0  0
    7.8603   -0.7426    0.6720 H   0  0  0  0  0  0  0  0  0  0  0  0
    9.0292    0.3564   -0.1357 H   0  0  0  0  0  0  0  0  0  0  0  0
  1  3  1  0  0  0  0
  1  7  1  0  0  0  0
  1  2  2  0  0  0  0
 22 23  1  0  0  0  0
 23 25  1  0  0  0  0
 23 24  2  0  0  0  0
 35 36  1  0  0  0  0
 36 44  1  0  0  0  0
 36 37  2  0  0  0  0
  8  9  1  0  0  0  0
  9 17  1  0  0  0  0
  9 10  2  0  0  0  0
 18 19  1  0  0  0  0
 19 34  1  0  0  0  0
 19 20  2  0  0  0  0
 35 38  1  0  0  0  0
  8 11  1  0  0  0  0
 44 45  1  0  0  0  0
 21 22  1  0  0  0  0
 18 21  1  0  0  0  0
 34 35  1  0  0  0  0
  7  8  1  0  0  0  0
 17 18  1  0  0  0  0
  3  4  1  0  0  0  0
  3  5  1  0  0  0  0
  3  6  1  0  0  0  0
 38 41  1  0  0  0  0
 38 42  1  0  0  0  0
 38 43  1  0  0  0  0
 11 14  1  0  0  0  0
 11 15  1  0  0  0  0
 11 16  1  0  0  0  0
 45 47  1  0  0  0  0
 45 48  1  0  0  0  0
 45 49  1  0  0  0  0
 22 30  1  0  0  0  0
 22 31  1  0  0  0  0
 21 28  1  0  0  0  0
 21 29  1  0  0  0  0
 35 40  1  0  0  0  0
  8 13  1  0  0  0  0
 18 27  1  0  0  0  0
 25 32  1  0  0  0  0
 25 33  1  0  0  0  0
 44 46  1  0  0  0  0
  7 12  1  0  0  0  0
 34 39  1  0  0  0  0
 17 26  1  0  0  0  0
M  END
$$$$

  -OEChem-05262214473D

 49 48  0     1  0  0  0  0  0999 V2000
   -1.9833   -0.0509   -3.3423 C   0  0  0  0  0  0  0  0  0  0  0  0
   -1.6199   -1.0613   -2.7518 O   0  0  0  0  0  0  0  0  0  0  0  0
   -3.3243   -0.0235   -3.9975 C   0  0  0  0  0  0  0  0  0  0  0  0
   -3.2886   -0.3689   -5.0432 H   0  0  0  0  0  0  0  0  0  0  0  0
   -4.0503   -0.6845   -3.4973 H   0  0  0  0  0  0  0  0  0  0  0  0
   -3.8104    0.9645   -4.0351 H   0  0  0  0  0  0  0  0  0  0  0  0
   -1.2607    1.1231   -3.4768 N   0  0  0  0  0  0  0  0  0  0  0  0
    0.0536    1.3115   -2.9213 C   0  0  2  0  0  0  0  0  0  0  0  0
    0.0266    0.8315   -1.4761 C   0  0  0  0  0  0  0  0  0  0  0  0
   -1.0065    0.7530   -0.8146 O   0  0  0  0  0  0  0  0  0  0  0  0
    0.4852    2.7674   -3.0025 C   0  0  0  0  0  0  0  0  0  0  0  0
   -1.6809    1.8924   -3.9952 H   0  0  0  0  0  0  0  0  0  0  0  0
    0.7360    0.6822   -3.5030 H   0  0  0  0  0  0  0  0  0  0  0  0
   -0.1867    3.4133   -2.4256 H   0  0  0  0  0  0  0  0  0  0  0  0
    1.4966    2.9042   -2.6056 H   0  0  0  0  0  0  0  0  0  0  0  0
    0.4754    3.1196   -4.0397 H   0  0  0  0  0  0  0  0  0  0  0  0
    1.2978    0.5411   -0.9947 N   0  0  0  0  0  0  0  0  0  0  0  0
    1.5371    0.0807    0.3489 C   0  0  2  0  0  0  0  0  0  0  0  0
    2.9223    0.5719    0.7546 C   0  0  0  0  0  0  0  0  0  0  0  0
    3.5133    0.1590    1.7502 O   0  0  0  0  0  0  0  0  0  0  0  0
    1.4593   -1.4472    0.4599 C   0  0  0  0  0  0  0  0  0  0  0  0
    0.0543   -2.0037    0.2211 C   0  0  0  0  0  0  0  0  0  0  0  0
   -0.0207   -3.5168    0.3067 C   0  0  0  0  0  0  0  0  0  0  0  0
    0.9541   -4.2440    0.4736 O   0  0  0  0  0  0  0  0  0  0  0  0
   -1.3067   -3.9875    0.1497 N   0  0  0  0  0  0  0  0  0  0  0  0
    2.0949    0.6178   -1.6227 H   0  0  0  0  0  0  0  0  0  0  0  0
    0.7873    0.5636    0.9845 H   0  0  0  0  0  0  0  0  0  0  0  0
    2.1394   -1.8973   -0.2756 H   0  0  0  0  0  0  0  0  0  0  0  0
    1.8184   -1.7714    1.4449 H   0  0  0  0  0  0  0  0  0  0  0  0
   -0.2677   -1.7254   -0.7900 H   0  0  0  0  0  0  0  0  0  0  0  0
   -0.6630   -1.5646    0.9234 H   0  0  0  0  0  0  0  0  0  0  0  0
   -2.0564   -3.3209   -0.0018 H   0  0  0  0  0  0  0  0  0  0  0  0
   -1.5306   -4.9770    0.1802 H   0  0  0  0  0  0  0  0  0  0  0  0
    3.3942    1.5597   -0.0986 N   0  0  0  0  0  0  0  0  0  0  0  0
    4.6728    2.2113    0.0725 C   0  0  2  0  0  0  0  0  0  0  0  0
    5.7267    1.1318    0.2810 C   0  0  0  0  0  0  0  0  0  0  0  0
    5.4590    0.0022    0.6852 O   0  0  0  0  0  0  0  0  0  0  0  0
    4.6477    3.1801    1.2444 C   0  0  0  0  0  0  0  0  0  0  0  0
    2.8117    1.8386   -0.8825 H   0  0  0  0  0  0  0  0  0  0  0  0
    4.8802    2.7500   -0.8585 H   0  0  0  0  0  0  0  0  0  0  0  0
    4.4412    2.6586    2.1861 H   0  0  0  0  0  0  0  0  0  0  0  0
    5.6083    3.6941    1.3550 H   0  0  0  0  0  0  0  0  0  0  0  0
    3.8692    3.9383    1.1068 H   0  0  0  0  0  0  0  0  0  0  0  0
    7.0066    1.5915    0.0040 N   0  0  0  0  0  0  0  0  0  0  0  0
    8.1797    0.7598    0.1381 C   0  0  0  0  0  0  0  0  0  0  0  0
    7.1333    2.5373   -0.3443 H   0  0  0  0  0  0  0  0  0  0  0  0
    8.6081    0.8884    1.1431 H   0  0  0  0  0  0  0  0  0  0  0  0
    7.9008   -0.2939   -0.0094 H   0  0  0  0  0  0  0  0  0  0  0  0
    8.9240    1.0513   -0.6176 H   0  0  0  0  0  0  0  0  0  0  0  0
  1  3  1  0  0  0  0
  1  7  1  0  0  0  0
  1  2  2  0  0  0  0
 22 23  1  0  0  0  0
 23 25  1  0  0  0  0
 23 24  2  0  0  0  0
 35 36  1  0  0  0  0
 36 44  1  0  0  0  0
 36 37  2  0  0  0  0
  8  9  1  0  0  0  0
  9 17  1  0  0  0  0
  9 10  2  0  0  0  0
 18 19  1  0  0  0  0
 19 34  1  0  0  0  0
 19 20  2  0  0  0  0
 35 38  1  0  0  0  0
  8 11  1  0  0  0  0
 44 45  1  0  0  0  0
 21 22  1  0  0  0  0
 18 21  1  0  0  0  0
 34 35  1  0  0  0  0
  7  8  1  0  0  0  0
 17 18  1  0  0  0  0
  3  4  1  0  0  0  0
  3  5  1  0  0  0  0
  3  6  1  0  0  0  0
 38 41  1  0  0  0  0
 38 42  1  0  0  0  0
 38 43  1  0  0  0  0
 11 14  1  0  0  0  0
 11 15  1  0  0  0  0
 11 16  1  0  0  0  0
 45 47  1  0  0  0  0
 45 48  1  0  0  0  0
 45 49  1  0  0  0  0
 22 30  1  0  0  0  0
 22 31  1  0  0  0  0
 21 28  1  0  0  0  0
 21 29  1  0  0  0  0
 35 40  1  0  0  0  0
  8 13  1  0  0  0  0
 18 27  1  0  0  0  0
 25 32  1  0  0  0  0
 25 33  1  0  0  0  0
 44 46  1  0  0  0  0
  7 12  1  0  0  0  0
 34 39  1  0  0  0  0
 17 26  1  0  0  0  0
M  END
$$$$

  -OEChem-05262214473D

 49 48  0     1  0  0  0  0  0999 V2000
   -1.9833   -0.0509   -3.3423 C   0  0  0  0  0  0  0  0  0  0  0  0
   -1.6199   -1.0613   -2.7518 O   0  0  0  0  0  0  0  0  0  0  0  0
   -3.3243   -0.0235   -3.9975 C   0  0  0  0  0  0  0  0  0  0  0  0
   -3.2886   -0.3689   -5.0432 H   0  0  0  0  0  0  0  0  0  0  0  0
   -4.0503   -0.6845   -3.4973 H   0  0  0  0  0  0  0  0  0  0  0  0
   -3.8104    0.9645   -4.0351 H   0  0  0  0  0  0  0  0  0  0  0  0
   -1.2607    1.1231   -3.4768 N   0  0  0  0  0  0  0  0  0  0  0  0
    0.0536    1.3115   -2.9213 C   0  0  2  0  0  0  0  0  0  0  0  0
    0.0266    0.8315   -1.4761 C   0  0  0  0  0  0  0  0  0  0  0  0
   -1.0065    0.7530   -0.8146 O   0  0  0  0  0  0  0  0  0  0  0  0
    0.4852    2.7674   -3.0025 C   0  0  0  0  0  0  0  0  0  0  0  0
   -1.6809    1.8924   -3.9952 H   0  0  0  0  0  0  0  0  0  0  0  0
    0.7360    0.6822   -3.5030 H   0  0  0  0  0  0  0  0  0  0  0  0
   -0.1867    3.4133   -2.4256 H   0  0  0  0  0  0  0  0  0  0  0  0
    1.4966    2.9042   -2.6056 H   0  0  0  0  0  0  0  0  0  0  0  0
    0.4754    3.1196   -4.0397 H   0  0  0  0  0  0  0  0  0  0  0  0
    1.2978    0.5411   -0.9947 N   0  0  0  0  0  0  0  0  0  0  0  0
    1.5371    0.0807    0.3489 C   0  0  2  0  0  0  0  0  0  0  0  0
    2.9223    0.5719    0.7546 C   0  0  0  0  0  0  0  0  0  0  0  0
    3.6253   -0.0130    1.5760 O   0  0  0  0  0  0  0  0  0  0  0  0
    1.4593   -1.4472    0.4599 C   0  0  0  0  0  0  0  0  0  0  0  0
    0.0543   -2.0037    0.2211 C   0  0  0  0  0  0  0  0  0  0  0  0
   -0.0207   -3.5168    0.3067 C   0  0  0  0  0  0  0  0  0  0  0  0
    0.9541   -4.2440    0.4736 O   0  0  0  0  0  0  0  0  0  0  0  0
   -1.3067   -3.9875    0.1497 N   0  0  0  0  0  0  0  0  0  0  0  0
    2.0949    0.6178   -1.6227 H   0  0  0  0  0  0  0  0  0  0  0  0
    0.7873    0.5636    0.9845 H   0  0  0  0  0  0  0  0  0  0  0  0
    2.1394   -1.8973   -0.2756 H   0  0  0  0  0  0  0  0  0  0  0  0
    1.8184   -1.7714    1.4449 H   0  0  0  0  0  0  0  0  0  0  0  0
   -0.2677   -1.7254   -0.7900 H   0  0  0  0  0  0  0  0  0  0  0  0
   -0.6630   -1.5646    0.9234 H   0  0  0  0  0  0  0  0  0  0  0  0
   -2.0564   -3.3209   -0.0018 H   0  0  0  0  0  0  0  0  0  0  0  0
   -1.5306   -4.9770    0.1802 H   0  0  0  0  0  0  0  0  0  0  0  0
    3.2550    1.7648    0.1282 N   0  0  0  0  0  0  0  0  0  0  0  0
    4.5033    2.4577    0.3528 C   0  0  2  0  0  0  0  0  0  0  0  0
    5.6336    1.4458    0.2186 C   0  0  0  0  0  0  0  0  0  0  0  0
    5.4711    0.2357    0.3612 O   0  0  0  0  0  0  0  0  0  0  0  0
    4.5287    3.1228    1.7202 C   0  0  0  0  0  0  0  0  0  0  0  0
    2.5878    2.1713   -0.5208 H   0  0  0  0  0  0  0  0  0  0  0  0
    4.5925    3.2125   -0.4360 H   0  0  0  0  0  0  0  0  0  0  0  0
    4.4404    2.3822    2.5234 H   0  0  0  0  0  0  0  0  0  0  0  0
    5.4634    3.6711    1.8775 H   0  0  0  0  0  0  0  0  0  0  0  0
    3.6975    3.8283    1.8259 H   0  0  0  0  0  0  0  0  0  0  0  0
    6.8534    2.0567   -0.0364 N   0  0  0  0  0  0  0  0  0  0  0  0
    8.0809    1.3118   -0.1927 C   0  0  0  0  0  0  0  0  0  0  0  0
    6.8918    3.0645   -0.1580 H   0  0  0  0  0  0  0  0  0  0  0  0
    8.5912    1.2369    0.7789 H   0  0  0  0  0  0  0  0  0  0  0  0
    7.8521    0.3024   -0.5654 H   0  0  0  0  0  0  0  0  0  0  0  0
    8.7343    1.8285   -0.9110 H   0  0  0  0  0  0  0  0  0  0  0  0
  1  3  1  0  0  0  0
  1  7  1  0  0  0  0
  1  2  2  0  0  0  0
 22 23  1  0  0  0  0
 23 25  1  0  0  0  0
 23 24  2  0  0  0  0
 35 36  1  0  0  0  0
 36 44  1  0  0  0  0
 36 37  2  0  0  0  0
  8  9  1  0  0  0  0
  9 17  1  0  0  0  0
  9 10  2  0  0  0  0
 18 19  1  0  0  0  0
 19 34  1  0  0  0  0
 19 20  2  0  0  0  0
 35 38  1  0  0  0  0
  8 11  1  0  0  0  0
 44 45  1  0  0  0  0
 21 22  1  0  0  0  0
 18 21  1  0  0  0  0
 34 35  1  0  0  0  0
  7  8  1  0  0  0  0
 17 18  1  0  0  0  0
  3  4  1  0  0  0  0
  3  5  1  0  0  0  0
  3  6  1  0  0  0  0
 38 41  1  0  0  0  0
 38 42  1  0  0  0  0
 38 43  1  0  0  0  0
 11 14  1  0  0  0  0
 11 15  1  0  0  0  0
 11 16  1  0  0  0  0
 45 47  1  0  0  0  0
 45 48  1  0  0  0  0
 45 49  1  0  0  0  0
 22 30  1  0  0  0  0
 22 31  1  0  0  0  0
 21 28  1  0  0  0  0
 21 29  1  0  0  0  0
 35 40  1  0  0  0  0
  8 13  1  0  0  0  0
 18 27  1  0  0  0  0
 25 32  1  0  0  0  0
 25 33  1  0  0  0  0
 44 46  1  0  0  0  0
  7 12  1  0  0  0  0
 34 39  1  0  0  0  0
 17 26  1  0  0  0  0
M  END
$$$$

  -OEChem-05262214473D

 49 48  0     1  0  0  0  0  0999 V2000
   -1.9833   -0.0509   -3.3423 C   0  0  0  0  0  0  0  0  0  0  0  0
   -1.6199   -1.0613   -2.7518 O   0  0  0  0  0  0  0  0  0  0  0  0
   -3.3243   -0.0235   -3.9975 C   0  0  0  0  0  0  0  0  0  0  0  0
   -3.2886   -0.3689   -5.0432 H   0  0  0  0  0  0  0  0  0  0  0  0
   -4.0503   -0.6845   -3.4973 H   0  0  0  0  0  0  0  0  0  0  0  0
   -3.8104    0.9645   -4.0351 H   0  0  0  0  0  0  0  0  0  0  0  0
   -1.2607    1.1231   -3.4768 N   0  0  0  0  0  0  0  0  0  0  0  0
    0.0536    1.3115   -2.9213 C   0  0  2  0  0  0  0  0  0  0  0  0
    0.0266    0.8315   -1.4761 C   0  0  0  0  0  0  0  0  0  0  0  0
   -1.0065    0.7530   -0.8146 O   0  0  0  0  0  0  0  0  0  0  0  0
    0.4852    2.7674   -3.0025 C   0  0  0  0  0  0  0  0  0  0  0  0
   -1.6809    1.8924   -3.9952 H   0  0  0  0  0  0  0  0  0  0  0  0
    0.7360    0.6822   -3.5030 H   0  0  0  0  0  0  0  0  0  0  0  0
   -0.1867    3.4133   -2.4256 H   0  0  0  0  0  0  0  0  0  0  0  0
    1.4966    2.9042   -2.6056 H   0  0  0  0  0  0  0  0  0  0  0  0
    0.4754    3.1196   -4.0397 H   0  0  0  0  0  0  0  0  0  0  0  0
    1.2978    0.5411   -0.9947 N   0  0  0  0  0  0  0  0  0  0  0  0
    1.5371    0.0807    0.3489 C   0  0  2  0  0  0  0  0  0  0  0  0
    2.9223    0.5719    0.7546 C   0  0  0  0  0  0  0  0  0  0  0  0
    3.7308   -0.1305    1.3579 O   0  0  0  0  0  0  0  0  0  0  0  0
    1.4593   -1.4472    0.4599 C   0  0  0  0  0  0  0  0  0  0  0  0
    0.0543   -2.0037    0.2211 C   0  0  0  0  0  0  0  0  0  0  0  0
   -0.0207   -3.5168    0.3067 C   0  0  0  0  0  0  0  0  0  0  0  0
    0.9541   -4.2440    0.4736 O   0  0  0  0  0  0  0  0  0  0  0  0
   -1.3067   -3.9875    0.1497 N   0  0  0  0  0  0  0  0  0  0  0  0
    2.0949    0.6178   -1.6227 H   0  0  0  0  0  0  0  0  0  0  0  0
    0.7873    0.5636    0.9845 H   0  0  0  0  0  0  0  0  0  0  0  0
    2.1394   -1.8973   -0.2756 H   0  0  0  0  0  0  0  0  0  0  0  0
    1.8184   -1.7714    1.4449 H   0  0  0  0  0  0  0  0  0  0  0  0
   -0.2677   -1.7254   -0.7900 H   0  0  0  0  0  0  0  0  0  0  0  0
   -0.6630   -1.5646    0.9234 H   0  0  0  0  0  0  0  0  0  0  0  0
   -2.0564   -3.3209   -0.0018 H   0  0  0  0  0  0  0  0  0  0  0  0
   -1.5306   -4.9770    0.1802 H   0  0  0  0  0  0  0  0  0  0  0  0
    3.1254    1.9001    0.4070 N   0  0  0  0  0  0  0  0  0  0  0  0
    4.3460    2.6181    0.6957 C   0  0  2  0  0  0  0  0  0  0  0  0
    5.5169    1.7574    0.2399 C   0  0  0  0  0  0  0  0  0  0  0  0
    5.4397    0.5383    0.1021 O   0  0  0  0  0  0  0  0  0  0  0  0
    4.4573    2.9473    2.1762 C   0  0  0  0  0  0  0  0  0  0  0  0
    2.3787    2.3923   -0.0745 H   0  0  0  0  0  0  0  0  0  0  0  0
    4.3179    3.5401    0.1048 H   0  0  0  0  0  0  0  0  0  0  0  0
    4.4868    2.0359    2.7843 H   0  0  0  0  0  0  0  0  0  0  0  0
    5.3686    3.5161    2.3888 H   0  0  0  0  0  0  0  0  0  0  0  0
    3.5992    3.5413    2.5090 H   0  0  0  0  0  0  0  0  0  0  0  0
    6.6701    2.5050    0.0468 N   0  0  0  0  0  0  0  0  0  0  0  0
    7.9198    1.9159   -0.3742 C   0  0  0  0  0  0  0  0  0  0  0  0
    6.6378    3.5133    0.1660 H   0  0  0  0  0  0  0  0  0  0  0  0
    8.5205    1.6579    0.5105 H   0  0  0  0  0  0  0  0  0  0  0  0
    7.7177    1.0059   -0.9581 H   0  0  0  0  0  0  0  0  0  0  0  0
    8.4731    2.6352   -0.9958 H   0  0  0  0  0  0  0  0  0  0  0  0
  1  3  1  0  0  0  0
  1  7  1  0  0  0  0
  1  2  2  0  0  0  0
 22 23  1  0  0  0  0
 23 25  1  0  0  0  0
 23 24  2  0  0  0  0
 35 36  1  0  0  0  0
 36 44  1  0  0  0  0
 36 37  2  0  0  0  0
  8  9  1  0  0  0  0
  9 17  1  0  0  0  0
  9 10  2  0  0  0  0
 18 19  1  0  0  0  0
 19 34  1  0  0  0  0
 19 20  2  0  0  0  0
 35 38  1  0  0  0  0
  8 11  1  0  0  0  0
 44 45  1  0  0  0  0
 21 22  1  0  0  0  0
 18 21  1  0  0  0  0
 34 35  1  0  0  0  0
  7  8  1  0  0  0  0
 17 18  1  0  0  0  0
  3  4  1  0  0  0  0
  3  5  1  0  0  0  0
  3  6  1  0  0  0  0
 38 41  1  0  0  0  0
 38 42  1  0  0  0  0
 38 43  1  0  0  0  0
 11 14  1  0  0  0  0
 11 15  1  0  0  0  0
 11 16  1  0  0  0  0
 45 47  1  0  0  0  0
 45 48  1  0  0  0  0
 45 49  1  0  0  0  0
 22 30  1  0  0  0  0
 22 31  1  0  0  0  0
 21 28  1  0  0  0  0
 21 29  1  0  0  0  0
 35 40  1  0  0  0  0
  8 13  1  0  0  0  0
 18 27  1  0  0  0  0
 25 32  1  0  0  0  0
 25 33  1  0  0  0  0
 44 46  1  0  0  0  0
  7 12  1  0  0  0  0
 34 39  1  0  0  0  0
 17 26  1  0  0  0  0
M  END
$$$$

  -OEChem-05262214473D

 49 48  0     1  0  0  0  0  0999 V2000
   -1.9833   -0.0509   -3.3423 C   0  0  0  0  0  0  0  0  0  0  0  0
   -1.6199   -1.0613   -2.7518 O   0  0  0  0  0  0  0  0  0  0  0  0
   -3.3243   -0.0235   -3.9975 C   0  0  0  0  0  0  0  0  0  0  0  0
   -3.2886   -0.3689   -5.0432 H   0  0  0  0  0  0  0  0  0  0  0  0
   -4.0503   -0.6845   -3.4973 H   0  0  0  0  0  0  0  0  0  0  0  0
   -3.8104    0.9645   -4.0351 H   0  0  0  0  0  0  0  0  0  0  0  0
   -1.2607    1.1231   -3.4768 N   0  0  0  0  0  0  0  0  0  0  0  0
    0.0536    1.3115   -2.9213 C   0  0  2  0  0  0  0  0  0  0  0  0
    0.0266    0.8315   -1.4761 C   0  0  0  0  0  0  0  0  0  0  0  0
   -1.0065    0.7530   -0.8146 O   0  0  0  0  0  0  0  0  0  0  0  0
    0.4852    2.7674   -3.0025 C   0  0  0  0  0  0  0  0  0  0  0  0
   -1.6809    1.8924   -3.9952 H   0  0  0  0  0  0  0  0  0  0  0  0
    0.7360    0.6822   -3.5030 H   0  0  0  0  0  0  0  0  0  0  0  0
   -0.1867    3.4133   -2.4256 H   0  0  0  0  0  0  0  0  0  0  0  0
    1.4966    2.9042   -2.6056 H   0  0  0  0  0  0  0  0  0  0  0  0
    0.4754    3.1196   -4.0397 H   0  0  0  0  0  0  0  0  0  0  0  0
    1.2978    0.5411   -0.9947 N   0  0  0  0  0  0  0  0  0  0  0  0
    1.5371    0.0807    0.3489 C   0  0  2  0  0  0  0  0  0  0  0  0
    2.9223    0.5719    0.7546 C   0  0  0  0  0  0  0  0  0  0  0  0
    3.8227   -0.1854    1.1109 O   0  0  0  0  0  0  0  0  0  0  0  0
    1.4593   -1.4472    0.4599 C   0  0  0  0  0  0  0  0  0  0  0  0
    0.0543   -2.0037    0.2211 C   0  0  0  0  0  0  0  0  0  0  0  0
   -0.0207   -3.5168    0.3067 C   0  0  0  0  0  0  0  0  0  0  0  0
    0.9541   -4.2440    0.4736 O   0  0  0  0  0  0  0  0  0  0  0  0
   -1.3067   -3.9875    0.1497 N   0  0  0  0  0  0  0  0  0  0  0  0
    2.0949    0.6178   -1.6227 H   0  0  0  0  0  0  0  0  0  0  0  0
    0.7873    0.5636    0.9845 H   0  0  0  0  0  0  0  0  0  0  0  0
    2.1394   -1.8973   -0.2756 H   0  0  0  0  0  0  0  0  0  0  0  0
    1.8184   -1.7714    1.4449 H   0  0  0  0  0  0  0  0  0  0  0  0
   -0.2677   -1.7254   -0.7900 H   0  0  0  0  0  0  0  0  0  0  0  0
   -0.6630   -1.5646    0.9234 H   0  0  0  0  0  0  0  0  0  0  0  0
   -2.0564   -3.3209   -0.0018 H   0  0  0  0  0  0  0  0  0  0  0  0
   -1.5306   -4.9770    0.1802 H   0  0  0  0  0  0  0  0  0  0  0  0
    3.0141    1.9563    0.7190 N   0  0  0  0  0  0  0  0  0  0  0  0
    4.2116    2.6815    1.0777 C   0  0  2  0  0  0  0  0  0  0  0  0
    5.3845    2.0453    0.3435 C   0  0  0  0  0  0  0  0  0  0  0  0
    5.3669    0.8894   -0.0744 O   0  0  0  0  0  0  0  0  0  0  0  0
    4.4385    2.6657    2.5814 C   0  0  0  0  0  0  0  0  0  0  0  0
    2.1987    2.4864    0.4260 H   0  0  0  0  0  0  0  0  0  0  0  0
    4.0753    3.7104    0.7271 H   0  0  0  0  0  0  0  0  0  0  0  0
    4.5772    1.6432    2.9510 H   0  0  0  0  0  0  0  0  0  0  0  0
    5.3303    3.2395    2.8541 H   0  0  0  0  0  0  0  0  0  0  0  0
    3.5810    3.0966    3.1095 H   0  0  0  0  0  0  0  0  0  0  0  0
    6.4691    2.9059    0.2478 N   0  0  0  0  0  0  0  0  0  0  0  0
    7.7075    2.5311   -0.3940 C   0  0  0  0  0  0  0  0  0  0  0  0
    6.3885    3.8531    0.6057 H   0  0  0  0  0  0  0  0  0  0  0  0
    8.4009    2.1229    0.3561 H   0  0  0  0  0  0  0  0  0  0  0  0
    7.5067    1.7685   -1.1609 H   0  0  0  0  0  0  0  0  0  0  0  0
    8.1582    3.4164   -0.8663 H   0  0  0  0  0  0  0  0  0  0  0  0
  1  3  1  0  0  0  0
  1  7  1  0  0  0  0
  1  2  2  0  0  0  0
 22 23  1  0  0  0  0
 23 25  1  0  0  0  0
 23 24  2  0  0  0  0
 35 36  1  0  0  0  0
 36 44  1  0  0  0  0
 36 37  2  0  0  0  0
  8  9  1  0  0  0  0
  9 17  1  0  0  0  0
  9 10  2  0  0  0  0
 18 19  1  0  0  0  0
 19 34  1  0  0  0  0
 19 20  2  0  0  0  0
 35 38  1  0  0  0  0
  8 11  1  0  0  0  0
 44 45  1  0  0  0  0
 21 22  1  0  0  0  0
 18 21  1  0  0  0  0
 34 35  1  0  0  0  0
  7  8  1  0  0  0  0
 17 18  1  0  0  0  0
  3  4  1  0  0  0  0
  3  5  1  0  0  0  0
  3  6  1  0  0  0  0
 38 41  1  0  0  0  0
 38 42  1  0  0  0  0
 38 43  1  0  0  0  0
 11 14  1  0  0  0  0
 11 15  1  0  0  0  0
 11 16  1  0  0  0  0
 45 47  1  0  0  0  0
 45 48  1  0  0  0  0
 45 49  1  0  0  0  0
 22 30  1  0  0  0  0
 22 31  1  0  0  0  0
 21 28  1  0  0  0  0
 21 29  1  0  0  0  0
 35 40  1  0  0  0  0
  8 13  1  0  0  0  0
 18 27  1  0  0  0  0
 25 32  1  0  0  0  0
 25 33  1  0  0  0  0
 44 46  1  0  0  0  0
  7 12  1  0  0  0  0
 34 39  1  0  0  0  0
 17 26  1  0  0  0  0
M  END
$$$$

  -OEChem-05262214473D

 49 48  0     1  0  0  0  0  0999 V2000
   -1.9833   -0.0509   -3.3423 C   0  0  0  0  0  0  0  0  0  0  0  0
   -1.6199   -1.0613   -2.7518 O   0  0  0  0  0  0  0  0  0  0  0  0
   -3.3243   -0.0235   -3.9975 C   0  0  0  0  0  0  0  0  0  0  0  0
   -3.2886   -0.3689   -5.0432 H   0  0  0  0  0  0  0  0  0  0  0  0
   -4.0503   -0.6845   -3.4973 H   0  0  0  0  0  0  0  0  0  0  0  0
   -3.8104    0.9645   -4.0351 H   0  0  0  0  0  0  0  0  0  0  0  0
   -1.2607    1.1231   -3.4768 N   0  0  0  0  0  0  0  0  0  0  0  0
    0.0536    1.3115   -2.9213 C   0  0  2  0  0  0  0  0  0  0  0  0
    0.0266    0.8315   -1.4761 C   0  0  0  0  0  0  0  0  0  0  0  0
   -1.0065    0.7530   -0.8146 O   0  0  0  0  0  0  0  0  0  0  0  0
    0.4852    2.7674   -3.0025 C   0  0  0  0  0  0  0  0  0  0  0  0
   -1.6809    1.8924   -3.9952 H   0  0  0  0  0  0  0  0  0  0  0  0
    0.7360    0.6822   -3.5030 H   0  0  0  0  0  0  0  0  0  0  0  0
   -0.1867    3.4133   -2.4256 H   0  0  0  0  0  0  0  0  0  0  0  0
    1.4966    2.9042   -2.6056 H   0  0  0  0  0  0  0  0  0  0  0  0
    0.4754    3.1196   -4.0397 H   0  0  0  0  0  0  0  0  0  0  0  0
    1.2978    0.5411   -0.9947 N   0  0  0  0  0  0  0  0  0  0  0  0
    1.5371    0.0807    0.3489 C   0  0  2  0  0  0  0  0  0  0  0  0
    2.9223    0.5719    0.7546 C   0  0  0  0  0  0  0  0  0  0  0  0
    3.8945   -0.1740    0.8517 O   0  0  0  0  0  0  0  0  0  0  0  0
    1.4593   -1.4472    0.4599 C   0  0  0  0  0  0  0  0  0  0  0  0
    0.0543   -2.0037    0.2211 C   0  0  0  0  0  0  0  0  0  0  0  0
   -0.0207   -3.5168    0.3067 C   0  0  0  0  0  0  0  0  0  0  0  0
    0.9541   -4.2440    0.4736 O   0  0  0  0  0  0  0  0  0  0  0  0
   -1.3067   -3.9875    0.1497 N   0  0  0  0  0  0  0  0  0  0  0  0
    2.0949    0.6178   -1.6227 H   0  0  0  0  0  0  0  0  0  0  0  0
    0.7873    0.5636    0.9845 H   0  0  0  0  0  0  0  0  0  0  0  0
    2.1394   -1.8973   -0.2756 H   0  0  0  0  0  0  0  0  0  0  0  0
    1.8184   -1.7714    1.4449 H   0  0  0  0  0  0  0  0  0  0  0  0
   -0.2677   -1.7254   -0.7900 H   0  0  0  0  0  0  0  0  0  0  0  0
   -0.6630   -1.5646    0.9234 H   0  0  0  0  0  0  0  0  0  0  0  0
   -2.0564   -3.3209   -0.0018 H   0  0  0  0  0  0  0  0  0  0  0  0
   -1.5306   -4.9770    0.1802 H   0  0  0  0  0  0  0  0  0  0  0  0
    2.9287    1.9296    1.0428 N   0  0  0  0  0  0  0  0  0  0  0  0
    4.1093    2.6437    1.4729 C   0  0  2  0  0  0  0  0  0  0  0  0
    5.2454    2.2899    0.5223 C   0  0  0  0  0  0  0  0  0  0  0  0
    5.2577    1.2649   -0.1562 O   0  0  0  0  0  0  0  0  0  0  0  0
    4.4735    2.2971    2.9081 C   0  0  0  0  0  0  0  0  0  0  0  0
    2.0602    2.4472    0.9465 H   0  0  0  0  0  0  0  0  0  0  0  0
    3.8810    3.7118    1.3885 H   0  0  0  0  0  0  0  0  0  0  0  0
    4.7055    1.2309    3.0122 H   0  0  0  0  0  0  0  0  0  0  0  0
    5.3512    2.8604    3.2418 H   0  0  0  0  0  0  0  0  0  0  0  0
    3.6441    2.5246    3.5865 H   0  0  0  0  0  0  0  0  0  0  0  0
    6.2641    3.2320    0.5530 N   0  0  0  0  0  0  0  0  0  0  0  0
    7.4584    3.1153   -0.2507 C   0  0  0  0  0  0  0  0  0  0  0  0
    6.1610    4.0608    1.1311 H   0  0  0  0  0  0  0  0  0  0  0  0
    8.2404    2.6000    0.3263 H   0  0  0  0  0  0  0  0  0  0  0  0
    7.2335    2.5383   -1.1599 H   0  0  0  0  0  0  0  0  0  0  0  0
    7.8110    4.1188   -0.5312 H   0  0  0  0  0  0  0  0  0  0  0  0
  1  3  1  0  0  0  0
  1  7  1  0  0  0  0
  1  2  2  0  0  0  0
 22 23  1  0  0  0  0
 23 25  1  0  0  0  0
 23 24  2  0  0  0  0
 35 36  1  0  0  0  0
 36 44  1  0  0  0  0
 36 37  2  0  0  0  0
  8  9  1  0  0  0  0
  9 17  1  0  0  0  0
  9 10  2  0  0  0  0
 18 19  1  0  0  0  0
 19 34  1  0  0  0  0
 19 20  2  0  0  0  0
 35 38  1  0  0  0  0
  8 11  1  0  0  0  0
 44 45  1  0  0  0  0
 21 22  1  0  0  0  0
 18 21  1  0  0  0  0
 34 35  1  0  0  0  0
  7  8  1  0  0  0  0
 17 18  1  0  0  0  0
  3  4  1  0  0  0  0
  3  5  1  0  0  0  0
  3  6  1  0  0  0  0
 38 41  1  0  0  0  0
 38 42  1  0  0  0  0
 38 43  1  0  0  0  0
 11 14  1  0  0  0  0
 11 15  1  0  0  0  0
 11 16  1  0  0  0  0
 45 47  1  0  0  0  0
 45 48  1  0  0  0  0
 45 49  1  0  0  0  0
 22 30  1  0  0  0  0
 22 31  1  0  0  0  0
 21 28  1  0  0  0  0
 21 29  1  0  0  0  0
 35 40  1  0  0  0  0
  8 13  1  0  0  0  0
 18 27  1  0  0  0  0
 25 32  1  0  0  0  0
 25 33  1  0  0  0  0
 44 46  1  0  0  0  0
  7 12  1  0  0  0  0
 34 39  1  0  0  0  0
 17 26  1  0  0  0  0
M  END
$$$$

  -OEChem-05262214473D

 49 48  0     1  0  0  0  0  0999 V2000
   -1.9833   -0.0509   -3.3423 C   0  0  0  0  0  0  0  0  0  0  0  0
   -1.6199   -1.0613   -2.7518 O   0  0  0  0  0  0  0  0  0  0  0  0
   -3.3243   -0.0235   -3.9975 C   0  0  0  0  0  0  0  0  0  0  0  0
   -3.2886   -0.3689   -5.0432 H   0  0  0  0  0  0  0  0  0  0  0  0
   -4.0503   -0.6845   -3.4973 H   0  0  0  0  0  0  0  0  0  0  0  0
   -3.8104    0.9645   -4.0351 H   0  0  0  0  0  0  0  0  0  0  0  0
   -1.2607    1.1231   -3.4768 N   0  0  0  0  0  0  0  0  0  0  0  0
    0.0536    1.3115   -2.9213 C   0  0  2  0  0  0  0  0  0  0  0  0
    0.0266    0.8315   -1.4761 C   0  0  0  0  0  0  0  0  0  0  0  0
   -1.0065    0.7530   -0.8146 O   0  0  0  0  0  0  0  0  0  0  0  0
    0.4852    2.7674   -3.0025 C   0  0  0  0  0  0  0  0  0  0  0  0
   -1.6809    1.8924   -3.9952 H   0  0  0  0  0  0  0  0  0  0  0  0
    0.7360    0.6822   -3.5030 H   0  0  0  0  0  0  0  0  0  0  0  0
   -0.1867    3.4133   -2.4256 H   0  0  0  0  0  0  0  0  0  0  0  0
    1.4966    2.9042   -2.6056 H   0  0  0  0  0  0  0  0  0  0  0  0
    0.4754    3.1196   -4.0397 H   0  0  0  0  0  0  0  0  0  0  0  0
    1.2978    0.5411   -0.9947 N   0  0  0  0  0  0  0  0  0  0  0  0
    1.5371    0.0807    0.3489 C   0  0  2  0  0  0  0  0  0  0  0  0
    2.9223    0.5719    0.7546 C   0  0  0  0  0  0  0  0  0  0  0  0
    3.9416   -0.0971    0.5980 O   0  0  0  0  0  0  0  0  0  0  0  0
    1.4593   -1.4472    0.4599 C   0  0  0  0  0  0  0  0  0  0  0  0
    0.0543   -2.0037    0.2211 C   0  0  0  0  0  0  0  0  0  0  0  0
   -0.0207   -3.5168    0.3067 C   0  0  0  0  0  0  0  0  0  0  0  0
    0.9541   -4.2440    0.4736 O   0  0  0  0  0  0  0  0  0  0  0  0
   -1.3067   -3.9875    0.1497 N   0  0  0  0  0  0  0  0  0  0  0  0
    2.0949    0.6178   -1.6227 H   0  0  0  0  0  0  0  0  0  0  0  0
    0.7873    0.5636    0.9845 H   0  0  0  0  0  0  0  0  0  0  0  0
    2.1394   -1.8973   -0.2756 H   0  0  0  0  0  0  0  0  0  0  0  0
    1.8184   -1.7714    1.4449 H   0  0  0  0  0  0  0  0  0  0  0  0
   -0.2677   -1.7254   -0.7900 H   0  0  0  0  0  0  0  0  0  0  0  0
   -0.6630   -1.5646    0.9234 H   0  0  0  0  0  0  0  0  0  0  0  0
   -2.0564   -3.3209   -0.0018 H   0  0  0  0  0  0  0  0  0  0  0  0
   -1.5306   -4.9770    0.1802 H   0  0  0  0  0  0  0  0  0  0  0  0
    2.8751    1.8217    1.3564 N   0  0  0  0  0  0  0  0  0  0  0  0
    4.0460    2.5073    1.8542 C   0  0  2  0  0  0  0  0  0  0  0  0
    5.1091    2.4746    0.7641 C   0  0  0  0  0  0  0  0  0  0  0  0
    5.1195    1.6394   -0.1379 O   0  0  0  0  0  0  0  0  0  0  0  0
    4.5600    1.8667    3.1341 C   0  0  0  0  0  0  0  0  0  0  0  0
    1.9724    2.2774    1.4517 H   0  0  0  0  0  0  0  0  0  0  0  0
    3.7484    3.5443    2.0439 H   0  0  0  0  0  0  0  0  0  0  0  0
    4.8629    0.8271    2.9636 H   0  0  0  0  0  0  0  0  0  0  0  0
    5.4298    2.4045    3.5254 H   0  0  0  0  0  0  0  0  0  0  0  0
    3.7843    1.8642    3.9074 H   0  0  0  0  0  0  0  0  0  0  0  0
    6.0690    3.4611    0.9415 N   0  0  0  0  0  0  0  0  0  0  0  0
    7.1895    3.6287    0.0457 C   0  0  0  0  0  0  0  0  0  0  0  0
    5.9707    4.1222    1.7064 H   0  0  0  0  0  0  0  0  0  0  0  0
    8.0501    3.0569    0.4231 H   0  0  0  0  0  0  0  0  0  0  0  0
    6.9166    3.2627   -0.9551 H   0  0  0  0  0  0  0  0  0  0  0  0
    7.4552    4.6945   -0.0135 H   0  0  0  0  0  0  0  0  0  0  0  0
  1  3  1  0  0  0  0
  1  7  1  0  0  0  0
  1  2  2  0  0  0  0
 22 23  1  0  0  0  0
 23 25  1  0  0  0  0
 23 24  2  0  0  0  0
 35 36  1  0  0  0  0
 36 44  1  0  0  0  0
 36 37  2  0  0  0  0
  8  9  1  0  0  0  0
  9 17  1  0  0  0  0
  9 10  2  0  0  0  0
 18 19  1  0  0  0  0
 19 34  1  0  0  0  0
 19 20  2  0  0  0  0
 35 38  1  0  0  0  0
  8 11  1  0  0  0  0
 44 45  1  0  0  0  0
 21 22  1  0  0  0  0
 18 21  1  0  0  0  0
 34 35  1  0  0  0  0
  7  8  1  0  0  0  0
 17 18  1  0  0  0  0
  3  4  1  0  0  0  0
  3  5  1  0  0  0  0
  3  6  1  0  0  0  0
 38 41  1  0  0  0  0
 38 42  1  0  0  0  0
 38 43  1  0  0  0  0
 11 14  1  0  0  0  0
 11 15  1  0  0  0  0
 11 16  1  0  0  0  0
 45 47  1  0  0  0  0
 45 48  1  0  0  0  0
 45 49  1  0  0  0  0
 22 30  1  0  0  0  0
 22 31  1  0  0  0  0
 21 28  1  0  0  0  0
 21 29  1  0  0  0  0
 35 40  1  0  0  0  0
  8 13  1  0  0  0  0
 18 27  1  0  0  0  0
 25 32  1  0  0  0  0
 25 33  1  0  0  0  0
 44 46  1  0  0  0  0
  7 12  1  0  0  0  0
 34 39  1  0  0  0  0
 17 26  1  0  0  0  0
M  END
$$$$

  -OEChem-05262214473D

 49 48  0     1  0  0  0  0  0999 V2000
   -1.9833   -0.0509   -3.3423 C   0  0  0  0  0  0  0  0  0  0  0  0
   -1.6199   -1.0613   -2.7518 O   0  0  0  0  0  0  0  0  0  0  0  0
   -3.3243   -0.0235   -3.9975 C   0  0  0  0  0  0  0  0  0  0  0  0
   -3.2886   -0.3689   -5.0432 H   0  0  0  0  0  0  0  0  0  0  0  0
   -4.0503   -0.6845   -3.4973 H   0  0  0  0  0  0  0  0  0  0  0  0
   -3.8104    0.9645   -4.0351 H   0  0  0  0  0  0  0  0  0  0  0  0
   -1.2607    1.1231   -3.4768 N   0  0  0  0  0  0  0  0  0  0  0  0
    0.0536    1.3115   -2.9213 C   0  0  2  0  0  0  0  0  0  0  0  0
    0.0266    0.8315   -1.4761 C   0  0  0  0  0  0  0  0  0  0  0  0
   -1.0065    0.7530   -0.8146 O   0  0  0  0  0  0  0  0  0  0  0  0
    0.4852    2.7674   -3.0025 C   0  0  0  0  0  0  0  0  0  0  0  0
   -1.6809    1.8924   -3.9952 H   0  0  0  0  0  0  0  0  0  0  0  0
    0.7360    0.6822   -3.5030 H   0  0  0  0  0  0  0  0  0  0  0  0
   -0.1867    3.4133   -2.4256 H   0  0  0  0  0  0  0  0  0  0  0  0
    1.4966    2.9042   -2.6056 H   0  0  0  0  0  0  0  0  0  0  0  0
    0.4754    3.1196   -4.0397 H   0  0  0  0  0  0  0  0  0  0  0  0
    1.2978    0.5411   -0.9947 N   0  0  0  0  0  0  0  0  0  0  0  0
    1.5371    0.0807    0.3489 C   0  0  2  0  0  0  0  0  0  0  0  0
    2.9223    0.5719    0.7546 C   0  0  0  0  0  0  0  0  0  0  0  0
    3.9606    0.0401    0.3671 O   0  0  0  0  0  0  0  0  0  0  0  0
    1.4593   -1.4472    0.4599 C   0  0  0  0  0  0  0  0  0  0  0  0
    0.0543   -2.0037    0.2211 C   0  0  0  0  0  0  0  0  0  0  0  0
   -0.0207   -3.5168    0.3067 C   0  0  0  0  0  0  0  0  0  0  0  0
    0.9541   -4.2440    0.4736 O   0  0  0  0  0  0  0  0  0  0  0  0
   -1.3067   -3.9875    0.1497 N   0  0  0  0  0  0  0  0  0  0  0  0
    2.0949    0.6178   -1.6227 H   0  0  0  0  0  0  0  0  0  0  0  0
    0.7873    0.5636    0.9845 H   0  0  0  0  0  0  0  0  0  0  0  0
    2.1394   -1.8973   -0.2756 H   0  0  0  0  0  0  0  0  0  0  0  0
    1.8184   -1.7714    1.4449 H   0  0  0  0  0  0  0  0  0  0  0  0
   -0.2677   -1.7254   -0.7900 H   0  0  0  0  0  0  0  0  0  0  0  0
   -0.6630   -1.5646    0.9234 H   0  0  0  0  0  0  0  0  0  0  0  0
   -2.0564   -3.3209   -0.0018 H   0  0  0  0  0  0  0  0  0  0  0  0
   -1.5306   -4.9770    0.1802 H   0  0  0  0  0  0  0  0  0  0  0  0
    2.8569    1.6401    1.6384 N   0  0  0  0  0  0  0  0  0  0  0  0
    4.0260    2.2814    2.1957 C   0  0  2  0  0  0  0  0  0  0  0  0
    4.9849    2.5867    1.0524 C   0  0  0  0  0  0  0  0  0  0  0  0
    4.9618    1.9873   -0.0205 O   0  0  0  0  0  0  0  0  0  0  0  0
    4.6919    1.4037    3.2439 C   0  0  0  0  0  0  0  0  0  0  0  0
    1.9415    1.9885    1.9070 H   0  0  0  0  0  0  0  0  0  0  0  0
    3.6866    3.2193    2.6487 H   0  0  0  0  0  0  0  0  0  0  0  0
    5.0387    0.4594    2.8086 H   0  0  0  0  0  0  0  0  0  0  0  0
    5.5608    1.9028    3.6855 H   0  0  0  0  0  0  0  0  0  0  0  0
    3.9919    1.1606    4.0505 H   0  0  0  0  0  0  0  0  0  0  0  0
    5.8972    3.5776    1.3870 N   0  0  0  0  0  0  0  0  0  0  0  0
    6.9191    4.0365    0.4753 C   0  0  0  0  0  0  0  0  0  0  0  0
    5.8306    4.0331    2.2924 H   0  0  0  0  0  0  0  0  0  0  0  0
    7.8428    3.4623    0.6399 H   0  0  0  0  0  0  0  0  0  0  0  0
    6.5777    3.8925   -0.5605 H   0  0  0  0  0  0  0  0  0  0  0  0
    7.1150    5.1044    0.6517 H   0  0  0  0  0  0  0  0  0  0  0  0
  1  3  1  0  0  0  0
  1  7  1  0  0  0  0
  1  2  2  0  0  0  0
 22 23  1  0  0  0  0
 23 25  1  0  0  0  0
 23 24  2  0  0  0  0
 35 36  1  0  0  0  0
 36 44  1  0  0  0  0
 36 37  2  0  0  0  0
  8  9  1  0  0  0  0
  9 17  1  0  0  0  0
  9 10  2  0  0  0  0
 18 19  1  0  0  0  0
 19 34  1  0  0  0  0
 19 20  2  0  0  0  0
 35 38  1  0  0  0  0
  8 11  1  0  0  0  0
 44 45  1  0  0  0  0
 21 22  1  0  0  0  0
 18 21  1  0  0  0  0
 34 35  1  0  0  0  0
  7  8  1  0  0  0  0
 17 18  1  0  0  0  0
  3  4  1  0  0  0  0
  3  5  1  0  0  0  0
  3  6  1  0  0  0  0
 38 41  1  0  0  0  0
 38 42  1  0  0  0  0
 38 43  1  0  0  0  0
 11 14  1  0  0  0  0
 11 15  1  0  0  0  0
 11 16  1  0  0  0  0
 45 47  1  0  0  0  0
 45 48  1  0  0  0  0
 45 49  1  0  0  0  0
 22 30  1  0  0  0  0
 22 31  1  0  0  0  0
 21 28  1  0  0  0  0
 21 29  1  0  0  0  0
 35 40  1  0  0  0  0
  8 13  1  0  0  0  0
 18 27  1  0  0  0  0
 25 32  1  0  0  0  0
 25 33  1  0  0  0  0
 44 46  1  0  0  0  0
  7 12  1  0  0  0  0
 34 39  1  0  0  0  0
 17 26  1  0  0  0  0
M  END
$$$$

  -OEChem-05262214473D

 49 48  0     1  0  0  0  0  0999 V2000
   -1.9833   -0.0509   -3.3423 C   0  0  0  0  0  0  0  0  0  0  0  0
   -1.6199   -1.0613   -2.7518 O   0  0  0  0  0  0  0  0  0  0  0  0
   -3.3243   -0.0235   -3.9975 C   0  0  0  0  0  0  0  0  0  0  0  0
   -3.2886   -0.3689   -5.0432 H   0  0  0  0  0  0  0  0  0  0  0  0
   -4.0503   -0.6845   -3.4973 H   0  0  0  0  0  0  0  0  0  0  0  0
   -3.8104    0.9645   -4.0351 H   0  0  0  0  0  0  0  0  0  0  0  0
   -1.2607    1.1231   -3.4768 N   0  0  0  0  0  0  0  0  0  0  0  0
    0.0536    1.3115   -2.9213 C   0  0  2  0  0  0  0  0  0  0  0  0
    0.0266    0.8315   -1.4761 C   0  0  0  0  0  0  0  0  0  0  0  0
   -1.0065    0.7530   -0.8146 O   0  0  0  0  0  0  0  0  0  0  0  0
    0.4852    2.7674   -3.0025 C   0  0  0  0  0  0  0  0  0  0  0  0
   -1.6809    1.8924   -3.9952 H   0  0  0  0  0  0  0  0  0  0  0  0
    0.7360    0.6822   -3.5030 H   0  0  0  0  0  0  0  0  0  0  0  0
   -0.1867    3.4133   -2.4256 H   0  0  0  0  0  0  0  0  0  0  0  0
    1.4966    2.9042   -2.6056 H   0  0  0  0  0  0  0  0  0  0  0  0
    0.4754    3.1196   -4.0397 H   0  0  0  0  0  0  0  0  0  0  0  0
    1.2978    0.5411   -0.9947 N   0  0  0  0  0  0  0  0  0  0  0  0
    1.5371    0.0807    0.3489 C   0  0  2  0  0  0  0  0  0  0  0  0
    2.9223    0.5719    0.7546 C   0  0  0  0  0  0  0  0  0  0  0  0
    3.9502    0.2282    0.1748 O   0  0  0  0  0  0  0  0  0  0  0  0
    1.4593   -1.4472    0.4599 C   0  0  0  0  0  0  0  0  0  0  0  0
    0.0543   -2.0037    0.2211 C   0  0  0  0  0  0  0  0  0  0  0  0
   -0.0207   -3.5168    0.3067 C   0  0  0  0  0  0  0  0  0  0  0  0
    0.9541   -4.2440    0.4736 O   0  0  0  0  0  0  0  0  0  0  0  0
   -1.3067   -3.9875    0.1497 N   0  0  0  0  0  0  0  0  0  0  0  0
    2.0949    0.6178   -1.6227 H   0  0  0  0  0  0  0  0  0  0  0  0
    0.7873    0.5636    0.9845 H   0  0  0  0  0  0  0  0  0  0  0  0
    2.1394   -1.8973   -0.2756 H   0  0  0  0  0  0  0  0  0  0  0  0
    1.8184   -1.7714    1.4449 H   0  0  0  0  0  0  0  0  0  0  0  0
   -0.2677   -1.7254   -0.7900 H   0  0  0  0  0  0  0  0  0  0  0  0
   -0.6630   -1.5646    0.9234 H   0  0  0  0  0  0  0  0  0  0  0  0
   -2.0564   -3.3209   -0.0018 H   0  0  0  0  0  0  0  0  0  0  0  0
   -1.5306   -4.9770    0.1802 H   0  0  0  0  0  0  0  0  0  0  0  0
    2.8754    1.3971    1.8696 N   0  0  0  0  0  0  0  0  0  0  0  0
    4.0508    1.9816    2.4741 C   0  0  2  0  0  0  0  0  0  0  0  0
    4.8812    2.6186    1.3677 C   0  0  0  0  0  0  0  0  0  0  0  0
    4.7953    2.2849    0.1877 O   0  0  0  0  0  0  0  0  0  0  0  0
    4.8605    0.9398    3.2302 C   0  0  0  0  0  0  0  0  0  0  0  0
    1.9694    1.6003    2.2815 H   0  0  0  0  0  0  0  0  0  0  0  0
    3.6996    2.7589    3.1615 H   0  0  0  0  0  0  0  0  0  0  0  0
    5.2209    0.1527    2.5578 H   0  0  0  0  0  0  0  0  0  0  0  0
    5.7352    1.3896    3.7113 H   0  0  0  0  0  0  0  0  0  0  0  0
    4.2528    0.4616    4.0059 H   0  0  0  0  0  0  0  0  0  0  0  0
    5.7604    3.5735    1.8590 N   0  0  0  0  0  0  0  0  0  0  0  0
    6.6657    4.3107    1.0086 C   0  0  0  0  0  0  0  0  0  0  0  0
    5.7503    3.7996    2.8492 H   0  0  0  0  0  0  0  0  0  0  0  0
    7.6328    3.7886    0.9619 H   0  0  0  0  0  0  0  0  0  0  0  0
    6.2399    4.3847   -0.0030 H   0  0  0  0  0  0  0  0  0  0  0  0
    6.8136    5.3205    1.4190 H   0  0  0  0  0  0  0  0  0  0  0  0
  1  3  1  0  0  0  0
  1  7  1  0  0  0  0
  1  2  2  0  0  0  0
 22 23  1  0  0  0  0
 23 25  1  0  0  0  0
 23 24  2  0  0  0  0
 35 36  1  0  0  0  0
 36 44  1  0  0  0  0
 36 37  2  0  0  0  0
  8  9  1  0  0  0  0
  9 17  1  0  0  0  0
  9 10  2  0  0  0  0
 18 19  1  0  0  0  0
 19 34  1  0  0  0  0
 19 20  2  0  0  0  0
 35 38  1  0  0  0  0
  8 11  1  0  0  0  0
 44 45  1  0  0  0  0
 21 22  1  0  0  0  0
 18 21  1  0  0  0  0
 34 35  1  0  0  0  0
  7  8  1  0  0  0  0
 17 18  1  0  0  0  0
  3  4  1  0  0  0  0
  3  5  1  0  0  0  0
  3  6  1  0  0  0  0
 38 41  1  0  0  0  0
 38 42  1  0  0  0  0
 38 43  1  0  0  0  0
 11 14  1  0  0  0  0
 11 15  1  0  0  0  0
 11 16  1  0  0  0  0
 45 47  1  0  0  0  0
 45 48  1  0  0  0  0
 45 49  1  0  0  0  0
 22 30  1  0  0  0  0
 22 31  1  0  0  0  0
 21 28  1  0  0  0  0
 21 29  1  0  0  0  0
 35 40  1  0  0  0  0
  8 13  1  0  0  0  0
 18 27  1  0  0  0  0
 25 32  1  0  0  0  0
 25 33  1  0  0  0  0
 44 46  1  0  0  0  0
  7 12  1  0  0  0  0
 34 39  1  0  0  0  0
 17 26  1  0  0  0  0
M  END
$$$$

  -OEChem-05262214473D

 49 48  0     1  0  0  0  0  0999 V2000
   -1.9833   -0.0509   -3.3423 C   0  0  0  0  0  0  0  0  0  0  0  0
   -1.6199   -1.0613   -2.7518 O   0  0  0  0  0  0  0  0  0  0  0  0
   -3.3243   -0.0235   -3.9975 C   0  0  0  0  0  0  0  0  0  0  0  0
   -3.2886   -0.3689   -5.0432 H   0  0  0  0  0  0  0  0  0  0  0  0
   -4.0503   -0.6845   -3.4973 H   0  0  0  0  0  0  0  0  0  0  0  0
   -3.8104    0.9645   -4.0351 H   0  0  0  0  0  0  0  0  0  0  0  0
   -1.2607    1.1231   -3.4768 N   0  0  0  0  0  0  0  0  0  0  0  0
    0.0536    1.3115   -2.9213 C   0  0  2  0  0  0  0  0  0  0  0  0
    0.0266    0.8315   -1.4761 C   0  0  0  0  0  0  0  0  0  0  0  0
   -1.0065    0.7530   -0.8146 O   0  0  0  0  0  0  0  0  0  0  0  0
    0.4852    2.7674   -3.0025 C   0  0  0  0  0  0  0  0  0  0  0  0
   -1.6809    1.8924   -3.9952 H   0  0  0  0  0  0  0  0  0  0  0  0
    0.7360    0.6822   -3.5030 H   0  0  0  0  0  0  0  0  0  0  0  0
   -0.1867    3.4133   -2.4256 H   0  0  0  0  0  0  0  0  0  0  0  0
    1.4966    2.9042   -2.6056 H   0  0  0  0  0  0  0  0  0  0  0  0
    0.4754    3.1196   -4.0397 H   0  0  0  0  0  0  0  0  0  0  0  0
    1.2978    0.5411   -0.9947 N   0  0  0  0  0  0  0  0  0  0  0  0
    1.5371    0.0807    0.3489 C   0  0  2  0  0  0  0  0  0  0  0  0
    2.9223    0.5719    0.7546 C   0  0  0  0  0  0  0  0  0  0  0  0
    3.9112    0.4544    0.0341 O   0  0  0  0  0  0  0  0  0  0  0  0
    1.4593   -1.4472    0.4599 C   0  0  0  0  0  0  0  0  0  0  0  0
    0.0543   -2.0037    0.2211 C   0  0  0  0  0  0  0  0  0  0  0  0
   -0.0207   -3.5168    0.3067 C   0  0  0  0  0  0  0  0  0  0  0  0
    0.9541   -4.2440    0.4736 O   0  0  0  0  0  0  0  0  0  0  0  0
   -1.3067   -3.9875    0.1497 N   0  0  0  0  0  0  0  0  0  0  0  0
    2.0949    0.6178   -1.6227 H   0  0  0  0  0  0  0  0  0  0  0  0
    0.7873    0.5636    0.9845 H   0  0  0  0  0  0  0  0  0  0  0  0
    2.1394   -1.8973   -0.2756 H   0  0  0  0  0  0  0  0  0  0  0  0
    1.8184   -1.7714    1.4449 H   0  0  0  0  0  0  0  0  0  0  0  0
   -0.2677   -1.7254   -0.7900 H   0  0  0  0  0  0  0  0  0  0  0  0
   -0.6630   -1.5646    0.9234 H   0  0  0  0  0  0  0  0  0  0  0  0
   -2.0564   -3.3209   -0.0018 H   0  0  0  0  0  0  0  0  0  0  0  0
   -1.5306   -4.9770    0.1802 H   0  0  0  0  0  0  0  0  0  0  0  0
    2.9292    1.1092    2.0343 N   0  0  0  0  0  0  0  0  0  0  0  0
    4.1186    1.6283    2.6705 C   0  0  2  0  0  0  0  0  0  0  0  0
    4.8051    2.5682    1.6884 C   0  0  0  0  0  0  0  0  0  0  0  0
    4.6313    2.5120    0.4728 O   0  0  0  0  0  0  0  0  0  0  0  0
    5.0541    0.5065    3.0937 C   0  0  0  0  0  0  0  0  0  0  0  0
    2.0544    1.1392    2.5496 H   0  0  0  0  0  0  0  0  0  0  0  0
    3.7867    2.1945    3.5476 H   0  0  0  0  0  0  0  0  0  0  0  0
    5.3971   -0.0720    2.2282 H   0  0  0  0  0  0  0  0  0  0  0  0
    5.9412    0.8998    3.6010 H   0  0  0  0  0  0  0  0  0  0  0  0
    4.5492   -0.1852    3.7768 H   0  0  0  0  0  0  0  0  0  0  0  0
    5.6679    3.4492    2.3253 N   0  0  0  0  0  0  0  0  0  0  0  0
    6.4464    4.4327    1.6093 C   0  0  0  0  0  0  0  0  0  0  0  0
    5.7353    3.4376    3.3388 H   0  0  0  0  0  0  0  0  0  0  0  0
    7.4342    4.0137    1.3672 H   0  0  0  0  0  0  0  0  0  0  0  0
    5.9262    4.7058    0.6794 H   0  0  0  0  0  0  0  0  0  0  0  0
    6.5716    5.3280    2.2360 H   0  0  0  0  0  0  0  0  0  0  0  0
  1  3  1  0  0  0  0
  1  7  1  0  0  0  0
  1  2  2  0  0  0  0
 22 23  1  0  0  0  0
 23 25  1  0  0  0  0
 23 24  2  0  0  0  0
 35 36  1  0  0  0  0
 36 44  1  0  0  0  0
 36 37  2  0  0  0  0
  8  9  1  0  0  0  0
  9 17  1  0  0  0  0
  9 10  2  0  0  0  0
 18 19  1  0  0  0  0
 19 34  1  0  0  0  0
 19 20  2  0  0  0  0
 35 38  1  0  0  0  0
  8 11  1  0  0  0  0
 44 45  1  0  0  0  0
 21 22  1  0  0  0  0
 18 21  1  0  0  0  0
 34 35  1  0  0  0  0
  7  8  1  0  0  0  0
 17 18  1  0  0  0  0
  3  4  1  0  0  0  0
  3  5  1  0  0  0  0
  3  6  1  0  0  0  0
 38 41  1  0  0  0  0
 38 42  1  0  0  0  0
 38 43  1  0  0  0  0
 11 14  1  0  0  0  0
 11 15  1  0  0  0  0
 11 16  1  0  0  0  0
 45 47  1  0  0  0  0
 45 48  1  0  0  0  0
 45 49  1  0  0  0  0
 22 30  1  0  0  0  0
 22 31  1  0  0  0  0
 21 28  1  0  0  0  0
 21 29  1  0  0  0  0
 35 40  1  0  0  0  0
  8 13  1  0  0  0  0
 18 27  1  0  0  0  0
 25 32  1  0  0  0  0
 25 33  1  0  0  0  0
 44 46  1  0  0  0  0
  7 12  1  0  0  0  0
 34 39  1  0  0  0  0
 17 26  1  0  0  0  0
M  END
$$$$

  -OEChem-05262214473D

 49 48  0     1  0  0  0  0  0999 V2000
   -1.9833   -0.0509   -3.3423 C   0  0  0  0  0  0  0  0  0  0  0  0
   -1.6199   -1.0613   -2.7518 O   0  0  0  0  0  0  0  0  0  0  0  0
   -3.3243   -0.0235   -3.9975 C   0  0  0  0  0  0  0  0  0  0  0  0
   -3.2886   -0.3689   -5.0432 H   0  0  0  0  0  0  0  0  0  0  0  0
   -4.0503   -0.6845   -3.4973 H   0  0  0  0  0  0  0  0  0  0  0  0
   -3.8104    0.9645   -4.0351 H   0  0  0  0  0  0  0  0  0  0  0  0
   -1.2607    1.1231   -3.4768 N   0  0  0  0  0  0  0  0  0  0  0  0
    0.0536    1.3115   -2.9213 C   0  0  2  0  0  0  0  0  0  0  0  0
    0.0266    0.8315   -1.4761 C   0  0  0  0  0  0  0  0  0  0  0  0
   -1.0065    0.7530   -0.8146 O   0  0  0  0  0  0  0  0  0  0  0  0
    0.4852    2.7674   -3.0025 C   0  0  0  0  0  0  0  0  0  0  0  0
   -1.6809    1.8924   -3.9952 H   0  0  0  0  0  0  0  0  0  0  0  0
    0.7360    0.6822   -3.5030 H   0  0  0  0  0  0  0  0  0  0  0  0
   -0.1867    3.4133   -2.4256 H   0  0  0  0  0  0  0  0  0  0  0  0
    1.4966    2.9042   -2.6056 H   0  0  0  0  0  0  0  0  0  0  0  0
    0.4754    3.1196   -4.0397 H   0  0  0  0  0  0  0  0  0  0  0  0
    1.2978    0.5411   -0.9947 N   0  0  0  0  0  0  0  0  0  0  0  0
    1.5371    0.0807    0.3489 C   0  0  2  0  0  0  0  0  0  0  0  0
    2.9223    0.5719    0.7546 C   0  0  0  0  0  0  0  0  0  0  0  0
    3.8462    0.7033   -0.0454 O   0  0  0  0  0  0  0  0  0  0  0  0
    1.4593   -1.4472    0.4599 C   0  0  0  0  0  0  0  0  0  0  0  0
    0.0543   -2.0037    0.2211 C   0  0  0  0  0  0  0  0  0  0  0  0
   -0.0207   -3.5168    0.3067 C   0  0  0  0  0  0  0  0  0  0  0  0
    0.9541   -4.2440    0.4736 O   0  0  0  0  0  0  0  0  0  0  0  0
   -1.3067   -3.9875    0.1497 N   0  0  0  0  0  0  0  0  0  0  0  0
    2.0949    0.6178   -1.6227 H   0  0  0  0  0  0  0  0  0  0  0  0
    0.7873    0.5636    0.9845 H   0  0  0  0  0  0  0  0  0  0  0  0
    2.1394   -1.8973   -0.2756 H   0  0  0  0  0  0  0  0  0  0  0  0
    1.8184   -1.7714    1.4449 H   0  0  0  0  0  0  0  0  0  0  0  0
   -0.2677   -1.7254   -0.7900 H   0  0  0  0  0  0  0  0  0  0  0  0
   -0.6630   -1.5646    0.9234 H   0  0  0  0  0  0  0  0  0  0  0  0
   -2.0564   -3.3209   -0.0018 H   0  0  0  0  0  0  0  0  0  0  0  0
   -1.5306   -4.9770    0.1802 H   0  0  0  0  0  0  0  0  0  0  0  0
    3.0147    0.7962    2.1212 N   0  0  0  0  0  0  0  0  0  0  0  0
    4.2247    1.2454    2.7714 C   0  0  2  0  0  0  0  0  0  0  0  0
    4.7619    2.4389    1.9926 C   0  0  0  0  0  0  0  0  0  0  0  0
    4.4810    2.6529    0.8151 O   0  0  0  0  0  0  0  0  0  0  0  0
    5.2595    0.1334    2.8439 C   0  0  0  0  0  0  0  0  0  0  0  0
    2.1906    0.6366    2.6930 H   0  0  0  0  0  0  0  0  0  0  0  0
    3.9418    1.5645    3.7805 H   0  0  0  0  0  0  0  0  0  0  0  0
    5.5553   -0.1994    1.8423 H   0  0  0  0  0  0  0  0  0  0  0  0
    6.1647    0.4669    3.3621 H   0  0  0  0  0  0  0  0  0  0  0  0
    4.8610   -0.7356    3.3786 H   0  0  0  0  0  0  0  0  0  0  0  0
    5.6260    3.2130    2.7543 N   0  0  0  0  0  0  0  0  0  0  0  0
    6.2764    4.3942    2.2366 C   0  0  0  0  0  0  0  0  0  0  0  0
    5.7865    2.9718    3.7278 H   0  0  0  0  0  0  0  0  0  0  0  0
    7.2608    4.1221    1.8281 H   0  0  0  0  0  0  0  0  0  0  0  0
    5.6579    4.8339    1.4403 H   0  0  0  0  0  0  0  0  0  0  0  0
    6.4055    5.1265    3.0472 H   0  0  0  0  0  0  0  0  0  0  0  0
  1  3  1  0  0  0  0
  1  7  1  0  0  0  0
  1  2  2  0  0  0  0
 22 23  1  0  0  0  0
 23 25  1  0  0  0  0
 23 24  2  0  0  0  0
 35 36  1  0  0  0  0
 36 44  1  0  0  0  0
 36 37  2  0  0  0  0
  8  9  1  0  0  0  0
  9 17  1  0  0  0  0
  9 10  2  0  0  0  0
 18 19  1  0  0  0  0
 19 34  1  0  0  0  0
 19 20  2  0  0  0  0
 35 38  1  0  0  0  0
  8 11  1  0  0  0  0
 44 45  1  0  0  0  0
 21 22  1  0  0  0  0
 18 21  1  0  0  0  0
 34 35  1  0  0  0  0
  7  8  1  0  0  0  0
 17 18  1  0  0  0  0
  3  4  1  0  0  0  0
  3  5  1  0  0  0  0
  3  6  1  0  0  0  0
 38 41  1  0  0  0  0
 38 42  1  0  0  0  0
 38 43  1  0  0  0  0
 11 14  1  0  0  0  0
 11 15  1  0  0  0  0
 11 16  1  0  0  0  0
 45 47  1  0  0  0  0
 45 48  1  0  0  0  0
 45 49  1  0  0  0  0
 22 30  1  0  0  0  0
 22 31  1  0  0  0  0
 21 28  1  0  0  0  0
 21 29  1  0  0  0  0
 35 40  1  0  0  0  0
  8 13  1  0  0  0  0
 18 27  1  0  0  0  0
 25 32  1  0  0  0  0
 25 33  1  0  0  0  0
 44 46  1  0  0  0  0
  7 12  1  0  0  0  0
 34 39  1  0  0  0  0
 17 26  1  0  0  0  0
M  END
$$$$

  -OEChem-05262214473D

 49 48  0     1  0  0  0  0  0999 V2000
   -1.9833   -0.0509   -3.3423 C   0  0  0  0  0  0  0  0  0  0  0  0
   -1.6199   -1.0613   -2.7518 O   0  0  0  0  0  0  0  0  0  0  0  0
   -3.3243   -0.0235   -3.9975 C   0  0  0  0  0  0  0  0  0  0  0  0
   -3.2886   -0.3689   -5.0432 H   0  0  0  0  0  0  0  0  0  0  0  0
   -4.0503   -0.6845   -3.4973 H   0  0  0  0  0  0  0  0  0  0  0  0
   -3.8104    0.9645   -4.0351 H   0  0  0  0  0  0  0  0  0  0  0  0
   -1.2607    1.1231   -3.4768 N   0  0  0  0  0  0  0  0  0  0  0  0
    0.0536    1.3115   -2.9213 C   0  0  2  0  0  0  0  0  0  0  0  0
    0.0266    0.8315   -1.4761 C   0  0  0  0  0  0  0  0  0  0  0  0
   -1.0065    0.7530   -0.8146 O   0  0  0  0  0  0  0  0  0  0  0  0
    0.4852    2.7674   -3.0025 C   0  0  0  0  0  0  0  0  0  0  0  0
   -1.6809    1.8924   -3.9952 H   0  0  0  0  0  0  0  0  0  0  0  0
    0.7360    0.6822   -3.5030 H   0  0  0  0  0  0  0  0  0  0  0  0
   -0.1867    3.4133   -2.4256 H   0  0  0  0  0  0  0  0  0  0  0  0
    1.4966    2.9042   -2.6056 H   0  0  0  0  0  0  0  0  0  0  0  0
    0.4754    3.1196   -4.0397 H   0  0  0  0  0  0  0  0  0  0  0  0
    1.2978    0.5411   -0.9947 N   0  0  0  0  0  0  0  0  0  0  0  0
    1.5371    0.0807    0.3489 C   0  0  2  0  0  0  0  0  0  0  0  0
    2.9223    0.5719    0.7546 C   0  0  0  0  0  0  0  0  0  0  0  0
    3.7597    0.9579   -0.0582 O   0  0  0  0  0  0  0  0  0  0  0  0
    1.4593   -1.4472    0.4599 C   0  0  0  0  0  0  0  0  0  0  0  0
    0.0543   -2.0037    0.2211 C   0  0  0  0  0  0  0  0  0  0  0  0
   -0.0207   -3.5168    0.3067 C   0  0  0  0  0  0  0  0  0  0  0  0
    0.9541   -4.2440    0.4736 O   0  0  0  0  0  0  0  0  0  0  0  0
   -1.3067   -3.9875    0.1497 N   0  0  0  0  0  0  0  0  0  0  0  0
    2.0949    0.6178   -1.6227 H   0  0  0  0  0  0  0  0  0  0  0  0
    0.7873    0.5636    0.9845 H   0  0  0  0  0  0  0  0  0  0  0  0
    2.1394   -1.8973   -0.2756 H   0  0  0  0  0  0  0  0  0  0  0  0
    1.8184   -1.7714    1.4449 H   0  0  0  0  0  0  0  0  0  0  0  0
   -0.2677   -1.7254   -0.7900 H   0  0  0  0  0  0  0  0  0  0  0  0
   -0.6630   -1.5646    0.9234 H   0  0  0  0  0  0  0  0  0  0  0  0
   -2.0564   -3.3209   -0.0018 H   0  0  0  0  0  0  0  0  0  0  0  0
   -1.5306   -4.9770    0.1802 H   0  0  0  0  0  0  0  0  0  0  0  0
    3.1262    0.4793    2.1244 N   0  0  0  0  0  0  0  0  0  0  0  0
    4.3621    0.8592    2.7701 C   0  0  2  0  0  0  0  0  0  0  0  0
    4.7544    2.2395    2.2596 C   0  0  0  0  0  0  0  0  0  0  0  0
    4.3547    2.6982    1.1915 O   0  0  0  0  0  0  0  0  0  0  0  0
    5.4629   -0.1541    2.4978 C   0  0  0  0  0  0  0  0  0  0  0  0
    2.3687    0.1268    2.7021 H   0  0  0  0  0  0  0  0  0  0  0  0
    4.1545    0.9119    3.8444 H   0  0  0  0  0  0  0  0  0  0  0  0
    5.6847   -0.2208    1.4264 H   0  0  0  0  0  0  0  0  0  0  0  0
    6.3905    0.1202    3.0109 H   0  0  0  0  0  0  0  0  0  0  0  0
    5.1669   -1.1521    2.8386 H   0  0  0  0  0  0  0  0  0  0  0  0
    5.6375    2.8812    3.1166 N   0  0  0  0  0  0  0  0  0  0  0  0
    6.1670    4.1978    2.8476 C   0  0  0  0  0  0  0  0  0  0  0  0
    5.9005    2.4339    3.9898 H   0  0  0  0  0  0  0  0  0  0  0  0
    7.1242    4.1065    2.3133 H   0  0  0  0  0  0  0  0  0  0  0  0
    5.4534    4.7602    2.2276 H   0  0  0  0  0  0  0  0  0  0  0  0
    6.3265    4.7297    3.7971 H   0  0  0  0  0  0  0  0  0  0  0  0
  1  3  1  0  0  0  0
  1  7  1  0  0  0  0
  1  2  2  0  0  0  0
 22 23  1  0  0  0  0
 23 25  1  0  0  0  0
 23 24  2  0  0  0  0
 35 36  1  0  0  0  0
 36 44  1  0  0  0  0
 36 37  2  0  0  0  0
  8  9  1  0  0  0  0
  9 17  1  0  0  0  0
  9 10  2  0  0  0  0
 18 19  1  0  0  0  0
 19 34  1  0  0  0  0
 19 20  2  0  0  0  0
 35 38  1  0  0  0  0
  8 11  1  0  0  0  0
 44 45  1  0  0  0  0
 21 22  1  0  0  0  0
 18 21  1  0  0  0  0
 34 35  1  0  0  0  0
  7  8  1  0  0  0  0
 17 18  1  0  0  0  0
  3  4  1  0  0  0  0
  3  5  1  0  0  0  0
  3  6  1  0  0  0  0
 38 41  1  0  0  0  0
 38 42  1  0  0  0  0
 38 43  1  0  0  0  0
 11 14  1  0  0  0  0
 11 15  1  0  0  0  0
 11 16  1  0  0  0  0
 45 47  1  0  0  0  0
 45 48  1  0  0  0  0
 45 49  1  0  0  0  0
 22 30  1  0  0  0  0
 22 31  1  0  0  0  0
 21 28  1  0  0  0  0
 21 29  1  0  0  0  0
 35 40  1  0  0  0  0
  8 13  1  0  0  0  0
 18 27  1  0  0  0  0
 25 32  1  0  0  0  0
 25 33  1  0  0  0  0
 44 46  1  0  0  0  0
  7 12  1  0  0  0  0
 34 39  1  0  0  0  0
 17 26  1  0  0  0  0
M  END
$$$$

  -OEChem-05262214473D

 49 48  0     1  0  0  0  0  0999 V2000
   -1.9833   -0.0509   -3.3423 C   0  0  0  0  0  0  0  0  0  0  0  0
   -1.6199   -1.0613   -2.7518 O   0  0  0  0  0  0  0  0  0  0  0  0
   -3.3243   -0.0235   -3.9975 C   0  0  0  0  0  0  0  0  0  0  0  0
   -3.2886   -0.3689   -5.0432 H   0  0  0  0  0  0  0  0  0  0  0  0
   -4.0503   -0.6845   -3.4973 H   0  0  0  0  0  0  0  0  0  0  0  0
   -3.8104    0.9645   -4.0351 H   0  0  0  0  0  0  0  0  0  0  0  0
   -1.2607    1.1231   -3.4768 N   0  0  0  0  0  0  0  0  0  0  0  0
    0.0536    1.3115   -2.9213 C   0  0  2  0  0  0  0  0  0  0  0  0
    0.0266    0.8315   -1.4761 C   0  0  0  0  0  0  0  0  0  0  0  0
   -1.0065    0.7530   -0.8146 O   0  0  0  0  0  0  0  0  0  0  0  0
    0.4852    2.7674   -3.0025 C   0  0  0  0  0  0  0  0  0  0  0  0
   -1.6809    1.8924   -3.9952 H   0  0  0  0  0  0  0  0  0  0  0  0
    0.7360    0.6822   -3.5030 H   0  0  0  0  0  0  0  0  0  0  0  0
   -0.1867    3.4133   -2.4256 H   0  0  0  0  0  0  0  0  0  0  0  0
    1.4966    2.9042   -2.6056 H   0  0  0  0  0  0  0  0  0  0  0  0
    0.4754    3.1196   -4.0397 H   0  0  0  0  0  0  0  0  0  0  0  0
    1.2978    0.5411   -0.9947 N   0  0  0  0  0  0  0  0  0  0  0  0
    1.5371    0.0807    0.3489 C   0  0  2  0  0  0  0  0  0  0  0  0
    2.7255    0.8672    0.8909 C   0  0  0  0  0  0  0  0  0  0  0  0
    3.3421    1.6934    0.2215 O   0  0  0  0  0  0  0  0  0  0  0  0
    1.8250   -1.4250    0.4024 C   0  0  0  0  0  0  0  0  0  0  0  0
    0.6204   -2.2885    0.0228 C   0  0  0  0  0  0  0  0  0  0  0  0
    0.9093   -3.7778    0.0516 C   0  0  0  0  0  0  0  0  0  0  0  0
    2.0157   -4.2580    0.2797 O   0  0  0  0  0  0  0  0  0  0  0  0
   -0.2075   -4.5339   -0.2333 N   0  0  0  0  0  0  0  0  0  0  0  0
    2.0949    0.6178   -1.6227 H   0  0  0  0  0  0  0  0  0  0  0  0
    0.6454    0.3354    0.9316 H   0  0  0  0  0  0  0  0  0  0  0  0
    2.6489   -1.6593   -0.2848 H   0  0  0  0  0  0  0  0  0  0  0  0
    2.1747   -1.7056    1.4040 H   0  0  0  0  0  0  0  0  0  0  0  0
    0.3196   -2.0421   -1.0031 H   0  0  0  0  0  0  0  0  0  0  0  0
   -0.2344   -2.0721    0.6732 H   0  0  0  0  0  0  0  0  0  0  0  0
   -1.0827   -4.0593   -0.4282 H   0  0  0  0  0  0  0  0  0  0  0  0
   -0.1856   -5.5484   -0.2552 H   0  0  0  0  0  0  0  0  0  0  0  0
    3.0435    0.4988    2.1907 N   0  0  0  0  0  0  0  0  0  0  0  0
    4.1419    1.0751    2.9325 C   0  0  2  0  0  0  0  0  0  0  0  0
    4.0484    2.5903    2.8101 C   0  0  0  0  0  0  0  0  0  0  0  0
    3.4519    3.1538    1.8948 O   0  0  0  0  0  0  0  0  0  0  0  0
    5.4814    0.5700    2.4195 C   0  0  0  0  0  0  0  0  0  0  0  0
    2.4758   -0.2114    2.6434 H   0  0  0  0  0  0  0  0  0  0  0  0
    4.0040    0.7835    3.9794 H   0  0  0  0  0  0  0  0  0  0  0  0
    5.6374    0.8526    1.3720 H   0  0  0  0  0  0  0  0  0  0  0  0
    6.3112    0.9854    3.0009 H   0  0  0  0  0  0  0  0  0  0  0  0
    5.5354   -0.5223    2.4806 H   0  0  0  0  0  0  0  0  0  0  0  0
    4.7457    3.2394    3.8193 N   0  0  0  0  0  0  0  0  0  0  0  0
    4.8189    4.6787    3.9151 C   0  0  0  0  0  0  0  0  0  0  0  0
    5.1953    2.6925    4.5476 H   0  0  0  0  0  0  0  0  0  0  0  0
    5.7171    5.0364    3.3903 H   0  0  0  0  0  0  0  0  0  0  0  0
    3.9241    5.1227    3.4545 H   0  0  0  0  0  0  0  0  0  0  0  0
    4.8711    4.9734    4.9736 H   0  0  0  0  0  0  0  0  0  0  0  0
  1  3  1  0  0  0  0
  1  7  1  0  0  0  0
  1  2  2  0  0  0  0
 22 23  1  0  0  0  0
 23 25  1  0  0  0  0
 23 24  2  0  0  0  0
 35 36  1  0  0  0  0
 36 44  1  0  0  0  0
 36 37  2  0  0  0  0
  8  9  1  0  0  0  0
  9 17  1  0  0  0  0
  9 10  2  0  0  0  0
 18 19  1  0  0  0  0
 19 34  1  0  0  0  0
 19 20  2  0  0  0  0
 35 38  1  0  0  0  0
  8 11  1  0  0  0  0
 44 45  1  0  0  0  0
 21 22  1  0  0  0  0
 18 21  1  0  0  0  0
 34 35  1  0  0  0  0
  7  8  1  0  0  0  0
 17 18  1  0  0  0  0
  3  4  1  0  0  0  0
  3  5  1  0  0  0  0
  3  6  1  0  0  0  0
 38 41  1  0  0  0  0
 38 42  1  0  0  0  0
 38 43  1  0  0  0  0
 11 14  1  0  0  0  0
 11 15  1  0  0  0  0
 11 16  1  0  0  0  0
 45 47  1  0  0  0  0
 45 48  1  0  0  0  0
 45 49  1  0  0  0  0
 22 30  1  0  0  0  0
 22 31  1  0  0  0  0
 21 28  1  0  0  0  0
 21 29  1  0  0  0  0
 35 40  1  0  0  0  0
  8 13  1  0  0  0  0
 18 27  1  0  0  0  0
 25 32  1  0  0  0  0
 25 33  1  0  0  0  0
 44 46  1  0  0  0  0
  7 12  1  0  0  0  0
 34 39  1  0  0  0  0
 17 26  1  0  0  0  0
M  END
$$$$

  -OEChem-05262214473D

 49 48  0     1  0  0  0  0  0999 V2000
   -1.9833   -0.0509   -3.3423 C   0  0  0  0  0  0  0  0  0  0  0  0
   -1.6199   -1.0613   -2.7518 O   0  0  0  0  0  0  0  0  0  0  0  0
   -3.3243   -0.0235   -3.9975 C   0  0  0  0  0  0  0  0  0  0  0  0
   -3.2886   -0.3689   -5.0432 H   0  0  0  0  0  0  0  0  0  0  0  0
   -4.0503   -0.6845   -3.4973 H   0  0  0  0  0  0  0  0  0  0  0  0
   -3.8104    0.9645   -4.0351 H   0  0  0  0  0  0  0  0  0  0  0  0
   -1.2607    1.1231   -3.4768 N   0  0  0  0  0  0  0  0  0  0  0  0
    0.0536    1.3115   -2.9213 C   0  0  2  0  0  0  0  0  0  0  0  0
    0.0266    0.8315   -1.4761 C   0  0  0  0  0  0  0  0  0  0  0  0
   -1.0065    0.7530   -0.8146 O   0  0  0  0  0  0  0  0  0  0  0  0
    0.4852    2.7674   -3.0025 C   0  0  0  0  0  0  0  0  0  0  0  0
   -1.6809    1.8924   -3.9952 H   0  0  0  0  0  0  0  0  0  0  0  0
    0.7360    0.6822   -3.5030 H   0  0  0  0  0  0  0  0  0  0  0  0
   -0.1867    3.4133   -2.4256 H   0  0  0  0  0  0  0  0  0  0  0  0
    1.4966    2.9042   -2.6056 H   0  0  0  0  0  0  0  0  0  0  0  0
    0.4754    3.1196   -4.0397 H   0  0  0  0  0  0  0  0  0  0  0  0
    1.2978    0.5411   -0.9947 N   0  0  0  0  0  0  0  0  0  0  0  0
    1.5371    0.0807    0.3489 C   0  0  2  0  0  0  0  0  0  0  0  0
    2.7255    0.8672    0.8909 C   0  0  0  0  0  0  0  0  0  0  0  0
    3.1734    1.8688    0.3368 O   0  0  0  0  0  0  0  0  0  0  0  0
    1.8250   -1.4250    0.4024 C   0  0  0  0  0  0  0  0  0  0  0  0
    0.6204   -2.2885    0.0228 C   0  0  0  0  0  0  0  0  0  0  0  0
    0.9093   -3.7778    0.0516 C   0  0  0  0  0  0  0  0  0  0  0  0
    2.0157   -4.2580    0.2797 O   0  0  0  0  0  0  0  0  0  0  0  0
   -0.2075   -4.5339   -0.2333 N   0  0  0  0  0  0  0  0  0  0  0  0
    2.0949    0.6178   -1.6227 H   0  0  0  0  0  0  0  0  0  0  0  0
    0.6454    0.3354    0.9316 H   0  0  0  0  0  0  0  0  0  0  0  0
    2.6489   -1.6593   -0.2848 H   0  0  0  0  0  0  0  0  0  0  0  0
    2.1747   -1.7056    1.4040 H   0  0  0  0  0  0  0  0  0  0  0  0
    0.3196   -2.0421   -1.0031 H   0  0  0  0  0  0  0  0  0  0  0  0
   -0.2344   -2.0721    0.6732 H   0  0  0  0  0  0  0  0  0  0  0  0
   -1.0827   -4.0593   -0.4282 H   0  0  0  0  0  0  0  0  0  0  0  0
   -0.1856   -5.5484   -0.2552 H   0  0  0  0  0  0  0  0  0  0  0  0
    3.2539    0.2876    2.0360 N   0  0  0  0  0  0  0  0  0  0  0  0
    4.3985    0.8205    2.7392 C   0  0  2  0  0  0  0  0  0  0  0  0
    4.1701    2.3119    2.9472 C   0  0  0  0  0  0  0  0  0  0  0  0
    3.4067    2.9772    2.2503 O   0  0  0  0  0  0  0  0  0  0  0  0
    5.6864    0.5699    1.9703 C   0  0  0  0  0  0  0  0  0  0  0  0
    2.8141   -0.5534    2.3979 H   0  0  0  0  0  0  0  0  0  0  0  0
    4.4350    0.3170    3.7114 H   0  0  0  0  0  0  0  0  0  0  0  0
    5.6683    1.0667    0.9933 H   0  0  0  0  0  0  0  0  0  0  0  0
    6.5556    0.9490    2.5178 H   0  0  0  0  0  0  0  0  0  0  0  0
    5.8339   -0.5013    1.7957 H   0  0  0  0  0  0  0  0  0  0  0  0
    4.9516    2.8212    3.9749 N   0  0  0  0  0  0  0  0  0  0  0  0
    4.9248    4.2135    4.3581 C   0  0  0  0  0  0  0  0  0  0  0  0
    5.5421    2.1931    4.5119 H   0  0  0  0  0  0  0  0  0  0  0  0
    5.7079    4.7598    3.8119 H   0  0  0  0  0  0  0  0  0  0  0  0
    3.9414    4.6418    4.1146 H   0  0  0  0  0  0  0  0  0  0  0  0
    5.1045    4.2994    5.4399 H   0  0  0  0  0  0  0  0  0  0  0  0
  1  3  1  0  0  0  0
  1  7  1  0  0  0  0
  1  2  2  0  0  0  0
 22 23  1  0  0  0  0
 23 25  1  0  0  0  0
 23 24  2  0  0  0  0
 35 36  1  0  0  0  0
 36 44  1  0  0  0  0
 36 37  2  0  0  0  0
  8  9  1  0  0  0  0
  9 17  1  0  0  0  0
  9 10  2  0  0  0  0
 18 19  1  0  0  0  0
 19 34  1  0  0  0  0
 19 20  2  0  0  0  0
 35 38  1  0  0  0  0
  8 11  1  0  0  0  0
 44 45  1  0  0  0  0
 21 22  1  0  0  0  0
 18 21  1  0  0  0  0
 34 35  1  0  0  0  0
  7  8  1  0  0  0  0
 17 18  1  0  0  0  0
  3  4  1  0  0  0  0
  3  5  1  0  0  0  0
  3  6  1  0  0  0  0
 38 41  1  0  0  0  0
 38 42  1  0  0  0  0
 38 43  1  0  0  0  0
 11 14  1  0  0  0  0
 11 15  1  0  0  0  0
 11 16  1  0  0  0  0
 45 47  1  0  0  0  0
 45 48  1  0  0  0  0
 45 49  1  0  0  0  0
 22 30  1  0  0  0  0
 22 31  1  0  0  0  0
 21 28  1  0  0  0  0
 21 29  1  0  0  0  0
 35 40  1  0  0  0  0
  8 13  1  0  0  0  0
 18 27  1  0  0  0  0
 25 32  1  0  0  0  0
 25 33  1  0  0  0  0
 44 46  1  0  0  0  0
  7 12  1  0  0  0  0
 34 39  1  0  0  0  0
 17 26  1  0  0  0  0
M  END
$$$$

  -OEChem-05262214473D

 49 48  0     1  0  0  0  0  0999 V2000
   -1.9833   -0.0509   -3.3423 C   0  0  0  0  0  0  0  0  0  0  0  0
   -1.6199   -1.0613   -2.7518 O   0  0  0  0  0  0  0  0  0  0  0  0
   -3.3243   -0.0235   -3.9975 C   0  0  0  0  0  0  0  0  0  0  0  0
   -3.2886   -0.3689   -5.0432 H   0  0  0  0  0  0  0  0  0  0  0  0
   -4.0503   -0.6845   -3.4973 H   0  0  0  0  0  0  0  0  0  0  0  0
   -3.8104    0.9645   -4.0351 H   0  0  0  0  0  0  0  0  0  0  0  0
   -1.2607    1.1231   -3.4768 N   0  0  0  0  0  0  0  0  0  0  0  0
    0.0536    1.3115   -2.9213 C   0  0  2  0  0  0  0  0  0  0  0  0
    0.0266    0.8315   -1.4761 C   0  0  0  0  0  0  0  0  0  0  0  0
   -1.0065    0.7530   -0.8146 O   0  0  0  0  0  0  0  0  0  0  0  0
    0.4852    2.7674   -3.0025 C   0  0  0  0  0  0  0  0  0  0  0  0
   -1.6809    1.8924   -3.9952 H   0  0  0  0  0  0  0  0  0  0  0  0
    0.7360    0.6822   -3.5030 H   0  0  0  0  0  0  0  0  0  0  0  0
   -0.1867    3.4133   -2.4256 H   0  0  0  0  0  0  0  0  0  0  0  0
    1.4966    2.9042   -2.6056 H   0  0  0  0  0  0  0  0  0  0  0  0
    0.4754    3.1196   -4.0397 H   0  0  0  0  0  0  0  0  0  0  0  0
    1.2978    0.5411   -0.9947 N   0  0  0  0  0  0  0  0  0  0  0  0
    1.5371    0.0807    0.3489 C   0  0  2  0  0  0  0  0  0  0  0  0
    2.7255    0.8672    0.8909 C   0  0  0  0  0  0  0  0  0  0  0  0
    3.0098    1.9994    0.5060 O   0  0  0  0  0  0  0  0  0  0  0  0
    1.8250   -1.4250    0.4024 C   0  0  0  0  0  0  0  0  0  0  0  0
    0.6204   -2.2885    0.0228 C   0  0  0  0  0  0  0  0  0  0  0  0
    0.9093   -3.7778    0.0516 C   0  0  0  0  0  0  0  0  0  0  0  0
    2.0157   -4.2580    0.2797 O   0  0  0  0  0  0  0  0  0  0  0  0
   -0.2075   -4.5339   -0.2333 N   0  0  0  0  0  0  0  0  0  0  0  0
    2.0949    0.6178   -1.6227 H   0  0  0  0  0  0  0  0  0  0  0  0
    0.6454    0.3354    0.9316 H   0  0  0  0  0  0  0  0  0  0  0  0
    2.6489   -1.6593   -0.2848 H   0  0  0  0  0  0  0  0  0  0  0  0
    2.1747   -1.7056    1.4040 H   0  0  0  0  0  0  0  0  0  0  0  0
    0.3196   -2.0421   -1.0031 H   0  0  0  0  0  0  0  0  0  0  0  0
   -0.2344   -2.0721    0.6732 H   0  0  0  0  0  0  0  0  0  0  0  0
   -1.0827   -4.0593   -0.4282 H   0  0  0  0  0  0  0  0  0  0  0  0
   -0.1856   -5.5484   -0.2552 H   0  0  0  0  0  0  0  0  0  0  0  0
    3.4559    0.1341    1.8158 N   0  0  0  0  0  0  0  0  0  0  0  0
    4.6440    0.6372    2.4669 C   0  0  2  0  0  0  0  0  0  0  0  0
    4.3316    2.0265    3.0072 C   0  0  0  0  0  0  0  0  0  0  0  0
    3.4267    2.7306    2.5642 O   0  0  0  0  0  0  0  0  0  0  0  0
    5.8243    0.6793    1.5089 C   0  0  0  0  0  0  0  0  0  0  0  0
    3.1396   -0.8031    2.0465 H   0  0  0  0  0  0  0  0  0  0  0  0
    4.8584   -0.0399    3.3009 H   0  0  0  0  0  0  0  0  0  0  0  0
    5.6280    1.3528    0.6667 H   0  0  0  0  0  0  0  0  0  0  0  0
    6.7305    1.0337    2.0112 H   0  0  0  0  0  0  0  0  0  0  0  0
    6.0288   -0.3154    1.0984 H   0  0  0  0  0  0  0  0  0  0  0  0
    5.2097    2.4048    4.0133 N   0  0  0  0  0  0  0  0  0  0  0  0
    5.1290    3.6845    4.6779 C   0  0  0  0  0  0  0  0  0  0  0  0
    5.9183    1.7498    4.3305 H   0  0  0  0  0  0  0  0  0  0  0  0
    5.7808    4.4067    4.1645 H   0  0  0  0  0  0  0  0  0  0  0  0
    4.0904    4.0458    4.6528 H   0  0  0  0  0  0  0  0  0  0  0  0
    5.4543    3.5758    5.7231 H   0  0  0  0  0  0  0  0  0  0  0  0
  1  3  1  0  0  0  0
  1  7  1  0  0  0  0
  1  2  2  0  0  0  0
 22 23  1  0  0  0  0
 23 25  1  0  0  0  0
 23 24  2  0  0  0  0
 35 36  1  0  0  0  0
 36 44  1  0  0  0  0
 36 37  2  0  0  0  0
  8  9  1  0  0  0  0
  9 17  1  0  0  0  0
  9 10  2  0  0  0  0
 18 19  1  0  0  0  0
 19 34  1  0  0  0  0
 19 20  2  0  0  0  0
 35 38  1  0  0  0  0
  8 11  1  0  0  0  0
 44 45  1  0  0  0  0
 21 22  1  0  0  0  0
 18 21  1  0  0  0  0
 34 35  1  0  0  0  0
  7  8  1  0  0  0  0
 17 18  1  0  0  0  0
  3  4  1  0  0  0  0
  3  5  1  0  0  0  0
  3  6  1  0  0  0  0
 38 41  1  0  0  0  0
 38 42  1  0  0  0  0
 38 43  1  0  0  0  0
 11 14  1  0  0  0  0
 11 15  1  0  0  0  0
 11 16  1  0  0  0  0
 45 47  1  0  0  0  0
 45 48  1  0  0  0  0
 45 49  1  0  0  0  0
 22 30  1  0  0  0  0
 22 31  1  0  0  0  0
 21 28  1  0  0  0  0
 21 29  1  0  0  0  0
 35 40  1  0  0  0  0
  8 13  1  0  0  0  0
 18 27  1  0  0  0  0
 25 32  1  0  0  0  0
 25 33  1  0  0  0  0
 44 46  1  0  0  0  0
  7 12  1  0  0  0  0
 34 39  1  0  0  0  0
 17 26  1  0  0  0  0
M  END
$$$$

  -OEChem-05262214473D

 49 48  0     1  0  0  0  0  0999 V2000
   -1.9833   -0.0509   -3.3423 C   0  0  0  0  0  0  0  0  0  0  0  0
   -1.6199   -1.0613   -2.7518 O   0  0  0  0  0  0  0  0  0  0  0  0
   -3.3243   -0.0235   -3.9975 C   0  0  0  0  0  0  0  0  0  0  0  0
   -3.2886   -0.3689   -5.0432 H   0  0  0  0  0  0  0  0  0  0  0  0
   -4.0503   -0.6845   -3.4973 H   0  0  0  0  0  0  0  0  0  0  0  0
   -3.8104    0.9645   -4.0351 H   0  0  0  0  0  0  0  0  0  0  0  0
   -1.2607    1.1231   -3.4768 N   0  0  0  0  0  0  0  0  0  0  0  0
    0.0536    1.3115   -2.9213 C   0  0  2  0  0  0  0  0  0  0  0  0
    0.0266    0.8315   -1.4761 C   0  0  0  0  0  0  0  0  0  0  0  0
   -1.0065    0.7530   -0.8146 O   0  0  0  0  0  0  0  0  0  0  0  0
    0.4852    2.7674   -3.0025 C   0  0  0  0  0  0  0  0  0  0  0  0
   -1.6809    1.8924   -3.9952 H   0  0  0  0  0  0  0  0  0  0  0  0
    0.7360    0.6822   -3.5030 H   0  0  0  0  0  0  0  0  0  0  0  0
   -0.1867    3.4133   -2.4256 H   0  0  0  0  0  0  0  0  0  0  0  0
    1.4966    2.9042   -2.6056 H   0  0  0  0  0  0  0  0  0  0  0  0
    0.4754    3.1196   -4.0397 H   0  0  0  0  0  0  0  0  0  0  0  0
    1.2978    0.5411   -0.9947 N   0  0  0  0  0  0  0  0  0  0  0  0
    1.5371    0.0807    0.3489 C   0  0  2  0  0  0  0  0  0  0  0  0
    2.7255    0.8672    0.8909 C   0  0  0  0  0  0  0  0  0  0  0  0
    2.8623    2.0764    0.7177 O   0  0  0  0  0  0  0  0  0  0  0  0
    1.8250   -1.4250    0.4024 C   0  0  0  0  0  0  0  0  0  0  0  0
    0.6204   -2.2885    0.0228 C   0  0  0  0  0  0  0  0  0  0  0  0
    0.9093   -3.7778    0.0516 C   0  0  0  0  0  0  0  0  0  0  0  0
    2.0157   -4.2580    0.2797 O   0  0  0  0  0  0  0  0  0  0  0  0
   -0.2075   -4.5339   -0.2333 N   0  0  0  0  0  0  0  0  0  0  0  0
    2.0949    0.6178   -1.6227 H   0  0  0  0  0  0  0  0  0  0  0  0
    0.6454    0.3354    0.9316 H   0  0  0  0  0  0  0  0  0  0  0  0
    2.6489   -1.6593   -0.2848 H   0  0  0  0  0  0  0  0  0  0  0  0
    2.1747   -1.7056    1.4040 H   0  0  0  0  0  0  0  0  0  0  0  0
    0.3196   -2.0421   -1.0031 H   0  0  0  0  0  0  0  0  0  0  0  0
   -0.2344   -2.0721    0.6732 H   0  0  0  0  0  0  0  0  0  0  0  0
   -1.0827   -4.0593   -0.4282 H   0  0  0  0  0  0  0  0  0  0  0  0
   -0.1856   -5.5484   -0.2552 H   0  0  0  0  0  0  0  0  0  0  0  0
    3.6358    0.0488    1.5451 N   0  0  0  0  0  0  0  0  0  0  0  0
    4.8617    0.5377    2.1342 C   0  0  2  0  0  0  0  0  0  0  0  0
    4.5219    1.7535    2.9861 C   0  0  0  0  0  0  0  0  0  0  0  0
    3.5106    2.4311    2.8149 O   0  0  0  0  0  0  0  0  0  0  0  0
    5.8860    0.8908    1.0670 C   0  0  0  0  0  0  0  0  0  0  0  0
    3.4301   -0.9435    1.6134 H   0  0  0  0  0  0  0  0  0  0  0  0
    5.2454   -0.2629    2.7759 H   0  0  0  0  0  0  0  0  0  0  0  0
    5.5191    1.6913    0.4142 H   0  0  0  0  0  0  0  0  0  0  0  0
    6.8241    1.2339    1.5155 H   0  0  0  0  0  0  0  0  0  0  0  0
    6.1069    0.0228    0.4364 H   0  0  0  0  0  0  0  0  0  0  0  0
    5.5024    2.0185    3.9319 N   0  0  0  0  0  0  0  0  0  0  0  0
    5.4177    3.1278    4.8529 C   0  0  0  0  0  0  0  0  0  0  0  0
    6.2982    1.3928    4.0155 H   0  0  0  0  0  0  0  0  0  0  0  0
    5.9308    4.0012    4.4241 H   0  0  0  0  0  0  0  0  0  0  0  0
    4.3610    3.3752    5.0326 H   0  0  0  0  0  0  0  0  0  0  0  0
    5.8965    2.8519    5.8040 H   0  0  0  0  0  0  0  0  0  0  0  0
  1  3  1  0  0  0  0
  1  7  1  0  0  0  0
  1  2  2  0  0  0  0
 22 23  1  0  0  0  0
 23 25  1  0  0  0  0
 23 24  2  0  0  0  0
 35 36  1  0  0  0  0
 36 44  1  0  0  0  0
 36 37  2  0  0  0  0
  8  9  1  0  0  0  0
  9 17  1  0  0  0  0
  9 10  2  0  0  0  0
 18 19  1  0  0  0  0
 19 34  1  0  0  0  0
 19 20  2  0  0  0  0
 35 38  1  0  0  0  0
  8 11  1  0  0  0  0
 44 45  1  0  0  0  0
 21 22  1  0  0  0  0
 18 21  1  0  0  0  0
 34 35  1  0  0  0  0
  7  8  1  0  0  0  0
 17 18  1  0  0  0  0
  3  4  1  0  0  0  0
  3  5  1  0  0  0  0
  3  6  1  0  0  0  0
 38 41  1  0  0  0  0
 38 42  1  0  0  0  0
 38 43  1  0  0  0  0
 11 14  1  0  0  0  0
 11 15  1  0  0  0  0
 11 16  1  0  0  0  0
 45 47  1  0  0  0  0
 45 48  1  0  0  0  0
 45 49  1  0  0  0  0
 22 30  1  0  0  0  0
 22 31  1  0  0  0  0
 21 28  1  0  0  0  0
 21 29  1  0  0  0  0
 35 40  1  0  0  0  0
  8 13  1  0  0  0  0
 18 27  1  0  0  0  0
 25 32  1  0  0  0  0
 25 33  1  0  0  0  0
 44 46  1  0  0  0  0
  7 12  1  0  0  0  0
 34 39  1  0  0  0  0
 17 26  1  0  0  0  0
M  END
$$$$

  -OEChem-05262214473D

 49 48  0     1  0  0  0  0  0999 V2000
   -1.9833   -0.0509   -3.3423 C   0  0  0  0  0  0  0  0  0  0  0  0
   -1.6199   -1.0613   -2.7518 O   0  0  0  0  0  0  0  0  0  0  0  0
   -3.3243   -0.0235   -3.9975 C   0  0  0  0  0  0  0  0  0  0  0  0
   -3.2886   -0.3689   -5.0432 H   0  0  0  0  0  0  0  0  0  0  0  0
   -4.0503   -0.6845   -3.4973 H   0  0  0  0  0  0  0  0  0  0  0  0
   -3.8104    0.9645   -4.0351 H   0  0  0  0  0  0  0  0  0  0  0  0
   -1.2607    1.1231   -3.4768 N   0  0  0  0  0  0  0  0  0  0  0  0
    0.0536    1.3115   -2.9213 C   0  0  2  0  0  0  0  0  0  0  0  0
    0.0266    0.8315   -1.4761 C   0  0  0  0  0  0  0  0  0  0  0  0
   -1.0065    0.7530   -0.8146 O   0  0  0  0  0  0  0  0  0  0  0  0
    0.4852    2.7674   -3.0025 C   0  0  0  0  0  0  0  0  0  0  0  0
   -1.6809    1.8924   -3.9952 H   0  0  0  0  0  0  0  0  0  0  0  0
    0.7360    0.6822   -3.5030 H   0  0  0  0  0  0  0  0  0  0  0  0
   -0.1867    3.4133   -2.4256 H   0  0  0  0  0  0  0  0  0  0  0  0
    1.4966    2.9042   -2.6056 H   0  0  0  0  0  0  0  0  0  0  0  0
    0.4754    3.1196   -4.0397 H   0  0  0  0  0  0  0  0  0  0  0  0
    1.2978    0.5411   -0.9947 N   0  0  0  0  0  0  0  0  0  0  0  0
    1.5371    0.0807    0.3489 C   0  0  2  0  0  0  0  0  0  0  0  0
    2.7255    0.8672    0.8909 C   0  0  0  0  0  0  0  0  0  0  0  0
    2.7410    2.0945    0.9574 O   0  0  0  0  0  0  0  0  0  0  0  0
    1.8250   -1.4250    0.4024 C   0  0  0  0  0  0  0  0  0  0  0  0
    0.6204   -2.2885    0.0228 C   0  0  0  0  0  0  0  0  0  0  0  0
    0.9093   -3.7778    0.0516 C   0  0  0  0  0  0  0  0  0  0  0  0
    2.0157   -4.2580    0.2797 O   0  0  0  0  0  0  0  0  0  0  0  0
   -0.2075   -4.5339   -0.2333 N   0  0  0  0  0  0  0  0  0  0  0  0
    2.0949    0.6178   -1.6227 H   0  0  0  0  0  0  0  0  0  0  0  0
    0.6454    0.3354    0.9316 H   0  0  0  0  0  0  0  0  0  0  0  0
    2.6489   -1.6593   -0.2848 H   0  0  0  0  0  0  0  0  0  0  0  0
    2.1747   -1.7056    1.4040 H   0  0  0  0  0  0  0  0  0  0  0  0
    0.3196   -2.0421   -1.0031 H   0  0  0  0  0  0  0  0  0  0  0  0
   -0.2344   -2.0721    0.6732 H   0  0  0  0  0  0  0  0  0  0  0  0
   -1.0827   -4.0593   -0.4282 H   0  0  0  0  0  0  0  0  0  0  0  0
   -0.1856   -5.5484   -0.2552 H   0  0  0  0  0  0  0  0  0  0  0  0
    3.7812    0.0376    1.2425 N   0  0  0  0  0  0  0  0  0  0  0  0
    5.0366    0.5287    1.7636 C   0  0  2  0  0  0  0  0  0  0  0  0
    4.7280    1.5117    2.8852 C   0  0  0  0  0  0  0  0  0  0  0  0
    3.6527    2.0988    2.9855 O   0  0  0  0  0  0  0  0  0  0  0  0
    5.8670    1.1898    0.6745 C   0  0  0  0  0  0  0  0  0  0  0  0
    3.6657   -0.9650    1.1279 H   0  0  0  0  0  0  0  0  0  0  0  0
    5.5697   -0.3368    2.1721 H   0  0  0  0  0  0  0  0  0  0  0  0
    5.3491    2.0591    0.2532 H   0  0  0  0  0  0  0  0  0  0  0  0
    6.8299    1.5359    1.0647 H   0  0  0  0  0  0  0  0  0  0  0  0
    6.0628    0.4902   -0.1452 H   0  0  0  0  0  0  0  0  0  0  0  0
    5.8098    1.6888    3.7363 N   0  0  0  0  0  0  0  0  0  0  0  0
    5.7711    2.5813    4.8711 C   0  0  0  0  0  0  0  0  0  0  0  0
    6.6559    1.1465    3.5885 H   0  0  0  0  0  0  0  0  0  0  0  0
    6.1476    3.5709    4.5730 H   0  0  0  0  0  0  0  0  0  0  0  0
    4.7348    2.6757    5.2280 H   0  0  0  0  0  0  0  0  0  0  0  0
    6.4010    2.1770    5.6771 H   0  0  0  0  0  0  0  0  0  0  0  0
  1  3  1  0  0  0  0
  1  7  1  0  0  0  0
  1  2  2  0  0  0  0
 22 23  1  0  0  0  0
 23 25  1  0  0  0  0
 23 24  2  0  0  0  0
 35 36  1  0  0  0  0
 36 44  1  0  0  0  0
 36 37  2  0  0  0  0
  8  9  1  0  0  0  0
  9 17  1  0  0  0  0
  9 10  2  0  0  0  0
 18 19  1  0  0  0  0
 19 34  1  0  0  0  0
 19 20  2  0  0  0  0
 35 38  1  0  0  0  0
  8 11  1  0  0  0  0
 44 45  1  0  0  0  0
 21 22  1  0  0  0  0
 18 21  1  0  0  0  0
 34 35  1  0  0  0  0
  7  8  1  0  0  0  0
 17 18  1  0  0  0  0
  3  4  1  0  0  0  0
  3  5  1  0  0  0  0
  3  6  1  0  0  0  0
 38 41  1  0  0  0  0
 38 42  1  0  0  0  0
 38 43  1  0  0  0  0
 11 14  1  0  0  0  0
 11 15  1  0  0  0  0
 11 16  1  0  0  0  0
 45 47  1  0  0  0  0
 45 48  1  0  0  0  0
 45 49  1  0  0  0  0
 22 30  1  0  0  0  0
 22 31  1  0  0  0  0
 21 28  1  0  0  0  0
 21 29  1  0  0  0  0
 35 40  1  0  0  0  0
  8 13  1  0  0  0  0
 18 27  1  0  0  0  0
 25 32  1  0  0  0  0
 25 33  1  0  0  0  0
 44 46  1  0  0  0  0
  7 12  1  0  0  0  0
 34 39  1  0  0  0  0
 17 26  1  0  0  0  0
M  END
$$$$

  -OEChem-05262214473D

 49 48  0     1  0  0  0  0  0999 V2000
   -1.9833   -0.0509   -3.3423 C   0  0  0  0  0  0  0  0  0  0  0  0
   -1.6199   -1.0613   -2.7518 O   0  0  0  0  0  0  0  0  0  0  0  0
   -3.3243   -0.0235   -3.9975 C   0  0  0  0  0  0  0  0  0  0  0  0
   -3.2886   -0.3689   -5.0432 H   0  0  0  0  0  0  0  0  0  0  0  0
   -4.0503   -0.6845   -3.4973 H   0  0  0  0  0  0  0  0  0  0  0  0
   -3.8104    0.9645   -4.0351 H   0  0  0  0  0  0  0  0  0  0  0  0
   -1.2607    1.1231   -3.4768 N   0  0  0  0  0  0  0  0  0  0  0  0
    0.0536    1.3115   -2.9213 C   0  0  2  0  0  0  0  0  0  0  0  0
    0.0266    0.8315   -1.4761 C   0  0  0  0  0  0  0  0  0  0  0  0
   -1.0065    0.7530   -0.8146 O   0  0  0  0  0  0  0  0  0  0  0  0
    0.4852    2.7674   -3.0025 C   0  0  0  0  0  0  0  0  0  0  0  0
   -1.6809    1.8924   -3.9952 H   0  0  0  0  0  0  0  0  0  0  0  0
    0.7360    0.6822   -3.5030 H   0  0  0  0  0  0  0  0  0  0  0  0
   -0.1867    3.4133   -2.4256 H   0  0  0  0  0  0  0  0  0  0  0  0
    1.4966    2.9042   -2.6056 H   0  0  0  0  0  0  0  0  0  0  0  0
    0.4754    3.1196   -4.0397 H   0  0  0  0  0  0  0  0  0  0  0  0
    1.2978    0.5411   -0.9947 N   0  0  0  0  0  0  0  0  0  0  0  0
    1.5371    0.0807    0.3489 C   0  0  2  0  0  0  0  0  0  0  0  0
    2.7255    0.8672    0.8909 C   0  0  0  0  0  0  0  0  0  0  0  0
    2.6542    2.0524    1.2087 O   0  0  0  0  0  0  0  0  0  0  0  0
    1.8250   -1.4250    0.4024 C   0  0  0  0  0  0  0  0  0  0  0  0
    0.6204   -2.2885    0.0228 C   0  0  0  0  0  0  0  0  0  0  0  0
    0.9093   -3.7778    0.0516 C   0  0  0  0  0  0  0  0  0  0  0  0
    2.0157   -4.2580    0.2797 O   0  0  0  0  0  0  0  0  0  0  0  0
   -0.2075   -4.5339   -0.2333 N   0  0  0  0  0  0  0  0  0  0  0  0
    2.0949    0.6178   -1.6227 H   0  0  0  0  0  0  0  0  0  0  0  0
    0.6454    0.3354    0.9316 H   0  0  0  0  0  0  0  0  0  0  0  0
    2.6489   -1.6593   -0.2848 H   0  0  0  0  0  0  0  0  0  0  0  0
    2.1747   -1.7056    1.4040 H   0  0  0  0  0  0  0  0  0  0  0  0
    0.3196   -2.0421   -1.0031 H   0  0  0  0  0  0  0  0  0  0  0  0
   -0.2344   -2.0721    0.6732 H   0  0  0  0  0  0  0  0  0  0  0  0
   -1.0827   -4.0593   -0.4282 H   0  0  0  0  0  0  0  0  0  0  0  0
   -0.1856   -5.5484   -0.2552 H   0  0  0  0  0  0  0  0  0  0  0  0
    3.8823    0.1012    0.9285 N   0  0  0  0  0  0  0  0  0  0  0  0
    5.1570    0.6108    1.3804 C   0  0  2  0  0  0  0  0  0  0  0  0
    4.9358    1.3174    2.7114 C   0  0  0  0  0  0  0  0  0  0  0  0
    3.8433    1.7566    3.0643 O   0  0  0  0  0  0  0  0  0  0  0  0
    5.7688    1.5561    0.3583 C   0  0  0  0  0  0  0  0  0  0  0  0
    3.8305   -0.8661    0.6231 H   0  0  0  0  0  0  0  0  0  0  0  0
    5.8091   -0.2565    1.5306 H   0  0  0  0  0  0  0  0  0  0  0  0
    5.1295    2.4313    0.1946 H   0  0  0  0  0  0  0  0  0  0  0  0
    6.7475    1.9190    0.6894 H   0  0  0  0  0  0  0  0  0  0  0  0
    5.8996    1.0549   -0.6068 H   0  0  0  0  0  0  0  0  0  0  0  0
    6.1110    1.4380    3.4398 N   0  0  0  0  0  0  0  0  0  0  0  0
    6.1651    2.0823    4.7313 C   0  0  0  0  0  0  0  0  0  0  0  0
    6.9671    1.0276    3.0786 H   0  0  0  0  0  0  0  0  0  0  0  0
    6.4165    3.1452    4.6011 H   0  0  0  0  0  0  0  0  0  0  0  0
    5.1864    1.9950    5.2257 H   0  0  0  0  0  0  0  0  0  0  0  0
    6.9335    1.5971    5.3510 H   0  0  0  0  0  0  0  0  0  0  0  0
  1  3  1  0  0  0  0
  1  7  1  0  0  0  0
  1  2  2  0  0  0  0
 22 23  1  0  0  0  0
 23 25  1  0  0  0  0
 23 24  2  0  0  0  0
 35 36  1  0  0  0  0
 36 44  1  0  0  0  0
 36 37  2  0  0  0  0
  8  9  1  0  0  0  0
  9 17  1  0  0  0  0
  9 10  2  0  0  0  0
 18 19  1  0  0  0  0
 19 34  1  0  0  0  0
 19 20  2  0  0  0  0
 35 38  1  0  0  0  0
  8 11  1  0  0  0  0
 44 45  1  0  0  0  0
 21 22  1  0  0  0  0
 18 21  1  0  0  0  0
 34 35  1  0  0  0  0
  7  8  1  0  0  0  0
 17 18  1  0  0  0  0
  3  4  1  0  0  0  0
  3  5  1  0  0  0  0
  3  6  1  0  0  0  0
 38 41  1  0  0  0  0
 38 42  1  0  0  0  0
 38 43  1  0  0  0  0
 11 14  1  0  0  0  0
 11 15  1  0  0  0  0
 11 16  1  0  0  0  0
 45 47  1  0  0  0  0
 45 48  1  0  0  0  0
 45 49  1  0  0  0  0
 22 30  1  0  0  0  0
 22 31  1  0  0  0  0
 21 28  1  0  0  0  0
 21 29  1  0  0  0  0
 35 40  1  0  0  0  0
  8 13  1  0  0  0  0
 18 27  1  0  0  0  0
 25 32  1  0  0  0  0
 25 33  1  0  0  0  0
 44 46  1  0  0  0  0
  7 12  1  0  0  0  0
 34 39  1  0  0  0  0
 17 26  1  0  0  0  0
M  END
$$$$

  -OEChem-05262214473D

 49 48  0     1  0  0  0  0  0999 V2000
   -1.9833   -0.0509   -3.3423 C   0  0  0  0  0  0  0  0  0  0  0  0
   -1.6199   -1.0613   -2.7518 O   0  0  0  0  0  0  0  0  0  0  0  0
   -3.3243   -0.0235   -3.9975 C   0  0  0  0  0  0  0  0  0  0  0  0
   -3.2886   -0.3689   -5.0432 H   0  0  0  0  0  0  0  0  0  0  0  0
   -4.0503   -0.6845   -3.4973 H   0  0  0  0  0  0  0  0  0  0  0  0
   -3.8104    0.9645   -4.0351 H   0  0  0  0  0  0  0  0  0  0  0  0
   -1.2607    1.1231   -3.4768 N   0  0  0  0  0  0  0  0  0  0  0  0
    0.0536    1.3115   -2.9213 C   0  0  2  0  0  0  0  0  0  0  0  0
    0.0266    0.8315   -1.4761 C   0  0  0  0  0  0  0  0  0  0  0  0
   -1.0065    0.7530   -0.8146 O   0  0  0  0  0  0  0  0  0  0  0  0
    0.4852    2.7674   -3.0025 C   0  0  0  0  0  0  0  0  0  0  0  0
   -1.6809    1.8924   -3.9952 H   0  0  0  0  0  0  0  0  0  0  0  0
    0.7360    0.6822   -3.5030 H   0  0  0  0  0  0  0  0  0  0  0  0
   -0.1867    3.4133   -2.4256 H   0  0  0  0  0  0  0  0  0  0  0  0
    1.4966    2.9042   -2.6056 H   0  0  0  0  0  0  0  0  0  0  0  0
    0.4754    3.1196   -4.0397 H   0  0  0  0  0  0  0  0  0  0  0  0
    1.2978    0.5411   -0.9947 N   0  0  0  0  0  0  0  0  0  0  0  0
    1.5371    0.0807    0.3489 C   0  0  2  0  0  0  0  0  0  0  0  0
    2.7255    0.8672    0.8909 C   0  0  0  0  0  0  0  0  0  0  0  0
    2.6078    1.9531    1.4546 O   0  0  0  0  0  0  0  0  0  0  0  0
    1.8250   -1.4250    0.4024 C   0  0  0  0  0  0  0  0  0  0  0  0
    0.6204   -2.2885    0.0228 C   0  0  0  0  0  0  0  0  0  0  0  0
    0.9093   -3.7778    0.0516 C   0  0  0  0  0  0  0  0  0  0  0  0
    2.0157   -4.2580    0.2797 O   0  0  0  0  0  0  0  0  0  0  0  0
   -0.2075   -4.5339   -0.2333 N   0  0  0  0  0  0  0  0  0  0  0  0
    2.0949    0.6178   -1.6227 H   0  0  0  0  0  0  0  0  0  0  0  0
    0.6454    0.3354    0.9316 H   0  0  0  0  0  0  0  0  0  0  0  0
    2.6489   -1.6593   -0.2848 H   0  0  0  0  0  0  0  0  0  0  0  0
    2.1747   -1.7056    1.4040 H   0  0  0  0  0  0  0  0  0  0  0  0
    0.3196   -2.0421   -1.0031 H   0  0  0  0  0  0  0  0  0  0  0  0
   -0.2344   -2.0721    0.6732 H   0  0  0  0  0  0  0  0  0  0  0  0
   -1.0827   -4.0593   -0.4282 H   0  0  0  0  0  0  0  0  0  0  0  0
   -0.1856   -5.5484   -0.2552 H   0  0  0  0  0  0  0  0  0  0  0  0
    3.9322    0.2353    0.6245 N   0  0  0  0  0  0  0  0  0  0  0  0
    5.2145    0.7786    1.0109 C   0  0  2  0  0  0  0  0  0  0  0  0
    5.1313    1.1839    2.4766 C   0  0  0  0  0  0  0  0  0  0  0  0
    4.0694    1.4276    3.0459 O   0  0  0  0  0  0  0  0  0  0  0  0
    5.5980    1.9647    0.1398 C   0  0  0  0  0  0  0  0  0  0  0  0
    3.9131   -0.6536    0.1335 H   0  0  0  0  0  0  0  0  0  0  0  0
    5.9473   -0.0275    0.8953 H   0  0  0  0  0  0  0  0  0  0  0  0
    4.8753    2.7824    0.2423 H   0  0  0  0  0  0  0  0  0  0  0  0
    6.5825    2.3572    0.4151 H   0  0  0  0  0  0  0  0  0  0  0  0
    5.6283    1.6785   -0.9170 H   0  0  0  0  0  0  0  0  0  0  0  0
    6.3854    1.2833    3.0626 N   0  0  0  0  0  0  0  0  0  0  0  0
    6.5730    1.6647    4.4429 C   0  0  0  0  0  0  0  0  0  0  0  0
    7.2106    1.0443    2.5206 H   0  0  0  0  0  0  0  0  0  0  0  0
    6.7192    2.7531    4.5065 H   0  0  0  0  0  0  0  0  0  0  0  0
    5.6848    1.3795    5.0259 H   0  0  0  0  0  0  0  0  0  0  0  0
    7.4577    1.1517    4.8480 H   0  0  0  0  0  0  0  0  0  0  0  0
  1  3  1  0  0  0  0
  1  7  1  0  0  0  0
  1  2  2  0  0  0  0
 22 23  1  0  0  0  0
 23 25  1  0  0  0  0
 23 24  2  0  0  0  0
 35 36  1  0  0  0  0
 36 44  1  0  0  0  0
 36 37  2  0  0  0  0
  8  9  1  0  0  0  0
  9 17  1  0  0  0  0
  9 10  2  0  0  0  0
 18 19  1  0  0  0  0
 19 34  1  0  0  0  0
 19 20  2  0  0  0  0
 35 38  1  0  0  0  0
  8 11  1  0  0  0  0
 44 45  1  0  0  0  0
 21 22  1  0  0  0  0
 18 21  1  0  0  0  0
 34 35  1  0  0  0  0
  7  8  1  0  0  0  0
 17 18  1  0  0  0  0
  3  4  1  0  0  0  0
  3  5  1  0  0  0  0
  3  6  1  0  0  0  0
 38 41  1  0  0  0  0
 38 42  1  0  0  0  0
 38 43  1  0  0  0  0
 11 14  1  0  0  0  0
 11 15  1  0  0  0  0
 11 16  1  0  0  0  0
 45 47  1  0  0  0  0
 45 48  1  0  0  0  0
 45 49  1  0  0  0  0
 22 30  1  0  0  0  0
 22 31  1  0  0  0  0
 21 28  1  0  0  0  0
 21 29  1  0  0  0  0
 35 40  1  0  0  0  0
  8 13  1  0  0  0  0
 18 27  1  0  0  0  0
 25 32  1  0  0  0  0
 25 33  1  0  0  0  0
 44 46  1  0  0  0  0
  7 12  1  0  0  0  0
 34 39  1  0  0  0  0
 17 26  1  0  0  0  0
M  END
$$$$

  -OEChem-05262214473D

 49 48  0     1  0  0  0  0  0999 V2000
   -1.9833   -0.0509   -3.3423 C   0  0  0  0  0  0  0  0  0  0  0  0
   -1.6199   -1.0613   -2.7518 O   0  0  0  0  0  0  0  0  0  0  0  0
   -3.3243   -0.0235   -3.9975 C   0  0  0  0  0  0  0  0  0  0  0  0
   -3.2886   -0.3689   -5.0432 H   0  0  0  0  0  0  0  0  0  0  0  0
   -4.0503   -0.6845   -3.4973 H   0  0  0  0  0  0  0  0  0  0  0  0
   -3.8104    0.9645   -4.0351 H   0  0  0  0  0  0  0  0  0  0  0  0
   -1.2607    1.1231   -3.4768 N   0  0  0  0  0  0  0  0  0  0  0  0
    0.0536    1.3115   -2.9213 C   0  0  2  0  0  0  0  0  0  0  0  0
    0.0266    0.8315   -1.4761 C   0  0  0  0  0  0  0  0  0  0  0  0
   -1.0065    0.7530   -0.8146 O   0  0  0  0  0  0  0  0  0  0  0  0
    0.4852    2.7674   -3.0025 C   0  0  0  0  0  0  0  0  0  0  0  0
   -1.6809    1.8924   -3.9952 H   0  0  0  0  0  0  0  0  0  0  0  0
    0.7360    0.6822   -3.5030 H   0  0  0  0  0  0  0  0  0  0  0  0
   -0.1867    3.4133   -2.4256 H   0  0  0  0  0  0  0  0  0  0  0  0
    1.4966    2.9042   -2.6056 H   0  0  0  0  0  0  0  0  0  0  0  0
    0.4754    3.1196   -4.0397 H   0  0  0  0  0  0  0  0  0  0  0  0
    1.2978    0.5411   -0.9947 N   0  0  0  0  0  0  0  0  0  0  0  0
    1.5371    0.0807    0.3489 C   0  0  2  0  0  0  0  0  0  0  0  0
    2.7255    0.8672    0.8909 C   0  0  0  0  0  0  0  0  0  0  0  0
    2.6049    1.8033    1.6783 O   0  0  0  0  0  0  0  0  0  0  0  0
    1.8250   -1.4250    0.4024 C   0  0  0  0  0  0  0  0  0  0  0  0
    0.6204   -2.2885    0.0228 C   0  0  0  0  0  0  0  0  0  0  0  0
    0.9093   -3.7778    0.0516 C   0  0  0  0  0  0  0  0  0  0  0  0
    2.0157   -4.2580    0.2797 O   0  0  0  0  0  0  0  0  0  0  0  0
   -0.2075   -4.5339   -0.2333 N   0  0  0  0  0  0  0  0  0  0  0  0
    2.0949    0.6178   -1.6227 H   0  0  0  0  0  0  0  0  0  0  0  0
    0.6454    0.3354    0.9316 H   0  0  0  0  0  0  0  0  0  0  0  0
    2.6489   -1.6593   -0.2848 H   0  0  0  0  0  0  0  0  0  0  0  0
    2.1747   -1.7056    1.4040 H   0  0  0  0  0  0  0  0  0  0  0  0
    0.3196   -2.0421   -1.0031 H   0  0  0  0  0  0  0  0  0  0  0  0
   -0.2344   -2.0721    0.6732 H   0  0  0  0  0  0  0  0  0  0  0  0
   -1.0827   -4.0593   -0.4282 H   0  0  0  0  0  0  0  0  0  0  0  0
   -0.1856   -5.5484   -0.2552 H   0  0  0  0  0  0  0  0  0  0  0  0
    3.9275    0.4307    0.3513 N   0  0  0  0  0  0  0  0  0  0  0  0
    5.2053    1.0204    0.6800 C   0  0  2  0  0  0  0  0  0  0  0  0
    5.3010    1.1203    2.1967 C   0  0  0  0  0  0  0  0  0  0  0  0
    4.3156    1.1344    2.9315 O   0  0  0  0  0  0  0  0  0  0  0  0
    5.3663    2.3877    0.0341 C   0  0  0  0  0  0  0  0  0  0  0  0
    3.9081   -0.3420   -0.3076 H   0  0  0  0  0  0  0  0  0  0  0  0
    5.9749    0.3346    0.3094 H   0  0  0  0  0  0  0  0  0  0  0  0
    4.6039    3.0886    0.3932 H   0  0  0  0  0  0  0  0  0  0  0  0
    6.3462    2.8207    0.2606 H   0  0  0  0  0  0  0  0  0  0  0  0
    5.2676    2.3185   -1.0546 H   0  0  0  0  0  0  0  0  0  0  0  0
    6.6143    1.2353    2.6304 N   0  0  0  0  0  0  0  0  0  0  0  0
    6.9668    1.3571    4.0257 C   0  0  0  0  0  0  0  0  0  0  0  0
    7.3697    1.1953    1.9525 H   0  0  0  0  0  0  0  0  0  0  0  0
    7.0350    2.4213    4.2956 H   0  0  0  0  0  0  0  0  0  0  0  0
    6.1962    0.8712    4.6422 H   0  0  0  0  0  0  0  0  0  0  0  0
    7.9378    0.8713    4.2022 H   0  0  0  0  0  0  0  0  0  0  0  0
  1  3  1  0  0  0  0
  1  7  1  0  0  0  0
  1  2  2  0  0  0  0
 22 23  1  0  0  0  0
 23 25  1  0  0  0  0
 23 24  2  0  0  0  0
 35 36  1  0  0  0  0
 36 44  1  0  0  0  0
 36 37  2  0  0  0  0
  8  9  1  0  0  0  0
  9 17  1  0  0  0  0
  9 10  2  0  0  0  0
 18 19  1  0  0  0  0
 19 34  1  0  0  0  0
 19 20  2  0  0  0  0
 35 38  1  0  0  0  0
  8 11  1  0  0  0  0
 44 45  1  0  0  0  0
 21 22  1  0  0  0  0
 18 21  1  0  0  0  0
 34 35  1  0  0  0  0
  7  8  1  0  0  0  0
 17 18  1  0  0  0  0
  3  4  1  0  0  0  0
  3  5  1  0  0  0  0
  3  6  1  0  0  0  0
 38 41  1  0  0  0  0
 38 42  1  0  0  0  0
 38 43  1  0  0  0  0
 11 14  1  0  0  0  0
 11 15  1  0  0  0  0
 11 16  1  0  0  0  0
 45 47  1  0  0  0  0
 45 48  1  0  0  0  0
 45 49  1  0  0  0  0
 22 30  1  0  0  0  0
 22 31  1  0  0  0  0
 21 28  1  0  0  0  0
 21 29  1  0  0  0  0
 35 40  1  0  0  0  0
  8 13  1  0  0  0  0
 18 27  1  0  0  0  0
 25 32  1  0  0  0  0
 25 33  1  0  0  0  0
 44 46  1  0  0  0  0
  7 12  1  0  0  0  0
 34 39  1  0  0  0  0
 17 26  1  0  0  0  0
M  END
$$$$

  -OEChem-05262214473D

 49 48  0     1  0  0  0  0  0999 V2000
   -1.9833   -0.0509   -3.3423 C   0  0  0  0  0  0  0  0  0  0  0  0
   -1.6199   -1.0613   -2.7518 O   0  0  0  0  0  0  0  0  0  0  0  0
   -3.3243   -0.0235   -3.9975 C   0  0  0  0  0  0  0  0  0  0  0  0
   -3.2886   -0.3689   -5.0432 H   0  0  0  0  0  0  0  0  0  0  0  0
   -4.0503   -0.6845   -3.4973 H   0  0  0  0  0  0  0  0  0  0  0  0
   -3.8104    0.9645   -4.0351 H   0  0  0  0  0  0  0  0  0  0  0  0
   -1.2607    1.1231   -3.4768 N   0  0  0  0  0  0  0  0  0  0  0  0
    0.0536    1.3115   -2.9213 C   0  0  2  0  0  0  0  0  0  0  0  0
    0.0266    0.8315   -1.4761 C   0  0  0  0  0  0  0  0  0  0  0  0
   -1.0065    0.7530   -0.8146 O   0  0  0  0  0  0  0  0  0  0  0  0
    0.4852    2.7674   -3.0025 C   0  0  0  0  0  0  0  0  0  0  0  0
   -1.6809    1.8924   -3.9952 H   0  0  0  0  0  0  0  0  0  0  0  0
    0.7360    0.6822   -3.5030 H   0  0  0  0  0  0  0  0  0  0  0  0
   -0.1867    3.4133   -2.4256 H   0  0  0  0  0  0  0  0  0  0  0  0
    1.4966    2.9042   -2.6056 H   0  0  0  0  0  0  0  0  0  0  0  0
    0.4754    3.1196   -4.0397 H   0  0  0  0  0  0  0  0  0  0  0  0
    1.2978    0.5411   -0.9947 N   0  0  0  0  0  0  0  0  0  0  0  0
    1.5371    0.0807    0.3489 C   0  0  2  0  0  0  0  0  0  0  0  0
    2.7255    0.8672    0.8909 C   0  0  0  0  0  0  0  0  0  0  0  0
    2.6458    1.6133    1.8645 O   0  0  0  0  0  0  0  0  0  0  0  0
    1.8250   -1.4250    0.4024 C   0  0  0  0  0  0  0  0  0  0  0  0
    0.6204   -2.2885    0.0228 C   0  0  0  0  0  0  0  0  0  0  0  0
    0.9093   -3.7778    0.0516 C   0  0  0  0  0  0  0  0  0  0  0  0
    2.0157   -4.2580    0.2797 O   0  0  0  0  0  0  0  0  0  0  0  0
   -0.2075   -4.5339   -0.2333 N   0  0  0  0  0  0  0  0  0  0  0  0
    2.0949    0.6178   -1.6227 H   0  0  0  0  0  0  0  0  0  0  0  0
    0.6454    0.3354    0.9316 H   0  0  0  0  0  0  0  0  0  0  0  0
    2.6489   -1.6593   -0.2848 H   0  0  0  0  0  0  0  0  0  0  0  0
    2.1747   -1.7056    1.4040 H   0  0  0  0  0  0  0  0  0  0  0  0
    0.3196   -2.0421   -1.0031 H   0  0  0  0  0  0  0  0  0  0  0  0
   -0.2344   -2.0721    0.6732 H   0  0  0  0  0  0  0  0  0  0  0  0
   -1.0827   -4.0593   -0.4282 H   0  0  0  0  0  0  0  0  0  0  0  0
   -0.1856   -5.5484   -0.2552 H   0  0  0  0  0  0  0  0  0  0  0  0
    3.8685    0.6742    0.1275 N   0  0  0  0  0  0  0  0  0  0  0  0
    5.1300    1.3199    0.4105 C   0  0  2  0  0  0  0  0  0  0  0  0
    5.4334    1.1309    1.8910 C   0  0  0  0  0  0  0  0  0  0  0  0
    4.5651    0.8969    2.7291 O   0  0  0  0  0  0  0  0  0  0  0  0
    5.0894    2.7963    0.0482 C   0  0  0  0  0  0  0  0  0  0  0  0
    3.8156    0.0476   -0.6702 H   0  0  0  0  0  0  0  0  0  0  0  0
    5.8900    0.8051   -0.1873 H   0  0  0  0  0  0  0  0  0  0  0  0
    4.3337    3.3289    0.6370 H   0  0  0  0  0  0  0  0  0  0  0  0
    6.0547    3.2778    0.2364 H   0  0  0  0  0  0  0  0  0  0  0  0
    4.8418    2.9312   -1.0103 H   0  0  0  0  0  0  0  0  0  0  0  0
    6.7822    1.2971    2.1727 N   0  0  0  0  0  0  0  0  0  0  0  0
    7.3199    1.1804    3.5080 C   0  0  0  0  0  0  0  0  0  0  0  0
    7.4337    1.4705    1.4129 H   0  0  0  0  0  0  0  0  0  0  0  0
    7.3424    2.1724    3.9828 H   0  0  0  0  0  0  0  0  0  0  0  0
    6.6858    0.5046    4.1007 H   0  0  0  0  0  0  0  0  0  0  0  0
    8.3412    0.7748    3.4578 H   0  0  0  0  0  0  0  0  0  0  0  0
  1  3  1  0  0  0  0
  1  7  1  0  0  0  0
  1  2  2  0  0  0  0
 22 23  1  0  0  0  0
 23 25  1  0  0  0  0
 23 24  2  0  0  0  0
 35 36  1  0  0  0  0
 36 44  1  0  0  0  0
 36 37  2  0  0  0  0
  8  9  1  0  0  0  0
  9 17  1  0  0  0  0
  9 10  2  0  0  0  0
 18 19  1  0  0  0  0
 19 34  1  0  0  0  0
 19 20  2  0  0  0  0
 35 38  1  0  0  0  0
  8 11  1  0  0  0  0
 44 45  1  0  0  0  0
 21 22  1  0  0  0  0
 18 21  1  0  0  0  0
 34 35  1  0  0  0  0
  7  8  1  0  0  0  0
 17 18  1  0  0  0  0
  3  4  1  0  0  0  0
  3  5  1  0  0  0  0
  3  6  1  0  0  0  0
 38 41  1  0  0  0  0
 38 42  1  0  0  0  0
 38 43  1  0  0  0  0
 11 14  1  0  0  0  0
 11 15  1  0  0  0  0
 11 16  1  0  0  0  0
 45 47  1  0  0  0  0
 45 48  1  0  0  0  0
 45 49  1  0  0  0  0
 22 30  1  0  0  0  0
 22 31  1  0  0  0  0
 21 28  1  0  0  0  0
 21 29  1  0  0  0  0
 35 40  1  0  0  0  0
  8 13  1  0  0  0  0
 18 27  1  0  0  0  0
 25 32  1  0  0  0  0
 25 33  1  0  0  0  0
 44 46  1  0  0  0  0
  7 12  1  0  0  0  0
 34 39  1  0  0  0  0
 17 26  1  0  0  0  0
M  END
$$$$

  -OEChem-05262214473D

 49 48  0     1  0  0  0  0  0999 V2000
   -1.9833   -0.0509   -3.3423 C   0  0  0  0  0  0  0  0  0  0  0  0
   -1.6199   -1.0613   -2.7518 O   0  0  0  0  0  0  0  0  0  0  0  0
   -3.3243   -0.0235   -3.9975 C   0  0  0  0  0  0  0  0  0  0  0  0
   -3.2886   -0.3689   -5.0432 H   0  0  0  0  0  0  0  0  0  0  0  0
   -4.0503   -0.6845   -3.4973 H   0  0  0  0  0  0  0  0  0  0  0  0
   -3.8104    0.9645   -4.0351 H   0  0  0  0  0  0  0  0  0  0  0  0
   -1.2607    1.1231   -3.4768 N   0  0  0  0  0  0  0  0  0  0  0  0
    0.0536    1.3115   -2.9213 C   0  0  2  0  0  0  0  0  0  0  0  0
    0.0266    0.8315   -1.4761 C   0  0  0  0  0  0  0  0  0  0  0  0
   -1.0065    0.7530   -0.8146 O   0  0  0  0  0  0  0  0  0  0  0  0
    0.4852    2.7674   -3.0025 C   0  0  0  0  0  0  0  0  0  0  0  0
   -1.6809    1.8924   -3.9952 H   0  0  0  0  0  0  0  0  0  0  0  0
    0.7360    0.6822   -3.5030 H   0  0  0  0  0  0  0  0  0  0  0  0
   -0.1867    3.4133   -2.4256 H   0  0  0  0  0  0  0  0  0  0  0  0
    1.4966    2.9042   -2.6056 H   0  0  0  0  0  0  0  0  0  0  0  0
    0.4754    3.1196   -4.0397 H   0  0  0  0  0  0  0  0  0  0  0  0
    1.2978    0.5411   -0.9947 N   0  0  0  0  0  0  0  0  0  0  0  0
    1.5371    0.0807    0.3489 C   0  0  2  0  0  0  0  0  0  0  0  0
    2.7255    0.8672    0.8909 C   0  0  0  0  0  0  0  0  0  0  0  0
    2.7276    1.3959    2.0006 O   0  0  0  0  0  0  0  0  0  0  0  0
    1.8250   -1.4250    0.4024 C   0  0  0  0  0  0  0  0  0  0  0  0
    0.6204   -2.2885    0.0228 C   0  0  0  0  0  0  0  0  0  0  0  0
    0.9093   -3.7778    0.0516 C   0  0  0  0  0  0  0  0  0  0  0  0
    2.0157   -4.2580    0.2797 O   0  0  0  0  0  0  0  0  0  0  0  0
   -0.2075   -4.5339   -0.2333 N   0  0  0  0  0  0  0  0  0  0  0  0
    2.0949    0.6178   -1.6227 H   0  0  0  0  0  0  0  0  0  0  0  0
    0.6454    0.3354    0.9316 H   0  0  0  0  0  0  0  0  0  0  0  0
    2.6489   -1.6593   -0.2848 H   0  0  0  0  0  0  0  0  0  0  0  0
    2.1747   -1.7056    1.4040 H   0  0  0  0  0  0  0  0  0  0  0  0
    0.3196   -2.0421   -1.0031 H   0  0  0  0  0  0  0  0  0  0  0  0
   -0.2344   -2.0721    0.6732 H   0  0  0  0  0  0  0  0  0  0  0  0
   -1.0827   -4.0593   -0.4282 H   0  0  0  0  0  0  0  0  0  0  0  0
   -0.1856   -5.5484   -0.2552 H   0  0  0  0  0  0  0  0  0  0  0  0
    3.7591    0.9490   -0.0318 N   0  0  0  0  0  0  0  0  0  0  0  0
    4.9937    1.6567    0.2206 C   0  0  2  0  0  0  0  0  0  0  0  0
    5.5195    1.2151    1.5801 C   0  0  0  0  0  0  0  0  0  0  0  0
    4.8010    0.7312    2.4523 O   0  0  0  0  0  0  0  0  0  0  0  0
    4.7863    3.1627    0.1812 C   0  0  0  0  0  0  0  0  0  0  0  0
    3.6420    0.4884   -0.9294 H   0  0  0  0  0  0  0  0  0  0  0  0
    5.6984    1.3519   -0.5607 H   0  0  0  0  0  0  0  0  0  0  0  0
    4.0832    3.4869    0.9570 H   0  0  0  0  0  0  0  0  0  0  0  0
    5.7279    3.6973    0.3442 H   0  0  0  0  0  0  0  0  0  0  0  0
    4.3801    3.4749   -0.7870 H   0  0  0  0  0  0  0  0  0  0  0  0
    6.8775    1.4646    1.7206 N   0  0  0  0  0  0  0  0  0  0  0  0
    7.6081    1.1466    2.9252 C   0  0  0  0  0  0  0  0  0  0  0  0
    7.3981    1.8511    0.9387 H   0  0  0  0  0  0  0  0  0  0  0  0
    7.6204    2.0233    3.5894 H   0  0  0  0  0  0  0  0  0  0  0  0
    7.1201    0.3048    3.4384 H   0  0  0  0  0  0  0  0  0  0  0  0
    8.6402    0.8689    2.6654 H   0  0  0  0  0  0  0  0  0  0  0  0
  1  3  1  0  0  0  0
  1  7  1  0  0  0  0
  1  2  2  0  0  0  0
 22 23  1  0  0  0  0
 23 25  1  0  0  0  0
 23 24  2  0  0  0  0
 35 36  1  0  0  0  0
 36 44  1  0  0  0  0
 36 37  2  0  0  0  0
  8  9  1  0  0  0  0
  9 17  1  0  0  0  0
  9 10  2  0  0  0  0
 18 19  1  0  0  0  0
 19 34  1  0  0  0  0
 19 20  2  0  0  0  0
 35 38  1  0  0  0  0
  8 11  1  0  0  0  0
 44 45  1  0  0  0  0
 21 22  1  0  0  0  0
 18 21  1  0  0  0  0
 34 35  1  0  0  0  0
  7  8  1  0  0  0  0
 17 18  1  0  0  0  0
  3  4  1  0  0  0  0
  3  5  1  0  0  0  0
  3  6  1  0  0  0  0
 38 41  1  0  0  0  0
 38 42  1  0  0  0  0
 38 43  1  0  0  0  0
 11 14  1  0  0  0  0
 11 15  1  0  0  0  0
 11 16  1  0  0  0  0
 45 47  1  0  0  0  0
 45 48  1  0  0  0  0
 45 49  1  0  0  0  0
 22 30  1  0  0  0  0
 22 31  1  0  0  0  0
 21 28  1  0  0  0  0
 21 29  1  0  0  0  0
 35 40  1  0  0  0  0
  8 13  1  0  0  0  0
 18 27  1  0  0  0  0
 25 32  1  0  0  0  0
 25 33  1  0  0  0  0
 44 46  1  0  0  0  0
  7 12  1  0  0  0  0
 34 39  1  0  0  0  0
 17 26  1  0  0  0  0
M  END
$$$$

  -OEChem-05262214473D

 49 48  0     1  0  0  0  0  0999 V2000
   -1.9833   -0.0509   -3.3423 C   0  0  0  0  0  0  0  0  0  0  0  0
   -1.6199   -1.0613   -2.7518 O   0  0  0  0  0  0  0  0  0  0  0  0
   -3.3243   -0.0235   -3.9975 C   0  0  0  0  0  0  0  0  0  0  0  0
   -3.2886   -0.3689   -5.0432 H   0  0  0  0  0  0  0  0  0  0  0  0
   -4.0503   -0.6845   -3.4973 H   0  0  0  0  0  0  0  0  0  0  0  0
   -3.8104    0.9645   -4.0351 H   0  0  0  0  0  0  0  0  0  0  0  0
   -1.2607    1.1231   -3.4768 N   0  0  0  0  0  0  0  0  0  0  0  0
    0.0536    1.3115   -2.9213 C   0  0  2  0  0  0  0  0  0  0  0  0
    0.0266    0.8315   -1.4761 C   0  0  0  0  0  0  0  0  0  0  0  0
   -1.0065    0.7530   -0.8146 O   0  0  0  0  0  0  0  0  0  0  0  0
    0.4852    2.7674   -3.0025 C   0  0  0  0  0  0  0  0  0  0  0  0
   -1.6809    1.8924   -3.9952 H   0  0  0  0  0  0  0  0  0  0  0  0
    0.7360    0.6822   -3.5030 H   0  0  0  0  0  0  0  0  0  0  0  0
   -0.1867    3.4133   -2.4256 H   0  0  0  0  0  0  0  0  0  0  0  0
    1.4966    2.9042   -2.6056 H   0  0  0  0  0  0  0  0  0  0  0  0
    0.4754    3.1196   -4.0397 H   0  0  0  0  0  0  0  0  0  0  0  0
    1.2978    0.5411   -0.9947 N   0  0  0  0  0  0  0  0  0  0  0  0
    1.5371    0.0807    0.3489 C   0  0  2  0  0  0  0  0  0  0  0  0
    2.7255    0.8672    0.8909 C   0  0  0  0  0  0  0  0  0  0  0  0
    2.8449    1.1659    2.0772 O   0  0  0  0  0  0  0  0  0  0  0  0
    1.8250   -1.4250    0.4024 C   0  0  0  0  0  0  0  0  0  0  0  0
    0.6204   -2.2885    0.0228 C   0  0  0  0  0  0  0  0  0  0  0  0
    0.9093   -3.7778    0.0516 C   0  0  0  0  0  0  0  0  0  0  0  0
    2.0157   -4.2580    0.2797 O   0  0  0  0  0  0  0  0  0  0  0  0
   -0.2075   -4.5339   -0.2333 N   0  0  0  0  0  0  0  0  0  0  0  0
    2.0949    0.6178   -1.6227 H   0  0  0  0  0  0  0  0  0  0  0  0
    0.6454    0.3354    0.9316 H   0  0  0  0  0  0  0  0  0  0  0  0
    2.6489   -1.6593   -0.2848 H   0  0  0  0  0  0  0  0  0  0  0  0
    2.1747   -1.7056    1.4040 H   0  0  0  0  0  0  0  0  0  0  0  0
    0.3196   -2.0421   -1.0031 H   0  0  0  0  0  0  0  0  0  0  0  0
   -0.2344   -2.0721    0.6732 H   0  0  0  0  0  0  0  0  0  0  0  0
   -1.0827   -4.0593   -0.4282 H   0  0  0  0  0  0  0  0  0  0  0  0
   -0.1856   -5.5484   -0.2552 H   0  0  0  0  0  0  0  0  0  0  0  0
    3.6070    1.2366   -0.1155 N   0  0  0  0  0  0  0  0  0  0  0  0
    4.8058    2.0077    0.1234 C   0  0  2  0  0  0  0  0  0  0  0  0
    5.5534    1.3670    1.2852 C   0  0  0  0  0  0  0  0  0  0  0  0
    5.0071    0.6488    2.1200 O   0  0  0  0  0  0  0  0  0  0  0  0
    4.4775    3.4619    0.4240 C   0  0  0  0  0  0  0  0  0  0  0  0
    3.3992    0.9506   -1.0677 H   0  0  0  0  0  0  0  0  0  0  0  0
    5.4132    1.9378   -0.7856 H   0  0  0  0  0  0  0  0  0  0  0  0
    3.8693    3.5520    1.3315 H   0  0  0  0  0  0  0  0  0  0  0  0
    5.3880    4.0508    0.5766 H   0  0  0  0  0  0  0  0  0  0  0  0
    3.9139    3.9126   -0.4000 H   0  0  0  0  0  0  0  0  0  0  0  0
    6.8938    1.7263    1.3050 N   0  0  0  0  0  0  0  0  0  0  0  0
    7.8117    1.2580    2.3170 C   0  0  0  0  0  0  0  0  0  0  0  0
    7.2654    2.3110    0.5621 H   0  0  0  0  0  0  0  0  0  0  0  0
    7.8502    1.9843    3.1422 H   0  0  0  0  0  0  0  0  0  0  0  0
    7.4695    0.2854    2.7004 H   0  0  0  0  0  0  0  0  0  0  0  0
    8.8147    1.1472    1.8791 H   0  0  0  0  0  0  0  0  0  0  0  0
  1  3  1  0  0  0  0
  1  7  1  0  0  0  0
  1  2  2  0  0  0  0
 22 23  1  0  0  0  0
 23 25  1  0  0  0  0
 23 24  2  0  0  0  0
 35 36  1  0  0  0  0
 36 44  1  0  0  0  0
 36 37  2  0  0  0  0
  8  9  1  0  0  0  0
  9 17  1  0  0  0  0
  9 10  2  0  0  0  0
 18 19  1  0  0  0  0
 19 34  1  0  0  0  0
 19 20  2  0  0  0  0
 35 38  1  0  0  0  0
  8 11  1  0  0  0  0
 44 45  1  0  0  0  0
 21 22  1  0  0  0  0
 18 21  1  0  0  0  0
 34 35  1  0  0  0  0
  7  8  1  0  0  0  0
 17 18  1  0  0  0  0
  3  4  1  0  0  0  0
  3  5  1  0  0  0  0
  3  6  1  0  0  0  0
 38 41  1  0  0  0  0
 38 42  1  0  0  0  0
 38 43  1  0  0  0  0
 11 14  1  0  0  0  0
 11 15  1  0  0  0  0
 11 16  1  0  0  0  0
 45 47  1  0  0  0  0
 45 48  1  0  0  0  0
 45 49  1  0  0  0  0
 22 30  1  0  0  0  0
 22 31  1  0  0  0  0
 21 28  1  0  0  0  0
 21 29  1  0  0  0  0
 35 40  1  0  0  0  0
  8 13  1  0  0  0  0
 18 27  1  0  0  0  0
 25 32  1  0  0  0  0
 25 33  1  0  0  0  0
 44 46  1  0  0  0  0
  7 12  1  0  0  0  0
 34 39  1  0  0  0  0
 17 26  1  0  0  0  0
M  END
$$$$

  -OEChem-05262214473D

 49 48  0     1  0  0  0  0  0999 V2000
   -1.9833   -0.0509   -3.3423 C   0  0  0  0  0  0  0  0  0  0  0  0
   -1.6199   -1.0613   -2.7518 O   0  0  0  0  0  0  0  0  0  0  0  0
   -3.3243   -0.0235   -3.9975 C   0  0  0  0  0  0  0  0  0  0  0  0
   -3.2886   -0.3689   -5.0432 H   0  0  0  0  0  0  0  0  0  0  0  0
   -4.0503   -0.6845   -3.4973 H   0  0  0  0  0  0  0  0  0  0  0  0
   -3.8104    0.9645   -4.0351 H   0  0  0  0  0  0  0  0  0  0  0  0
   -1.2607    1.1231   -3.4768 N   0  0  0  0  0  0  0  0  0  0  0  0
    0.0536    1.3115   -2.9213 C   0  0  2  0  0  0  0  0  0  0  0  0
    0.0266    0.8315   -1.4761 C   0  0  0  0  0  0  0  0  0  0  0  0
   -1.0065    0.7530   -0.8146 O   0  0  0  0  0  0  0  0  0  0  0  0
    0.4852    2.7674   -3.0025 C   0  0  0  0  0  0  0  0  0  0  0  0
   -1.6809    1.8924   -3.9952 H   0  0  0  0  0  0  0  0  0  0  0  0
    0.7360    0.6822   -3.5030 H   0  0  0  0  0  0  0  0  0  0  0  0
   -0.1867    3.4133   -2.4256 H   0  0  0  0  0  0  0  0  0  0  0  0
    1.4966    2.9042   -2.6056 H   0  0  0  0  0  0  0  0  0  0  0  0
    0.4754    3.1196   -4.0397 H   0  0  0  0  0  0  0  0  0  0  0  0
    1.2978    0.5411   -0.9947 N   0  0  0  0  0  0  0  0  0  0  0  0
    1.5371    0.0807    0.3489 C   0  0  2  0  0  0  0  0  0  0  0  0
    2.7255    0.8672    0.8909 C   0  0  0  0  0  0  0  0  0  0  0  0
    2.9895    0.9392    2.0892 O   0  0  0  0  0  0  0  0  0  0  0  0
    1.8250   -1.4250    0.4024 C   0  0  0  0  0  0  0  0  0  0  0  0
    0.6204   -2.2885    0.0228 C   0  0  0  0  0  0  0  0  0  0  0  0
    0.9093   -3.7778    0.0516 C   0  0  0  0  0  0  0  0  0  0  0  0
    2.0157   -4.2580    0.2797 O   0  0  0  0  0  0  0  0  0  0  0  0
   -0.2075   -4.5339   -0.2333 N   0  0  0  0  0  0  0  0  0  0  0  0
    2.0949    0.6178   -1.6227 H   0  0  0  0  0  0  0  0  0  0  0  0
    0.6454    0.3354    0.9316 H   0  0  0  0  0  0  0  0  0  0  0  0
    2.6489   -1.6593   -0.2848 H   0  0  0  0  0  0  0  0  0  0  0  0
    2.1747   -1.7056    1.4040 H   0  0  0  0  0  0  0  0  0  0  0  0
    0.3196   -2.0421   -1.0031 H   0  0  0  0  0  0  0  0  0  0  0  0
   -0.2344   -2.0721    0.6732 H   0  0  0  0  0  0  0  0  0  0  0  0
   -1.0827   -4.0593   -0.4282 H   0  0  0  0  0  0  0  0  0  0  0  0
   -0.1856   -5.5484   -0.2552 H   0  0  0  0  0  0  0  0  0  0  0  0
    3.4224    1.5173   -0.1181 N   0  0  0  0  0  0  0  0  0  0  0  0
    4.5789    2.3492    0.1253 C   0  0  2  0  0  0  0  0  0  0  0  0
    5.5328    1.5763    1.0266 C   0  0  0  0  0  0  0  0  0  0  0  0
    5.1694    0.6552    1.7549 O   0  0  0  0  0  0  0  0  0  0  0  0
    4.1842    3.6735    0.7602 C   0  0  0  0  0  0  0  0  0  0  0  0
    3.1037    1.4027   -1.0757 H   0  0  0  0  0  0  0  0  0  0  0  0
    5.0538    2.5228   -0.8465 H   0  0  0  0  0  0  0  0  0  0  0  0
    3.7068    3.5196    1.7348 H   0  0  0  0  0  0  0  0  0  0  0  0
    5.0582    4.3141    0.9178 H   0  0  0  0  0  0  0  0  0  0  0  0
    3.4750    4.2144    0.1244 H   0  0  0  0  0  0  0  0  0  0  0  0
    6.8300    2.0645    0.9542 N   0  0  0  0  0  0  0  0  0  0  0  0
    7.9170    1.5071    1.7247 C   0  0  0  0  0  0  0  0  0  0  0  0
    7.0446    2.8191    0.3089 H   0  0  0  0  0  0  0  0  0  0  0  0
    8.0161    2.0580    2.6717 H   0  0  0  0  0  0  0  0  0  0  0  0
    7.7103    0.4477    1.9369 H   0  0  0  0  0  0  0  0  0  0  0  0
    8.8526    1.5907    1.1524 H   0  0  0  0  0  0  0  0  0  0  0  0
  1  3  1  0  0  0  0
  1  7  1  0  0  0  0
  1  2  2  0  0  0  0
 22 23  1  0  0  0  0
 23 25  1  0  0  0  0
 23 24  2  0  0  0  0
 35 36  1  0  0  0  0
 36 44  1  0  0  0  0
 36 37  2  0  0  0  0
  8  9  1  0  0  0  0
  9 17  1  0  0  0  0
  9 10  2  0  0  0  0
 18 19  1  0  0  0  0
 19 34  1  0  0  0  0
 19 20  2  0  0  0  0
 35 38  1  0  0  0  0
  8 11  1  0  0  0  0
 44 45  1  0  0  0  0
 21 22  1  0  0  0  0
 18 21  1  0  0  0  0
 34 35  1  0  0  0  0
  7  8  1  0  0  0  0
 17 18  1  0  0  0  0
  3  4  1  0  0  0  0
  3  5  1  0  0  0  0
  3  6  1  0  0  0  0
 38 41  1  0  0  0  0
 38 42  1  0  0  0  0
 38 43  1  0  0  0  0
 11 14  1  0  0  0  0
 11 15  1  0  0  0  0
 11 16  1  0  0  0  0
 45 47  1  0  0  0  0
 45 48  1  0  0  0  0
 45 49  1  0  0  0  0
 22 30  1  0  0  0  0
 22 31  1  0  0  0  0
 21 28  1  0  0  0  0
 21 29  1  0  0  0  0
 35 40  1  0  0  0  0
  8 13  1  0  0  0  0
 18 27  1  0  0  0  0
 25 32  1  0  0  0  0
 25 33  1  0  0  0  0
 44 46  1  0  0  0  0
  7 12  1  0  0  0  0
 34 39  1  0  0  0  0
 17 26  1  0  0  0  0
M  END
$$$$

  -OEChem-05262214473D

 49 48  0     1  0  0  0  0  0999 V2000
   -1.9833   -0.0509   -3.3423 C   0  0  0  0  0  0  0  0  0  0  0  0
   -1.6199   -1.0613   -2.7518 O   0  0  0  0  0  0  0  0  0  0  0  0
   -3.3243   -0.0235   -3.9975 C   0  0  0  0  0  0  0  0  0  0  0  0
   -3.2886   -0.3689   -5.0432 H   0  0  0  0  0  0  0  0  0  0  0  0
   -4.0503   -0.6845   -3.4973 H   0  0  0  0  0  0  0  0  0  0  0  0
   -3.8104    0.9645   -4.0351 H   0  0  0  0  0  0  0  0  0  0  0  0
   -1.2607    1.1231   -3.4768 N   0  0  0  0  0  0  0  0  0  0  0  0
    0.0536    1.3115   -2.9213 C   0  0  2  0  0  0  0  0  0  0  0  0
    0.0266    0.8315   -1.4761 C   0  0  0  0  0  0  0  0  0  0  0  0
   -1.0065    0.7530   -0.8146 O   0  0  0  0  0  0  0  0  0  0  0  0
    0.4852    2.7674   -3.0025 C   0  0  0  0  0  0  0  0  0  0  0  0
   -1.6809    1.8924   -3.9952 H   0  0  0  0  0  0  0  0  0  0  0  0
    0.7360    0.6822   -3.5030 H   0  0  0  0  0  0  0  0  0  0  0  0
   -0.1867    3.4133   -2.4256 H   0  0  0  0  0  0  0  0  0  0  0  0
    1.4966    2.9042   -2.6056 H   0  0  0  0  0  0  0  0  0  0  0  0
    0.4754    3.1196   -4.0397 H   0  0  0  0  0  0  0  0  0  0  0  0
    1.2978    0.5411   -0.9947 N   0  0  0  0  0  0  0  0  0  0  0  0
    1.5371    0.0807    0.3489 C   0  0  2  0  0  0  0  0  0  0  0  0
    2.7255    0.8672    0.8909 C   0  0  0  0  0  0  0  0  0  0  0  0
    3.1516    0.7310    2.0358 O   0  0  0  0  0  0  0  0  0  0  0  0
    1.8250   -1.4250    0.4024 C   0  0  0  0  0  0  0  0  0  0  0  0
    0.6204   -2.2885    0.0228 C   0  0  0  0  0  0  0  0  0  0  0  0
    0.9093   -3.7778    0.0516 C   0  0  0  0  0  0  0  0  0  0  0  0
    2.0157   -4.2580    0.2797 O   0  0  0  0  0  0  0  0  0  0  0  0
   -0.2075   -4.5339   -0.2333 N   0  0  0  0  0  0  0  0  0  0  0  0
    2.0949    0.6178   -1.6227 H   0  0  0  0  0  0  0  0  0  0  0  0
    0.6454    0.3354    0.9316 H   0  0  0  0  0  0  0  0  0  0  0  0
    2.6489   -1.6593   -0.2848 H   0  0  0  0  0  0  0  0  0  0  0  0
    2.1747   -1.7056    1.4040 H   0  0  0  0  0  0  0  0  0  0  0  0
    0.3196   -2.0421   -1.0031 H   0  0  0  0  0  0  0  0  0  0  0  0
   -0.2344   -2.0721    0.6732 H   0  0  0  0  0  0  0  0  0  0  0  0
   -1.0827   -4.0593   -0.4282 H   0  0  0  0  0  0  0  0  0  0  0  0
   -0.1856   -5.5484   -0.2552 H   0  0  0  0  0  0  0  0  0  0  0  0
    3.2180    1.7719   -0.0393 N   0  0  0  0  0  0  0  0  0  0  0  0
    4.3287    2.6577    0.2264 C   0  0  2  0  0  0  0  0  0  0  0  0
    5.4592    1.8288    0.8217 C   0  0  0  0  0  0  0  0  0  0  0  0
    5.2768    0.7499    1.3819 O   0  0  0  0  0  0  0  0  0  0  0  0
    3.9263    3.7830    1.1668 C   0  0  0  0  0  0  0  0  0  0  0  0
    2.7756    1.8137   -0.9527 H   0  0  0  0  0  0  0  0  0  0  0  0
    4.6446    3.0672   -0.7393 H   0  0  0  0  0  0  0  0  0  0  0  0
    3.6066    3.3921    2.1396 H   0  0  0  0  0  0  0  0  0  0  0  0
    4.7609    4.4692    1.3444 H   0  0  0  0  0  0  0  0  0  0  0  0
    3.0933    4.3598    0.7504 H   0  0  0  0  0  0  0  0  0  0  0  0
    6.6904    2.4560    0.6920 N   0  0  0  0  0  0  0  0  0  0  0  0
    7.9166    1.8768    1.1889 C   0  0  0  0  0  0  0  0  0  0  0  0
    6.7508    3.3406    0.1963 H   0  0  0  0  0  0  0  0  0  0  0  0
    8.1066    2.2393    2.2099 H   0  0  0  0  0  0  0  0  0  0  0  0
    7.8260    0.7806    1.2000 H   0  0  0  0  0  0  0  0  0  0  0  0
    8.7514    2.1691    0.5349 H   0  0  0  0  0  0  0  0  0  0  0  0
  1  3  1  0  0  0  0
  1  7  1  0  0  0  0
  1  2  2  0  0  0  0
 22 23  1  0  0  0  0
 23 25  1  0  0  0  0
 23 24  2  0  0  0  0
 35 36  1  0  0  0  0
 36 44  1  0  0  0  0
 36 37  2  0  0  0  0
  8  9  1  0  0  0  0
  9 17  1  0  0  0  0
  9 10  2  0  0  0  0
 18 19  1  0  0  0  0
 19 34  1  0  0  0  0
 19 20  2  0  0  0  0
 35 38  1  0  0  0  0
  8 11  1  0  0  0  0
 44 45  1  0  0  0  0
 21 22  1  0  0  0  0
 18 21  1  0  0  0  0
 34 35  1  0  0  0  0
  7  8  1  0  0  0  0
 17 18  1  0  0  0  0
  3  4  1  0  0  0  0
  3  5  1  0  0  0  0
  3  6  1  0  0  0  0
 38 41  1  0  0  0  0
 38 42  1  0  0  0  0
 38 43  1  0  0  0  0
 11 14  1  0  0  0  0
 11 15  1  0  0  0  0
 11 16  1  0  0  0  0
 45 47  1  0  0  0  0
 45 48  1  0  0  0  0
 45 49  1  0  0  0  0
 22 30  1  0  0  0  0
 22 31  1  0  0  0  0
 21 28  1  0  0  0  0
 21 29  1  0  0  0  0
 35 40  1  0  0  0  0
  8 13  1  0  0  0  0
 18 27  1  0  0  0  0
 25 32  1  0  0  0  0
 25 33  1  0  0  0  0
 44 46  1  0  0  0  0
  7 12  1  0  0  0  0
 34 39  1  0  0  0  0
 17 26  1  0  0  0  0
M  END
$$$$

  -OEChem-05262214473D

 49 48  0     1  0  0  0  0  0999 V2000
   -1.9833   -0.0509   -3.3423 C   0  0  0  0  0  0  0  0  0  0  0  0
   -1.6199   -1.0613   -2.7518 O   0  0  0  0  0  0  0  0  0  0  0  0
   -3.3243   -0.0235   -3.9975 C   0  0  0  0  0  0  0  0  0  0  0  0
   -3.2886   -0.3689   -5.0432 H   0  0  0  0  0  0  0  0  0  0  0  0
   -4.0503   -0.6845   -3.4973 H   0  0  0  0  0  0  0  0  0  0  0  0
   -3.8104    0.9645   -4.0351 H   0  0  0  0  0  0  0  0  0  0  0  0
   -1.2607    1.1231   -3.4768 N   0  0  0  0  0  0  0  0  0  0  0  0
    0.0536    1.3115   -2.9213 C   0  0  2  0  0  0  0  0  0  0  0  0
    0.0266    0.8315   -1.4761 C   0  0  0  0  0  0  0  0  0  0  0  0
   -1.0065    0.7530   -0.8146 O   0  0  0  0  0  0  0  0  0  0  0  0
    0.4852    2.7674   -3.0025 C   0  0  0  0  0  0  0  0  0  0  0  0
   -1.6809    1.8924   -3.9952 H   0  0  0  0  0  0  0  0  0  0  0  0
    0.7360    0.6822   -3.5030 H   0  0  0  0  0  0  0  0  0  0  0  0
   -0.1867    3.4133   -2.4256 H   0  0  0  0  0  0  0  0  0  0  0  0
    1.4966    2.9042   -2.6056 H   0  0  0  0  0  0  0  0  0  0  0  0
    0.4754    3.1196   -4.0397 H   0  0  0  0  0  0  0  0  0  0  0  0
    1.2978    0.5411   -0.9947 N   0  0  0  0  0  0  0  0  0  0  0  0
    1.5371    0.0807    0.3489 C   0  0  2  0  0  0  0  0  0  0  0  0
    2.7255    0.8672    0.8909 C   0  0  0  0  0  0  0  0  0  0  0  0
    3.3202    0.5556    1.9205 O   0  0  0  0  0  0  0  0  0  0  0  0
    1.8250   -1.4250    0.4024 C   0  0  0  0  0  0  0  0  0  0  0  0
    0.6204   -2.2885    0.0228 C   0  0  0  0  0  0  0  0  0  0  0  0
    0.9093   -3.7778    0.0516 C   0  0  0  0  0  0  0  0  0  0  0  0
    2.0157   -4.2580    0.2797 O   0  0  0  0  0  0  0  0  0  0  0  0
   -0.2075   -4.5339   -0.2333 N   0  0  0  0  0  0  0  0  0  0  0  0
    2.0949    0.6178   -1.6227 H   0  0  0  0  0  0  0  0  0  0  0  0
    0.6454    0.3354    0.9316 H   0  0  0  0  0  0  0  0  0  0  0  0
    2.6489   -1.6593   -0.2848 H   0  0  0  0  0  0  0  0  0  0  0  0
    2.1747   -1.7056    1.4040 H   0  0  0  0  0  0  0  0  0  0  0  0
    0.3196   -2.0421   -1.0031 H   0  0  0  0  0  0  0  0  0  0  0  0
   -0.2344   -2.0721    0.6732 H   0  0  0  0  0  0  0  0  0  0  0  0
   -1.0827   -4.0593   -0.4282 H   0  0  0  0  0  0  0  0  0  0  0  0
   -0.1856   -5.5484   -0.2552 H   0  0  0  0  0  0  0  0  0  0  0  0
    3.0076    1.9832    0.1154 N   0  0  0  0  0  0  0  0  0  0  0  0
    4.0720    2.9123    0.4196 C   0  0  2  0  0  0  0  0  0  0  0  0
    5.3374    2.1072    0.6846 C   0  0  0  0  0  0  0  0  0  0  0  0
    5.3221    0.9265    1.0263 O   0  0  0  0  0  0  0  0  0  0  0  0
    3.7213    3.7831    1.6160 C   0  0  0  0  0  0  0  0  0  0  0  0
    2.4372    2.1557   -0.7071 H   0  0  0  0  0  0  0  0  0  0  0  0
    4.2137    3.5337   -0.4713 H   0  0  0  0  0  0  0  0  0  0  0  0
    3.5756    3.1780    2.5183 H   0  0  0  0  0  0  0  0  0  0  0  0
    4.5165    4.5056    1.8275 H   0  0  0  0  0  0  0  0  0  0  0  0
    2.7949    4.3388    1.4354 H   0  0  0  0  0  0  0  0  0  0  0  0
    6.4845    2.8743    0.5365 N   0  0  0  0  0  0  0  0  0  0  0  0
    7.8107    2.3420    0.7459 C   0  0  0  0  0  0  0  0  0  0  0  0
    6.4040    3.8400    0.2320 H   0  0  0  0  0  0  0  0  0  0  0  0
    8.1158    2.5159    1.7884 H   0  0  0  0  0  0  0  0  0  0  0  0
    7.8088    1.2615    0.5400 H   0  0  0  0  0  0  0  0  0  0  0  0
    8.5180    2.8431    0.0686 H   0  0  0  0  0  0  0  0  0  0  0  0
  1  3  1  0  0  0  0
  1  7  1  0  0  0  0
  1  2  2  0  0  0  0
 22 23  1  0  0  0  0
 23 25  1  0  0  0  0
 23 24  2  0  0  0  0
 35 36  1  0  0  0  0
 36 44  1  0  0  0  0
 36 37  2  0  0  0  0
  8  9  1  0  0  0  0
  9 17  1  0  0  0  0
  9 10  2  0  0  0  0
 18 19  1  0  0  0  0
 19 34  1  0  0  0  0
 19 20  2  0  0  0  0
 35 38  1  0  0  0  0
  8 11  1  0  0  0  0
 44 45  1  0  0  0  0
 21 22  1  0  0  0  0
 18 21  1  0  0  0  0
 34 35  1  0  0  0  0
  7  8  1  0  0  0  0
 17 18  1  0  0  0  0
  3  4  1  0  0  0  0
  3  5  1  0  0  0  0
  3  6  1  0  0  0  0
 38 41  1  0  0  0  0
 38 42  1  0  0  0  0
 38 43  1  0  0  0  0
 11 14  1  0  0  0  0
 11 15  1  0  0  0  0
 11 16  1  0  0  0  0
 45 47  1  0  0  0  0
 45 48  1  0  0  0  0
 45 49  1  0  0  0  0
 22 30  1  0  0  0  0
 22 31  1  0  0  0  0
 21 28  1  0  0  0  0
 21 29  1  0  0  0  0
 35 40  1  0  0  0  0
  8 13  1  0  0  0  0
 18 27  1  0  0  0  0
 25 32  1  0  0  0  0
 25 33  1  0  0  0  0
 44 46  1  0  0  0  0
  7 12  1  0  0  0  0
 34 39  1  0  0  0  0
 17 26  1  0  0  0  0
M  END
$$$$

  -OEChem-05262214473D

 49 48  0     1  0  0  0  0  0999 V2000
   -1.9833   -0.0509   -3.3423 C   0  0  0  0  0  0  0  0  0  0  0  0
   -1.6199   -1.0613   -2.7518 O   0  0  0  0  0  0  0  0  0  0  0  0
   -3.3243   -0.0235   -3.9975 C   0  0  0  0  0  0  0  0  0  0  0  0
   -3.2886   -0.3689   -5.0432 H   0  0  0  0  0  0  0  0  0  0  0  0
   -4.0503   -0.6845   -3.4973 H   0  0  0  0  0  0  0  0  0  0  0  0
   -3.8104    0.9645   -4.0351 H   0  0  0  0  0  0  0  0  0  0  0  0
   -1.2607    1.1231   -3.4768 N   0  0  0  0  0  0  0  0  0  0  0  0
    0.0536    1.3115   -2.9213 C   0  0  2  0  0  0  0  0  0  0  0  0
    0.0266    0.8315   -1.4761 C   0  0  0  0  0  0  0  0  0  0  0  0
   -1.0065    0.7530   -0.8146 O   0  0  0  0  0  0  0  0  0  0  0  0
    0.4852    2.7674   -3.0025 C   0  0  0  0  0  0  0  0  0  0  0  0
   -1.6809    1.8924   -3.9952 H   0  0  0  0  0  0  0  0  0  0  0  0
    0.7360    0.6822   -3.5030 H   0  0  0  0  0  0  0  0  0  0  0  0
   -0.1867    3.4133   -2.4256 H   0  0  0  0  0  0  0  0  0  0  0  0
    1.4966    2.9042   -2.6056 H   0  0  0  0  0  0  0  0  0  0  0  0
    0.4754    3.1196   -4.0397 H   0  0  0  0  0  0  0  0  0  0  0  0
    1.2978    0.5411   -0.9947 N   0  0  0  0  0  0  0  0  0  0  0  0
    1.5371    0.0807    0.3489 C   0  0  2  0  0  0  0  0  0  0  0  0
    2.7255    0.8672    0.8909 C   0  0  0  0  0  0  0  0  0  0  0  0
    3.4839    0.4250    1.7513 O   0  0  0  0  0  0  0  0  0  0  0  0
    1.8250   -1.4250    0.4024 C   0  0  0  0  0  0  0  0  0  0  0  0
    0.6204   -2.2885    0.0228 C   0  0  0  0  0  0  0  0  0  0  0  0
    0.9093   -3.7778    0.0516 C   0  0  0  0  0  0  0  0  0  0  0  0
    2.0157   -4.2580    0.2797 O   0  0  0  0  0  0  0  0  0  0  0  0
   -0.2075   -4.5339   -0.2333 N   0  0  0  0  0  0  0  0  0  0  0  0
    2.0949    0.6178   -1.6227 H   0  0  0  0  0  0  0  0  0  0  0  0
    0.6454    0.3354    0.9316 H   0  0  0  0  0  0  0  0  0  0  0  0
    2.6489   -1.6593   -0.2848 H   0  0  0  0  0  0  0  0  0  0  0  0
    2.1747   -1.7056    1.4040 H   0  0  0  0  0  0  0  0  0  0  0  0
    0.3196   -2.0421   -1.0031 H   0  0  0  0  0  0  0  0  0  0  0  0
   -0.2344   -2.0721    0.6732 H   0  0  0  0  0  0  0  0  0  0  0  0
   -1.0827   -4.0593   -0.4282 H   0  0  0  0  0  0  0  0  0  0  0  0
   -0.1856   -5.5484   -0.2552 H   0  0  0  0  0  0  0  0  0  0  0  0
    2.8055    2.1367    0.3356 N   0  0  0  0  0  0  0  0  0  0  0  0
    3.8265    3.0956    0.6919 C   0  0  2  0  0  0  0  0  0  0  0  0
    5.1759    2.3927    0.6246 C   0  0  0  0  0  0  0  0  0  0  0  0
    5.3021    1.1730    0.7124 O   0  0  0  0  0  0  0  0  0  0  0  0
    3.5834    3.6737    2.0773 C   0  0  0  0  0  0  0  0  0  0  0  0
    2.1117    2.4054   -0.3558 H   0  0  0  0  0  0  0  0  0  0  0  0
    3.7902    3.8906   -0.0608 H   0  0  0  0  0  0  0  0  0  0  0  0
    3.6160    2.8919    2.8449 H   0  0  0  0  0  0  0  0  0  0  0  0
    4.3415    4.4208    2.3342 H   0  0  0  0  0  0  0  0  0  0  0  0
    2.5999    4.1529    2.1326 H   0  0  0  0  0  0  0  0  0  0  0  0
    6.2264    3.2907    0.4981 N   0  0  0  0  0  0  0  0  0  0  0  0
    7.6065    2.8710    0.4260 C   0  0  0  0  0  0  0  0  0  0  0  0
    6.0279    4.2833    0.4135 H   0  0  0  0  0  0  0  0  0  0  0  0
    8.0429    2.8690    1.4358 H   0  0  0  0  0  0  0  0  0  0  0  0
    7.6598    1.8576    0.0017 H   0  0  0  0  0  0  0  0  0  0  0  0
    8.1682    3.5667   -0.2146 H   0  0  0  0  0  0  0  0  0  0  0  0
  1  3  1  0  0  0  0
  1  7  1  0  0  0  0
  1  2  2  0  0  0  0
 22 23  1  0  0  0  0
 23 25  1  0  0  0  0
 23 24  2  0  0  0  0
 35 36  1  0  0  0  0
 36 44  1  0  0  0  0
 36 37  2  0  0  0  0
  8  9  1  0  0  0  0
  9 17  1  0  0  0  0
  9 10  2  0  0  0  0
 18 19  1  0  0  0  0
 19 34  1  0  0  0  0
 19 20  2  0  0  0  0
 35 38  1  0  0  0  0
  8 11  1  0  0  0  0
 44 45  1  0  0  0  0
 21 22  1  0  0  0  0
 18 21  1  0  0  0  0
 34 35  1  0  0  0  0
  7  8  1  0  0  0  0
 17 18  1  0  0  0  0
  3  4  1  0  0  0  0
  3  5  1  0  0  0  0
  3  6  1  0  0  0  0
 38 41  1  0  0  0  0
 38 42  1  0  0  0  0
 38 43  1  0  0  0  0
 11 14  1  0  0  0  0
 11 15  1  0  0  0  0
 11 16  1  0  0  0  0
 45 47  1  0  0  0  0
 45 48  1  0  0  0  0
 45 49  1  0  0  0  0
 22 30  1  0  0  0  0
 22 31  1  0  0  0  0
 21 28  1  0  0  0  0
 21 29  1  0  0  0  0
 35 40  1  0  0  0  0
  8 13  1  0  0  0  0
 18 27  1  0  0  0  0
 25 32  1  0  0  0  0
 25 33  1  0  0  0  0
 44 46  1  0  0  0  0
  7 12  1  0  0  0  0
 34 39  1  0  0  0  0
 17 26  1  0  0  0  0
M  END
$$$$

  -OEChem-05262214473D

 49 48  0     1  0  0  0  0  0999 V2000
   -1.9833   -0.0509   -3.3423 C   0  0  0  0  0  0  0  0  0  0  0  0
   -1.6199   -1.0613   -2.7518 O   0  0  0  0  0  0  0  0  0  0  0  0
   -3.3243   -0.0235   -3.9975 C   0  0  0  0  0  0  0  0  0  0  0  0
   -3.2886   -0.3689   -5.0432 H   0  0  0  0  0  0  0  0  0  0  0  0
   -4.0503   -0.6845   -3.4973 H   0  0  0  0  0  0  0  0  0  0  0  0
   -3.8104    0.9645   -4.0351 H   0  0  0  0  0  0  0  0  0  0  0  0
   -1.2607    1.1231   -3.4768 N   0  0  0  0  0  0  0  0  0  0  0  0
    0.0536    1.3115   -2.9213 C   0  0  2  0  0  0  0  0  0  0  0  0
    0.0266    0.8315   -1.4761 C   0  0  0  0  0  0  0  0  0  0  0  0
   -1.0065    0.7530   -0.8146 O   0  0  0  0  0  0  0  0  0  0  0  0
    0.4852    2.7674   -3.0025 C   0  0  0  0  0  0  0  0  0  0  0  0
   -1.6809    1.8924   -3.9952 H   0  0  0  0  0  0  0  0  0  0  0  0
    0.7360    0.6822   -3.5030 H   0  0  0  0  0  0  0  0  0  0  0  0
   -0.1867    3.4133   -2.4256 H   0  0  0  0  0  0  0  0  0  0  0  0
    1.4966    2.9042   -2.6056 H   0  0  0  0  0  0  0  0  0  0  0  0
    0.4754    3.1196   -4.0397 H   0  0  0  0  0  0  0  0  0  0  0  0
    1.2978    0.5411   -0.9947 N   0  0  0  0  0  0  0  0  0  0  0  0
    1.5371    0.0807    0.3489 C   0  0  2  0  0  0  0  0  0  0  0  0
    2.7255    0.8672    0.8909 C   0  0  0  0  0  0  0  0  0  0  0  0
    3.6314    0.3480    1.5396 O   0  0  0  0  0  0  0  0  0  0  0  0
    1.8250   -1.4250    0.4024 C   0  0  0  0  0  0  0  0  0  0  0  0
    0.6204   -2.2885    0.0228 C   0  0  0  0  0  0  0  0  0  0  0  0
    0.9093   -3.7778    0.0516 C   0  0  0  0  0  0  0  0  0  0  0  0
    2.0157   -4.2580    0.2797 O   0  0  0  0  0  0  0  0  0  0  0  0
   -0.2075   -4.5339   -0.2333 N   0  0  0  0  0  0  0  0  0  0  0  0
    2.0949    0.6178   -1.6227 H   0  0  0  0  0  0  0  0  0  0  0  0
    0.6454    0.3354    0.9316 H   0  0  0  0  0  0  0  0  0  0  0  0
    2.6489   -1.6593   -0.2848 H   0  0  0  0  0  0  0  0  0  0  0  0
    2.1747   -1.7056    1.4040 H   0  0  0  0  0  0  0  0  0  0  0  0
    0.3196   -2.0421   -1.0031 H   0  0  0  0  0  0  0  0  0  0  0  0
   -0.2344   -2.0721    0.6732 H   0  0  0  0  0  0  0  0  0  0  0  0
   -1.0827   -4.0593   -0.4282 H   0  0  0  0  0  0  0  0  0  0  0  0
   -0.1856   -5.5484   -0.2552 H   0  0  0  0  0  0  0  0  0  0  0  0
    2.6257    2.2220    0.6063 N   0  0  0  0  0  0  0  0  0  0  0  0
    3.6089    3.1951    1.0247 C   0  0  2  0  0  0  0  0  0  0  0  0
    4.9856    2.6656    0.6457 C   0  0  0  0  0  0  0  0  0  0  0  0
    5.2181    1.4726    0.4617 O   0  0  0  0  0  0  0  0  0  0  0  0
    3.5217    3.4623    2.5193 C   0  0  0  0  0  0  0  0  0  0  0  0
    1.8213    2.5458    0.0774 H   0  0  0  0  0  0  0  0  0  0  0  0
    3.4032    4.1136    0.4642 H   0  0  0  0  0  0  0  0  0  0  0  0
    3.7249    2.5534    3.0974 H   0  0  0  0  0  0  0  0  0  0  0  0
    4.2480    4.2207    2.8298 H   0  0  0  0  0  0  0  0  0  0  0  0
    2.5218    3.8147    2.7946 H   0  0  0  0  0  0  0  0  0  0  0  0
    5.9337    3.6770    0.5795 N   0  0  0  0  0  0  0  0  0  0  0  0
    7.3179    3.4277    0.2510 C   0  0  0  0  0  0  0  0  0  0  0  0
    5.6480    4.6403    0.7285 H   0  0  0  0  0  0  0  0  0  0  0  0
    7.8929    3.2745    1.1762 H   0  0  0  0  0  0  0  0  0  0  0  0
    7.3891    2.5282   -0.3780 H   0  0  0  0  0  0  0  0  0  0  0  0
    7.7260    4.2907   -0.2956 H   0  0  0  0  0  0  0  0  0  0  0  0
  1  3  1  0  0  0  0
  1  7  1  0  0  0  0
  1  2  2  0  0  0  0
 22 23  1  0  0  0  0
 23 25  1  0  0  0  0
 23 24  2  0  0  0  0
 35 36  1  0  0  0  0
 36 44  1  0  0  0  0
 36 37  2  0  0  0  0
  8  9  1  0  0  0  0
  9 17  1  0  0  0  0
  9 10  2  0  0  0  0
 18 19  1  0  0  0  0
 19 34  1  0  0  0  0
 19 20  2  0  0  0  0
 35 38  1  0  0  0  0
  8 11  1  0  0  0  0
 44 45  1  0  0  0  0
 21 22  1  0  0  0  0
 18 21  1  0  0  0  0
 34 35  1  0  0  0  0
  7  8  1  0  0  0  0
 17 18  1  0  0  0  0
  3  4  1  0  0  0  0
  3  5  1  0  0  0  0
  3  6  1  0  0  0  0
 38 41  1  0  0  0  0
 38 42  1  0  0  0  0
 38 43  1  0  0  0  0
 11 14  1  0  0  0  0
 11 15  1  0  0  0  0
 11 16  1  0  0  0  0
 45 47  1  0  0  0  0
 45 48  1  0  0  0  0
 45 49  1  0  0  0  0
 22 30  1  0  0  0  0
 22 31  1  0  0  0  0
 21 28  1  0  0  0  0
 21 29  1  0  0  0  0
 35 40  1  0  0  0  0
  8 13  1  0  0  0  0
 18 27  1  0  0  0  0
 25 32  1  0  0  0  0
 25 33  1  0  0  0  0
 44 46  1  0  0  0  0
  7 12  1  0  0  0  0
 34 39  1  0  0  0  0
 17 26  1  0  0  0  0
M  END
$$$$

  -OEChem-05262214473D

 49 48  0     1  0  0  0  0  0999 V2000
   -1.9833   -0.0509   -3.3423 C   0  0  0  0  0  0  0  0  0  0  0  0
   -1.6199   -1.0613   -2.7518 O   0  0  0  0  0  0  0  0  0  0  0  0
   -3.3243   -0.0235   -3.9975 C   0  0  0  0  0  0  0  0  0  0  0  0
   -3.2886   -0.3689   -5.0432 H   0  0  0  0  0  0  0  0  0  0  0  0
   -4.0503   -0.6845   -3.4973 H   0  0  0  0  0  0  0  0  0  0  0  0
   -3.8104    0.9645   -4.0351 H   0  0  0  0  0  0  0  0  0  0  0  0
   -1.2607    1.1231   -3.4768 N   0  0  0  0  0  0  0  0  0  0  0  0
    0.0536    1.3115   -2.9213 C   0  0  2  0  0  0  0  0  0  0  0  0
    0.0266    0.8315   -1.4761 C   0  0  0  0  0  0  0  0  0  0  0  0
   -1.0065    0.7530   -0.8146 O   0  0  0  0  0  0  0  0  0  0  0  0
    0.4852    2.7674   -3.0025 C   0  0  0  0  0  0  0  0  0  0  0  0
   -1.6809    1.8924   -3.9952 H   0  0  0  0  0  0  0  0  0  0  0  0
    0.7360    0.6822   -3.5030 H   0  0  0  0  0  0  0  0  0  0  0  0
   -0.1867    3.4133   -2.4256 H   0  0  0  0  0  0  0  0  0  0  0  0
    1.4966    2.9042   -2.6056 H   0  0  0  0  0  0  0  0  0  0  0  0
    0.4754    3.1196   -4.0397 H   0  0  0  0  0  0  0  0  0  0  0  0
    1.2978    0.5411   -0.9947 N   0  0  0  0  0  0  0  0  0  0  0  0
    1.5371    0.0807    0.3489 C   0  0  2  0  0  0  0  0  0  0  0  0
    2.7255    0.8672    0.8909 C   0  0  0  0  0  0  0  0  0  0  0  0
    3.7526    0.3300    1.2999 O   0  0  0  0  0  0  0  0  0  0  0  0
    1.8250   -1.4250    0.4024 C   0  0  0  0  0  0  0  0  0  0  0  0
    0.6204   -2.2885    0.0228 C   0  0  0  0  0  0  0  0  0  0  0  0
    0.9093   -3.7778    0.0516 C   0  0  0  0  0  0  0  0  0  0  0  0
    2.0157   -4.2580    0.2797 O   0  0  0  0  0  0  0  0  0  0  0  0
   -0.2075   -4.5339   -0.2333 N   0  0  0  0  0  0  0  0  0  0  0  0
    2.0949    0.6178   -1.6227 H   0  0  0  0  0  0  0  0  0  0  0  0
    0.6454    0.3354    0.9316 H   0  0  0  0  0  0  0  0  0  0  0  0
    2.6489   -1.6593   -0.2848 H   0  0  0  0  0  0  0  0  0  0  0  0
    2.1747   -1.7056    1.4040 H   0  0  0  0  0  0  0  0  0  0  0  0
    0.3196   -2.0421   -1.0031 H   0  0  0  0  0  0  0  0  0  0  0  0
   -0.2344   -2.0721    0.6732 H   0  0  0  0  0  0  0  0  0  0  0  0
   -1.0827   -4.0593   -0.4282 H   0  0  0  0  0  0  0  0  0  0  0  0
   -0.1856   -5.5484   -0.2552 H   0  0  0  0  0  0  0  0  0  0  0  0
    2.4803    2.2332    0.9089 N   0  0  0  0  0  0  0  0  0  0  0  0
    3.4339    3.2041    1.3953 C   0  0  2  0  0  0  0  0  0  0  0  0
    4.7795    2.9074    0.7466 C   0  0  0  0  0  0  0  0  0  0  0  0
    5.0760    1.8049    0.2911 O   0  0  0  0  0  0  0  0  0  0  0  0
    3.5407    3.1632    2.9117 C   0  0  0  0  0  0  0  0  0  0  0  0
    1.5856    2.5672    0.5629 H   0  0  0  0  0  0  0  0  0  0  0  0
    3.0790    4.1875    1.0680 H   0  0  0  0  0  0  0  0  0  0  0  0
    3.8949    2.1855    3.2584 H   0  0  0  0  0  0  0  0  0  0  0  0
    4.2422    3.9187    3.2806 H   0  0  0  0  0  0  0  0  0  0  0  0
    2.5659    3.3473    3.3762 H   0  0  0  0  0  0  0  0  0  0  0  0
    5.6263    4.0067    0.7751 N   0  0  0  0  0  0  0  0  0  0  0  0
    6.9645    3.9742    0.2328 C   0  0  0  0  0  0  0  0  0  0  0  0
    5.2902    4.8866    1.1554 H   0  0  0  0  0  0  0  0  0  0  0  0
    7.6761    3.7048    1.0272 H   0  0  0  0  0  0  0  0  0  0  0  0
    7.0153    3.2277   -0.5734 H   0  0  0  0  0  0  0  0  0  0  0  0
    7.2215    4.9656   -0.1687 H   0  0  0  0  0  0  0  0  0  0  0  0
  1  3  1  0  0  0  0
  1  7  1  0  0  0  0
  1  2  2  0  0  0  0
 22 23  1  0  0  0  0
 23 25  1  0  0  0  0
 23 24  2  0  0  0  0
 35 36  1  0  0  0  0
 36 44  1  0  0  0  0
 36 37  2  0  0  0  0
  8  9  1  0  0  0  0
  9 17  1  0  0  0  0
  9 10  2  0  0  0  0
 18 19  1  0  0  0  0
 19 34  1  0  0  0  0
 19 20  2  0  0  0  0
 35 38  1  0  0  0  0
  8 11  1  0  0  0  0
 44 45  1  0  0  0  0
 21 22  1  0  0  0  0
 18 21  1  0  0  0  0
 34 35  1  0  0  0  0
  7  8  1  0  0  0  0
 17 18  1  0  0  0  0
  3  4  1  0  0  0  0
  3  5  1  0  0  0  0
  3  6  1  0  0  0  0
 38 41  1  0  0  0  0
 38 42  1  0  0  0  0
 38 43  1  0  0  0  0
 11 14  1  0  0  0  0
 11 15  1  0  0  0  0
 11 16  1  0  0  0  0
 45 47  1  0  0  0  0
 45 48  1  0  0  0  0
 45 49  1  0  0  0  0
 22 30  1  0  0  0  0
 22 31  1  0  0  0  0
 21 28  1  0  0  0  0
 21 29  1  0  0  0  0
 35 40  1  0  0  0  0
  8 13  1  0  0  0  0
 18 27  1  0  0  0  0
 25 32  1  0  0  0  0
 25 33  1  0  0  0  0
 44 46  1  0  0  0  0
  7 12  1  0  0  0  0
 34 39  1  0  0  0  0
 17 26  1  0  0  0  0
M  END
$$$$

  -OEChem-05262214473D

 49 48  0     1  0  0  0  0  0999 V2000
   -1.9833   -0.0509   -3.3423 C   0  0  0  0  0  0  0  0  0  0  0  0
   -1.6199   -1.0613   -2.7518 O   0  0  0  0  0  0  0  0  0  0  0  0
   -3.3243   -0.0235   -3.9975 C   0  0  0  0  0  0  0  0  0  0  0  0
   -3.2886   -0.3689   -5.0432 H   0  0  0  0  0  0  0  0  0  0  0  0
   -4.0503   -0.6845   -3.4973 H   0  0  0  0  0  0  0  0  0  0  0  0
   -3.8104    0.9645   -4.0351 H   0  0  0  0  0  0  0  0  0  0  0  0
   -1.2607    1.1231   -3.4768 N   0  0  0  0  0  0  0  0  0  0  0  0
    0.0536    1.3115   -2.9213 C   0  0  2  0  0  0  0  0  0  0  0  0
    0.0266    0.8315   -1.4761 C   0  0  0  0  0  0  0  0  0  0  0  0
   -1.0065    0.7530   -0.8146 O   0  0  0  0  0  0  0  0  0  0  0  0
    0.4852    2.7674   -3.0025 C   0  0  0  0  0  0  0  0  0  0  0  0
   -1.6809    1.8924   -3.9952 H   0  0  0  0  0  0  0  0  0  0  0  0
    0.7360    0.6822   -3.5030 H   0  0  0  0  0  0  0  0  0  0  0  0
   -0.1867    3.4133   -2.4256 H   0  0  0  0  0  0  0  0  0  0  0  0
    1.4966    2.9042   -2.6056 H   0  0  0  0  0  0  0  0  0  0  0  0
    0.4754    3.1196   -4.0397 H   0  0  0  0  0  0  0  0  0  0  0  0
    1.2978    0.5411   -0.9947 N   0  0  0  0  0  0  0  0  0  0  0  0
    1.5371    0.0807    0.3489 C   0  0  2  0  0  0  0  0  0  0  0  0
    2.7255    0.8672    0.8909 C   0  0  0  0  0  0  0  0  0  0  0  0
    3.8394    0.3720    1.0486 O   0  0  0  0  0  0  0  0  0  0  0  0
    1.8250   -1.4250    0.4024 C   0  0  0  0  0  0  0  0  0  0  0  0
    0.6204   -2.2885    0.0228 C   0  0  0  0  0  0  0  0  0  0  0  0
    0.9093   -3.7778    0.0516 C   0  0  0  0  0  0  0  0  0  0  0  0
    2.0157   -4.2580    0.2797 O   0  0  0  0  0  0  0  0  0  0  0  0
   -0.2075   -4.5339   -0.2333 N   0  0  0  0  0  0  0  0  0  0  0  0
    2.0949    0.6178   -1.6227 H   0  0  0  0  0  0  0  0  0  0  0  0
    0.6454    0.3354    0.9316 H   0  0  0  0  0  0  0  0  0  0  0  0
    2.6489   -1.6593   -0.2848 H   0  0  0  0  0  0  0  0  0  0  0  0
    2.1747   -1.7056    1.4040 H   0  0  0  0  0  0  0  0  0  0  0  0
    0.3196   -2.0421   -1.0031 H   0  0  0  0  0  0  0  0  0  0  0  0
   -0.2344   -2.0721    0.6732 H   0  0  0  0  0  0  0  0  0  0  0  0
   -1.0827   -4.0593   -0.4282 H   0  0  0  0  0  0  0  0  0  0  0  0
   -0.1856   -5.5484   -0.2552 H   0  0  0  0  0  0  0  0  0  0  0  0
    2.3792    2.1696    1.2229 N   0  0  0  0  0  0  0  0  0  0  0  0
    3.3135    3.1220    1.7784 C   0  0  2  0  0  0  0  0  0  0  0  0
    4.5717    3.1017    0.9204 C   0  0  0  0  0  0  0  0  0  0  0  0
    4.8855    2.1471    0.2124 O   0  0  0  0  0  0  0  0  0  0  0  0
    3.6389    2.7969    3.2280 C   0  0  0  0  0  0  0  0  0  0  0  0
    1.4209    2.4684    1.0676 H   0  0  0  0  0  0  0  0  0  0  0  0
    2.8396    4.1072    1.7095 H   0  0  0  0  0  0  0  0  0  0  0  0
    4.1145    1.8134    3.3170 H   0  0  0  0  0  0  0  0  0  0  0  0
    4.3246    3.5356    3.6560 H   0  0  0  0  0  0  0  0  0  0  0  0
    2.7291    2.7826    3.8378 H   0  0  0  0  0  0  0  0  0  0  0  0
    5.3251    4.2575    1.0716 N   0  0  0  0  0  0  0  0  0  0  0  0
    6.5705    4.4732    0.3727 C   0  0  0  0  0  0  0  0  0  0  0  0
    4.9790    5.0054    1.6653 H   0  0  0  0  0  0  0  0  0  0  0  0
    7.4072    4.1305    0.9991 H   0  0  0  0  0  0  0  0  0  0  0  0
    6.5638    3.9083   -0.5711 H   0  0  0  0  0  0  0  0  0  0  0  0
    6.6890    5.5454    0.1574 H   0  0  0  0  0  0  0  0  0  0  0  0
  1  3  1  0  0  0  0
  1  7  1  0  0  0  0
  1  2  2  0  0  0  0
 22 23  1  0  0  0  0
 23 25  1  0  0  0  0
 23 24  2  0  0  0  0
 35 36  1  0  0  0  0
 36 44  1  0  0  0  0
 36 37  2  0  0  0  0
  8  9  1  0  0  0  0
  9 17  1  0  0  0  0
  9 10  2  0  0  0  0
 18 19  1  0  0  0  0
 19 34  1  0  0  0  0
 19 20  2  0  0  0  0
 35 38  1  0  0  0  0
  8 11  1  0  0  0  0
 44 45  1  0  0  0  0
 21 22  1  0  0  0  0
 18 21  1  0  0  0  0
 34 35  1  0  0  0  0
  7  8  1  0  0  0  0
 17 18  1  0  0  0  0
  3  4  1  0  0  0  0
  3  5  1  0  0  0  0
  3  6  1  0  0  0  0
 38 41  1  0  0  0  0
 38 42  1  0  0  0  0
 38 43  1  0  0  0  0
 11 14  1  0  0  0  0
 11 15  1  0  0  0  0
 11 16  1  0  0  0  0
 45 47  1  0  0  0  0
 45 48  1  0  0  0  0
 45 49  1  0  0  0  0
 22 30  1  0  0  0  0
 22 31  1  0  0  0  0
 21 28  1  0  0  0  0
 21 29  1  0  0  0  0
 35 40  1  0  0  0  0
  8 13  1  0  0  0  0
 18 27  1  0  0  0  0
 25 32  1  0  0  0  0
 25 33  1  0  0  0  0
 44 46  1  0  0  0  0
  7 12  1  0  0  0  0
 34 39  1  0  0  0  0
 17 26  1  0  0  0  0
M  END
$$$$

  -OEChem-05262214473D

 49 48  0     1  0  0  0  0  0999 V2000
   -1.9833   -0.0509   -3.3423 C   0  0  0  0  0  0  0  0  0  0  0  0
   -1.6199   -1.0613   -2.7518 O   0  0  0  0  0  0  0  0  0  0  0  0
   -3.3243   -0.0235   -3.9975 C   0  0  0  0  0  0  0  0  0  0  0  0
   -3.2886   -0.3689   -5.0432 H   0  0  0  0  0  0  0  0  0  0  0  0
   -4.0503   -0.6845   -3.4973 H   0  0  0  0  0  0  0  0  0  0  0  0
   -3.8104    0.9645   -4.0351 H   0  0  0  0  0  0  0  0  0  0  0  0
   -1.2607    1.1231   -3.4768 N   0  0  0  0  0  0  0  0  0  0  0  0
    0.0536    1.3115   -2.9213 C   0  0  2  0  0  0  0  0  0  0  0  0
    0.0266    0.8315   -1.4761 C   0  0  0  0  0  0  0  0  0  0  0  0
   -1.0065    0.7530   -0.8146 O   0  0  0  0  0  0  0  0  0  0  0  0
    0.4852    2.7674   -3.0025 C   0  0  0  0  0  0  0  0  0  0  0  0
   -1.6809    1.8924   -3.9952 H   0  0  0  0  0  0  0  0  0  0  0  0
    0.7360    0.6822   -3.5030 H   0  0  0  0  0  0  0  0  0  0  0  0
   -0.1867    3.4133   -2.4256 H   0  0  0  0  0  0  0  0  0  0  0  0
    1.4966    2.9042   -2.6056 H   0  0  0  0  0  0  0  0  0  0  0  0
    0.4754    3.1196   -4.0397 H   0  0  0  0  0  0  0  0  0  0  0  0
    1.2978    0.5411   -0.9947 N   0  0  0  0  0  0  0  0  0  0  0  0
    1.5371    0.0807    0.3489 C   0  0  2  0  0  0  0  0  0  0  0  0
    2.7255    0.8672    0.8909 C   0  0  0  0  0  0  0  0  0  0  0  0
    3.8859    0.4713    0.8027 O   0  0  0  0  0  0  0  0  0  0  0  0
    1.8250   -1.4250    0.4024 C   0  0  0  0  0  0  0  0  0  0  0  0
    0.6204   -2.2885    0.0228 C   0  0  0  0  0  0  0  0  0  0  0  0
    0.9093   -3.7778    0.0516 C   0  0  0  0  0  0  0  0  0  0  0  0
    2.0157   -4.2580    0.2797 O   0  0  0  0  0  0  0  0  0  0  0  0
   -0.2075   -4.5339   -0.2333 N   0  0  0  0  0  0  0  0  0  0  0  0
    2.0949    0.6178   -1.6227 H   0  0  0  0  0  0  0  0  0  0  0  0
    0.6454    0.3354    0.9316 H   0  0  0  0  0  0  0  0  0  0  0  0
    2.6489   -1.6593   -0.2848 H   0  0  0  0  0  0  0  0  0  0  0  0
    2.1747   -1.7056    1.4040 H   0  0  0  0  0  0  0  0  0  0  0  0
    0.3196   -2.0421   -1.0031 H   0  0  0  0  0  0  0  0  0  0  0  0
   -0.2344   -2.0721    0.6732 H   0  0  0  0  0  0  0  0  0  0  0  0
   -1.0827   -4.0593   -0.4282 H   0  0  0  0  0  0  0  0  0  0  0  0
   -0.1856   -5.5484   -0.2552 H   0  0  0  0  0  0  0  0  0  0  0  0
    2.3293    2.0355    1.5269 N   0  0  0  0  0  0  0  0  0  0  0  0
    3.2560    2.9542    2.1480 C   0  0  2  0  0  0  0  0  0  0  0  0
    4.3762    3.2352    1.1552 C   0  0  0  0  0  0  0  0  0  0  0  0
    4.6593    2.4761    0.2308 O   0  0  0  0  0  0  0  0  0  0  0  0
    3.8097    2.3883    3.4464 C   0  0  0  0  0  0  0  0  0  0  0  0
    1.3382    2.2559    1.5573 H   0  0  0  0  0  0  0  0  0  0  0  0
    2.7014    3.8782    2.3448 H   0  0  0  0  0  0  0  0  0  0  0  0
    4.3686    1.4622    3.2693 H   0  0  0  0  0  0  0  0  0  0  0  0
    4.4896    3.0973    3.9302 H   0  0  0  0  0  0  0  0  0  0  0  0
    3.0004    2.1590    4.1480 H   0  0  0  0  0  0  0  0  0  0  0  0
    5.0507    4.4121    1.4488 N   0  0  0  0  0  0  0  0  0  0  0  0
    6.1626    4.8908    0.6611 C   0  0  0  0  0  0  0  0  0  0  0  0
    4.7356    4.9888    2.2233 H   0  0  0  0  0  0  0  0  0  0  0  0
    7.1045    4.5226    1.0937 H   0  0  0  0  0  0  0  0  0  0  0  0
    6.0653    4.5238   -0.3713 H   0  0  0  0  0  0  0  0  0  0  0  0
    6.1648    5.9908    0.6605 H   0  0  0  0  0  0  0  0  0  0  0  0
  1  3  1  0  0  0  0
  1  7  1  0  0  0  0
  1  2  2  0  0  0  0
 22 23  1  0  0  0  0
 23 25  1  0  0  0  0
 23 24  2  0  0  0  0
 35 36  1  0  0  0  0
 36 44  1  0  0  0  0
 36 37  2  0  0  0  0
  8  9  1  0  0  0  0
  9 17  1  0  0  0  0
  9 10  2  0  0  0  0
 18 19  1  0  0  0  0
 19 34  1  0  0  0  0
 19 20  2  0  0  0  0
 35 38  1  0  0  0  0
  8 11  1  0  0  0  0
 44 45  1  0  0  0  0
 21 22  1  0  0  0  0
 18 21  1  0  0  0  0
 34 35  1  0  0  0  0
  7  8  1  0  0  0  0
 17 18  1  0  0  0  0
  3  4  1  0  0  0  0
  3  5  1  0  0  0  0
  3  6  1  0  0  0  0
 38 41  1  0  0  0  0
 38 42  1  0  0  0  0
 38 43  1  0  0  0  0
 11 14  1  0  0  0  0
 11 15  1  0  0  0  0
 11 16  1  0  0  0  0
 45 47  1  0  0  0  0
 45 48  1  0  0  0  0
 45 49  1  0  0  0  0
 22 30  1  0  0  0  0
 22 31  1  0  0  0  0
 21 28  1  0  0  0  0
 21 29  1  0  0  0  0
 35 40  1  0  0  0  0
  8 13  1  0  0  0  0
 18 27  1  0  0  0  0
 25 32  1  0  0  0  0
 25 33  1  0  0  0  0
 44 46  1  0  0  0  0
  7 12  1  0  0  0  0
 34 39  1  0  0  0  0
 17 26  1  0  0  0  0
M  END
$$$$

  -OEChem-05262214473D

 49 48  0     1  0  0  0  0  0999 V2000
   -1.9833   -0.0509   -3.3423 C   0  0  0  0  0  0  0  0  0  0  0  0
   -1.6199   -1.0613   -2.7518 O   0  0  0  0  0  0  0  0  0  0  0  0
   -3.3243   -0.0235   -3.9975 C   0  0  0  0  0  0  0  0  0  0  0  0
   -3.2886   -0.3689   -5.0432 H   0  0  0  0  0  0  0  0  0  0  0  0
   -4.0503   -0.6845   -3.4973 H   0  0  0  0  0  0  0  0  0  0  0  0
   -3.8104    0.9645   -4.0351 H   0  0  0  0  0  0  0  0  0  0  0  0
   -1.2607    1.1231   -3.4768 N   0  0  0  0  0  0  0  0  0  0  0  0
    0.0536    1.3115   -2.9213 C   0  0  2  0  0  0  0  0  0  0  0  0
    0.0266    0.8315   -1.4761 C   0  0  0  0  0  0  0  0  0  0  0  0
   -1.0065    0.7530   -0.8146 O   0  0  0  0  0  0  0  0  0  0  0  0
    0.4852    2.7674   -3.0025 C   0  0  0  0  0  0  0  0  0  0  0  0
   -1.6809    1.8924   -3.9952 H   0  0  0  0  0  0  0  0  0  0  0  0
    0.7360    0.6822   -3.5030 H   0  0  0  0  0  0  0  0  0  0  0  0
   -0.1867    3.4133   -2.4256 H   0  0  0  0  0  0  0  0  0  0  0  0
    1.4966    2.9042   -2.6056 H   0  0  0  0  0  0  0  0  0  0  0  0
    0.4754    3.1196   -4.0397 H   0  0  0  0  0  0  0  0  0  0  0  0
    1.2978    0.5411   -0.9947 N   0  0  0  0  0  0  0  0  0  0  0  0
    1.5371    0.0807    0.3489 C   0  0  2  0  0  0  0  0  0  0  0  0
    2.7255    0.8672    0.8909 C   0  0  0  0  0  0  0  0  0  0  0  0
    3.8887    0.6211    0.5790 O   0  0  0  0  0  0  0  0  0  0  0  0
    1.8250   -1.4250    0.4024 C   0  0  0  0  0  0  0  0  0  0  0  0
    0.6204   -2.2885    0.0228 C   0  0  0  0  0  0  0  0  0  0  0  0
    0.9093   -3.7778    0.0516 C   0  0  0  0  0  0  0  0  0  0  0  0
    2.0157   -4.2580    0.2797 O   0  0  0  0  0  0  0  0  0  0  0  0
   -0.2075   -4.5339   -0.2333 N   0  0  0  0  0  0  0  0  0  0  0  0
    2.0949    0.6178   -1.6227 H   0  0  0  0  0  0  0  0  0  0  0  0
    0.6454    0.3354    0.9316 H   0  0  0  0  0  0  0  0  0  0  0  0
    2.6489   -1.6593   -0.2848 H   0  0  0  0  0  0  0  0  0  0  0  0
    2.1747   -1.7056    1.4040 H   0  0  0  0  0  0  0  0  0  0  0  0
    0.3196   -2.0421   -1.0031 H   0  0  0  0  0  0  0  0  0  0  0  0
   -0.2344   -2.0721    0.6732 H   0  0  0  0  0  0  0  0  0  0  0  0
   -1.0827   -4.0593   -0.4282 H   0  0  0  0  0  0  0  0  0  0  0  0
   -0.1856   -5.5484   -0.2552 H   0  0  0  0  0  0  0  0  0  0  0  0
    2.3340    1.8401    1.8001 N   0  0  0  0  0  0  0  0  0  0  0  0
    3.2652    2.7124    2.4788 C   0  0  2  0  0  0  0  0  0  0  0  0
    4.2065    3.2988    1.4351 C   0  0  0  0  0  0  0  0  0  0  0  0
    4.4131    2.7693    0.3451 O   0  0  0  0  0  0  0  0  0  0  0  0
    4.0414    1.9653    3.5522 C   0  0  0  0  0  0  0  0  0  0  0  0
    1.3433    1.9442    1.9984 H   0  0  0  0  0  0  0  0  0  0  0  0
    2.6738    3.5161    2.9307 H   0  0  0  0  0  0  0  0  0  0  0  0
    4.6401    1.1561    3.1184 H   0  0  0  0  0  0  0  0  0  0  0  0
    4.7259    2.6339    4.0847 H   0  0  0  0  0  0  0  0  0  0  0  0
    3.3612    1.5190    4.2856 H   0  0  0  0  0  0  0  0  0  0  0  0
    4.8218    4.4602    1.8810 N   0  0  0  0  0  0  0  0  0  0  0  0
    5.7687    5.1984    1.0783 C   0  0  0  0  0  0  0  0  0  0  0  0
    4.5764    4.8377    2.7915 H   0  0  0  0  0  0  0  0  0  0  0  0
    6.7888    4.8544    1.3046 H   0  0  0  0  0  0  0  0  0  0  0  0
    5.5539    5.0321    0.0124 H   0  0  0  0  0  0  0  0  0  0  0  0
    5.6847    6.2712    1.3063 H   0  0  0  0  0  0  0  0  0  0  0  0
  1  3  1  0  0  0  0
  1  7  1  0  0  0  0
  1  2  2  0  0  0  0
 22 23  1  0  0  0  0
 23 25  1  0  0  0  0
 23 24  2  0  0  0  0
 35 36  1  0  0  0  0
 36 44  1  0  0  0  0
 36 37  2  0  0  0  0
  8  9  1  0  0  0  0
  9 17  1  0  0  0  0
  9 10  2  0  0  0  0
 18 19  1  0  0  0  0
 19 34  1  0  0  0  0
 19 20  2  0  0  0  0
 35 38  1  0  0  0  0
  8 11  1  0  0  0  0
 44 45  1  0  0  0  0
 21 22  1  0  0  0  0
 18 21  1  0  0  0  0
 34 35  1  0  0  0  0
  7  8  1  0  0  0  0
 17 18  1  0  0  0  0
  3  4  1  0  0  0  0
  3  5  1  0  0  0  0
  3  6  1  0  0  0  0
 38 41  1  0  0  0  0
 38 42  1  0  0  0  0
 38 43  1  0  0  0  0
 11 14  1  0  0  0  0
 11 15  1  0  0  0  0
 11 16  1  0  0  0  0
 45 47  1  0  0  0  0
 45 48  1  0  0  0  0
 45 49  1  0  0  0  0
 22 30  1  0  0  0  0
 22 31  1  0  0  0  0
 21 28  1  0  0  0  0
 21 29  1  0  0  0  0
 35 40  1  0  0  0  0
  8 13  1  0  0  0  0
 18 27  1  0  0  0  0
 25 32  1  0  0  0  0
 25 33  1  0  0  0  0
 44 46  1  0  0  0  0
  7 12  1  0  0  0  0
 34 39  1  0  0  0  0
 17 26  1  0  0  0  0
M  END
$$$$

  -OEChem-05262214473D

 49 48  0     1  0  0  0  0  0999 V2000
   -1.9833   -0.0509   -3.3423 C   0  0  0  0  0  0  0  0  0  0  0  0
   -1.6199   -1.0613   -2.7518 O   0  0  0  0  0  0  0  0  0  0  0  0
   -3.3243   -0.0235   -3.9975 C   0  0  0  0  0  0  0  0  0  0  0  0
   -3.2886   -0.3689   -5.0432 H   0  0  0  0  0  0  0  0  0  0  0  0
   -4.0503   -0.6845   -3.4973 H   0  0  0  0  0  0  0  0  0  0  0  0
   -3.8104    0.9645   -4.0351 H   0  0  0  0  0  0  0  0  0  0  0  0
   -1.2607    1.1231   -3.4768 N   0  0  0  0  0  0  0  0  0  0  0  0
    0.0536    1.3115   -2.9213 C   0  0  2  0  0  0  0  0  0  0  0  0
    0.0266    0.8315   -1.4761 C   0  0  0  0  0  0  0  0  0  0  0  0
   -1.0065    0.7530   -0.8146 O   0  0  0  0  0  0  0  0  0  0  0  0
    0.4852    2.7674   -3.0025 C   0  0  0  0  0  0  0  0  0  0  0  0
   -1.6809    1.8924   -3.9952 H   0  0  0  0  0  0  0  0  0  0  0  0
    0.7360    0.6822   -3.5030 H   0  0  0  0  0  0  0  0  0  0  0  0
   -0.1867    3.4133   -2.4256 H   0  0  0  0  0  0  0  0  0  0  0  0
    1.4966    2.9042   -2.6056 H   0  0  0  0  0  0  0  0  0  0  0  0
    0.4754    3.1196   -4.0397 H   0  0  0  0  0  0  0  0  0  0  0  0
    1.2978    0.5411   -0.9947 N   0  0  0  0  0  0  0  0  0  0  0  0
    1.5371    0.0807    0.3489 C   0  0  2  0  0  0  0  0  0  0  0  0
    2.7255    0.8672    0.8909 C   0  0  0  0  0  0  0  0  0  0  0  0
    3.8479    0.8112    0.3928 O   0  0  0  0  0  0  0  0  0  0  0  0
    1.8250   -1.4250    0.4024 C   0  0  0  0  0  0  0  0  0  0  0  0
    0.6204   -2.2885    0.0228 C   0  0  0  0  0  0  0  0  0  0  0  0
    0.9093   -3.7778    0.0516 C   0  0  0  0  0  0  0  0  0  0  0  0
    2.0157   -4.2580    0.2797 O   0  0  0  0  0  0  0  0  0  0  0  0
   -0.2075   -4.5339   -0.2333 N   0  0  0  0  0  0  0  0  0  0  0  0
    2.0949    0.6178   -1.6227 H   0  0  0  0  0  0  0  0  0  0  0  0
    0.6454    0.3354    0.9316 H   0  0  0  0  0  0  0  0  0  0  0  0
    2.6489   -1.6593   -0.2848 H   0  0  0  0  0  0  0  0  0  0  0  0
    2.1747   -1.7056    1.4040 H   0  0  0  0  0  0  0  0  0  0  0  0
    0.3196   -2.0421   -1.0031 H   0  0  0  0  0  0  0  0  0  0  0  0
   -0.2344   -2.0721    0.6732 H   0  0  0  0  0  0  0  0  0  0  0  0
   -1.0827   -4.0593   -0.4282 H   0  0  0  0  0  0  0  0  0  0  0  0
   -0.1856   -5.5484   -0.2552 H   0  0  0  0  0  0  0  0  0  0  0  0
    2.3930    1.5966    2.0239 N   0  0  0  0  0  0  0  0  0  0  0  0
    3.3405    2.4129    2.7484 C   0  0  2  0  0  0  0  0  0  0  0  0
    4.0741    3.2882    1.7408 C   0  0  0  0  0  0  0  0  0  0  0  0
    4.1636    3.0068    0.5476 O   0  0  0  0  0  0  0  0  0  0  0  0
    4.3182    1.5567    3.5381 C   0  0  0  0  0  0  0  0  0  0  0  0
    1.4358    1.5547    2.3609 H   0  0  0  0  0  0  0  0  0  0  0  0
    2.7586    3.0456    3.4274 H   0  0  0  0  0  0  0  0  0  0  0  0
    4.9103    0.9158    2.8746 H   0  0  0  0  0  0  0  0  0  0  0  0
    5.0173    2.1768    4.1089 H   0  0  0  0  0  0  0  0  0  0  0  0
    3.7869    0.9063    4.2413 H   0  0  0  0  0  0  0  0  0  0  0  0
    4.6539    4.3984    2.3387 N   0  0  0  0  0  0  0  0  0  0  0  0
    5.4157    5.3752    1.5959 C   0  0  0  0  0  0  0  0  0  0  0  0
    4.5125    4.5625    3.3311 H   0  0  0  0  0  0  0  0  0  0  0  0
    6.4814    5.1033    1.6174 H   0  0  0  0  0  0  0  0  0  0  0  0
    5.0644    5.3987    0.5538 H   0  0  0  0  0  0  0  0  0  0  0  0
    5.2814    6.3677    2.0507 H   0  0  0  0  0  0  0  0  0  0  0  0
  1  3  1  0  0  0  0
  1  7  1  0  0  0  0
  1  2  2  0  0  0  0
 22 23  1  0  0  0  0
 23 25  1  0  0  0  0
 23 24  2  0  0  0  0
 35 36  1  0  0  0  0
 36 44  1  0  0  0  0
 36 37  2  0  0  0  0
  8  9  1  0  0  0  0
  9 17  1  0  0  0  0
  9 10  2  0  0  0  0
 18 19  1  0  0  0  0
 19 34  1  0  0  0  0
 19 20  2  0  0  0  0
 35 38  1  0  0  0  0
  8 11  1  0  0  0  0
 44 45  1  0  0  0  0
 21 22  1  0  0  0  0
 18 21  1  0  0  0  0
 34 35  1  0  0  0  0
  7  8  1  0  0  0  0
 17 18  1  0  0  0  0
  3  4  1  0  0  0  0
  3  5  1  0  0  0  0
  3  6  1  0  0  0  0
 38 41  1  0  0  0  0
 38 42  1  0  0  0  0
 38 43  1  0  0  0  0
 11 14  1  0  0  0  0
 11 15  1  0  0  0  0
 11 16  1  0  0  0  0
 45 47  1  0  0  0  0
 45 48  1  0  0  0  0
 45 49  1  0  0  0  0
 22 30  1  0  0  0  0
 22 31  1  0  0  0  0
 21 28  1  0  0  0  0
 21 29  1  0  0  0  0
 35 40  1  0  0  0  0
  8 13  1  0  0  0  0
 18 27  1  0  0  0  0
 25 32  1  0  0  0  0
 25 33  1  0  0  0  0
 44 46  1  0  0  0  0
  7 12  1  0  0  0  0
 34 39  1  0  0  0  0
 17 26  1  0  0  0  0
M  END
$$$$

  -OEChem-05262214473D

 49 48  0     1  0  0  0  0  0999 V2000
   -1.9833   -0.0509   -3.3423 C   0  0  0  0  0  0  0  0  0  0  0  0
   -1.6199   -1.0613   -2.7518 O   0  0  0  0  0  0  0  0  0  0  0  0
   -3.3243   -0.0235   -3.9975 C   0  0  0  0  0  0  0  0  0  0  0  0
   -3.2886   -0.3689   -5.0432 H   0  0  0  0  0  0  0  0  0  0  0  0
   -4.0503   -0.6845   -3.4973 H   0  0  0  0  0  0  0  0  0  0  0  0
   -3.8104    0.9645   -4.0351 H   0  0  0  0  0  0  0  0  0  0  0  0
   -1.2607    1.1231   -3.4768 N   0  0  0  0  0  0  0  0  0  0  0  0
    0.0536    1.3115   -2.9213 C   0  0  2  0  0  0  0  0  0  0  0  0
    0.0266    0.8315   -1.4761 C   0  0  0  0  0  0  0  0  0  0  0  0
   -1.0065    0.7530   -0.8146 O   0  0  0  0  0  0  0  0  0  0  0  0
    0.4852    2.7674   -3.0025 C   0  0  0  0  0  0  0  0  0  0  0  0
   -1.6809    1.8924   -3.9952 H   0  0  0  0  0  0  0  0  0  0  0  0
    0.7360    0.6822   -3.5030 H   0  0  0  0  0  0  0  0  0  0  0  0
   -0.1867    3.4133   -2.4256 H   0  0  0  0  0  0  0  0  0  0  0  0
    1.4966    2.9042   -2.6056 H   0  0  0  0  0  0  0  0  0  0  0  0
    0.4754    3.1196   -4.0397 H   0  0  0  0  0  0  0  0  0  0  0  0
    1.2978    0.5411   -0.9947 N   0  0  0  0  0  0  0  0  0  0  0  0
    1.5371    0.0807    0.3489 C   0  0  2  0  0  0  0  0  0  0  0  0
    2.7255    0.8672    0.8909 C   0  0  0  0  0  0  0  0  0  0  0  0
    3.7660    1.0286    0.2567 O   0  0  0  0  0  0  0  0  0  0  0  0
    1.8250   -1.4250    0.4024 C   0  0  0  0  0  0  0  0  0  0  0  0
    0.6204   -2.2885    0.0228 C   0  0  0  0  0  0  0  0  0  0  0  0
    0.9093   -3.7778    0.0516 C   0  0  0  0  0  0  0  0  0  0  0  0
    2.0157   -4.2580    0.2797 O   0  0  0  0  0  0  0  0  0  0  0  0
   -0.2075   -4.5339   -0.2333 N   0  0  0  0  0  0  0  0  0  0  0  0
    2.0949    0.6178   -1.6227 H   0  0  0  0  0  0  0  0  0  0  0  0
    0.6454    0.3354    0.9316 H   0  0  0  0  0  0  0  0  0  0  0  0
    2.6489   -1.6593   -0.2848 H   0  0  0  0  0  0  0  0  0  0  0  0
    2.1747   -1.7056    1.4040 H   0  0  0  0  0  0  0  0  0  0  0  0
    0.3196   -2.0421   -1.0031 H   0  0  0  0  0  0  0  0  0  0  0  0
   -0.2344   -2.0721    0.6732 H   0  0  0  0  0  0  0  0  0  0  0  0
   -1.0827   -4.0593   -0.4282 H   0  0  0  0  0  0  0  0  0  0  0  0
   -0.1856   -5.5484   -0.2552 H   0  0  0  0  0  0  0  0  0  0  0  0
    2.5023    1.3218    2.1832 N   0  0  0  0  0  0  0  0  0  0  0  0
    3.4768    2.0761    2.9382 C   0  0  2  0  0  0  0  0  0  0  0  0
    3.9880    3.2041    2.0517 C   0  0  0  0  0  0  0  0  0  0  0  0
    3.9278    3.1725    0.8244 O   0  0  0  0  0  0  0  0  0  0  0  0
    4.6214    1.1903    3.4051 C   0  0  0  0  0  0  0  0  0  0  0  0
    1.6093    1.1138    2.6201 H   0  0  0  0  0  0  0  0  0  0  0  0
    2.9502    2.4988    3.8008 H   0  0  0  0  0  0  0  0  0  0  0  0
    5.1608    0.7578    2.5546 H   0  0  0  0  0  0  0  0  0  0  0  0
    5.3442    1.7572    4.0011 H   0  0  0  0  0  0  0  0  0  0  0  0
    4.2486    0.3625    4.0180 H   0  0  0  0  0  0  0  0  0  0  0  0
    4.5586    4.2309    2.7908 N   0  0  0  0  0  0  0  0  0  0  0  0
    5.1275    5.4090    2.1788 C   0  0  0  0  0  0  0  0  0  0  0  0
    4.5481    4.1820    3.8053 H   0  0  0  0  0  0  0  0  0  0  0  0
    6.2033    5.2524    2.0108 H   0  0  0  0  0  0  0  0  0  0  0  0
    4.6301    5.5985    1.2162 H   0  0  0  0  0  0  0  0  0  0  0  0
    4.9823    6.2736    2.8431 H   0  0  0  0  0  0  0  0  0  0  0  0
  1  3  1  0  0  0  0
  1  7  1  0  0  0  0
  1  2  2  0  0  0  0
 22 23  1  0  0  0  0
 23 25  1  0  0  0  0
 23 24  2  0  0  0  0
 35 36  1  0  0  0  0
 36 44  1  0  0  0  0
 36 37  2  0  0  0  0
  8  9  1  0  0  0  0
  9 17  1  0  0  0  0
  9 10  2  0  0  0  0
 18 19  1  0  0  0  0
 19 34  1  0  0  0  0
 19 20  2  0  0  0  0
 35 38  1  0  0  0  0
  8 11  1  0  0  0  0
 44 45  1  0  0  0  0
 21 22  1  0  0  0  0
 18 21  1  0  0  0  0
 34 35  1  0  0  0  0
  7  8  1  0  0  0  0
 17 18  1  0  0  0  0
  3  4  1  0  0  0  0
  3  5  1  0  0  0  0
  3  6  1  0  0  0  0
 38 41  1  0  0  0  0
 38 42  1  0  0  0  0
 38 43  1  0  0  0  0
 11 14  1  0  0  0  0
 11 15  1  0  0  0  0
 11 16  1  0  0  0  0
 45 47  1  0  0  0  0
 45 48  1  0  0  0  0
 45 49  1  0  0  0  0
 22 30  1  0  0  0  0
 22 31  1  0  0  0  0
 21 28  1  0  0  0  0
 21 29  1  0  0  0  0
 35 40  1  0  0  0  0
  8 13  1  0  0  0  0
 18 27  1  0  0  0  0
 25 32  1  0  0  0  0
 25 33  1  0  0  0  0
 44 46  1  0  0  0  0
  7 12  1  0  0  0  0
 34 39  1  0  0  0  0
 17 26  1  0  0  0  0
M  END
$$$$

  -OEChem-05262214473D

 49 48  0     1  0  0  0  0  0999 V2000
   -1.9833   -0.0509   -3.3423 C   0  0  0  0  0  0  0  0  0  0  0  0
   -1.6199   -1.0613   -2.7518 O   0  0  0  0  0  0  0  0  0  0  0  0
   -3.3243   -0.0235   -3.9975 C   0  0  0  0  0  0  0  0  0  0  0  0
   -3.2886   -0.3689   -5.0432 H   0  0  0  0  0  0  0  0  0  0  0  0
   -4.0503   -0.6845   -3.4973 H   0  0  0  0  0  0  0  0  0  0  0  0
   -3.8104    0.9645   -4.0351 H   0  0  0  0  0  0  0  0  0  0  0  0
   -1.2607    1.1231   -3.4768 N   0  0  0  0  0  0  0  0  0  0  0  0
    0.0536    1.3115   -2.9213 C   0  0  2  0  0  0  0  0  0  0  0  0
    0.0266    0.8315   -1.4761 C   0  0  0  0  0  0  0  0  0  0  0  0
   -1.0065    0.7530   -0.8146 O   0  0  0  0  0  0  0  0  0  0  0  0
    0.4852    2.7674   -3.0025 C   0  0  0  0  0  0  0  0  0  0  0  0
   -1.6809    1.8924   -3.9952 H   0  0  0  0  0  0  0  0  0  0  0  0
    0.7360    0.6822   -3.5030 H   0  0  0  0  0  0  0  0  0  0  0  0
   -0.1867    3.4133   -2.4256 H   0  0  0  0  0  0  0  0  0  0  0  0
    1.4966    2.9042   -2.6056 H   0  0  0  0  0  0  0  0  0  0  0  0
    0.4754    3.1196   -4.0397 H   0  0  0  0  0  0  0  0  0  0  0  0
    1.2978    0.5411   -0.9947 N   0  0  0  0  0  0  0  0  0  0  0  0
    1.5371    0.0807    0.3489 C   0  0  2  0  0  0  0  0  0  0  0  0
    2.7255    0.8672    0.8909 C   0  0  0  0  0  0  0  0  0  0  0  0
    3.6488    1.2585    0.1801 O   0  0  0  0  0  0  0  0  0  0  0  0
    1.8250   -1.4250    0.4024 C   0  0  0  0  0  0  0  0  0  0  0  0
    0.6204   -2.2885    0.0228 C   0  0  0  0  0  0  0  0  0  0  0  0
    0.9093   -3.7778    0.0516 C   0  0  0  0  0  0  0  0  0  0  0  0
    2.0157   -4.2580    0.2797 O   0  0  0  0  0  0  0  0  0  0  0  0
   -0.2075   -4.5339   -0.2333 N   0  0  0  0  0  0  0  0  0  0  0  0
    2.0949    0.6178   -1.6227 H   0  0  0  0  0  0  0  0  0  0  0  0
    0.6454    0.3354    0.9316 H   0  0  0  0  0  0  0  0  0  0  0  0
    2.6489   -1.6593   -0.2848 H   0  0  0  0  0  0  0  0  0  0  0  0
    2.1747   -1.7056    1.4040 H   0  0  0  0  0  0  0  0  0  0  0  0
    0.3196   -2.0421   -1.0031 H   0  0  0  0  0  0  0  0  0  0  0  0
   -0.2344   -2.0721    0.6732 H   0  0  0  0  0  0  0  0  0  0  0  0
   -1.0827   -4.0593   -0.4282 H   0  0  0  0  0  0  0  0  0  0  0  0
   -0.1856   -5.5484   -0.2552 H   0  0  0  0  0  0  0  0  0  0  0  0
    2.6545    1.0342    2.2669 N   0  0  0  0  0  0  0  0  0  0  0  0
    3.6648    1.7251    3.0355 C   0  0  2  0  0  0  0  0  0  0  0  0
    3.9541    3.0521    2.3466 C   0  0  0  0  0  0  0  0  0  0  0  0
    3.7217    3.2549    1.1566 O   0  0  0  0  0  0  0  0  0  0  0  0
    4.9302    0.8911    3.1622 C   0  0  0  0  0  0  0  0  0  0  0  0
    1.8521    0.6516    2.7584 H   0  0  0  0  0  0  0  0  0  0  0  0
    3.2354    1.9129    4.0257 H   0  0  0  0  0  0  0  0  0  0  0  0
    5.3747    0.6927    2.1801 H   0  0  0  0  0  0  0  0  0  0  0  0
    5.6841    1.4038    3.7687 H   0  0  0  0  0  0  0  0  0  0  0  0
    4.7148   -0.0751    3.6310 H   0  0  0  0  0  0  0  0  0  0  0  0
    4.5423    3.9692    3.2064 N   0  0  0  0  0  0  0  0  0  0  0  0
    4.9239    5.2975    2.7870 C   0  0  0  0  0  0  0  0  0  0  0  0
    4.6808    3.7220    4.1818 H   0  0  0  0  0  0  0  0  0  0  0  0
    5.9735    5.2914    2.4581 H   0  0  0  0  0  0  0  0  0  0  0  0
    4.2806    5.6179    1.9542 H   0  0  0  0  0  0  0  0  0  0  0  0
    4.8078    5.9953    3.6294 H   0  0  0  0  0  0  0  0  0  0  0  0
  1  3  1  0  0  0  0
  1  7  1  0  0  0  0
  1  2  2  0  0  0  0
 22 23  1  0  0  0  0
 23 25  1  0  0  0  0
 23 24  2  0  0  0  0
 35 36  1  0  0  0  0
 36 44  1  0  0  0  0
 36 37  2  0  0  0  0
  8  9  1  0  0  0  0
  9 17  1  0  0  0  0
  9 10  2  0  0  0  0
 18 19  1  0  0  0  0
 19 34  1  0  0  0  0
 19 20  2  0  0  0  0
 35 38  1  0  0  0  0
  8 11  1  0  0  0  0
 44 45  1  0  0  0  0
 21 22  1  0  0  0  0
 18 21  1  0  0  0  0
 34 35  1  0  0  0  0
  7  8  1  0  0  0  0
 17 18  1  0  0  0  0
  3  4  1  0  0  0  0
  3  5  1  0  0  0  0
  3  6  1  0  0  0  0
 38 41  1  0  0  0  0
 38 42  1  0  0  0  0
 38 43  1  0  0  0  0
 11 14  1  0  0  0  0
 11 15  1  0  0  0  0
 11 16  1  0  0  0  0
 45 47  1  0  0  0  0
 45 48  1  0  0  0  0
 45 49  1  0  0  0  0
 22 30  1  0  0  0  0
 22 31  1  0  0  0  0
 21 28  1  0  0  0  0
 21 29  1  0  0  0  0
 35 40  1  0  0  0  0
  8 13  1  0  0  0  0
 18 27  1  0  0  0  0
 25 32  1  0  0  0  0
 25 33  1  0  0  0  0
 44 46  1  0  0  0  0
  7 12  1  0  0  0  0
 34 39  1  0  0  0  0
 17 26  1  0  0  0  0
M  END
$$$$

  -OEChem-05262214473D

 49 48  0     1  0  0  0  0  0999 V2000
   -1.9833   -0.0509   -3.3423 C   0  0  0  0  0  0  0  0  0  0  0  0
   -1.6199   -1.0613   -2.7518 O   0  0  0  0  0  0  0  0  0  0  0  0
   -3.3243   -0.0235   -3.9975 C   0  0  0  0  0  0  0  0  0  0  0  0
   -3.2886   -0.3689   -5.0432 H   0  0  0  0  0  0  0  0  0  0  0  0
   -4.0503   -0.6845   -3.4973 H   0  0  0  0  0  0  0  0  0  0  0  0
   -3.8104    0.9645   -4.0351 H   0  0  0  0  0  0  0  0  0  0  0  0
   -1.2607    1.1231   -3.4768 N   0  0  0  0  0  0  0  0  0  0  0  0
    0.0536    1.3115   -2.9213 C   0  0  2  0  0  0  0  0  0  0  0  0
    0.0266    0.8315   -1.4761 C   0  0  0  0  0  0  0  0  0  0  0  0
   -1.0065    0.7530   -0.8146 O   0  0  0  0  0  0  0  0  0  0  0  0
    0.4852    2.7674   -3.0025 C   0  0  0  0  0  0  0  0  0  0  0  0
   -1.6809    1.8924   -3.9952 H   0  0  0  0  0  0  0  0  0  0  0  0
    0.7360    0.6822   -3.5030 H   0  0  0  0  0  0  0  0  0  0  0  0
   -0.1867    3.4133   -2.4256 H   0  0  0  0  0  0  0  0  0  0  0  0
    1.4966    2.9042   -2.6056 H   0  0  0  0  0  0  0  0  0  0  0  0
    0.4754    3.1196   -4.0397 H   0  0  0  0  0  0  0  0  0  0  0  0
    1.2978    0.5411   -0.9947 N   0  0  0  0  0  0  0  0  0  0  0  0
    1.5371    0.0807    0.3489 C   0  0  2  0  0  0  0  0  0  0  0  0
    2.7255    0.8672    0.8909 C   0  0  0  0  0  0  0  0  0  0  0  0
    3.5042    1.4853    0.1681 O   0  0  0  0  0  0  0  0  0  0  0  0
    1.8250   -1.4250    0.4024 C   0  0  0  0  0  0  0  0  0  0  0  0
    0.6204   -2.2885    0.0228 C   0  0  0  0  0  0  0  0  0  0  0  0
    0.9093   -3.7778    0.0516 C   0  0  0  0  0  0  0  0  0  0  0  0
    2.0157   -4.2580    0.2797 O   0  0  0  0  0  0  0  0  0  0  0  0
   -0.2075   -4.5339   -0.2333 N   0  0  0  0  0  0  0  0  0  0  0  0
    2.0949    0.6178   -1.6227 H   0  0  0  0  0  0  0  0  0  0  0  0
    0.6454    0.3354    0.9316 H   0  0  0  0  0  0  0  0  0  0  0  0
    2.6489   -1.6593   -0.2848 H   0  0  0  0  0  0  0  0  0  0  0  0
    2.1747   -1.7056    1.4040 H   0  0  0  0  0  0  0  0  0  0  0  0
    0.3196   -2.0421   -1.0031 H   0  0  0  0  0  0  0  0  0  0  0  0
   -0.2344   -2.0721    0.6732 H   0  0  0  0  0  0  0  0  0  0  0  0
   -1.0827   -4.0593   -0.4282 H   0  0  0  0  0  0  0  0  0  0  0  0
   -0.1856   -5.5484   -0.2552 H   0  0  0  0  0  0  0  0  0  0  0  0
    2.8390    0.7535    2.2695 N   0  0  0  0  0  0  0  0  0  0  0  0
    3.8916    1.3836    3.0335 C   0  0  2  0  0  0  0  0  0  0  0  0
    3.9747    2.8428    2.6052 C   0  0  0  0  0  0  0  0  0  0  0  0
    3.5594    3.2485    1.5217 O   0  0  0  0  0  0  0  0  0  0  0  0
    5.2235    0.6796    2.8261 C   0  0  0  0  0  0  0  0  0  0  0  0
    2.1477    0.1996    2.7664 H   0  0  0  0  0  0  0  0  0  0  0  0
    3.5949    1.3279    4.0866 H   0  0  0  0  0  0  0  0  0  0  0  0
    5.5372    0.7250    1.7768 H   0  0  0  0  0  0  0  0  0  0  0  0
    6.0139    1.1405    3.4276 H   0  0  0  0  0  0  0  0  0  0  0  0
    5.1537   -0.3769    3.1066 H   0  0  0  0  0  0  0  0  0  0  0  0
    4.6061    3.6310    3.5572 N   0  0  0  0  0  0  0  0  0  0  0  0
    4.8186    5.0484    3.3792 C   0  0  0  0  0  0  0  0  0  0  0  0
    4.9015    3.2140    4.4350 H   0  0  0  0  0  0  0  0  0  0  0  0
    5.8077    5.2177    2.9286 H   0  0  0  0  0  0  0  0  0  0  0  0
    4.0398    5.4556    2.7177 H   0  0  0  0  0  0  0  0  0  0  0  0
    4.7699    5.5519    4.3561 H   0  0  0  0  0  0  0  0  0  0  0  0
  1  3  1  0  0  0  0
  1  7  1  0  0  0  0
  1  2  2  0  0  0  0
 22 23  1  0  0  0  0
 23 25  1  0  0  0  0
 23 24  2  0  0  0  0
 35 36  1  0  0  0  0
 36 44  1  0  0  0  0
 36 37  2  0  0  0  0
  8  9  1  0  0  0  0
  9 17  1  0  0  0  0
  9 10  2  0  0  0  0
 18 19  1  0  0  0  0
 19 34  1  0  0  0  0
 19 20  2  0  0  0  0
 35 38  1  0  0  0  0
  8 11  1  0  0  0  0
 44 45  1  0  0  0  0
 21 22  1  0  0  0  0
 18 21  1  0  0  0  0
 34 35  1  0  0  0  0
  7  8  1  0  0  0  0
 17 18  1  0  0  0  0
  3  4  1  0  0  0  0
  3  5  1  0  0  0  0
  3  6  1  0  0  0  0
 38 41  1  0  0  0  0
 38 42  1  0  0  0  0
 38 43  1  0  0  0  0
 11 14  1  0  0  0  0
 11 15  1  0  0  0  0
 11 16  1  0  0  0  0
 45 47  1  0  0  0  0
 45 48  1  0  0  0  0
 45 49  1  0  0  0  0
 22 30  1  0  0  0  0
 22 31  1  0  0  0  0
 21 28  1  0  0  0  0
 21 29  1  0  0  0  0
 35 40  1  0  0  0  0
  8 13  1  0  0  0  0
 18 27  1  0  0  0  0
 25 32  1  0  0  0  0
 25 33  1  0  0  0  0
 44 46  1  0  0  0  0
  7 12  1  0  0  0  0
 34 39  1  0  0  0  0
 17 26  1  0  0  0  0
M  END
$$$$

  -OEChem-05262214473D

 49 48  0     1  0  0  0  0  0999 V2000
   -1.9833   -0.0509   -3.3423 C   0  0  0  0  0  0  0  0  0  0  0  0
   -1.6199   -1.0613   -2.7518 O   0  0  0  0  0  0  0  0  0  0  0  0
   -3.3243   -0.0235   -3.9975 C   0  0  0  0  0  0  0  0  0  0  0  0
   -3.2886   -0.3689   -5.0432 H   0  0  0  0  0  0  0  0  0  0  0  0
   -4.0503   -0.6845   -3.4973 H   0  0  0  0  0  0  0  0  0  0  0  0
   -3.8104    0.9645   -4.0351 H   0  0  0  0  0  0  0  0  0  0  0  0
   -1.2607    1.1231   -3.4768 N   0  0  0  0  0  0  0  0  0  0  0  0
    0.0536    1.3115   -2.9213 C   0  0  2  0  0  0  0  0  0  0  0  0
    0.0266    0.8315   -1.4761 C   0  0  0  0  0  0  0  0  0  0  0  0
   -1.0065    0.7530   -0.8146 O   0  0  0  0  0  0  0  0  0  0  0  0
    0.4852    2.7674   -3.0025 C   0  0  0  0  0  0  0  0  0  0  0  0
   -1.6809    1.8924   -3.9952 H   0  0  0  0  0  0  0  0  0  0  0  0
    0.7360    0.6822   -3.5030 H   0  0  0  0  0  0  0  0  0  0  0  0
   -0.1867    3.4133   -2.4256 H   0  0  0  0  0  0  0  0  0  0  0  0
    1.4966    2.9042   -2.6056 H   0  0  0  0  0  0  0  0  0  0  0  0
    0.4754    3.1196   -4.0397 H   0  0  0  0  0  0  0  0  0  0  0  0
    1.2978    0.5411   -0.9947 N   0  0  0  0  0  0  0  0  0  0  0  0
    1.5371    0.0807    0.3489 C   0  0  2  0  0  0  0  0  0  0  0  0
    2.4528    1.0991    1.0189 C   0  0  0  0  0  0  0  0  0  0  0  0
    2.8998    2.0834    0.4339 O   0  0  0  0  0  0  0  0  0  0  0  0
    2.1775   -1.3128    0.3781 C   0  0  0  0  0  0  0  0  0  0  0  0
    1.2523   -2.4184   -0.1343 C   0  0  0  0  0  0  0  0  0  0  0  0
    1.8917   -3.7944   -0.1291 C   0  0  0  0  0  0  0  0  0  0  0  0
    3.0606   -4.0069    0.1796 O   0  0  0  0  0  0  0  0  0  0  0  0
    1.0179   -4.7799   -0.5359 N   0  0  0  0  0  0  0  0  0  0  0  0
    2.0949    0.6178   -1.6227 H   0  0  0  0  0  0  0  0  0  0  0  0
    0.5679    0.0829    0.8589 H   0  0  0  0  0  0  0  0  0  0  0  0
    3.0844   -1.3059   -0.2413 H   0  0  0  0  0  0  0  0  0  0  0  0
    2.5064   -1.5542    1.3968 H   0  0  0  0  0  0  0  0  0  0  0  0
    0.9810   -2.1970   -1.1740 H   0  0  0  0  0  0  0  0  0  0  0  0
    0.3228   -2.4479    0.4452 H   0  0  0  0  0  0  0  0  0  0  0  0
    0.0713   -4.5191   -0.7913 H   0  0  0  0  0  0  0  0  0  0  0  0
    1.2875   -5.7569   -0.5890 H   0  0  0  0  0  0  0  0  0  0  0  0
    2.7492    0.7491    2.3289 N   0  0  0  0  0  0  0  0  0  0  0  0
    3.6136    1.5315    3.1830 C   0  0  2  0  0  0  0  0  0  0  0  0
    3.1641    2.9845    3.1026 C   0  0  0  0  0  0  0  0  0  0  0  0
    2.5212    3.4365    2.1574 O   0  0  0  0  0  0  0  0  0  0  0  0
    5.0713    1.3902    2.7735 C   0  0  0  0  0  0  0  0  0  0  0  0
    2.3380   -0.0995    2.7063 H   0  0  0  0  0  0  0  0  0  0  0  0
    3.4701    1.1602    4.2035 H   0  0  0  0  0  0  0  0  0  0  0  0
    5.2345    1.7572    1.7537 H   0  0  0  0  0  0  0  0  0  0  0  0
    5.7275    1.9607    3.4391 H   0  0  0  0  0  0  0  0  0  0  0  0
    5.3845    0.3409    2.8033 H   0  0  0  0  0  0  0  0  0  0  0  0
    3.6022    3.7272    4.1901 N   0  0  0  0  0  0  0  0  0  0  0  0
    3.3155    5.1349    4.3392 C   0  0  0  0  0  0  0  0  0  0  0  0
    4.1136    3.2660    4.9368 H   0  0  0  0  0  0  0  0  0  0  0  0
    4.1376    5.7248    3.9075 H   0  0  0  0  0  0  0  0  0  0  0  0
    2.3780    5.3754    3.8165 H   0  0  0  0  0  0  0  0  0  0  0  0
    3.2123    5.3768    5.4072 H   0  0  0  0  0  0  0  0  0  0  0  0
  1  3  1  0  0  0  0
  1  7  1  0  0  0  0
  1  2  2  0  0  0  0
 22 23  1  0  0  0  0
 23 25  1  0  0  0  0
 23 24  2  0  0  0  0
 35 36  1  0  0  0  0
 36 44  1  0  0  0  0
 36 37  2  0  0  0  0
  8  9  1  0  0  0  0
  9 17  1  0  0  0  0
  9 10  2  0  0  0  0
 18 19  1  0  0  0  0
 19 34  1  0  0  0  0
 19 20  2  0  0  0  0
 35 38  1  0  0  0  0
  8 11  1  0  0  0  0
 44 45  1  0  0  0  0
 21 22  1  0  0  0  0
 18 21  1  0  0  0  0
 34 35  1  0  0  0  0
  7  8  1  0  0  0  0
 17 18  1  0  0  0  0
  3  4  1  0  0  0  0
  3  5  1  0  0  0  0
  3  6  1  0  0  0  0
 38 41  1  0  0  0  0
 38 42  1  0  0  0  0
 38 43  1  0  0  0  0
 11 14  1  0  0  0  0
 11 15  1  0  0  0  0
 11 16  1  0  0  0  0
 45 47  1  0  0  0  0
 45 48  1  0  0  0  0
 45 49  1  0  0  0  0
 22 30  1  0  0  0  0
 22 31  1  0  0  0  0
 21 28  1  0  0  0  0
 21 29  1  0  0  0  0
 35 40  1  0  0  0  0
  8 13  1  0  0  0  0
 18 27  1  0  0  0  0
 25 32  1  0  0  0  0
 25 33  1  0  0  0  0
 44 46  1  0  0  0  0
  7 12  1  0  0  0  0
 34 39  1  0  0  0  0
 17 26  1  0  0  0  0
M  END
$$$$

  -OEChem-05262214473D

 49 48  0     1  0  0  0  0  0999 V2000
   -1.9833   -0.0509   -3.3423 C   0  0  0  0  0  0  0  0  0  0  0  0
   -1.6199   -1.0613   -2.7518 O   0  0  0  0  0  0  0  0  0  0  0  0
   -3.3243   -0.0235   -3.9975 C   0  0  0  0  0  0  0  0  0  0  0  0
   -3.2886   -0.3689   -5.0432 H   0  0  0  0  0  0  0  0  0  0  0  0
   -4.0503   -0.6845   -3.4973 H   0  0  0  0  0  0  0  0  0  0  0  0
   -3.8104    0.9645   -4.0351 H   0  0  0  0  0  0  0  0  0  0  0  0
   -1.2607    1.1231   -3.4768 N   0  0  0  0  0  0  0  0  0  0  0  0
    0.0536    1.3115   -2.9213 C   0  0  2  0  0  0  0  0  0  0  0  0
    0.0266    0.8315   -1.4761 C   0  0  0  0  0  0  0  0  0  0  0  0
   -1.0065    0.7530   -0.8146 O   0  0  0  0  0  0  0  0  0  0  0  0
    0.4852    2.7674   -3.0025 C   0  0  0  0  0  0  0  0  0  0  0  0
   -1.6809    1.8924   -3.9952 H   0  0  0  0  0  0  0  0  0  0  0  0
    0.7360    0.6822   -3.5030 H   0  0  0  0  0  0  0  0  0  0  0  0
   -0.1867    3.4133   -2.4256 H   0  0  0  0  0  0  0  0  0  0  0  0
    1.4966    2.9042   -2.6056 H   0  0  0  0  0  0  0  0  0  0  0  0
    0.4754    3.1196   -4.0397 H   0  0  0  0  0  0  0  0  0  0  0  0
    1.2978    0.5411   -0.9947 N   0  0  0  0  0  0  0  0  0  0  0  0
    1.5371    0.0807    0.3489 C   0  0  2  0  0  0  0  0  0  0  0  0
    2.4528    1.0991    1.0189 C   0  0  0  0  0  0  0  0  0  0  0  0
    2.6852    2.2069    0.5396 O   0  0  0  0  0  0  0  0  0  0  0  0
    2.1775   -1.3128    0.3781 C   0  0  0  0  0  0  0  0  0  0  0  0
    1.2523   -2.4184   -0.1343 C   0  0  0  0  0  0  0  0  0  0  0  0
    1.8917   -3.7944   -0.1291 C   0  0  0  0  0  0  0  0  0  0  0  0
    3.0606   -4.0069    0.1796 O   0  0  0  0  0  0  0  0  0  0  0  0
    1.0179   -4.7799   -0.5359 N   0  0  0  0  0  0  0  0  0  0  0  0
    2.0949    0.6178   -1.6227 H   0  0  0  0  0  0  0  0  0  0  0  0
    0.5679    0.0829    0.8589 H   0  0  0  0  0  0  0  0  0  0  0  0
    3.0844   -1.3059   -0.2413 H   0  0  0  0  0  0  0  0  0  0  0  0
    2.5064   -1.5542    1.3968 H   0  0  0  0  0  0  0  0  0  0  0  0
    0.9810   -2.1970   -1.1740 H   0  0  0  0  0  0  0  0  0  0  0  0
    0.3228   -2.4479    0.4452 H   0  0  0  0  0  0  0  0  0  0  0  0
    0.0713   -4.5191   -0.7913 H   0  0  0  0  0  0  0  0  0  0  0  0
    1.2875   -5.7569   -0.5890 H   0  0  0  0  0  0  0  0  0  0  0  0
    3.0161    0.6029    2.1864 N   0  0  0  0  0  0  0  0  0  0  0  0
    3.9386    1.3565    3.0048 C   0  0  2  0  0  0  0  0  0  0  0  0
    3.3389    2.7364    3.2407 C   0  0  0  0  0  0  0  0  0  0  0  0
    2.4929    3.2355    2.5016 O   0  0  0  0  0  0  0  0  0  0  0  0
    5.3043    1.4631    2.3443 C   0  0  0  0  0  0  0  0  0  0  0  0
    2.7674   -0.3369    2.4804 H   0  0  0  0  0  0  0  0  0  0  0  0
    4.0211    0.8254    3.9593 H   0  0  0  0  0  0  0  0  0  0  0  0
    5.2417    1.9923    1.3865 H   0  0  0  0  0  0  0  0  0  0  0  0
    6.0101    2.0097    2.9784 H   0  0  0  0  0  0  0  0  0  0  0  0
    5.7210    0.4692    2.1483 H   0  0  0  0  0  0  0  0  0  0  0  0
    3.8910    3.3628    4.3493 N   0  0  0  0  0  0  0  0  0  0  0  0
    3.4968    4.6857    4.7742 C   0  0  0  0  0  0  0  0  0  0  0  0
    4.5731    2.8669    4.9154 H   0  0  0  0  0  0  0  0  0  0  0  0
    4.1634    5.4320    4.3173 H   0  0  0  0  0  0  0  0  0  0  0  0
    2.4605    4.8782    4.4593 H   0  0  0  0  0  0  0  0  0  0  0  0
    3.5658    4.7546    5.8699 H   0  0  0  0  0  0  0  0  0  0  0  0
  1  3  1  0  0  0  0
  1  7  1  0  0  0  0
  1  2  2  0  0  0  0
 22 23  1  0  0  0  0
 23 25  1  0  0  0  0
 23 24  2  0  0  0  0
 35 36  1  0  0  0  0
 36 44  1  0  0  0  0
 36 37  2  0  0  0  0
  8  9  1  0  0  0  0
  9 17  1  0  0  0  0
  9 10  2  0  0  0  0
 18 19  1  0  0  0  0
 19 34  1  0  0  0  0
 19 20  2  0  0  0  0
 35 38  1  0  0  0  0
  8 11  1  0  0  0  0
 44 45  1  0  0  0  0
 21 22  1  0  0  0  0
 18 21  1  0  0  0  0
 34 35  1  0  0  0  0
  7  8  1  0  0  0  0
 17 18  1  0  0  0  0
  3  4  1  0  0  0  0
  3  5  1  0  0  0  0
  3  6  1  0  0  0  0
 38 41  1  0  0  0  0
 38 42  1  0  0  0  0
 38 43  1  0  0  0  0
 11 14  1  0  0  0  0
 11 15  1  0  0  0  0
 11 16  1  0  0  0  0
 45 47  1  0  0  0  0
 45 48  1  0  0  0  0
 45 49  1  0  0  0  0
 22 30  1  0  0  0  0
 22 31  1  0  0  0  0
 21 28  1  0  0  0  0
 21 29  1  0  0  0  0
 35 40  1  0  0  0  0
  8 13  1  0  0  0  0
 18 27  1  0  0  0  0
 25 32  1  0  0  0  0
 25 33  1  0  0  0  0
 44 46  1  0  0  0  0
  7 12  1  0  0  0  0
 34 39  1  0  0  0  0
 17 26  1  0  0  0  0
M  END
$$$$

  -OEChem-05262214473D

 49 48  0     1  0  0  0  0  0999 V2000
   -1.9833   -0.0509   -3.3423 C   0  0  0  0  0  0  0  0  0  0  0  0
   -1.6199   -1.0613   -2.7518 O   0  0  0  0  0  0  0  0  0  0  0  0
   -3.3243   -0.0235   -3.9975 C   0  0  0  0  0  0  0  0  0  0  0  0
   -3.2886   -0.3689   -5.0432 H   0  0  0  0  0  0  0  0  0  0  0  0
   -4.0503   -0.6845   -3.4973 H   0  0  0  0  0  0  0  0  0  0  0  0
   -3.8104    0.9645   -4.0351 H   0  0  0  0  0  0  0  0  0  0  0  0
   -1.2607    1.1231   -3.4768 N   0  0  0  0  0  0  0  0  0  0  0  0
    0.0536    1.3115   -2.9213 C   0  0  2  0  0  0  0  0  0  0  0  0
    0.0266    0.8315   -1.4761 C   0  0  0  0  0  0  0  0  0  0  0  0
   -1.0065    0.7530   -0.8146 O   0  0  0  0  0  0  0  0  0  0  0  0
    0.4852    2.7674   -3.0025 C   0  0  0  0  0  0  0  0  0  0  0  0
   -1.6809    1.8924   -3.9952 H   0  0  0  0  0  0  0  0  0  0  0  0
    0.7360    0.6822   -3.5030 H   0  0  0  0  0  0  0  0  0  0  0  0
   -0.1867    3.4133   -2.4256 H   0  0  0  0  0  0  0  0  0  0  0  0
    1.4966    2.9042   -2.6056 H   0  0  0  0  0  0  0  0  0  0  0  0
    0.4754    3.1196   -4.0397 H   0  0  0  0  0  0  0  0  0  0  0  0
    1.2978    0.5411   -0.9947 N   0  0  0  0  0  0  0  0  0  0  0  0
    1.5371    0.0807    0.3489 C   0  0  2  0  0  0  0  0  0  0  0  0
    2.4528    1.0991    1.0189 C   0  0  0  0  0  0  0  0  0  0  0  0
    2.4821    2.2853    0.6979 O   0  0  0  0  0  0  0  0  0  0  0  0
    2.1775   -1.3128    0.3781 C   0  0  0  0  0  0  0  0  0  0  0  0
    1.2523   -2.4184   -0.1343 C   0  0  0  0  0  0  0  0  0  0  0  0
    1.8917   -3.7944   -0.1291 C   0  0  0  0  0  0  0  0  0  0  0  0
    3.0606   -4.0069    0.1796 O   0  0  0  0  0  0  0  0  0  0  0  0
    1.0179   -4.7799   -0.5359 N   0  0  0  0  0  0  0  0  0  0  0  0
    2.0949    0.6178   -1.6227 H   0  0  0  0  0  0  0  0  0  0  0  0
    0.5679    0.0829    0.8589 H   0  0  0  0  0  0  0  0  0  0  0  0
    3.0844   -1.3059   -0.2413 H   0  0  0  0  0  0  0  0  0  0  0  0
    2.5064   -1.5542    1.3968 H   0  0  0  0  0  0  0  0  0  0  0  0
    0.9810   -2.1970   -1.1740 H   0  0  0  0  0  0  0  0  0  0  0  0
    0.3228   -2.4479    0.4452 H   0  0  0  0  0  0  0  0  0  0  0  0
    0.0713   -4.5191   -0.7913 H   0  0  0  0  0  0  0  0  0  0  0  0
    1.2875   -5.7569   -0.5890 H   0  0  0  0  0  0  0  0  0  0  0  0
    3.2658    0.5143    1.9799 N   0  0  0  0  0  0  0  0  0  0  0  0
    4.2417    1.2521    2.7493 C   0  0  2  0  0  0  0  0  0  0  0  0
    3.5598    2.4953    3.3053 C   0  0  0  0  0  0  0  0  0  0  0  0
    2.5479    2.9846    2.8077 O   0  0  0  0  0  0  0  0  0  0  0  0
    5.4468    1.6267    1.9008 C   0  0  0  0  0  0  0  0  0  0  0  0
    3.1700   -0.4823    2.1511 H   0  0  0  0  0  0  0  0  0  0  0  0
    4.5491    0.6027    3.5762 H   0  0  0  0  0  0  0  0  0  0  0  0
    5.1584    2.2773    1.0671 H   0  0  0  0  0  0  0  0  0  0  0  0
    6.1979    2.1607    2.4922 H   0  0  0  0  0  0  0  0  0  0  0  0
    5.9183    0.7332    1.4774 H   0  0  0  0  0  0  0  0  0  0  0  0
    4.2388    3.0189    4.3966 N   0  0  0  0  0  0  0  0  0  0  0  0
    3.7981    4.2048    5.0933 C   0  0  0  0  0  0  0  0  0  0  0  0
    5.0587    2.5369    4.7532 H   0  0  0  0  0  0  0  0  0  0  0  0
    4.2924    5.0884    4.6631 H   0  0  0  0  0  0  0  0  0  0  0  0
    2.7079    4.3075    4.9887 H   0  0  0  0  0  0  0  0  0  0  0  0
    4.0581    4.1218    6.1589 H   0  0  0  0  0  0  0  0  0  0  0  0
  1  3  1  0  0  0  0
  1  7  1  0  0  0  0
  1  2  2  0  0  0  0
 22 23  1  0  0  0  0
 23 25  1  0  0  0  0
 23 24  2  0  0  0  0
 35 36  1  0  0  0  0
 36 44  1  0  0  0  0
 36 37  2  0  0  0  0
  8  9  1  0  0  0  0
  9 17  1  0  0  0  0
  9 10  2  0  0  0  0
 18 19  1  0  0  0  0
 19 34  1  0  0  0  0
 19 20  2  0  0  0  0
 35 38  1  0  0  0  0
  8 11  1  0  0  0  0
 44 45  1  0  0  0  0
 21 22  1  0  0  0  0
 18 21  1  0  0  0  0
 34 35  1  0  0  0  0
  7  8  1  0  0  0  0
 17 18  1  0  0  0  0
  3  4  1  0  0  0  0
  3  5  1  0  0  0  0
  3  6  1  0  0  0  0
 38 41  1  0  0  0  0
 38 42  1  0  0  0  0
 38 43  1  0  0  0  0
 11 14  1  0  0  0  0
 11 15  1  0  0  0  0
 11 16  1  0  0  0  0
 45 47  1  0  0  0  0
 45 48  1  0  0  0  0
 45 49  1  0  0  0  0
 22 30  1  0  0  0  0
 22 31  1  0  0  0  0
 21 28  1  0  0  0  0
 21 29  1  0  0  0  0
 35 40  1  0  0  0  0
  8 13  1  0  0  0  0
 18 27  1  0  0  0  0
 25 32  1  0  0  0  0
 25 33  1  0  0  0  0
 44 46  1  0  0  0  0
  7 12  1  0  0  0  0
 34 39  1  0  0  0  0
 17 26  1  0  0  0  0
M  END
$$$$

  -OEChem-05262214473D

 49 48  0     1  0  0  0  0  0999 V2000
   -1.9833   -0.0509   -3.3423 C   0  0  0  0  0  0  0  0  0  0  0  0
   -1.6199   -1.0613   -2.7518 O   0  0  0  0  0  0  0  0  0  0  0  0
   -3.3243   -0.0235   -3.9975 C   0  0  0  0  0  0  0  0  0  0  0  0
   -3.2886   -0.3689   -5.0432 H   0  0  0  0  0  0  0  0  0  0  0  0
   -4.0503   -0.6845   -3.4973 H   0  0  0  0  0  0  0  0  0  0  0  0
   -3.8104    0.9645   -4.0351 H   0  0  0  0  0  0  0  0  0  0  0  0
   -1.2607    1.1231   -3.4768 N   0  0  0  0  0  0  0  0  0  0  0  0
    0.0536    1.3115   -2.9213 C   0  0  2  0  0  0  0  0  0  0  0  0
    0.0266    0.8315   -1.4761 C   0  0  0  0  0  0  0  0  0  0  0  0
   -1.0065    0.7530   -0.8146 O   0  0  0  0  0  0  0  0  0  0  0  0
    0.4852    2.7674   -3.0025 C   0  0  0  0  0  0  0  0  0  0  0  0
   -1.6809    1.8924   -3.9952 H   0  0  0  0  0  0  0  0  0  0  0  0
    0.7360    0.6822   -3.5030 H   0  0  0  0  0  0  0  0  0  0  0  0
   -0.1867    3.4133   -2.4256 H   0  0  0  0  0  0  0  0  0  0  0  0
    1.4966    2.9042   -2.6056 H   0  0  0  0  0  0  0  0  0  0  0  0
    0.4754    3.1196   -4.0397 H   0  0  0  0  0  0  0  0  0  0  0  0
    1.2978    0.5411   -0.9947 N   0  0  0  0  0  0  0  0  0  0  0  0
    1.5371    0.0807    0.3489 C   0  0  2  0  0  0  0  0  0  0  0  0
    2.4528    1.0991    1.0189 C   0  0  0  0  0  0  0  0  0  0  0  0
    2.3044    2.3133    0.8982 O   0  0  0  0  0  0  0  0  0  0  0  0
    2.1775   -1.3128    0.3781 C   0  0  0  0  0  0  0  0  0  0  0  0
    1.2523   -2.4184   -0.1343 C   0  0  0  0  0  0  0  0  0  0  0  0
    1.8917   -3.7944   -0.1291 C   0  0  0  0  0  0  0  0  0  0  0  0
    3.0606   -4.0069    0.1796 O   0  0  0  0  0  0  0  0  0  0  0  0
    1.0179   -4.7799   -0.5359 N   0  0  0  0  0  0  0  0  0  0  0  0
    2.0949    0.6178   -1.6227 H   0  0  0  0  0  0  0  0  0  0  0  0
    0.5679    0.0829    0.8589 H   0  0  0  0  0  0  0  0  0  0  0  0
    3.0844   -1.3059   -0.2413 H   0  0  0  0  0  0  0  0  0  0  0  0
    2.5064   -1.5542    1.3968 H   0  0  0  0  0  0  0  0  0  0  0  0
    0.9810   -2.1970   -1.1740 H   0  0  0  0  0  0  0  0  0  0  0  0
    0.3228   -2.4479    0.4452 H   0  0  0  0  0  0  0  0  0  0  0  0
    0.0713   -4.5191   -0.7913 H   0  0  0  0  0  0  0  0  0  0  0  0
    1.2875   -5.7569   -0.5890 H   0  0  0  0  0  0  0  0  0  0  0  0
    3.4814    0.4891    1.7235 N   0  0  0  0  0  0  0  0  0  0  0  0
    4.5021    1.2255    2.4339 C   0  0  2  0  0  0  0  0  0  0  0  0
    3.8119    2.2774    3.2920 C   0  0  0  0  0  0  0  0  0  0  0  0
    2.6825    2.7010    3.0549 O   0  0  0  0  0  0  0  0  0  0  0  0
    5.4892    1.8699    1.4732 C   0  0  0  0  0  0  0  0  0  0  0  0
    3.5185   -0.5258    1.7407 H   0  0  0  0  0  0  0  0  0  0  0  0
    5.0182    0.5072    3.0802 H   0  0  0  0  0  0  0  0  0  0  0  0
    4.9903    2.5927    0.8173 H   0  0  0  0  0  0  0  0  0  0  0  0
    6.2780    2.4035    2.0136 H   0  0  0  0  0  0  0  0  0  0  0  0
    5.9628    1.1150    0.8363 H   0  0  0  0  0  0  0  0  0  0  0  0
    4.6221    2.7190    4.3287 N   0  0  0  0  0  0  0  0  0  0  0  0
    4.1991    3.7250    5.2746 C   0  0  0  0  0  0  0  0  0  0  0  0
    5.5373    2.2986    4.4614 H   0  0  0  0  0  0  0  0  0  0  0  0
    4.5159    4.7175    4.9215 H   0  0  0  0  0  0  0  0  0  0  0  0
    3.1033    3.7021    5.3686 H   0  0  0  0  0  0  0  0  0  0  0  0
    4.6555    3.5217    6.2546 H   0  0  0  0  0  0  0  0  0  0  0  0
  1  3  1  0  0  0  0
  1  7  1  0  0  0  0
  1  2  2  0  0  0  0
 22 23  1  0  0  0  0
 23 25  1  0  0  0  0
 23 24  2  0  0  0  0
 35 36  1  0  0  0  0
 36 44  1  0  0  0  0
 36 37  2  0  0  0  0
  8  9  1  0  0  0  0
  9 17  1  0  0  0  0
  9 10  2  0  0  0  0
 18 19  1  0  0  0  0
 19 34  1  0  0  0  0
 19 20  2  0  0  0  0
 35 38  1  0  0  0  0
  8 11  1  0  0  0  0
 44 45  1  0  0  0  0
 21 22  1  0  0  0  0
 18 21  1  0  0  0  0
 34 35  1  0  0  0  0
  7  8  1  0  0  0  0
 17 18  1  0  0  0  0
  3  4  1  0  0  0  0
  3  5  1  0  0  0  0
  3  6  1  0  0  0  0
 38 41  1  0  0  0  0
 38 42  1  0  0  0  0
 38 43  1  0  0  0  0
 11 14  1  0  0  0  0
 11 15  1  0  0  0  0
 11 16  1  0  0  0  0
 45 47  1  0  0  0  0
 45 48  1  0  0  0  0
 45 49  1  0  0  0  0
 22 30  1  0  0  0  0
 22 31  1  0  0  0  0
 21 28  1  0  0  0  0
 21 29  1  0  0  0  0
 35 40  1  0  0  0  0
  8 13  1  0  0  0  0
 18 27  1  0  0  0  0
 25 32  1  0  0  0  0
 25 33  1  0  0  0  0
 44 46  1  0  0  0  0
  7 12  1  0  0  0  0
 34 39  1  0  0  0  0
 17 26  1  0  0  0  0
M  END
$$$$

  -OEChem-05262214473D

 49 48  0     1  0  0  0  0  0999 V2000
   -1.9833   -0.0509   -3.3423 C   0  0  0  0  0  0  0  0  0  0  0  0
   -1.6199   -1.0613   -2.7518 O   0  0  0  0  0  0  0  0  0  0  0  0
   -3.3243   -0.0235   -3.9975 C   0  0  0  0  0  0  0  0  0  0  0  0
   -3.2886   -0.3689   -5.0432 H   0  0  0  0  0  0  0  0  0  0  0  0
   -4.0503   -0.6845   -3.4973 H   0  0  0  0  0  0  0  0  0  0  0  0
   -3.8104    0.9645   -4.0351 H   0  0  0  0  0  0  0  0  0  0  0  0
   -1.2607    1.1231   -3.4768 N   0  0  0  0  0  0  0  0  0  0  0  0
    0.0536    1.3115   -2.9213 C   0  0  2  0  0  0  0  0  0  0  0  0
    0.0266    0.8315   -1.4761 C   0  0  0  0  0  0  0  0  0  0  0  0
   -1.0065    0.7530   -0.8146 O   0  0  0  0  0  0  0  0  0  0  0  0
    0.4852    2.7674   -3.0025 C   0  0  0  0  0  0  0  0  0  0  0  0
   -1.6809    1.8924   -3.9952 H   0  0  0  0  0  0  0  0  0  0  0  0
    0.7360    0.6822   -3.5030 H   0  0  0  0  0  0  0  0  0  0  0  0
   -0.1867    3.4133   -2.4256 H   0  0  0  0  0  0  0  0  0  0  0  0
    1.4966    2.9042   -2.6056 H   0  0  0  0  0  0  0  0  0  0  0  0
    0.4754    3.1196   -4.0397 H   0  0  0  0  0  0  0  0  0  0  0  0
    1.2978    0.5411   -0.9947 N   0  0  0  0  0  0  0  0  0  0  0  0
    1.5371    0.0807    0.3489 C   0  0  2  0  0  0  0  0  0  0  0  0
    2.4528    1.0991    1.0189 C   0  0  0  0  0  0  0  0  0  0  0  0
    2.1642    2.2890    1.1268 O   0  0  0  0  0  0  0  0  0  0  0  0
    2.1775   -1.3128    0.3781 C   0  0  0  0  0  0  0  0  0  0  0  0
    1.2523   -2.4184   -0.1343 C   0  0  0  0  0  0  0  0  0  0  0  0
    1.8917   -3.7944   -0.1291 C   0  0  0  0  0  0  0  0  0  0  0  0
    3.0606   -4.0069    0.1796 O   0  0  0  0  0  0  0  0  0  0  0  0
    1.0179   -4.7799   -0.5359 N   0  0  0  0  0  0  0  0  0  0  0  0
    2.0949    0.6178   -1.6227 H   0  0  0  0  0  0  0  0  0  0  0  0
    0.5679    0.0829    0.8589 H   0  0  0  0  0  0  0  0  0  0  0  0
    3.0844   -1.3059   -0.2413 H   0  0  0  0  0  0  0  0  0  0  0  0
    2.5064   -1.5542    1.3968 H   0  0  0  0  0  0  0  0  0  0  0  0
    0.9810   -2.1970   -1.1740 H   0  0  0  0  0  0  0  0  0  0  0  0
    0.3228   -2.4479    0.4452 H   0  0  0  0  0  0  0  0  0  0  0  0
    0.0713   -4.5191   -0.7913 H   0  0  0  0  0  0  0  0  0  0  0  0
    1.2875   -5.7569   -0.5890 H   0  0  0  0  0  0  0  0  0  0  0  0
    3.6481    0.5292    1.4346 N   0  0  0  0  0  0  0  0  0  0  0  0
    4.7021    1.2784    2.0800 C   0  0  2  0  0  0  0  0  0  0  0  0
    4.0778    2.0977    3.2018 C   0  0  0  0  0  0  0  0  0  0  0  0
    2.8875    2.4039    3.2263 O   0  0  0  0  0  0  0  0  0  0  0  0
    5.4285    2.1762    1.0906 C   0  0  0  0  0  0  0  0  0  0  0  0
    3.7892   -0.4643    1.2774 H   0  0  0  0  0  0  0  0  0  0  0  0
    5.3964    0.5454    2.5052 H   0  0  0  0  0  0  0  0  0  0  0  0
    4.7489    2.9172    0.6541 H   0  0  0  0  0  0  0  0  0  0  0  0
    6.2451    2.7216    1.5751 H   0  0  0  0  0  0  0  0  0  0  0  0
    5.8515    1.5884    0.2688 H   0  0  0  0  0  0  0  0  0  0  0  0
    5.0148    2.4834    4.1502 N   0  0  0  0  0  0  0  0  0  0  0  0
    4.6723    3.2790    5.3059 C   0  0  0  0  0  0  0  0  0  0  0  0
    5.9761    2.1683    4.0597 H   0  0  0  0  0  0  0  0  0  0  0  0
    4.8187    4.3444    5.0747 H   0  0  0  0  0  0  0  0  0  0  0  0
    3.6198    3.1032    5.5731 H   0  0  0  0  0  0  0  0  0  0  0  0
    5.3173    2.9951    6.1505 H   0  0  0  0  0  0  0  0  0  0  0  0
  1  3  1  0  0  0  0
  1  7  1  0  0  0  0
  1  2  2  0  0  0  0
 22 23  1  0  0  0  0
 23 25  1  0  0  0  0
 23 24  2  0  0  0  0
 35 36  1  0  0  0  0
 36 44  1  0  0  0  0
 36 37  2  0  0  0  0
  8  9  1  0  0  0  0
  9 17  1  0  0  0  0
  9 10  2  0  0  0  0
 18 19  1  0  0  0  0
 19 34  1  0  0  0  0
 19 20  2  0  0  0  0
 35 38  1  0  0  0  0
  8 11  1  0  0  0  0
 44 45  1  0  0  0  0
 21 22  1  0  0  0  0
 18 21  1  0  0  0  0
 34 35  1  0  0  0  0
  7  8  1  0  0  0  0
 17 18  1  0  0  0  0
  3  4  1  0  0  0  0
  3  5  1  0  0  0  0
  3  6  1  0  0  0  0
 38 41  1  0  0  0  0
 38 42  1  0  0  0  0
 38 43  1  0  0  0  0
 11 14  1  0  0  0  0
 11 15  1  0  0  0  0
 11 16  1  0  0  0  0
 45 47  1  0  0  0  0
 45 48  1  0  0  0  0
 45 49  1  0  0  0  0
 22 30  1  0  0  0  0
 22 31  1  0  0  0  0
 21 28  1  0  0  0  0
 21 29  1  0  0  0  0
 35 40  1  0  0  0  0
  8 13  1  0  0  0  0
 18 27  1  0  0  0  0
 25 32  1  0  0  0  0
 25 33  1  0  0  0  0
 44 46  1  0  0  0  0
  7 12  1  0  0  0  0
 34 39  1  0  0  0  0
 17 26  1  0  0  0  0
M  END
$$$$

  -OEChem-05262214473D

 49 48  0     1  0  0  0  0  0999 V2000
   -1.9833   -0.0509   -3.3423 C   0  0  0  0  0  0  0  0  0  0  0  0
   -1.6199   -1.0613   -2.7518 O   0  0  0  0  0  0  0  0  0  0  0  0
   -3.3243   -0.0235   -3.9975 C   0  0  0  0  0  0  0  0  0  0  0  0
   -3.2886   -0.3689   -5.0432 H   0  0  0  0  0  0  0  0  0  0  0  0
   -4.0503   -0.6845   -3.4973 H   0  0  0  0  0  0  0  0  0  0  0  0
   -3.8104    0.9645   -4.0351 H   0  0  0  0  0  0  0  0  0  0  0  0
   -1.2607    1.1231   -3.4768 N   0  0  0  0  0  0  0  0  0  0  0  0
    0.0536    1.3115   -2.9213 C   0  0  2  0  0  0  0  0  0  0  0  0
    0.0266    0.8315   -1.4761 C   0  0  0  0  0  0  0  0  0  0  0  0
   -1.0065    0.7530   -0.8146 O   0  0  0  0  0  0  0  0  0  0  0  0
    0.4852    2.7674   -3.0025 C   0  0  0  0  0  0  0  0  0  0  0  0
   -1.6809    1.8924   -3.9952 H   0  0  0  0  0  0  0  0  0  0  0  0
    0.7360    0.6822   -3.5030 H   0  0  0  0  0  0  0  0  0  0  0  0
   -0.1867    3.4133   -2.4256 H   0  0  0  0  0  0  0  0  0  0  0  0
    1.4966    2.9042   -2.6056 H   0  0  0  0  0  0  0  0  0  0  0  0
    0.4754    3.1196   -4.0397 H   0  0  0  0  0  0  0  0  0  0  0  0
    1.2978    0.5411   -0.9947 N   0  0  0  0  0  0  0  0  0  0  0  0
    1.5371    0.0807    0.3489 C   0  0  2  0  0  0  0  0  0  0  0  0
    2.4528    1.0991    1.0189 C   0  0  0  0  0  0  0  0  0  0  0  0
    2.0710    2.2141    1.3680 O   0  0  0  0  0  0  0  0  0  0  0  0
    2.1775   -1.3128    0.3781 C   0  0  0  0  0  0  0  0  0  0  0  0
    1.2523   -2.4184   -0.1343 C   0  0  0  0  0  0  0  0  0  0  0  0
    1.8917   -3.7944   -0.1291 C   0  0  0  0  0  0  0  0  0  0  0  0
    3.0606   -4.0069    0.1796 O   0  0  0  0  0  0  0  0  0  0  0  0
    1.0179   -4.7799   -0.5359 N   0  0  0  0  0  0  0  0  0  0  0  0
    2.0949    0.6178   -1.6227 H   0  0  0  0  0  0  0  0  0  0  0  0
    0.5679    0.0829    0.8589 H   0  0  0  0  0  0  0  0  0  0  0  0
    3.0844   -1.3059   -0.2413 H   0  0  0  0  0  0  0  0  0  0  0  0
    2.5064   -1.5542    1.3968 H   0  0  0  0  0  0  0  0  0  0  0  0
    0.9810   -2.1970   -1.1740 H   0  0  0  0  0  0  0  0  0  0  0  0
    0.3228   -2.4479    0.4452 H   0  0  0  0  0  0  0  0  0  0  0  0
    0.0713   -4.5191   -0.7913 H   0  0  0  0  0  0  0  0  0  0  0  0
    1.2875   -5.7569   -0.5890 H   0  0  0  0  0  0  0  0  0  0  0  0
    3.7547    0.6318    1.1330 N   0  0  0  0  0  0  0  0  0  0  0  0
    4.8282    1.4072    1.7119 C   0  0  2  0  0  0  0  0  0  0  0  0
    4.3394    1.9684    3.0407 C   0  0  0  0  0  0  0  0  0  0  0  0
    3.1489    2.1136    3.3103 O   0  0  0  0  0  0  0  0  0  0  0  0
    5.2690    2.5245    0.7791 C   0  0  0  0  0  0  0  0  0  0  0  0
    3.9636   -0.3022    0.7926 H   0  0  0  0  0  0  0  0  0  0  0  0
    5.6580    0.7147    1.8903 H   0  0  0  0  0  0  0  0  0  0  0  0
    4.4506    3.2285    0.5886 H   0  0  0  0  0  0  0  0  0  0  0  0
    6.1013    3.0932    1.2068 H   0  0  0  0  0  0  0  0  0  0  0  0
    5.5921    2.1213   -0.1867 H   0  0  0  0  0  0  0  0  0  0  0  0
    5.3899    2.3282    3.8732 N   0  0  0  0  0  0  0  0  0  0  0  0
    5.1855    2.8971    5.1849 C   0  0  0  0  0  0  0  0  0  0  0  0
    6.3454    2.1547    3.5756 H   0  0  0  0  0  0  0  0  0  0  0  0
    5.1801    3.9947    5.1124 H   0  0  0  0  0  0  0  0  0  0  0  0
    4.2221    2.5517    5.5882 H   0  0  0  0  0  0  0  0  0  0  0  0
    5.9985    2.5779    5.8537 H   0  0  0  0  0  0  0  0  0  0  0  0
  1  3  1  0  0  0  0
  1  7  1  0  0  0  0
  1  2  2  0  0  0  0
 22 23  1  0  0  0  0
 23 25  1  0  0  0  0
 23 24  2  0  0  0  0
 35 36  1  0  0  0  0
 36 44  1  0  0  0  0
 36 37  2  0  0  0  0
  8  9  1  0  0  0  0
  9 17  1  0  0  0  0
  9 10  2  0  0  0  0
 18 19  1  0  0  0  0
 19 34  1  0  0  0  0
 19 20  2  0  0  0  0
 35 38  1  0  0  0  0
  8 11  1  0  0  0  0
 44 45  1  0  0  0  0
 21 22  1  0  0  0  0
 18 21  1  0  0  0  0
 34 35  1  0  0  0  0
  7  8  1  0  0  0  0
 17 18  1  0  0  0  0
  3  4  1  0  0  0  0
  3  5  1  0  0  0  0
  3  6  1  0  0  0  0
 38 41  1  0  0  0  0
 38 42  1  0  0  0  0
 38 43  1  0  0  0  0
 11 14  1  0  0  0  0
 11 15  1  0  0  0  0
 11 16  1  0  0  0  0
 45 47  1  0  0  0  0
 45 48  1  0  0  0  0
 45 49  1  0  0  0  0
 22 30  1  0  0  0  0
 22 31  1  0  0  0  0
 21 28  1  0  0  0  0
 21 29  1  0  0  0  0
 35 40  1  0  0  0  0
  8 13  1  0  0  0  0
 18 27  1  0  0  0  0
 25 32  1  0  0  0  0
 25 33  1  0  0  0  0
 44 46  1  0  0  0  0
  7 12  1  0  0  0  0
 34 39  1  0  0  0  0
 17 26  1  0  0  0  0
M  END
$$$$

  -OEChem-05262214473D

 49 48  0     1  0  0  0  0  0999 V2000
   -1.9833   -0.0509   -3.3423 C   0  0  0  0  0  0  0  0  0  0  0  0
   -1.6199   -1.0613   -2.7518 O   0  0  0  0  0  0  0  0  0  0  0  0
   -3.3243   -0.0235   -3.9975 C   0  0  0  0  0  0  0  0  0  0  0  0
   -3.2886   -0.3689   -5.0432 H   0  0  0  0  0  0  0  0  0  0  0  0
   -4.0503   -0.6845   -3.4973 H   0  0  0  0  0  0  0  0  0  0  0  0
   -3.8104    0.9645   -4.0351 H   0  0  0  0  0  0  0  0  0  0  0  0
   -1.2607    1.1231   -3.4768 N   0  0  0  0  0  0  0  0  0  0  0  0
    0.0536    1.3115   -2.9213 C   0  0  2  0  0  0  0  0  0  0  0  0
    0.0266    0.8315   -1.4761 C   0  0  0  0  0  0  0  0  0  0  0  0
   -1.0065    0.7530   -0.8146 O   0  0  0  0  0  0  0  0  0  0  0  0
    0.4852    2.7674   -3.0025 C   0  0  0  0  0  0  0  0  0  0  0  0
   -1.6809    1.8924   -3.9952 H   0  0  0  0  0  0  0  0  0  0  0  0
    0.7360    0.6822   -3.5030 H   0  0  0  0  0  0  0  0  0  0  0  0
   -0.1867    3.4133   -2.4256 H   0  0  0  0  0  0  0  0  0  0  0  0
    1.4966    2.9042   -2.6056 H   0  0  0  0  0  0  0  0  0  0  0  0
    0.4754    3.1196   -4.0397 H   0  0  0  0  0  0  0  0  0  0  0  0
    1.2978    0.5411   -0.9947 N   0  0  0  0  0  0  0  0  0  0  0  0
    1.5371    0.0807    0.3489 C   0  0  2  0  0  0  0  0  0  0  0  0
    2.4528    1.0991    1.0189 C   0  0  0  0  0  0  0  0  0  0  0  0
    2.0312    2.0937    1.6054 O   0  0  0  0  0  0  0  0  0  0  0  0
    2.1775   -1.3128    0.3781 C   0  0  0  0  0  0  0  0  0  0  0  0
    1.2523   -2.4184   -0.1343 C   0  0  0  0  0  0  0  0  0  0  0  0
    1.8917   -3.7944   -0.1291 C   0  0  0  0  0  0  0  0  0  0  0  0
    3.0606   -4.0069    0.1796 O   0  0  0  0  0  0  0  0  0  0  0  0
    1.0179   -4.7799   -0.5359 N   0  0  0  0  0  0  0  0  0  0  0  0
    2.0949    0.6178   -1.6227 H   0  0  0  0  0  0  0  0  0  0  0  0
    0.5679    0.0829    0.8589 H   0  0  0  0  0  0  0  0  0  0  0  0
    3.0844   -1.3059   -0.2413 H   0  0  0  0  0  0  0  0  0  0  0  0
    2.5064   -1.5542    1.3968 H   0  0  0  0  0  0  0  0  0  0  0  0
    0.9810   -2.1970   -1.1740 H   0  0  0  0  0  0  0  0  0  0  0  0
    0.3228   -2.4479    0.4452 H   0  0  0  0  0  0  0  0  0  0  0  0
    0.0713   -4.5191   -0.7913 H   0  0  0  0  0  0  0  0  0  0  0  0
    1.2875   -5.7569   -0.5890 H   0  0  0  0  0  0  0  0  0  0  0  0
    3.7939    0.7898    0.8392 N   0  0  0  0  0  0  0  0  0  0  0  0
    4.8717    1.6032    1.3545 C   0  0  2  0  0  0  0  0  0  0  0  0
    4.5791    1.8983    2.8197 C   0  0  0  0  0  0  0  0  0  0  0  0
    3.4490    1.8498    3.3010 O   0  0  0  0  0  0  0  0  0  0  0  0
    5.0214    2.8913    0.5600 C   0  0  0  0  0  0  0  0  0  0  0  0
    4.0297   -0.0503    0.3194 H   0  0  0  0  0  0  0  0  0  0  0  0
    5.7852    1.0036    1.2775 H   0  0  0  0  0  0  0  0  0  0  0  0
    4.1158    3.5054    0.6253 H   0  0  0  0  0  0  0  0  0  0  0  0
    5.8564    3.4931    0.9336 H   0  0  0  0  0  0  0  0  0  0  0  0
    5.2022    2.6773   -0.4989 H   0  0  0  0  0  0  0  0  0  0  0  0
    5.7221    2.2641    3.5168 N   0  0  0  0  0  0  0  0  0  0  0  0
    5.7037    2.6054    4.9200 C   0  0  0  0  0  0  0  0  0  0  0  0
    6.6200    2.2589    3.0420 H   0  0  0  0  0  0  0  0  0  0  0  0
    5.5754    3.6921    5.0320 H   0  0  0  0  0  0  0  0  0  0  0  0
    4.8692    2.0851    5.4129 H   0  0  0  0  0  0  0  0  0  0  0  0
    6.6526    2.2986    5.3843 H   0  0  0  0  0  0  0  0  0  0  0  0
  1  3  1  0  0  0  0
  1  7  1  0  0  0  0
  1  2  2  0  0  0  0
 22 23  1  0  0  0  0
 23 25  1  0  0  0  0
 23 24  2  0  0  0  0
 35 36  1  0  0  0  0
 36 44  1  0  0  0  0
 36 37  2  0  0  0  0
  8  9  1  0  0  0  0
  9 17  1  0  0  0  0
  9 10  2  0  0  0  0
 18 19  1  0  0  0  0
 19 34  1  0  0  0  0
 19 20  2  0  0  0  0
 35 38  1  0  0  0  0
  8 11  1  0  0  0  0
 44 45  1  0  0  0  0
 21 22  1  0  0  0  0
 18 21  1  0  0  0  0
 34 35  1  0  0  0  0
  7  8  1  0  0  0  0
 17 18  1  0  0  0  0
  3  4  1  0  0  0  0
  3  5  1  0  0  0  0
  3  6  1  0  0  0  0
 38 41  1  0  0  0  0
 38 42  1  0  0  0  0
 38 43  1  0  0  0  0
 11 14  1  0  0  0  0
 11 15  1  0  0  0  0
 11 16  1  0  0  0  0
 45 47  1  0  0  0  0
 45 48  1  0  0  0  0
 45 49  1  0  0  0  0
 22 30  1  0  0  0  0
 22 31  1  0  0  0  0
 21 28  1  0  0  0  0
 21 29  1  0  0  0  0
 35 40  1  0  0  0  0
  8 13  1  0  0  0  0
 18 27  1  0  0  0  0
 25 32  1  0  0  0  0
 25 33  1  0  0  0  0
 44 46  1  0  0  0  0
  7 12  1  0  0  0  0
 34 39  1  0  0  0  0
 17 26  1  0  0  0  0
M  END
$$$$

  -OEChem-05262214473D

 49 48  0     1  0  0  0  0  0999 V2000
   -1.9833   -0.0509   -3.3423 C   0  0  0  0  0  0  0  0  0  0  0  0
   -1.6199   -1.0613   -2.7518 O   0  0  0  0  0  0  0  0  0  0  0  0
   -3.3243   -0.0235   -3.9975 C   0  0  0  0  0  0  0  0  0  0  0  0
   -3.2886   -0.3689   -5.0432 H   0  0  0  0  0  0  0  0  0  0  0  0
   -4.0503   -0.6845   -3.4973 H   0  0  0  0  0  0  0  0  0  0  0  0
   -3.8104    0.9645   -4.0351 H   0  0  0  0  0  0  0  0  0  0  0  0
   -1.2607    1.1231   -3.4768 N   0  0  0  0  0  0  0  0  0  0  0  0
    0.0536    1.3115   -2.9213 C   0  0  2  0  0  0  0  0  0  0  0  0
    0.0266    0.8315   -1.4761 C   0  0  0  0  0  0  0  0  0  0  0  0
   -1.0065    0.7530   -0.8146 O   0  0  0  0  0  0  0  0  0  0  0  0
    0.4852    2.7674   -3.0025 C   0  0  0  0  0  0  0  0  0  0  0  0
   -1.6809    1.8924   -3.9952 H   0  0  0  0  0  0  0  0  0  0  0  0
    0.7360    0.6822   -3.5030 H   0  0  0  0  0  0  0  0  0  0  0  0
   -0.1867    3.4133   -2.4256 H   0  0  0  0  0  0  0  0  0  0  0  0
    1.4966    2.9042   -2.6056 H   0  0  0  0  0  0  0  0  0  0  0  0
    0.4754    3.1196   -4.0397 H   0  0  0  0  0  0  0  0  0  0  0  0
    1.2978    0.5411   -0.9947 N   0  0  0  0  0  0  0  0  0  0  0  0
    1.5371    0.0807    0.3489 C   0  0  2  0  0  0  0  0  0  0  0  0
    2.4528    1.0991    1.0189 C   0  0  0  0  0  0  0  0  0  0  0  0
    2.0476    1.9359    1.8230 O   0  0  0  0  0  0  0  0  0  0  0  0
    2.1775   -1.3128    0.3781 C   0  0  0  0  0  0  0  0  0  0  0  0
    1.2523   -2.4184   -0.1343 C   0  0  0  0  0  0  0  0  0  0  0  0
    1.8917   -3.7944   -0.1291 C   0  0  0  0  0  0  0  0  0  0  0  0
    3.0606   -4.0069    0.1796 O   0  0  0  0  0  0  0  0  0  0  0  0
    1.0179   -4.7799   -0.5359 N   0  0  0  0  0  0  0  0  0  0  0  0
    2.0949    0.6178   -1.6227 H   0  0  0  0  0  0  0  0  0  0  0  0
    0.5679    0.0829    0.8589 H   0  0  0  0  0  0  0  0  0  0  0  0
    3.0844   -1.3059   -0.2413 H   0  0  0  0  0  0  0  0  0  0  0  0
    2.5064   -1.5542    1.3968 H   0  0  0  0  0  0  0  0  0  0  0  0
    0.9810   -2.1970   -1.1740 H   0  0  0  0  0  0  0  0  0  0  0  0
    0.3228   -2.4479    0.4452 H   0  0  0  0  0  0  0  0  0  0  0  0
    0.0713   -4.5191   -0.7913 H   0  0  0  0  0  0  0  0  0  0  0  0
    1.2875   -5.7569   -0.5890 H   0  0  0  0  0  0  0  0  0  0  0  0
    3.7630    0.9927    0.5732 N   0  0  0  0  0  0  0  0  0  0  0  0
    4.8296    1.8531    1.0323 C   0  0  2  0  0  0  0  0  0  0  0  0
    4.7803    1.8922    2.5540 C   0  0  0  0  0  0  0  0  0  0  0  0
    3.7672    1.6307    3.1992 O   0  0  0  0  0  0  0  0  0  0  0  0
    4.7026    3.2515    0.4482 C   0  0  0  0  0  0  0  0  0  0  0  0
    3.9832    0.2740   -0.1100 H   0  0  0  0  0  0  0  0  0  0  0  0
    5.7692    1.3923    0.7084 H   0  0  0  0  0  0  0  0  0  0  0  0
    3.7672    3.7291    0.7617 H   0  0  0  0  0  0  0  0  0  0  0  0
    5.5272    3.8940    0.7742 H   0  0  0  0  0  0  0  0  0  0  0  0
    4.7083    3.2186   -0.6466 H   0  0  0  0  0  0  0  0  0  0  0  0
    5.9886    2.2953    3.1051 N   0  0  0  0  0  0  0  0  0  0  0  0
    6.1917    2.4237    4.5292 C   0  0  0  0  0  0  0  0  0  0  0  0
    6.7811    2.4737    2.4953 H   0  0  0  0  0  0  0  0  0  0  0  0
    5.9778    3.4573    4.8389 H   0  0  0  0  0  0  0  0  0  0  0  0
    5.5171    1.7352    5.0592 H   0  0  0  0  0  0  0  0  0  0  0  0
    7.2350    2.1761    4.7745 H   0  0  0  0  0  0  0  0  0  0  0  0
  1  3  1  0  0  0  0
  1  7  1  0  0  0  0
  1  2  2  0  0  0  0
 22 23  1  0  0  0  0
 23 25  1  0  0  0  0
 23 24  2  0  0  0  0
 35 36  1  0  0  0  0
 36 44  1  0  0  0  0
 36 37  2  0  0  0  0
  8  9  1  0  0  0  0
  9 17  1  0  0  0  0
  9 10  2  0  0  0  0
 18 19  1  0  0  0  0
 19 34  1  0  0  0  0
 19 20  2  0  0  0  0
 35 38  1  0  0  0  0
  8 11  1  0  0  0  0
 44 45  1  0  0  0  0
 21 22  1  0  0  0  0
 18 21  1  0  0  0  0
 34 35  1  0  0  0  0
  7  8  1  0  0  0  0
 17 18  1  0  0  0  0
  3  4  1  0  0  0  0
  3  5  1  0  0  0  0
  3  6  1  0  0  0  0
 38 41  1  0  0  0  0
 38 42  1  0  0  0  0
 38 43  1  0  0  0  0
 11 14  1  0  0  0  0
 11 15  1  0  0  0  0
 11 16  1  0  0  0  0
 45 47  1  0  0  0  0
 45 48  1  0  0  0  0
 45 49  1  0  0  0  0
 22 30  1  0  0  0  0
 22 31  1  0  0  0  0
 21 28  1  0  0  0  0
 21 29  1  0  0  0  0
 35 40  1  0  0  0  0
  8 13  1  0  0  0  0
 18 27  1  0  0  0  0
 25 32  1  0  0  0  0
 25 33  1  0  0  0  0
 44 46  1  0  0  0  0
  7 12  1  0  0  0  0
 34 39  1  0  0  0  0
 17 26  1  0  0  0  0
M  END
$$$$

  -OEChem-05262214473D

 49 48  0     1  0  0  0  0  0999 V2000
   -1.9833   -0.0509   -3.3423 C   0  0  0  0  0  0  0  0  0  0  0  0
   -1.6199   -1.0613   -2.7518 O   0  0  0  0  0  0  0  0  0  0  0  0
   -3.3243   -0.0235   -3.9975 C   0  0  0  0  0  0  0  0  0  0  0  0
   -3.2886   -0.3689   -5.0432 H   0  0  0  0  0  0  0  0  0  0  0  0
   -4.0503   -0.6845   -3.4973 H   0  0  0  0  0  0  0  0  0  0  0  0
   -3.8104    0.9645   -4.0351 H   0  0  0  0  0  0  0  0  0  0  0  0
   -1.2607    1.1231   -3.4768 N   0  0  0  0  0  0  0  0  0  0  0  0
    0.0536    1.3115   -2.9213 C   0  0  2  0  0  0  0  0  0  0  0  0
    0.0266    0.8315   -1.4761 C   0  0  0  0  0  0  0  0  0  0  0  0
   -1.0065    0.7530   -0.8146 O   0  0  0  0  0  0  0  0  0  0  0  0
    0.4852    2.7674   -3.0025 C   0  0  0  0  0  0  0  0  0  0  0  0
   -1.6809    1.8924   -3.9952 H   0  0  0  0  0  0  0  0  0  0  0  0
    0.7360    0.6822   -3.5030 H   0  0  0  0  0  0  0  0  0  0  0  0
   -0.1867    3.4133   -2.4256 H   0  0  0  0  0  0  0  0  0  0  0  0
    1.4966    2.9042   -2.6056 H   0  0  0  0  0  0  0  0  0  0  0  0
    0.4754    3.1196   -4.0397 H   0  0  0  0  0  0  0  0  0  0  0  0
    1.2978    0.5411   -0.9947 N   0  0  0  0  0  0  0  0  0  0  0  0
    1.5371    0.0807    0.3489 C   0  0  2  0  0  0  0  0  0  0  0  0
    2.4528    1.0991    1.0189 C   0  0  0  0  0  0  0  0  0  0  0  0
    2.1189    1.7515    2.0057 O   0  0  0  0  0  0  0  0  0  0  0  0
    2.1775   -1.3128    0.3781 C   0  0  0  0  0  0  0  0  0  0  0  0
    1.2523   -2.4184   -0.1343 C   0  0  0  0  0  0  0  0  0  0  0  0
    1.8917   -3.7944   -0.1291 C   0  0  0  0  0  0  0  0  0  0  0  0
    3.0606   -4.0069    0.1796 O   0  0  0  0  0  0  0  0  0  0  0  0
    1.0179   -4.7799   -0.5359 N   0  0  0  0  0  0  0  0  0  0  0  0
    2.0949    0.6178   -1.6227 H   0  0  0  0  0  0  0  0  0  0  0  0
    0.5679    0.0829    0.8589 H   0  0  0  0  0  0  0  0  0  0  0  0
    3.0844   -1.3059   -0.2413 H   0  0  0  0  0  0  0  0  0  0  0  0
    2.5064   -1.5542    1.3968 H   0  0  0  0  0  0  0  0  0  0  0  0
    0.9810   -2.1970   -1.1740 H   0  0  0  0  0  0  0  0  0  0  0  0
    0.3228   -2.4479    0.4452 H   0  0  0  0  0  0  0  0  0  0  0  0
    0.0713   -4.5191   -0.7913 H   0  0  0  0  0  0  0  0  0  0  0  0
    1.2875   -5.7569   -0.5890 H   0  0  0  0  0  0  0  0  0  0  0  0
    3.6640    1.2264    0.3531 N   0  0  0  0  0  0  0  0  0  0  0  0
    4.7048    2.1397    0.7671 C   0  0  2  0  0  0  0  0  0  0  0  0
    4.9294    1.9505    2.2615 C   0  0  0  0  0  0  0  0  0  0  0  0
    4.0819    1.4710    3.0118 O   0  0  0  0  0  0  0  0  0  0  0  0
    4.3345    3.5805    0.4513 C   0  0  0  0  0  0  0  0  0  0  0  0
    3.8271    0.6487   -0.4662 H   0  0  0  0  0  0  0  0  0  0  0  0
    5.6111    1.8545    0.2220 H   0  0  0  0  0  0  0  0  0  0  0  0
    3.4286    3.8843    0.9885 H   0  0  0  0  0  0  0  0  0  0  0  0
    5.1361    4.2685    0.7395 H   0  0  0  0  0  0  0  0  0  0  0  0
    4.1442    3.7082   -0.6198 H   0  0  0  0  0  0  0  0  0  0  0  0
    6.1713    2.4198    2.6662 N   0  0  0  0  0  0  0  0  0  0  0  0
    6.6161    2.3645    4.0391 C   0  0  0  0  0  0  0  0  0  0  0  0
    6.8178    2.7844    1.9728 H   0  0  0  0  0  0  0  0  0  0  0  0
    6.3598    3.3063    4.5464 H   0  0  0  0  0  0  0  0  0  0  0  0
    6.1215    1.5260    4.5512 H   0  0  0  0  0  0  0  0  0  0  0  0
    7.7061    2.2188    4.0657 H   0  0  0  0  0  0  0  0  0  0  0  0
  1  3  1  0  0  0  0
  1  7  1  0  0  0  0
  1  2  2  0  0  0  0
 22 23  1  0  0  0  0
 23 25  1  0  0  0  0
 23 24  2  0  0  0  0
 35 36  1  0  0  0  0
 36 44  1  0  0  0  0
 36 37  2  0  0  0  0
  8  9  1  0  0  0  0
  9 17  1  0  0  0  0
  9 10  2  0  0  0  0
 18 19  1  0  0  0  0
 19 34  1  0  0  0  0
 19 20  2  0  0  0  0
 35 38  1  0  0  0  0
  8 11  1  0  0  0  0
 44 45  1  0  0  0  0
 21 22  1  0  0  0  0
 18 21  1  0  0  0  0
 34 35  1  0  0  0  0
  7  8  1  0  0  0  0
 17 18  1  0  0  0  0
  3  4  1  0  0  0  0
  3  5  1  0  0  0  0
  3  6  1  0  0  0  0
 38 41  1  0  0  0  0
 38 42  1  0  0  0  0
 38 43  1  0  0  0  0
 11 14  1  0  0  0  0
 11 15  1  0  0  0  0
 11 16  1  0  0  0  0
 45 47  1  0  0  0  0
 45 48  1  0  0  0  0
 45 49  1  0  0  0  0
 22 30  1  0  0  0  0
 22 31  1  0  0  0  0
 21 28  1  0  0  0  0
 21 29  1  0  0  0  0
 35 40  1  0  0  0  0
  8 13  1  0  0  0  0
 18 27  1  0  0  0  0
 25 32  1  0  0  0  0
 25 33  1  0  0  0  0
 44 46  1  0  0  0  0
  7 12  1  0  0  0  0
 34 39  1  0  0  0  0
 17 26  1  0  0  0  0
M  END
$$$$

  -OEChem-05262214473D

 49 48  0     1  0  0  0  0  0999 V2000
   -1.9833   -0.0509   -3.3423 C   0  0  0  0  0  0  0  0  0  0  0  0
   -1.6199   -1.0613   -2.7518 O   0  0  0  0  0  0  0  0  0  0  0  0
   -3.3243   -0.0235   -3.9975 C   0  0  0  0  0  0  0  0  0  0  0  0
   -3.2886   -0.3689   -5.0432 H   0  0  0  0  0  0  0  0  0  0  0  0
   -4.0503   -0.6845   -3.4973 H   0  0  0  0  0  0  0  0  0  0  0  0
   -3.8104    0.9645   -4.0351 H   0  0  0  0  0  0  0  0  0  0  0  0
   -1.2607    1.1231   -3.4768 N   0  0  0  0  0  0  0  0  0  0  0  0
    0.0536    1.3115   -2.9213 C   0  0  2  0  0  0  0  0  0  0  0  0
    0.0266    0.8315   -1.4761 C   0  0  0  0  0  0  0  0  0  0  0  0
   -1.0065    0.7530   -0.8146 O   0  0  0  0  0  0  0  0  0  0  0  0
    0.4852    2.7674   -3.0025 C   0  0  0  0  0  0  0  0  0  0  0  0
   -1.6809    1.8924   -3.9952 H   0  0  0  0  0  0  0  0  0  0  0  0
    0.7360    0.6822   -3.5030 H   0  0  0  0  0  0  0  0  0  0  0  0
   -0.1867    3.4133   -2.4256 H   0  0  0  0  0  0  0  0  0  0  0  0
    1.4966    2.9042   -2.6056 H   0  0  0  0  0  0  0  0  0  0  0  0
    0.4754    3.1196   -4.0397 H   0  0  0  0  0  0  0  0  0  0  0  0
    1.2978    0.5411   -0.9947 N   0  0  0  0  0  0  0  0  0  0  0  0
    1.5371    0.0807    0.3489 C   0  0  2  0  0  0  0  0  0  0  0  0
    2.4528    1.0991    1.0189 C   0  0  0  0  0  0  0  0  0  0  0  0
    2.2404    1.5531    2.1413 O   0  0  0  0  0  0  0  0  0  0  0  0
    2.1775   -1.3128    0.3781 C   0  0  0  0  0  0  0  0  0  0  0  0
    1.2523   -2.4184   -0.1343 C   0  0  0  0  0  0  0  0  0  0  0  0
    1.8917   -3.7944   -0.1291 C   0  0  0  0  0  0  0  0  0  0  0  0
    3.0606   -4.0069    0.1796 O   0  0  0  0  0  0  0  0  0  0  0  0
    1.0179   -4.7799   -0.5359 N   0  0  0  0  0  0  0  0  0  0  0  0
    2.0949    0.6178   -1.6227 H   0  0  0  0  0  0  0  0  0  0  0  0
    0.5679    0.0829    0.8589 H   0  0  0  0  0  0  0  0  0  0  0  0
    3.0844   -1.3059   -0.2413 H   0  0  0  0  0  0  0  0  0  0  0  0
    2.5064   -1.5542    1.3968 H   0  0  0  0  0  0  0  0  0  0  0  0
    0.9810   -2.1970   -1.1740 H   0  0  0  0  0  0  0  0  0  0  0  0
    0.3228   -2.4479    0.4452 H   0  0  0  0  0  0  0  0  0  0  0  0
    0.0713   -4.5191   -0.7913 H   0  0  0  0  0  0  0  0  0  0  0  0
    1.2875   -5.7569   -0.5890 H   0  0  0  0  0  0  0  0  0  0  0  0
    3.5038    1.4752    0.1940 N   0  0  0  0  0  0  0  0  0  0  0  0
    4.5058    2.4436    0.5772 C   0  0  2  0  0  0  0  0  0  0  0  0
    5.0163    2.0692    1.9624 C   0  0  0  0  0  0  0  0  0  0  0  0
    4.3717    1.3817    2.7516 O   0  0  0  0  0  0  0  0  0  0  0  0
    3.9419    3.8560    0.5691 C   0  0  0  0  0  0  0  0  0  0  0  0
    3.5721    1.0483   -0.7251 H   0  0  0  0  0  0  0  0  0  0  0  0
    5.3218    2.3585   -0.1487 H   0  0  0  0  0  0  0  0  0  0  0  0
    3.1231    3.9605    1.2903 H   0  0  0  0  0  0  0  0  0  0  0  0
    4.7097    4.5912    0.8318 H   0  0  0  0  0  0  0  0  0  0  0  0
    3.5482    4.1128   -0.4203 H   0  0  0  0  0  0  0  0  0  0  0  0
    6.2577    2.6291    2.2300 N   0  0  0  0  0  0  0  0  0  0  0  0
    6.9481    2.4318    3.4831 C   0  0  0  0  0  0  0  0  0  0  0  0
    6.7276    3.1700    1.5100 H   0  0  0  0  0  0  0  0  0  0  0  0
    6.6954    3.2494    4.1743 H   0  0  0  0  0  0  0  0  0  0  0  0
    6.6413    1.4716    3.9235 H   0  0  0  0  0  0  0  0  0  0  0  0
    8.0337    2.4238    3.3062 H   0  0  0  0  0  0  0  0  0  0  0  0
  1  3  1  0  0  0  0
  1  7  1  0  0  0  0
  1  2  2  0  0  0  0
 22 23  1  0  0  0  0
 23 25  1  0  0  0  0
 23 24  2  0  0  0  0
 35 36  1  0  0  0  0
 36 44  1  0  0  0  0
 36 37  2  0  0  0  0
  8  9  1  0  0  0  0
  9 17  1  0  0  0  0
  9 10  2  0  0  0  0
 18 19  1  0  0  0  0
 19 34  1  0  0  0  0
 19 20  2  0  0  0  0
 35 38  1  0  0  0  0
  8 11  1  0  0  0  0
 44 45  1  0  0  0  0
 21 22  1  0  0  0  0
 18 21  1  0  0  0  0
 34 35  1  0  0  0  0
  7  8  1  0  0  0  0
 17 18  1  0  0  0  0
  3  4  1  0  0  0  0
  3  5  1  0  0  0  0
  3  6  1  0  0  0  0
 38 41  1  0  0  0  0
 38 42  1  0  0  0  0
 38 43  1  0  0  0  0
 11 14  1  0  0  0  0
 11 15  1  0  0  0  0
 11 16  1  0  0  0  0
 45 47  1  0  0  0  0
 45 48  1  0  0  0  0
 45 49  1  0  0  0  0
 22 30  1  0  0  0  0
 22 31  1  0  0  0  0
 21 28  1  0  0  0  0
 21 29  1  0  0  0  0
 35 40  1  0  0  0  0
  8 13  1  0  0  0  0
 18 27  1  0  0  0  0
 25 32  1  0  0  0  0
 25 33  1  0  0  0  0
 44 46  1  0  0  0  0
  7 12  1  0  0  0  0
 34 39  1  0  0  0  0
 17 26  1  0  0  0  0
M  END
$$$$

  -OEChem-05262214473D

 49 48  0     1  0  0  0  0  0999 V2000
   -1.9833   -0.0509   -3.3423 C   0  0  0  0  0  0  0  0  0  0  0  0
   -1.6199   -1.0613   -2.7518 O   0  0  0  0  0  0  0  0  0  0  0  0
   -3.3243   -0.0235   -3.9975 C   0  0  0  0  0  0  0  0  0  0  0  0
   -3.2886   -0.3689   -5.0432 H   0  0  0  0  0  0  0  0  0  0  0  0
   -4.0503   -0.6845   -3.4973 H   0  0  0  0  0  0  0  0  0  0  0  0
   -3.8104    0.9645   -4.0351 H   0  0  0  0  0  0  0  0  0  0  0  0
   -1.2607    1.1231   -3.4768 N   0  0  0  0  0  0  0  0  0  0  0  0
    0.0536    1.3115   -2.9213 C   0  0  2  0  0  0  0  0  0  0  0  0
    0.0266    0.8315   -1.4761 C   0  0  0  0  0  0  0  0  0  0  0  0
   -1.0065    0.7530   -0.8146 O   0  0  0  0  0  0  0  0  0  0  0  0
    0.4852    2.7674   -3.0025 C   0  0  0  0  0  0  0  0  0  0  0  0
   -1.6809    1.8924   -3.9952 H   0  0  0  0  0  0  0  0  0  0  0  0
    0.7360    0.6822   -3.5030 H   0  0  0  0  0  0  0  0  0  0  0  0
   -0.1867    3.4133   -2.4256 H   0  0  0  0  0  0  0  0  0  0  0  0
    1.4966    2.9042   -2.6056 H   0  0  0  0  0  0  0  0  0  0  0  0
    0.4754    3.1196   -4.0397 H   0  0  0  0  0  0  0  0  0  0  0  0
    1.2978    0.5411   -0.9947 N   0  0  0  0  0  0  0  0  0  0  0  0
    1.5371    0.0807    0.3489 C   0  0  2  0  0  0  0  0  0  0  0  0
    2.4528    1.0991    1.0189 C   0  0  0  0  0  0  0  0  0  0  0  0
    2.4037    1.3542    2.2203 O   0  0  0  0  0  0  0  0  0  0  0  0
    2.1775   -1.3128    0.3781 C   0  0  0  0  0  0  0  0  0  0  0  0
    1.2523   -2.4184   -0.1343 C   0  0  0  0  0  0  0  0  0  0  0  0
    1.8917   -3.7944   -0.1291 C   0  0  0  0  0  0  0  0  0  0  0  0
    3.0606   -4.0069    0.1796 O   0  0  0  0  0  0  0  0  0  0  0  0
    1.0179   -4.7799   -0.5359 N   0  0  0  0  0  0  0  0  0  0  0  0
    2.0949    0.6178   -1.6227 H   0  0  0  0  0  0  0  0  0  0  0  0
    0.5679    0.0829    0.8589 H   0  0  0  0  0  0  0  0  0  0  0  0
    3.0844   -1.3059   -0.2413 H   0  0  0  0  0  0  0  0  0  0  0  0
    2.5064   -1.5542    1.3968 H   0  0  0  0  0  0  0  0  0  0  0  0
    0.9810   -2.1970   -1.1740 H   0  0  0  0  0  0  0  0  0  0  0  0
    0.3228   -2.4479    0.4452 H   0  0  0  0  0  0  0  0  0  0  0  0
    0.0713   -4.5191   -0.7913 H   0  0  0  0  0  0  0  0  0  0  0  0
    1.2875   -5.7569   -0.5890 H   0  0  0  0  0  0  0  0  0  0  0  0
    3.2932    1.7220    0.1067 N   0  0  0  0  0  0  0  0  0  0  0  0
    4.2462    2.7441    0.4753 C   0  0  2  0  0  0  0  0  0  0  0  0
    5.0349    2.2403    1.6768 C   0  0  0  0  0  0  0  0  0  0  0  0
    4.6168    1.3688    2.4362 O   0  0  0  0  0  0  0  0  0  0  0  0
    3.5518    4.0591    0.7935 C   0  0  0  0  0  0  0  0  0  0  0  0
    3.2356    1.4456   -0.8690 H   0  0  0  0  0  0  0  0  0  0  0  0
    4.9209    2.8701   -0.3784 H   0  0  0  0  0  0  0  0  0  0  0  0
    2.8715    3.9524    1.6464 H   0  0  0  0  0  0  0  0  0  0  0  0
    4.2770    4.8400    1.0449 H   0  0  0  0  0  0  0  0  0  0  0  0
    2.9610    4.4048   -0.0616 H   0  0  0  0  0  0  0  0  0  0  0  0
    6.2420    2.9088    1.8262 N   0  0  0  0  0  0  0  0  0  0  0  0
    7.1650    2.6210    2.8992 C   0  0  0  0  0  0  0  0  0  0  0  0
    6.5165    3.6041    1.1386 H   0  0  0  0  0  0  0  0  0  0  0  0
    6.9617    3.2904    3.7480 H   0  0  0  0  0  0  0  0  0  0  0  0
    7.0410    1.5757    3.2188 H   0  0  0  0  0  0  0  0  0  0  0  0
    8.1956    2.7772    2.5478 H   0  0  0  0  0  0  0  0  0  0  0  0
  1  3  1  0  0  0  0
  1  7  1  0  0  0  0
  1  2  2  0  0  0  0
 22 23  1  0  0  0  0
 23 25  1  0  0  0  0
 23 24  2  0  0  0  0
 35 36  1  0  0  0  0
 36 44  1  0  0  0  0
 36 37  2  0  0  0  0
  8  9  1  0  0  0  0
  9 17  1  0  0  0  0
  9 10  2  0  0  0  0
 18 19  1  0  0  0  0
 19 34  1  0  0  0  0
 19 20  2  0  0  0  0
 35 38  1  0  0  0  0
  8 11  1  0  0  0  0
 44 45  1  0  0  0  0
 21 22  1  0  0  0  0
 18 21  1  0  0  0  0
 34 35  1  0  0  0  0
  7  8  1  0  0  0  0
 17 18  1  0  0  0  0
  3  4  1  0  0  0  0
  3  5  1  0  0  0  0
  3  6  1  0  0  0  0
 38 41  1  0  0  0  0
 38 42  1  0  0  0  0
 38 43  1  0  0  0  0
 11 14  1  0  0  0  0
 11 15  1  0  0  0  0
 11 16  1  0  0  0  0
 45 47  1  0  0  0  0
 45 48  1  0  0  0  0
 45 49  1  0  0  0  0
 22 30  1  0  0  0  0
 22 31  1  0  0  0  0
 21 28  1  0  0  0  0
 21 29  1  0  0  0  0
 35 40  1  0  0  0  0
  8 13  1  0  0  0  0
 18 27  1  0  0  0  0
 25 32  1  0  0  0  0
 25 33  1  0  0  0  0
 44 46  1  0  0  0  0
  7 12  1  0  0  0  0
 34 39  1  0  0  0  0
 17 26  1  0  0  0  0
M  END
$$$$

  -OEChem-05262214473D

 49 48  0     1  0  0  0  0  0999 V2000
   -1.9833   -0.0509   -3.3423 C   0  0  0  0  0  0  0  0  0  0  0  0
   -1.6199   -1.0613   -2.7518 O   0  0  0  0  0  0  0  0  0  0  0  0
   -3.3243   -0.0235   -3.9975 C   0  0  0  0  0  0  0  0  0  0  0  0
   -3.2886   -0.3689   -5.0432 H   0  0  0  0  0  0  0  0  0  0  0  0
   -4.0503   -0.6845   -3.4973 H   0  0  0  0  0  0  0  0  0  0  0  0
   -3.8104    0.9645   -4.0351 H   0  0  0  0  0  0  0  0  0  0  0  0
   -1.2607    1.1231   -3.4768 N   0  0  0  0  0  0  0  0  0  0  0  0
    0.0536    1.3115   -2.9213 C   0  0  2  0  0  0  0  0  0  0  0  0
    0.0266    0.8315   -1.4761 C   0  0  0  0  0  0  0  0  0  0  0  0
   -1.0065    0.7530   -0.8146 O   0  0  0  0  0  0  0  0  0  0  0  0
    0.4852    2.7674   -3.0025 C   0  0  0  0  0  0  0  0  0  0  0  0
   -1.6809    1.8924   -3.9952 H   0  0  0  0  0  0  0  0  0  0  0  0
    0.7360    0.6822   -3.5030 H   0  0  0  0  0  0  0  0  0  0  0  0
   -0.1867    3.4133   -2.4256 H   0  0  0  0  0  0  0  0  0  0  0  0
    1.4966    2.9042   -2.6056 H   0  0  0  0  0  0  0  0  0  0  0  0
    0.4754    3.1196   -4.0397 H   0  0  0  0  0  0  0  0  0  0  0  0
    1.2978    0.5411   -0.9947 N   0  0  0  0  0  0  0  0  0  0  0  0
    1.5371    0.0807    0.3489 C   0  0  2  0  0  0  0  0  0  0  0  0
    2.4528    1.0991    1.0189 C   0  0  0  0  0  0  0  0  0  0  0  0
    2.5977    1.1684    2.2376 O   0  0  0  0  0  0  0  0  0  0  0  0
    2.1775   -1.3128    0.3781 C   0  0  0  0  0  0  0  0  0  0  0  0
    1.2523   -2.4184   -0.1343 C   0  0  0  0  0  0  0  0  0  0  0  0
    1.8917   -3.7944   -0.1291 C   0  0  0  0  0  0  0  0  0  0  0  0
    3.0606   -4.0069    0.1796 O   0  0  0  0  0  0  0  0  0  0  0  0
    1.0179   -4.7799   -0.5359 N   0  0  0  0  0  0  0  0  0  0  0  0
    2.0949    0.6178   -1.6227 H   0  0  0  0  0  0  0  0  0  0  0  0
    0.5679    0.0829    0.8589 H   0  0  0  0  0  0  0  0  0  0  0  0
    3.0844   -1.3059   -0.2413 H   0  0  0  0  0  0  0  0  0  0  0  0
    2.5064   -1.5542    1.3968 H   0  0  0  0  0  0  0  0  0  0  0  0
    0.9810   -2.1970   -1.1740 H   0  0  0  0  0  0  0  0  0  0  0  0
    0.3228   -2.4479    0.4452 H   0  0  0  0  0  0  0  0  0  0  0  0
    0.0713   -4.5191   -0.7913 H   0  0  0  0  0  0  0  0  0  0  0  0
    1.2875   -5.7569   -0.5890 H   0  0  0  0  0  0  0  0  0  0  0  0
    3.0467    1.9500    0.0971 N   0  0  0  0  0  0  0  0  0  0  0  0
    3.9437    3.0206    0.4685 C   0  0  2  0  0  0  0  0  0  0  0  0
    4.9842    2.4520    1.4244 C   0  0  0  0  0  0  0  0  0  0  0  0
    4.8004    1.4333    2.0872 O   0  0  0  0  0  0  0  0  0  0  0  0
    3.1907    4.1760    1.1093 C   0  0  0  0  0  0  0  0  0  0  0  0
    2.8405    1.8133   -0.8881 H   0  0  0  0  0  0  0  0  0  0  0  0
    4.4358    3.3544   -0.4515 H   0  0  0  0  0  0  0  0  0  0  0  0
    2.6910    3.8607    2.0326 H   0  0  0  0  0  0  0  0  0  0  0  0
    3.8677    4.9981    1.3641 H   0  0  0  0  0  0  0  0  0  0  0  0
    2.4227    4.5643    0.4317 H   0  0  0  0  0  0  0  0  0  0  0  0
    6.1252    3.2400    1.4825 N   0  0  0  0  0  0  0  0  0  0  0  0
    7.2520    2.9191    2.3270 C   0  0  0  0  0  0  0  0  0  0  0  0
    6.1991    4.0572    0.8838 H   0  0  0  0  0  0  0  0  0  0  0  0
    7.1405    3.4266    3.2966 H   0  0  0  0  0  0  0  0  0  0  0  0
    7.2935    1.8313    2.4852 H   0  0  0  0  0  0  0  0  0  0  0  0
    8.1807    3.2548    1.8423 H   0  0  0  0  0  0  0  0  0  0  0  0
  1  3  1  0  0  0  0
  1  7  1  0  0  0  0
  1  2  2  0  0  0  0
 22 23  1  0  0  0  0
 23 25  1  0  0  0  0
 23 24  2  0  0  0  0
 35 36  1  0  0  0  0
 36 44  1  0  0  0  0
 36 37  2  0  0  0  0
  8  9  1  0  0  0  0
  9 17  1  0  0  0  0
  9 10  2  0  0  0  0
 18 19  1  0  0  0  0
 19 34  1  0  0  0  0
 19 20  2  0  0  0  0
 35 38  1  0  0  0  0
  8 11  1  0  0  0  0
 44 45  1  0  0  0  0
 21 22  1  0  0  0  0
 18 21  1  0  0  0  0
 34 35  1  0  0  0  0
  7  8  1  0  0  0  0
 17 18  1  0  0  0  0
  3  4  1  0  0  0  0
  3  5  1  0  0  0  0
  3  6  1  0  0  0  0
 38 41  1  0  0  0  0
 38 42  1  0  0  0  0
 38 43  1  0  0  0  0
 11 14  1  0  0  0  0
 11 15  1  0  0  0  0
 11 16  1  0  0  0  0
 45 47  1  0  0  0  0
 45 48  1  0  0  0  0
 45 49  1  0  0  0  0
 22 30  1  0  0  0  0
 22 31  1  0  0  0  0
 21 28  1  0  0  0  0
 21 29  1  0  0  0  0
 35 40  1  0  0  0  0
  8 13  1  0  0  0  0
 18 27  1  0  0  0  0
 25 32  1  0  0  0  0
 25 33  1  0  0  0  0
 44 46  1  0  0  0  0
  7 12  1  0  0  0  0
 34 39  1  0  0  0  0
 17 26  1  0  0  0  0
M  END
$$$$

  -OEChem-05262214473D

 49 48  0     1  0  0  0  0  0999 V2000
   -1.9833   -0.0509   -3.3423 C   0  0  0  0  0  0  0  0  0  0  0  0
   -1.6199   -1.0613   -2.7518 O   0  0  0  0  0  0  0  0  0  0  0  0
   -3.3243   -0.0235   -3.9975 C   0  0  0  0  0  0  0  0  0  0  0  0
   -3.2886   -0.3689   -5.0432 H   0  0  0  0  0  0  0  0  0  0  0  0
   -4.0503   -0.6845   -3.4973 H   0  0  0  0  0  0  0  0  0  0  0  0
   -3.8104    0.9645   -4.0351 H   0  0  0  0  0  0  0  0  0  0  0  0
   -1.2607    1.1231   -3.4768 N   0  0  0  0  0  0  0  0  0  0  0  0
    0.0536    1.3115   -2.9213 C   0  0  2  0  0  0  0  0  0  0  0  0
    0.0266    0.8315   -1.4761 C   0  0  0  0  0  0  0  0  0  0  0  0
   -1.0065    0.7530   -0.8146 O   0  0  0  0  0  0  0  0  0  0  0  0
    0.4852    2.7674   -3.0025 C   0  0  0  0  0  0  0  0  0  0  0  0
   -1.6809    1.8924   -3.9952 H   0  0  0  0  0  0  0  0  0  0  0  0
    0.7360    0.6822   -3.5030 H   0  0  0  0  0  0  0  0  0  0  0  0
   -0.1867    3.4133   -2.4256 H   0  0  0  0  0  0  0  0  0  0  0  0
    1.4966    2.9042   -2.6056 H   0  0  0  0  0  0  0  0  0  0  0  0
    0.4754    3.1196   -4.0397 H   0  0  0  0  0  0  0  0  0  0  0  0
    1.2978    0.5411   -0.9947 N   0  0  0  0  0  0  0  0  0  0  0  0
    1.5371    0.0807    0.3489 C   0  0  2  0  0  0  0  0  0  0  0  0
    2.4528    1.0991    1.0189 C   0  0  0  0  0  0  0  0  0  0  0  0
    2.8093    1.0083    2.1918 O   0  0  0  0  0  0  0  0  0  0  0  0
    2.1775   -1.3128    0.3781 C   0  0  0  0  0  0  0  0  0  0  0  0
    1.2523   -2.4184   -0.1343 C   0  0  0  0  0  0  0  0  0  0  0  0
    1.8917   -3.7944   -0.1291 C   0  0  0  0  0  0  0  0  0  0  0  0
    3.0606   -4.0069    0.1796 O   0  0  0  0  0  0  0  0  0  0  0  0
    1.0179   -4.7799   -0.5359 N   0  0  0  0  0  0  0  0  0  0  0  0
    2.0949    0.6178   -1.6227 H   0  0  0  0  0  0  0  0  0  0  0  0
    0.5679    0.0829    0.8589 H   0  0  0  0  0  0  0  0  0  0  0  0
    3.0844   -1.3059   -0.2413 H   0  0  0  0  0  0  0  0  0  0  0  0
    2.5064   -1.5542    1.3968 H   0  0  0  0  0  0  0  0  0  0  0  0
    0.9810   -2.1970   -1.1740 H   0  0  0  0  0  0  0  0  0  0  0  0
    0.3228   -2.4479    0.4452 H   0  0  0  0  0  0  0  0  0  0  0  0
    0.0713   -4.5191   -0.7913 H   0  0  0  0  0  0  0  0  0  0  0  0
    1.2875   -5.7569   -0.5890 H   0  0  0  0  0  0  0  0  0  0  0  0
    2.7809    2.1436    0.1659 N   0  0  0  0  0  0  0  0  0  0  0  0
    3.6188    3.2543    0.5572 C   0  0  2  0  0  0  0  0  0  0  0  0
    4.8674    2.6900    1.2222 C   0  0  0  0  0  0  0  0  0  0  0  0
    4.9101    1.5707    1.7284 O   0  0  0  0  0  0  0  0  0  0  0  0
    2.8832    4.1988    1.4950 C   0  0  0  0  0  0  0  0  0  0  0  0
    2.4138    2.1266   -0.7810 H   0  0  0  0  0  0  0  0  0  0  0  0
    3.8995    3.7783   -0.3629 H   0  0  0  0  0  0  0  0  0  0  0  0
    2.5939    3.6915    2.4226 H   0  0  0  0  0  0  0  0  0  0  0  0
    3.5095    5.0545    1.7679 H   0  0  0  0  0  0  0  0  0  0  0  0
    1.9698    4.5805    1.0261 H   0  0  0  0  0  0  0  0  0  0  0  0
    5.9153    3.6000    1.2221 N   0  0  0  0  0  0  0  0  0  0  0  0
    7.2033    3.3060    1.8056 C   0  0  0  0  0  0  0  0  0  0  0  0
    5.7969    4.4983    0.7629 H   0  0  0  0  0  0  0  0  0  0  0  0
    7.2197    3.6486    2.8508 H   0  0  0  0  0  0  0  0  0  0  0  0
    7.3815    2.2210    1.7727 H   0  0  0  0  0  0  0  0  0  0  0  0
    7.9899    3.8241    1.2376 H   0  0  0  0  0  0  0  0  0  0  0  0
  1  3  1  0  0  0  0
  1  7  1  0  0  0  0
  1  2  2  0  0  0  0
 22 23  1  0  0  0  0
 23 25  1  0  0  0  0
 23 24  2  0  0  0  0
 35 36  1  0  0  0  0
 36 44  1  0  0  0  0
 36 37  2  0  0  0  0
  8  9  1  0  0  0  0
  9 17  1  0  0  0  0
  9 10  2  0  0  0  0
 18 19  1  0  0  0  0
 19 34  1  0  0  0  0
 19 20  2  0  0  0  0
 35 38  1  0  0  0  0
  8 11  1  0  0  0  0
 44 45  1  0  0  0  0
 21 22  1  0  0  0  0
 18 21  1  0  0  0  0
 34 35  1  0  0  0  0
  7  8  1  0  0  0  0
 17 18  1  0  0  0  0
  3  4  1  0  0  0  0
  3  5  1  0  0  0  0
  3  6  1  0  0  0  0
 38 41  1  0  0  0  0
 38 42  1  0  0  0  0
 38 43  1  0  0  0  0
 11 14  1  0  0  0  0
 11 15  1  0  0  0  0
 11 16  1  0  0  0  0
 45 47  1  0  0  0  0
 45 48  1  0  0  0  0
 45 49  1  0  0  0  0
 22 30  1  0  0  0  0
 22 31  1  0  0  0  0
 21 28  1  0  0  0  0
 21 29  1  0  0  0  0
 35 40  1  0  0  0  0
  8 13  1  0  0  0  0
 18 27  1  0  0  0  0
 25 32  1  0  0  0  0
 25 33  1  0  0  0  0
 44 46  1  0  0  0  0
  7 12  1  0  0  0  0
 34 39  1  0  0  0  0
 17 26  1  0  0  0  0
M  END
$$$$

  -OEChem-05262214473D

 49 48  0     1  0  0  0  0  0999 V2000
   -1.9833   -0.0509   -3.3423 C   0  0  0  0  0  0  0  0  0  0  0  0
   -1.6199   -1.0613   -2.7518 O   0  0  0  0  0  0  0  0  0  0  0  0
   -3.3243   -0.0235   -3.9975 C   0  0  0  0  0  0  0  0  0  0  0  0
   -3.2886   -0.3689   -5.0432 H   0  0  0  0  0  0  0  0  0  0  0  0
   -4.0503   -0.6845   -3.4973 H   0  0  0  0  0  0  0  0  0  0  0  0
   -3.8104    0.9645   -4.0351 H   0  0  0  0  0  0  0  0  0  0  0  0
   -1.2607    1.1231   -3.4768 N   0  0  0  0  0  0  0  0  0  0  0  0
    0.0536    1.3115   -2.9213 C   0  0  2  0  0  0  0  0  0  0  0  0
    0.0266    0.8315   -1.4761 C   0  0  0  0  0  0  0  0  0  0  0  0
   -1.0065    0.7530   -0.8146 O   0  0  0  0  0  0  0  0  0  0  0  0
    0.4852    2.7674   -3.0025 C   0  0  0  0  0  0  0  0  0  0  0  0
   -1.6809    1.8924   -3.9952 H   0  0  0  0  0  0  0  0  0  0  0  0
    0.7360    0.6822   -3.5030 H   0  0  0  0  0  0  0  0  0  0  0  0
   -0.1867    3.4133   -2.4256 H   0  0  0  0  0  0  0  0  0  0  0  0
    1.4966    2.9042   -2.6056 H   0  0  0  0  0  0  0  0  0  0  0  0
    0.4754    3.1196   -4.0397 H   0  0  0  0  0  0  0  0  0  0  0  0
    1.2978    0.5411   -0.9947 N   0  0  0  0  0  0  0  0  0  0  0  0
    1.5371    0.0807    0.3489 C   0  0  2  0  0  0  0  0  0  0  0  0
    2.4528    1.0991    1.0189 C   0  0  0  0  0  0  0  0  0  0  0  0
    3.0239    0.8849    2.0861 O   0  0  0  0  0  0  0  0  0  0  0  0
    2.1775   -1.3128    0.3781 C   0  0  0  0  0  0  0  0  0  0  0  0
    1.2523   -2.4184   -0.1343 C   0  0  0  0  0  0  0  0  0  0  0  0
    1.8917   -3.7944   -0.1291 C   0  0  0  0  0  0  0  0  0  0  0  0
    3.0606   -4.0069    0.1796 O   0  0  0  0  0  0  0  0  0  0  0  0
    1.0179   -4.7799   -0.5359 N   0  0  0  0  0  0  0  0  0  0  0  0
    2.0949    0.6178   -1.6227 H   0  0  0  0  0  0  0  0  0  0  0  0
    0.5679    0.0829    0.8589 H   0  0  0  0  0  0  0  0  0  0  0  0
    3.0844   -1.3059   -0.2413 H   0  0  0  0  0  0  0  0  0  0  0  0
    2.5064   -1.5542    1.3968 H   0  0  0  0  0  0  0  0  0  0  0  0
    0.9810   -2.1970   -1.1740 H   0  0  0  0  0  0  0  0  0  0  0  0
    0.3228   -2.4479    0.4452 H   0  0  0  0  0  0  0  0  0  0  0  0
    0.0713   -4.5191   -0.7913 H   0  0  0  0  0  0  0  0  0  0  0  0
    1.2875   -5.7569   -0.5890 H   0  0  0  0  0  0  0  0  0  0  0  0
    2.5141    2.2898    0.3084 N   0  0  0  0  0  0  0  0  0  0  0  0
    3.2938    3.4293    0.7354 C   0  0  2  0  0  0  0  0  0  0  0  0
    4.6926    2.9381    1.0841 C   0  0  0  0  0  0  0  0  0  0  0  0
    4.9384    1.7716    1.3842 O   0  0  0  0  0  0  0  0  0  0  0  0
    2.6502    4.1259    1.9242 C   0  0  0  0  0  0  0  0  0  0  0  0
    1.9845    2.3640   -0.5551 H   0  0  0  0  0  0  0  0  0  0  0  0
    3.3486    4.1130   -0.1187 H   0  0  0  0  0  0  0  0  0  0  0  0
    2.5867    3.4564    2.7898 H   0  0  0  0  0  0  0  0  0  0  0  0
    3.2269    5.0056    2.2285 H   0  0  0  0  0  0  0  0  0  0  0  0
    1.6333    4.4522    1.6811 H   0  0  0  0  0  0  0  0  0  0  0  0
    5.6265    3.9644    1.0628 N   0  0  0  0  0  0  0  0  0  0  0  0
    7.0221    3.7551    1.3706 C   0  0  0  0  0  0  0  0  0  0  0  0
    5.3374    4.8975    0.7843 H   0  0  0  0  0  0  0  0  0  0  0  0
    7.1940    3.9414    2.4410 H   0  0  0  0  0  0  0  0  0  0  0  0
    7.2990    2.7181    1.1299 H   0  0  0  0  0  0  0  0  0  0  0  0
    7.6364    4.4463    0.7750 H   0  0  0  0  0  0  0  0  0  0  0  0
  1  3  1  0  0  0  0
  1  7  1  0  0  0  0
  1  2  2  0  0  0  0
 22 23  1  0  0  0  0
 23 25  1  0  0  0  0
 23 24  2  0  0  0  0
 35 36  1  0  0  0  0
 36 44  1  0  0  0  0
 36 37  2  0  0  0  0
  8  9  1  0  0  0  0
  9 17  1  0  0  0  0
  9 10  2  0  0  0  0
 18 19  1  0  0  0  0
 19 34  1  0  0  0  0
 19 20  2  0  0  0  0
 35 38  1  0  0  0  0
  8 11  1  0  0  0  0
 44 45  1  0  0  0  0
 21 22  1  0  0  0  0
 18 21  1  0  0  0  0
 34 35  1  0  0  0  0
  7  8  1  0  0  0  0
 17 18  1  0  0  0  0
  3  4  1  0  0  0  0
  3  5  1  0  0  0  0
  3  6  1  0  0  0  0
 38 41  1  0  0  0  0
 38 42  1  0  0  0  0
 38 43  1  0  0  0  0
 11 14  1  0  0  0  0
 11 15  1  0  0  0  0
 11 16  1  0  0  0  0
 45 47  1  0  0  0  0
 45 48  1  0  0  0  0
 45 49  1  0  0  0  0
 22 30  1  0  0  0  0
 22 31  1  0  0  0  0
 21 28  1  0  0  0  0
 21 29  1  0  0  0  0
 35 40  1  0  0  0  0
  8 13  1  0  0  0  0
 18 27  1  0  0  0  0
 25 32  1  0  0  0  0
 25 33  1  0  0  0  0
 44 46  1  0  0  0  0
  7 12  1  0  0  0  0
 34 39  1  0  0  0  0
 17 26  1  0  0  0  0
M  END
$$$$

  -OEChem-05262214473D

 49 48  0     1  0  0  0  0  0999 V2000
   -1.9833   -0.0509   -3.3423 C   0  0  0  0  0  0  0  0  0  0  0  0
   -1.6199   -1.0613   -2.7518 O   0  0  0  0  0  0  0  0  0  0  0  0
   -3.3243   -0.0235   -3.9975 C   0  0  0  0  0  0  0  0  0  0  0  0
   -3.2886   -0.3689   -5.0432 H   0  0  0  0  0  0  0  0  0  0  0  0
   -4.0503   -0.6845   -3.4973 H   0  0  0  0  0  0  0  0  0  0  0  0
   -3.8104    0.9645   -4.0351 H   0  0  0  0  0  0  0  0  0  0  0  0
   -1.2607    1.1231   -3.4768 N   0  0  0  0  0  0  0  0  0  0  0  0
    0.0536    1.3115   -2.9213 C   0  0  2  0  0  0  0  0  0  0  0  0
    0.0266    0.8315   -1.4761 C   0  0  0  0  0  0  0  0  0  0  0  0
   -1.0065    0.7530   -0.8146 O   0  0  0  0  0  0  0  0  0  0  0  0
    0.4852    2.7674   -3.0025 C   0  0  0  0  0  0  0  0  0  0  0  0
   -1.6809    1.8924   -3.9952 H   0  0  0  0  0  0  0  0  0  0  0  0
    0.7360    0.6822   -3.5030 H   0  0  0  0  0  0  0  0  0  0  0  0
   -0.1867    3.4133   -2.4256 H   0  0  0  0  0  0  0  0  0  0  0  0
    1.4966    2.9042   -2.6056 H   0  0  0  0  0  0  0  0  0  0  0  0
    0.4754    3.1196   -4.0397 H   0  0  0  0  0  0  0  0  0  0  0  0
    1.2978    0.5411   -0.9947 N   0  0  0  0  0  0  0  0  0  0  0  0
    1.5371    0.0807    0.3489 C   0  0  2  0  0  0  0  0  0  0  0  0
    2.4528    1.0991    1.0189 C   0  0  0  0  0  0  0  0  0  0  0  0
    3.2270    0.8064    1.9277 O   0  0  0  0  0  0  0  0  0  0  0  0
    2.1775   -1.3128    0.3781 C   0  0  0  0  0  0  0  0  0  0  0  0
    1.2523   -2.4184   -0.1343 C   0  0  0  0  0  0  0  0  0  0  0  0
    1.8917   -3.7944   -0.1291 C   0  0  0  0  0  0  0  0  0  0  0  0
    3.0606   -4.0069    0.1796 O   0  0  0  0  0  0  0  0  0  0  0  0
    1.0179   -4.7799   -0.5359 N   0  0  0  0  0  0  0  0  0  0  0  0
    2.0949    0.6178   -1.6227 H   0  0  0  0  0  0  0  0  0  0  0  0
    0.5679    0.0829    0.8589 H   0  0  0  0  0  0  0  0  0  0  0  0
    3.0844   -1.3059   -0.2413 H   0  0  0  0  0  0  0  0  0  0  0  0
    2.5064   -1.5542    1.3968 H   0  0  0  0  0  0  0  0  0  0  0  0
    0.9810   -2.1970   -1.1740 H   0  0  0  0  0  0  0  0  0  0  0  0
    0.3228   -2.4479    0.4452 H   0  0  0  0  0  0  0  0  0  0  0  0
    0.0713   -4.5191   -0.7913 H   0  0  0  0  0  0  0  0  0  0  0  0
    1.2875   -5.7569   -0.5890 H   0  0  0  0  0  0  0  0  0  0  0  0
    2.2644    2.3785    0.5149 N   0  0  0  0  0  0  0  0  0  0  0  0
    2.9907    3.5337    0.9909 C   0  0  2  0  0  0  0  0  0  0  0  0
    4.4716    3.1792    1.0195 C   0  0  0  0  0  0  0  0  0  0  0  0
    4.8834    2.0225    1.0781 O   0  0  0  0  0  0  0  0  0  0  0  0
    2.5077    3.9622    2.3678 C   0  0  0  0  0  0  0  0  0  0  0  0
    1.5818    2.5094   -0.2258 H   0  0  0  0  0  0  0  0  0  0  0  0
    2.8206    4.3357    0.2644 H   0  0  0  0  0  0  0  0  0  0  0  0
    2.6699    3.1714    3.1092 H   0  0  0  0  0  0  0  0  0  0  0  0
    3.0391    4.8546    2.7147 H   0  0  0  0  0  0  0  0  0  0  0  0
    1.4360    4.1882    2.3520 H   0  0  0  0  0  0  0  0  0  0  0  0
    5.2787    4.3083    1.0155 N   0  0  0  0  0  0  0  0  0  0  0  0
    6.7207    4.2360    1.0515 C   0  0  0  0  0  0  0  0  0  0  0  0
    4.8518    5.2274    0.9465 H   0  0  0  0  0  0  0  0  0  0  0  0
    7.0649    4.2850    2.0951 H   0  0  0  0  0  0  0  0  0  0  0  0
    7.0516    3.2888    0.6005 H   0  0  0  0  0  0  0  0  0  0  0  0
    7.1442    5.0791    0.4859 H   0  0  0  0  0  0  0  0  0  0  0  0
  1  3  1  0  0  0  0
  1  7  1  0  0  0  0
  1  2  2  0  0  0  0
 22 23  1  0  0  0  0
 23 25  1  0  0  0  0
 23 24  2  0  0  0  0
 35 36  1  0  0  0  0
 36 44  1  0  0  0  0
 36 37  2  0  0  0  0
  8  9  1  0  0  0  0
  9 17  1  0  0  0  0
  9 10  2  0  0  0  0
 18 19  1  0  0  0  0
 19 34  1  0  0  0  0
 19 20  2  0  0  0  0
 35 38  1  0  0  0  0
  8 11  1  0  0  0  0
 44 45  1  0  0  0  0
 21 22  1  0  0  0  0
 18 21  1  0  0  0  0
 34 35  1  0  0  0  0
  7  8  1  0  0  0  0
 17 18  1  0  0  0  0
  3  4  1  0  0  0  0
  3  5  1  0  0  0  0
  3  6  1  0  0  0  0
 38 41  1  0  0  0  0
 38 42  1  0  0  0  0
 38 43  1  0  0  0  0
 11 14  1  0  0  0  0
 11 15  1  0  0  0  0
 11 16  1  0  0  0  0
 45 47  1  0  0  0  0
 45 48  1  0  0  0  0
 45 49  1  0  0  0  0
 22 30  1  0  0  0  0
 22 31  1  0  0  0  0
 21 28  1  0  0  0  0
 21 29  1  0  0  0  0
 35 40  1  0  0  0  0
  8 13  1  0  0  0  0
 18 27  1  0  0  0  0
 25 32  1  0  0  0  0
 25 33  1  0  0  0  0
 44 46  1  0  0  0  0
  7 12  1  0  0  0  0
 34 39  1  0  0  0  0
 17 26  1  0  0  0  0
M  END
$$$$

  -OEChem-05262214473D

 49 48  0     1  0  0  0  0  0999 V2000
   -1.9833   -0.0509   -3.3423 C   0  0  0  0  0  0  0  0  0  0  0  0
   -1.6199   -1.0613   -2.7518 O   0  0  0  0  0  0  0  0  0  0  0  0
   -3.3243   -0.0235   -3.9975 C   0  0  0  0  0  0  0  0  0  0  0  0
   -3.2886   -0.3689   -5.0432 H   0  0  0  0  0  0  0  0  0  0  0  0
   -4.0503   -0.6845   -3.4973 H   0  0  0  0  0  0  0  0  0  0  0  0
   -3.8104    0.9645   -4.0351 H   0  0  0  0  0  0  0  0  0  0  0  0
   -1.2607    1.1231   -3.4768 N   0  0  0  0  0  0  0  0  0  0  0  0
    0.0536    1.3115   -2.9213 C   0  0  2  0  0  0  0  0  0  0  0  0
    0.0266    0.8315   -1.4761 C   0  0  0  0  0  0  0  0  0  0  0  0
   -1.0065    0.7530   -0.8146 O   0  0  0  0  0  0  0  0  0  0  0  0
    0.4852    2.7674   -3.0025 C   0  0  0  0  0  0  0  0  0  0  0  0
   -1.6809    1.8924   -3.9952 H   0  0  0  0  0  0  0  0  0  0  0  0
    0.7360    0.6822   -3.5030 H   0  0  0  0  0  0  0  0  0  0  0  0
   -0.1867    3.4133   -2.4256 H   0  0  0  0  0  0  0  0  0  0  0  0
    1.4966    2.9042   -2.6056 H   0  0  0  0  0  0  0  0  0  0  0  0
    0.4754    3.1196   -4.0397 H   0  0  0  0  0  0  0  0  0  0  0  0
    1.2978    0.5411   -0.9947 N   0  0  0  0  0  0  0  0  0  0  0  0
    1.5371    0.0807    0.3489 C   0  0  2  0  0  0  0  0  0  0  0  0
    2.4528    1.0991    1.0189 C   0  0  0  0  0  0  0  0  0  0  0  0
    3.4047    0.7784    1.7274 O   0  0  0  0  0  0  0  0  0  0  0  0
    2.1775   -1.3128    0.3781 C   0  0  0  0  0  0  0  0  0  0  0  0
    1.2523   -2.4184   -0.1343 C   0  0  0  0  0  0  0  0  0  0  0  0
    1.8917   -3.7944   -0.1291 C   0  0  0  0  0  0  0  0  0  0  0  0
    3.0606   -4.0069    0.1796 O   0  0  0  0  0  0  0  0  0  0  0  0
    1.0179   -4.7799   -0.5359 N   0  0  0  0  0  0  0  0  0  0  0  0
    2.0949    0.6178   -1.6227 H   0  0  0  0  0  0  0  0  0  0  0  0
    0.5679    0.0829    0.8589 H   0  0  0  0  0  0  0  0  0  0  0  0
    3.0844   -1.3059   -0.2413 H   0  0  0  0  0  0  0  0  0  0  0  0
    2.5064   -1.5542    1.3968 H   0  0  0  0  0  0  0  0  0  0  0  0
    0.9810   -2.1970   -1.1740 H   0  0  0  0  0  0  0  0  0  0  0  0
    0.3228   -2.4479    0.4452 H   0  0  0  0  0  0  0  0  0  0  0  0
    0.0713   -4.5191   -0.7913 H   0  0  0  0  0  0  0  0  0  0  0  0
    1.2875   -5.7569   -0.5890 H   0  0  0  0  0  0  0  0  0  0  0  0
    2.0488    2.4036    0.7713 N   0  0  0  0  0  0  0  0  0  0  0  0
    2.7303    3.5604    1.3063 C   0  0  2  0  0  0  0  0  0  0  0  0
    4.2196    3.3971    1.0328 C   0  0  0  0  0  0  0  0  0  0  0  0
    4.7489    2.3061    0.8309 O   0  0  0  0  0  0  0  0  0  0  0  0
    2.4653    3.7190    2.7954 C   0  0  0  0  0  0  0  0  0  0  0  0
    1.2333    2.5529    0.1845 H   0  0  0  0  0  0  0  0  0  0  0  0
    2.3514    4.4313    0.7604 H   0  0  0  0  0  0  0  0  0  0  0  0
    2.8380    2.8559    3.3590 H   0  0  0  0  0  0  0  0  0  0  0  0
    2.9590    4.6117    3.1934 H   0  0  0  0  0  0  0  0  0  0  0  0
    1.3915    3.8064    2.9930 H   0  0  0  0  0  0  0  0  0  0  0  0
    4.8954    4.6083    1.0835 N   0  0  0  0  0  0  0  0  0  0  0  0
    6.3198    4.7158    0.8702 C   0  0  0  0  0  0  0  0  0  0  0  0
    4.3733    5.4657    1.2383 H   0  0  0  0  0  0  0  0  0  0  0  0
    6.8414    4.6559    1.8368 H   0  0  0  0  0  0  0  0  0  0  0  0
    6.6562    3.8943    0.2206 H   0  0  0  0  0  0  0  0  0  0  0  0
    6.5468    5.6792    0.3902 H   0  0  0  0  0  0  0  0  0  0  0  0
  1  3  1  0  0  0  0
  1  7  1  0  0  0  0
  1  2  2  0  0  0  0
 22 23  1  0  0  0  0
 23 25  1  0  0  0  0
 23 24  2  0  0  0  0
 35 36  1  0  0  0  0
 36 44  1  0  0  0  0
 36 37  2  0  0  0  0
  8  9  1  0  0  0  0
  9 17  1  0  0  0  0
  9 10  2  0  0  0  0
 18 19  1  0  0  0  0
 19 34  1  0  0  0  0
 19 20  2  0  0  0  0
 35 38  1  0  0  0  0
  8 11  1  0  0  0  0
 44 45  1  0  0  0  0
 21 22  1  0  0  0  0
 18 21  1  0  0  0  0
 34 35  1  0  0  0  0
  7  8  1  0  0  0  0
 17 18  1  0  0  0  0
  3  4  1  0  0  0  0
  3  5  1  0  0  0  0
  3  6  1  0  0  0  0
 38 41  1  0  0  0  0
 38 42  1  0  0  0  0
 38 43  1  0  0  0  0
 11 14  1  0  0  0  0
 11 15  1  0  0  0  0
 11 16  1  0  0  0  0
 45 47  1  0  0  0  0
 45 48  1  0  0  0  0
 45 49  1  0  0  0  0
 22 30  1  0  0  0  0
 22 31  1  0  0  0  0
 21 28  1  0  0  0  0
 21 29  1  0  0  0  0
 35 40  1  0  0  0  0
  8 13  1  0  0  0  0
 18 27  1  0  0  0  0
 25 32  1  0  0  0  0
 25 33  1  0  0  0  0
 44 46  1  0  0  0  0
  7 12  1  0  0  0  0
 34 39  1  0  0  0  0
 17 26  1  0  0  0  0
M  END
$$$$

  -OEChem-05262214473D

 49 48  0     1  0  0  0  0  0999 V2000
   -1.9833   -0.0509   -3.3423 C   0  0  0  0  0  0  0  0  0  0  0  0
   -1.6199   -1.0613   -2.7518 O   0  0  0  0  0  0  0  0  0  0  0  0
   -3.3243   -0.0235   -3.9975 C   0  0  0  0  0  0  0  0  0  0  0  0
   -3.2886   -0.3689   -5.0432 H   0  0  0  0  0  0  0  0  0  0  0  0
   -4.0503   -0.6845   -3.4973 H   0  0  0  0  0  0  0  0  0  0  0  0
   -3.8104    0.9645   -4.0351 H   0  0  0  0  0  0  0  0  0  0  0  0
   -1.2607    1.1231   -3.4768 N   0  0  0  0  0  0  0  0  0  0  0  0
    0.0536    1.3115   -2.9213 C   0  0  2  0  0  0  0  0  0  0  0  0
    0.0266    0.8315   -1.4761 C   0  0  0  0  0  0  0  0  0  0  0  0
   -1.0065    0.7530   -0.8146 O   0  0  0  0  0  0  0  0  0  0  0  0
    0.4852    2.7674   -3.0025 C   0  0  0  0  0  0  0  0  0  0  0  0
   -1.6809    1.8924   -3.9952 H   0  0  0  0  0  0  0  0  0  0  0  0
    0.7360    0.6822   -3.5030 H   0  0  0  0  0  0  0  0  0  0  0  0
   -0.1867    3.4133   -2.4256 H   0  0  0  0  0  0  0  0  0  0  0  0
    1.4966    2.9042   -2.6056 H   0  0  0  0  0  0  0  0  0  0  0  0
    0.4754    3.1196   -4.0397 H   0  0  0  0  0  0  0  0  0  0  0  0
    1.2978    0.5411   -0.9947 N   0  0  0  0  0  0  0  0  0  0  0  0
    1.5371    0.0807    0.3489 C   0  0  2  0  0  0  0  0  0  0  0  0
    2.4528    1.0991    1.0189 C   0  0  0  0  0  0  0  0  0  0  0  0
    3.5449    0.8027    1.4989 O   0  0  0  0  0  0  0  0  0  0  0  0
    2.1775   -1.3128    0.3781 C   0  0  0  0  0  0  0  0  0  0  0  0
    1.2523   -2.4184   -0.1343 C   0  0  0  0  0  0  0  0  0  0  0  0
    1.8917   -3.7944   -0.1291 C   0  0  0  0  0  0  0  0  0  0  0  0
    3.0606   -4.0069    0.1796 O   0  0  0  0  0  0  0  0  0  0  0  0
    1.0179   -4.7799   -0.5359 N   0  0  0  0  0  0  0  0  0  0  0  0
    2.0949    0.6178   -1.6227 H   0  0  0  0  0  0  0  0  0  0  0  0
    0.5679    0.0829    0.8589 H   0  0  0  0  0  0  0  0  0  0  0  0
    3.0844   -1.3059   -0.2413 H   0  0  0  0  0  0  0  0  0  0  0  0
    2.5064   -1.5542    1.3968 H   0  0  0  0  0  0  0  0  0  0  0  0
    0.9810   -2.1970   -1.1740 H   0  0  0  0  0  0  0  0  0  0  0  0
    0.3228   -2.4479    0.4452 H   0  0  0  0  0  0  0  0  0  0  0  0
    0.0713   -4.5191   -0.7913 H   0  0  0  0  0  0  0  0  0  0  0  0
    1.2875   -5.7569   -0.5890 H   0  0  0  0  0  0  0  0  0  0  0  0
    1.8820    2.3636    1.0601 N   0  0  0  0  0  0  0  0  0  0  0  0
    2.5302    3.5075    1.6602 C   0  0  2  0  0  0  0  0  0  0  0  0
    3.9537    3.5768    1.1231 C   0  0  0  0  0  0  0  0  0  0  0  0
    4.5439    2.6032    0.6595 O   0  0  0  0  0  0  0  0  0  0  0  0
    2.5260    3.4128    3.1780 C   0  0  0  0  0  0  0  0  0  0  0  0
    0.9626    2.4914    0.6479 H   0  0  0  0  0  0  0  0  0  0  0  0
    1.9732    4.3931    1.3354 H   0  0  0  0  0  0  0  0  0  0  0  0
    3.0794    2.5315    3.5222 H   0  0  0  0  0  0  0  0  0  0  0  0
    2.9919    4.2937    3.6318 H   0  0  0  0  0  0  0  0  0  0  0  0
    1.5027    3.3330    3.5606 H   0  0  0  0  0  0  0  0  0  0  0  0
    4.5028    4.8438    1.2620 N   0  0  0  0  0  0  0  0  0  0  0  0
    5.8466    5.1619    0.8389 C   0  0  0  0  0  0  0  0  0  0  0  0
    3.9344    5.5960    1.6400 H   0  0  0  0  0  0  0  0  0  0  0  0
    6.5386    5.0290    1.6835 H   0  0  0  0  0  0  0  0  0  0  0  0
    6.1397    4.4932    0.0161 H   0  0  0  0  0  0  0  0  0  0  0  0
    5.8850    6.2058    0.4943 H   0  0  0  0  0  0  0  0  0  0  0  0
  1  3  1  0  0  0  0
  1  7  1  0  0  0  0
  1  2  2  0  0  0  0
 22 23  1  0  0  0  0
 23 25  1  0  0  0  0
 23 24  2  0  0  0  0
 35 36  1  0  0  0  0
 36 44  1  0  0  0  0
 36 37  2  0  0  0  0
  8  9  1  0  0  0  0
  9 17  1  0  0  0  0
  9 10  2  0  0  0  0
 18 19  1  0  0  0  0
 19 34  1  0  0  0  0
 19 20  2  0  0  0  0
 35 38  1  0  0  0  0
  8 11  1  0  0  0  0
 44 45  1  0  0  0  0
 21 22  1  0  0  0  0
 18 21  1  0  0  0  0
 34 35  1  0  0  0  0
  7  8  1  0  0  0  0
 17 18  1  0  0  0  0
  3  4  1  0  0  0  0
  3  5  1  0  0  0  0
  3  6  1  0  0  0  0
 38 41  1  0  0  0  0
 38 42  1  0  0  0  0
 38 43  1  0  0  0  0
 11 14  1  0  0  0  0
 11 15  1  0  0  0  0
 11 16  1  0  0  0  0
 45 47  1  0  0  0  0
 45 48  1  0  0  0  0
 45 49  1  0  0  0  0
 22 30  1  0  0  0  0
 22 31  1  0  0  0  0
 21 28  1  0  0  0  0
 21 29  1  0  0  0  0
 35 40  1  0  0  0  0
  8 13  1  0  0  0  0
 18 27  1  0  0  0  0
 25 32  1  0  0  0  0
 25 33  1  0  0  0  0
 44 46  1  0  0  0  0
  7 12  1  0  0  0  0
 34 39  1  0  0  0  0
 17 26  1  0  0  0  0
M  END
$$$$

  -OEChem-05262214473D

 49 48  0     1  0  0  0  0  0999 V2000
   -1.9833   -0.0509   -3.3423 C   0  0  0  0  0  0  0  0  0  0  0  0
   -1.6199   -1.0613   -2.7518 O   0  0  0  0  0  0  0  0  0  0  0  0
   -3.3243   -0.0235   -3.9975 C   0  0  0  0  0  0  0  0  0  0  0  0
   -3.2886   -0.3689   -5.0432 H   0  0  0  0  0  0  0  0  0  0  0  0
   -4.0503   -0.6845   -3.4973 H   0  0  0  0  0  0  0  0  0  0  0  0
   -3.8104    0.9645   -4.0351 H   0  0  0  0  0  0  0  0  0  0  0  0
   -1.2607    1.1231   -3.4768 N   0  0  0  0  0  0  0  0  0  0  0  0
    0.0536    1.3115   -2.9213 C   0  0  2  0  0  0  0  0  0  0  0  0
    0.0266    0.8315   -1.4761 C   0  0  0  0  0  0  0  0  0  0  0  0
   -1.0065    0.7530   -0.8146 O   0  0  0  0  0  0  0  0  0  0  0  0
    0.4852    2.7674   -3.0025 C   0  0  0  0  0  0  0  0  0  0  0  0
   -1.6809    1.8924   -3.9952 H   0  0  0  0  0  0  0  0  0  0  0  0
    0.7360    0.6822   -3.5030 H   0  0  0  0  0  0  0  0  0  0  0  0
   -0.1867    3.4133   -2.4256 H   0  0  0  0  0  0  0  0  0  0  0  0
    1.4966    2.9042   -2.6056 H   0  0  0  0  0  0  0  0  0  0  0  0
    0.4754    3.1196   -4.0397 H   0  0  0  0  0  0  0  0  0  0  0  0
    1.2978    0.5411   -0.9947 N   0  0  0  0  0  0  0  0  0  0  0  0
    1.5371    0.0807    0.3489 C   0  0  2  0  0  0  0  0  0  0  0  0
    2.4528    1.0991    1.0189 C   0  0  0  0  0  0  0  0  0  0  0  0
    3.6381    0.8776    1.2577 O   0  0  0  0  0  0  0  0  0  0  0  0
    2.1775   -1.3128    0.3781 C   0  0  0  0  0  0  0  0  0  0  0  0
    1.2523   -2.4184   -0.1343 C   0  0  0  0  0  0  0  0  0  0  0  0
    1.8917   -3.7944   -0.1291 C   0  0  0  0  0  0  0  0  0  0  0  0
    3.0606   -4.0069    0.1796 O   0  0  0  0  0  0  0  0  0  0  0  0
    1.0179   -4.7799   -0.5359 N   0  0  0  0  0  0  0  0  0  0  0  0
    2.0949    0.6178   -1.6227 H   0  0  0  0  0  0  0  0  0  0  0  0
    0.5679    0.0829    0.8589 H   0  0  0  0  0  0  0  0  0  0  0  0
    3.0844   -1.3059   -0.2413 H   0  0  0  0  0  0  0  0  0  0  0  0
    2.5064   -1.5542    1.3968 H   0  0  0  0  0  0  0  0  0  0  0  0
    0.9810   -2.1970   -1.1740 H   0  0  0  0  0  0  0  0  0  0  0  0
    0.3228   -2.4479    0.4452 H   0  0  0  0  0  0  0  0  0  0  0  0
    0.0713   -4.5191   -0.7913 H   0  0  0  0  0  0  0  0  0  0  0  0
    1.2875   -5.7569   -0.5890 H   0  0  0  0  0  0  0  0  0  0  0  0
    1.7754    2.2610    1.3617 N   0  0  0  0  0  0  0  0  0  0  0  0
    2.4042    3.3786    2.0283 C   0  0  2  0  0  0  0  0  0  0  0  0
    3.6920    3.7061    1.2842 C   0  0  0  0  0  0  0  0  0  0  0  0
    4.2824    2.8935    0.5755 O   0  0  0  0  0  0  0  0  0  0  0  0
    2.6855    3.0644    3.4894 C   0  0  0  0  0  0  0  0  0  0  0  0
    0.7883    2.3292    1.1326 H   0  0  0  0  0  0  0  0  0  0  0  0
    1.7116    4.2238    1.9503 H   0  0  0  0  0  0  0  0  0  0  0  0
    3.3777    2.2202    3.5876 H   0  0  0  0  0  0  0  0  0  0  0  0
    3.1357    3.9220    4.0001 H   0  0  0  0  0  0  0  0  0  0  0  0
    1.7622    2.8001    4.0161 H   0  0  0  0  0  0  0  0  0  0  0  0
    4.1276    4.9990    1.5389 N   0  0  0  0  0  0  0  0  0  0  0  0
    5.3334    5.5438    0.9598 C   0  0  0  0  0  0  0  0  0  0  0  0
    3.5651    5.6096    2.1241 H   0  0  0  0  0  0  0  0  0  0  0  0
    6.1772    5.3787    1.6458 H   0  0  0  0  0  0  0  0  0  0  0  0
    5.5374    5.0447    0.0010 H   0  0  0  0  0  0  0  0  0  0  0  0
    5.2038    6.6230    0.7912 H   0  0  0  0  0  0  0  0  0  0  0  0
  1  3  1  0  0  0  0
  1  7  1  0  0  0  0
  1  2  2  0  0  0  0
 22 23  1  0  0  0  0
 23 25  1  0  0  0  0
 23 24  2  0  0  0  0
 35 36  1  0  0  0  0
 36 44  1  0  0  0  0
 36 37  2  0  0  0  0
  8  9  1  0  0  0  0
  9 17  1  0  0  0  0
  9 10  2  0  0  0  0
 18 19  1  0  0  0  0
 19 34  1  0  0  0  0
 19 20  2  0  0  0  0
 35 38  1  0  0  0  0
  8 11  1  0  0  0  0
 44 45  1  0  0  0  0
 21 22  1  0  0  0  0
 18 21  1  0  0  0  0
 34 35  1  0  0  0  0
  7  8  1  0  0  0  0
 17 18  1  0  0  0  0
  3  4  1  0  0  0  0
  3  5  1  0  0  0  0
  3  6  1  0  0  0  0
 38 41  1  0  0  0  0
 38 42  1  0  0  0  0
 38 43  1  0  0  0  0
 11 14  1  0  0  0  0
 11 15  1  0  0  0  0
 11 16  1  0  0  0  0
 45 47  1  0  0  0  0
 45 48  1  0  0  0  0
 45 49  1  0  0  0  0
 22 30  1  0  0  0  0
 22 31  1  0  0  0  0
 21 28  1  0  0  0  0
 21 29  1  0  0  0  0
 35 40  1  0  0  0  0
  8 13  1  0  0  0  0
 18 27  1  0  0  0  0
 25 32  1  0  0  0  0
 25 33  1  0  0  0  0
 44 46  1  0  0  0  0
  7 12  1  0  0  0  0
 34 39  1  0  0  0  0
 17 26  1  0  0  0  0
M  END
$$$$

  -OEChem-05262214473D

 49 48  0     1  0  0  0  0  0999 V2000
   -1.9833   -0.0509   -3.3423 C   0  0  0  0  0  0  0  0  0  0  0  0
   -1.6199   -1.0613   -2.7518 O   0  0  0  0  0  0  0  0  0  0  0  0
   -3.3243   -0.0235   -3.9975 C   0  0  0  0  0  0  0  0  0  0  0  0
   -3.2886   -0.3689   -5.0432 H   0  0  0  0  0  0  0  0  0  0  0  0
   -4.0503   -0.6845   -3.4973 H   0  0  0  0  0  0  0  0  0  0  0  0
   -3.8104    0.9645   -4.0351 H   0  0  0  0  0  0  0  0  0  0  0  0
   -1.2607    1.1231   -3.4768 N   0  0  0  0  0  0  0  0  0  0  0  0
    0.0536    1.3115   -2.9213 C   0  0  2  0  0  0  0  0  0  0  0  0
    0.0266    0.8315   -1.4761 C   0  0  0  0  0  0  0  0  0  0  0  0
   -1.0065    0.7530   -0.8146 O   0  0  0  0  0  0  0  0  0  0  0  0
    0.4852    2.7674   -3.0025 C   0  0  0  0  0  0  0  0  0  0  0  0
   -1.6809    1.8924   -3.9952 H   0  0  0  0  0  0  0  0  0  0  0  0
    0.7360    0.6822   -3.5030 H   0  0  0  0  0  0  0  0  0  0  0  0
   -0.1867    3.4133   -2.4256 H   0  0  0  0  0  0  0  0  0  0  0  0
    1.4966    2.9042   -2.6056 H   0  0  0  0  0  0  0  0  0  0  0  0
    0.4754    3.1196   -4.0397 H   0  0  0  0  0  0  0  0  0  0  0  0
    1.2978    0.5411   -0.9947 N   0  0  0  0  0  0  0  0  0  0  0  0
    1.5371    0.0807    0.3489 C   0  0  2  0  0  0  0  0  0  0  0  0
    2.4528    1.0991    1.0189 C   0  0  0  0  0  0  0  0  0  0  0  0
    3.6779    0.9981    1.0202 O   0  0  0  0  0  0  0  0  0  0  0  0
    2.1775   -1.3128    0.3781 C   0  0  0  0  0  0  0  0  0  0  0  0
    1.2523   -2.4184   -0.1343 C   0  0  0  0  0  0  0  0  0  0  0  0
    1.8917   -3.7944   -0.1291 C   0  0  0  0  0  0  0  0  0  0  0  0
    3.0606   -4.0069    0.1796 O   0  0  0  0  0  0  0  0  0  0  0  0
    1.0179   -4.7799   -0.5359 N   0  0  0  0  0  0  0  0  0  0  0  0
    2.0949    0.6178   -1.6227 H   0  0  0  0  0  0  0  0  0  0  0  0
    0.5679    0.0829    0.8589 H   0  0  0  0  0  0  0  0  0  0  0  0
    3.0844   -1.3059   -0.2413 H   0  0  0  0  0  0  0  0  0  0  0  0
    2.5064   -1.5542    1.3968 H   0  0  0  0  0  0  0  0  0  0  0  0
    0.9810   -2.1970   -1.1740 H   0  0  0  0  0  0  0  0  0  0  0  0
    0.3228   -2.4479    0.4452 H   0  0  0  0  0  0  0  0  0  0  0  0
    0.0713   -4.5191   -0.7913 H   0  0  0  0  0  0  0  0  0  0  0  0
    1.2875   -5.7569   -0.5890 H   0  0  0  0  0  0  0  0  0  0  0  0
    1.7363    2.1029    1.6556 N   0  0  0  0  0  0  0  0  0  0  0  0
    2.3607    3.1826    2.3857 C   0  0  2  0  0  0  0  0  0  0  0  0
    3.4524    3.7762    1.5051 C   0  0  0  0  0  0  0  0  0  0  0  0
    3.9824    3.1573    0.5847 O   0  0  0  0  0  0  0  0  0  0  0  0
    2.9331    2.6976    3.7085 C   0  0  0  0  0  0  0  0  0  0  0  0
    0.7221    2.0774    1.6058 H   0  0  0  0  0  0  0  0  0  0  0  0
    1.5845    3.9349    2.5632 H   0  0  0  0  0  0  0  0  0  0  0  0
    3.7126    1.9432    3.5509 H   0  0  0  0  0  0  0  0  0  0  0  0
    3.3806    3.5222    4.2733 H   0  0  0  0  0  0  0  0  0  0  0  0
    2.1521    2.2441    4.3283 H   0  0  0  0  0  0  0  0  0  0  0  0
    3.7954    5.0631    1.8954 N   0  0  0  0  0  0  0  0  0  0  0  0
    4.8151    5.8355    1.2247 C   0  0  0  0  0  0  0  0  0  0  0  0
    3.2905    5.5054    2.6577 H   0  0  0  0  0  0  0  0  0  0  0  0
    5.7819    5.6812    1.7263 H   0  0  0  0  0  0  0  0  0  0  0  0
    4.8903    5.5113    0.1763 H   0  0  0  0  0  0  0  0  0  0  0  0
    4.5497    6.9024    1.2605 H   0  0  0  0  0  0  0  0  0  0  0  0
  1  3  1  0  0  0  0
  1  7  1  0  0  0  0
  1  2  2  0  0  0  0
 22 23  1  0  0  0  0
 23 25  1  0  0  0  0
 23 24  2  0  0  0  0
 35 36  1  0  0  0  0
 36 44  1  0  0  0  0
 36 37  2  0  0  0  0
  8  9  1  0  0  0  0
  9 17  1  0  0  0  0
  9 10  2  0  0  0  0
 18 19  1  0  0  0  0
 19 34  1  0  0  0  0
 19 20  2  0  0  0  0
 35 38  1  0  0  0  0
  8 11  1  0  0  0  0
 44 45  1  0  0  0  0
 21 22  1  0  0  0  0
 18 21  1  0  0  0  0
 34 35  1  0  0  0  0
  7  8  1  0  0  0  0
 17 18  1  0  0  0  0
  3  4  1  0  0  0  0
  3  5  1  0  0  0  0
  3  6  1  0  0  0  0
 38 41  1  0  0  0  0
 38 42  1  0  0  0  0
 38 43  1  0  0  0  0
 11 14  1  0  0  0  0
 11 15  1  0  0  0  0
 11 16  1  0  0  0  0
 45 47  1  0  0  0  0
 45 48  1  0  0  0  0
 45 49  1  0  0  0  0
 22 30  1  0  0  0  0
 22 31  1  0  0  0  0
 21 28  1  0  0  0  0
 21 29  1  0  0  0  0
 35 40  1  0  0  0  0
  8 13  1  0  0  0  0
 18 27  1  0  0  0  0
 25 32  1  0  0  0  0
 25 33  1  0  0  0  0
 44 46  1  0  0  0  0
  7 12  1  0  0  0  0
 34 39  1  0  0  0  0
 17 26  1  0  0  0  0
M  END
$$$$

  -OEChem-05262214473D

 49 48  0     1  0  0  0  0  0999 V2000
   -1.9833   -0.0509   -3.3423 C   0  0  0  0  0  0  0  0  0  0  0  0
   -1.6199   -1.0613   -2.7518 O   0  0  0  0  0  0  0  0  0  0  0  0
   -3.3243   -0.0235   -3.9975 C   0  0  0  0  0  0  0  0  0  0  0  0
   -3.2886   -0.3689   -5.0432 H   0  0  0  0  0  0  0  0  0  0  0  0
   -4.0503   -0.6845   -3.4973 H   0  0  0  0  0  0  0  0  0  0  0  0
   -3.8104    0.9645   -4.0351 H   0  0  0  0  0  0  0  0  0  0  0  0
   -1.2607    1.1231   -3.4768 N   0  0  0  0  0  0  0  0  0  0  0  0
    0.0536    1.3115   -2.9213 C   0  0  2  0  0  0  0  0  0  0  0  0
    0.0266    0.8315   -1.4761 C   0  0  0  0  0  0  0  0  0  0  0  0
   -1.0065    0.7530   -0.8146 O   0  0  0  0  0  0  0  0  0  0  0  0
    0.4852    2.7674   -3.0025 C   0  0  0  0  0  0  0  0  0  0  0  0
   -1.6809    1.8924   -3.9952 H   0  0  0  0  0  0  0  0  0  0  0  0
    0.7360    0.6822   -3.5030 H   0  0  0  0  0  0  0  0  0  0  0  0
   -0.1867    3.4133   -2.4256 H   0  0  0  0  0  0  0  0  0  0  0  0
    1.4966    2.9042   -2.6056 H   0  0  0  0  0  0  0  0  0  0  0  0
    0.4754    3.1196   -4.0397 H   0  0  0  0  0  0  0  0  0  0  0  0
    1.2978    0.5411   -0.9947 N   0  0  0  0  0  0  0  0  0  0  0  0
    1.5371    0.0807    0.3489 C   0  0  2  0  0  0  0  0  0  0  0  0
    2.4528    1.0991    1.0189 C   0  0  0  0  0  0  0  0  0  0  0  0
    3.6615    1.1559    0.8027 O   0  0  0  0  0  0  0  0  0  0  0  0
    2.1775   -1.3128    0.3781 C   0  0  0  0  0  0  0  0  0  0  0  0
    1.2523   -2.4184   -0.1343 C   0  0  0  0  0  0  0  0  0  0  0  0
    1.8917   -3.7944   -0.1291 C   0  0  0  0  0  0  0  0  0  0  0  0
    3.0606   -4.0069    0.1796 O   0  0  0  0  0  0  0  0  0  0  0  0
    1.0179   -4.7799   -0.5359 N   0  0  0  0  0  0  0  0  0  0  0  0
    2.0949    0.6178   -1.6227 H   0  0  0  0  0  0  0  0  0  0  0  0
    0.5679    0.0829    0.8589 H   0  0  0  0  0  0  0  0  0  0  0  0
    3.0844   -1.3059   -0.2413 H   0  0  0  0  0  0  0  0  0  0  0  0
    2.5064   -1.5542    1.3968 H   0  0  0  0  0  0  0  0  0  0  0  0
    0.9810   -2.1970   -1.1740 H   0  0  0  0  0  0  0  0  0  0  0  0
    0.3228   -2.4479    0.4452 H   0  0  0  0  0  0  0  0  0  0  0  0
    0.0713   -4.5191   -0.7913 H   0  0  0  0  0  0  0  0  0  0  0  0
    1.2875   -5.7569   -0.5890 H   0  0  0  0  0  0  0  0  0  0  0  0
    1.7672    1.9001    1.9216 N   0  0  0  0  0  0  0  0  0  0  0  0
    2.4028    2.9327    2.7079 C   0  0  2  0  0  0  0  0  0  0  0  0
    3.2512    3.7823    1.7709 C   0  0  0  0  0  0  0  0  0  0  0  0
    3.6641    3.3765    0.6865 O   0  0  0  0  0  0  0  0  0  0  0  0
    3.2519    2.3375    3.8203 C   0  0  0  0  0  0  0  0  0  0  0  0
    0.7687    1.7531    2.0352 H   0  0  0  0  0  0  0  0  0  0  0  0
    1.6005    3.5461    3.1322 H   0  0  0  0  0  0  0  0  0  0  0  0
    4.0612    1.7195    3.4145 H   0  0  0  0  0  0  0  0  0  0  0  0
    3.7098    3.1213    4.4327 H   0  0  0  0  0  0  0  0  0  0  0  0
    2.6460    1.7028    4.4760 H   0  0  0  0  0  0  0  0  0  0  0  0
    3.5289    5.0319    2.3071 N   0  0  0  0  0  0  0  0  0  0  0  0
    4.3271    6.0171    1.6156 C   0  0  0  0  0  0  0  0  0  0  0  0
    3.1294    5.2906    3.2044 H   0  0  0  0  0  0  0  0  0  0  0  0
    5.3795    5.9160    1.9194 H   0  0  0  0  0  0  0  0  0  0  0  0
    4.2424    5.8611    0.5300 H   0  0  0  0  0  0  0  0  0  0  0  0
    3.9673    7.0249    1.8704 H   0  0  0  0  0  0  0  0  0  0  0  0
  1  3  1  0  0  0  0
  1  7  1  0  0  0  0
  1  2  2  0  0  0  0
 22 23  1  0  0  0  0
 23 25  1  0  0  0  0
 23 24  2  0  0  0  0
 35 36  1  0  0  0  0
 36 44  1  0  0  0  0
 36 37  2  0  0  0  0
  8  9  1  0  0  0  0
  9 17  1  0  0  0  0
  9 10  2  0  0  0  0
 18 19  1  0  0  0  0
 19 34  1  0  0  0  0
 19 20  2  0  0  0  0
 35 38  1  0  0  0  0
  8 11  1  0  0  0  0
 44 45  1  0  0  0  0
 21 22  1  0  0  0  0
 18 21  1  0  0  0  0
 34 35  1  0  0  0  0
  7  8  1  0  0  0  0
 17 18  1  0  0  0  0
  3  4  1  0  0  0  0
  3  5  1  0  0  0  0
  3  6  1  0  0  0  0
 38 41  1  0  0  0  0
 38 42  1  0  0  0  0
 38 43  1  0  0  0  0
 11 14  1  0  0  0  0
 11 15  1  0  0  0  0
 11 16  1  0  0  0  0
 45 47  1  0  0  0  0
 45 48  1  0  0  0  0
 45 49  1  0  0  0  0
 22 30  1  0  0  0  0
 22 31  1  0  0  0  0
 21 28  1  0  0  0  0
 21 29  1  0  0  0  0
 35 40  1  0  0  0  0
  8 13  1  0  0  0  0
 18 27  1  0  0  0  0
 25 32  1  0  0  0  0
 25 33  1  0  0  0  0
 44 46  1  0  0  0  0
  7 12  1  0  0  0  0
 34 39  1  0  0  0  0
 17 26  1  0  0  0  0
M  END
$$$$

  -OEChem-05262214473D

 49 48  0     1  0  0  0  0  0999 V2000
   -1.9833   -0.0509   -3.3423 C   0  0  0  0  0  0  0  0  0  0  0  0
   -1.6199   -1.0613   -2.7518 O   0  0  0  0  0  0  0  0  0  0  0  0
   -3.3243   -0.0235   -3.9975 C   0  0  0  0  0  0  0  0  0  0  0  0
   -3.2886   -0.3689   -5.0432 H   0  0  0  0  0  0  0  0  0  0  0  0
   -4.0503   -0.6845   -3.4973 H   0  0  0  0  0  0  0  0  0  0  0  0
   -3.8104    0.9645   -4.0351 H   0  0  0  0  0  0  0  0  0  0  0  0
   -1.2607    1.1231   -3.4768 N   0  0  0  0  0  0  0  0  0  0  0  0
    0.0536    1.3115   -2.9213 C   0  0  2  0  0  0  0  0  0  0  0  0
    0.0266    0.8315   -1.4761 C   0  0  0  0  0  0  0  0  0  0  0  0
   -1.0065    0.7530   -0.8146 O   0  0  0  0  0  0  0  0  0  0  0  0
    0.4852    2.7674   -3.0025 C   0  0  0  0  0  0  0  0  0  0  0  0
   -1.6809    1.8924   -3.9952 H   0  0  0  0  0  0  0  0  0  0  0  0
    0.7360    0.6822   -3.5030 H   0  0  0  0  0  0  0  0  0  0  0  0
   -0.1867    3.4133   -2.4256 H   0  0  0  0  0  0  0  0  0  0  0  0
    1.4966    2.9042   -2.6056 H   0  0  0  0  0  0  0  0  0  0  0  0
    0.4754    3.1196   -4.0397 H   0  0  0  0  0  0  0  0  0  0  0  0
    1.2978    0.5411   -0.9947 N   0  0  0  0  0  0  0  0  0  0  0  0
    1.5371    0.0807    0.3489 C   0  0  2  0  0  0  0  0  0  0  0  0
    2.4528    1.0991    1.0189 C   0  0  0  0  0  0  0  0  0  0  0  0
    3.5902    1.3402    0.6200 O   0  0  0  0  0  0  0  0  0  0  0  0
    2.1775   -1.3128    0.3781 C   0  0  0  0  0  0  0  0  0  0  0  0
    1.2523   -2.4184   -0.1343 C   0  0  0  0  0  0  0  0  0  0  0  0
    1.8917   -3.7944   -0.1291 C   0  0  0  0  0  0  0  0  0  0  0  0
    3.0606   -4.0069    0.1796 O   0  0  0  0  0  0  0  0  0  0  0  0
    1.0179   -4.7799   -0.5359 N   0  0  0  0  0  0  0  0  0  0  0  0
    2.0949    0.6178   -1.6227 H   0  0  0  0  0  0  0  0  0  0  0  0
    0.5679    0.0829    0.8589 H   0  0  0  0  0  0  0  0  0  0  0  0
    3.0844   -1.3059   -0.2413 H   0  0  0  0  0  0  0  0  0  0  0  0
    2.5064   -1.5542    1.3968 H   0  0  0  0  0  0  0  0  0  0  0  0
    0.9810   -2.1970   -1.1740 H   0  0  0  0  0  0  0  0  0  0  0  0
    0.3228   -2.4479    0.4452 H   0  0  0  0  0  0  0  0  0  0  0  0
    0.0713   -4.5191   -0.7913 H   0  0  0  0  0  0  0  0  0  0  0  0
    1.2875   -5.7569   -0.5890 H   0  0  0  0  0  0  0  0  0  0  0  0
    1.8662    1.6663    2.1416 N   0  0  0  0  0  0  0  0  0  0  0  0
    2.5276    2.6461    2.9731 C   0  0  2  0  0  0  0  0  0  0  0  0
    3.1020    3.7240    2.0633 C   0  0  0  0  0  0  0  0  0  0  0  0
    3.3494    3.5361    0.8739 O   0  0  0  0  0  0  0  0  0  0  0  0
    3.6201    2.0085    3.8172 C   0  0  0  0  0  0  0  0  0  0  0  0
    0.9247    1.3784    2.3915 H   0  0  0  0  0  0  0  0  0  0  0  0
    1.7585    3.0840    3.6186 H   0  0  0  0  0  0  0  0  0  0  0  0
    4.3997    1.5643    3.1877 H   0  0  0  0  0  0  0  0  0  0  0  0
    4.1009    2.7468    4.4674 H   0  0  0  0  0  0  0  0  0  0  0  0
    3.2101    1.2132    4.4492 H   0  0  0  0  0  0  0  0  0  0  0  0
    3.3463    4.9074    2.7460 N   0  0  0  0  0  0  0  0  0  0  0  0
    3.9027    6.0763    2.1057 C   0  0  0  0  0  0  0  0  0  0  0  0
    3.0927    4.9799    3.7269 H   0  0  0  0  0  0  0  0  0  0  0  0
    4.9975    6.0670    2.2119 H   0  0  0  0  0  0  0  0  0  0  0  0
    3.6380    6.0704    1.0380 H   0  0  0  0  0  0  0  0  0  0  0  0
    3.4962    6.9821    2.5792 H   0  0  0  0  0  0  0  0  0  0  0  0
  1  3  1  0  0  0  0
  1  7  1  0  0  0  0
  1  2  2  0  0  0  0
 22 23  1  0  0  0  0
 23 25  1  0  0  0  0
 23 24  2  0  0  0  0
 35 36  1  0  0  0  0
 36 44  1  0  0  0  0
 36 37  2  0  0  0  0
  8  9  1  0  0  0  0
  9 17  1  0  0  0  0
  9 10  2  0  0  0  0
 18 19  1  0  0  0  0
 19 34  1  0  0  0  0
 19 20  2  0  0  0  0
 35 38  1  0  0  0  0
  8 11  1  0  0  0  0
 44 45  1  0  0  0  0
 21 22  1  0  0  0  0
 18 21  1  0  0  0  0
 34 35  1  0  0  0  0
  7  8  1  0  0  0  0
 17 18  1  0  0  0  0
  3  4  1  0  0  0  0
  3  5  1  0  0  0  0
  3  6  1  0  0  0  0
 38 41  1  0  0  0  0
 38 42  1  0  0  0  0
 38 43  1  0  0  0  0
 11 14  1  0  0  0  0
 11 15  1  0  0  0  0
 11 16  1  0  0  0  0
 45 47  1  0  0  0  0
 45 48  1  0  0  0  0
 45 49  1  0  0  0  0
 22 30  1  0  0  0  0
 22 31  1  0  0  0  0
 21 28  1  0  0  0  0
 21 29  1  0  0  0  0
 35 40  1  0  0  0  0
  8 13  1  0  0  0  0
 18 27  1  0  0  0  0
 25 32  1  0  0  0  0
 25 33  1  0  0  0  0
 44 46  1  0  0  0  0
  7 12  1  0  0  0  0
 34 39  1  0  0  0  0
 17 26  1  0  0  0  0
M  END
$$$$

  -OEChem-05262214473D

 49 48  0     1  0  0  0  0  0999 V2000
   -1.9833   -0.0509   -3.3423 C   0  0  0  0  0  0  0  0  0  0  0  0
   -1.6199   -1.0613   -2.7518 O   0  0  0  0  0  0  0  0  0  0  0  0
   -3.3243   -0.0235   -3.9975 C   0  0  0  0  0  0  0  0  0  0  0  0
   -3.2886   -0.3689   -5.0432 H   0  0  0  0  0  0  0  0  0  0  0  0
   -4.0503   -0.6845   -3.4973 H   0  0  0  0  0  0  0  0  0  0  0  0
   -3.8104    0.9645   -4.0351 H   0  0  0  0  0  0  0  0  0  0  0  0
   -1.2607    1.1231   -3.4768 N   0  0  0  0  0  0  0  0  0  0  0  0
    0.0536    1.3115   -2.9213 C   0  0  2  0  0  0  0  0  0  0  0  0
    0.0266    0.8315   -1.4761 C   0  0  0  0  0  0  0  0  0  0  0  0
   -1.0065    0.7530   -0.8146 O   0  0  0  0  0  0  0  0  0  0  0  0
    0.4852    2.7674   -3.0025 C   0  0  0  0  0  0  0  0  0  0  0  0
   -1.6809    1.8924   -3.9952 H   0  0  0  0  0  0  0  0  0  0  0  0
    0.7360    0.6822   -3.5030 H   0  0  0  0  0  0  0  0  0  0  0  0
   -0.1867    3.4133   -2.4256 H   0  0  0  0  0  0  0  0  0  0  0  0
    1.4966    2.9042   -2.6056 H   0  0  0  0  0  0  0  0  0  0  0  0
    0.4754    3.1196   -4.0397 H   0  0  0  0  0  0  0  0  0  0  0  0
    1.2978    0.5411   -0.9947 N   0  0  0  0  0  0  0  0  0  0  0  0
    1.5371    0.0807    0.3489 C   0  0  2  0  0  0  0  0  0  0  0  0
    2.4528    1.0991    1.0189 C   0  0  0  0  0  0  0  0  0  0  0  0
    3.4687    1.5386    0.4844 O   0  0  0  0  0  0  0  0  0  0  0  0
    2.1775   -1.3128    0.3781 C   0  0  0  0  0  0  0  0  0  0  0  0
    1.2523   -2.4184   -0.1343 C   0  0  0  0  0  0  0  0  0  0  0  0
    1.8917   -3.7944   -0.1291 C   0  0  0  0  0  0  0  0  0  0  0  0
    3.0606   -4.0069    0.1796 O   0  0  0  0  0  0  0  0  0  0  0  0
    1.0179   -4.7799   -0.5359 N   0  0  0  0  0  0  0  0  0  0  0  0
    2.0949    0.6178   -1.6227 H   0  0  0  0  0  0  0  0  0  0  0  0
    0.5679    0.0829    0.8589 H   0  0  0  0  0  0  0  0  0  0  0  0
    3.0844   -1.3059   -0.2413 H   0  0  0  0  0  0  0  0  0  0  0  0
    2.5064   -1.5542    1.3968 H   0  0  0  0  0  0  0  0  0  0  0  0
    0.9810   -2.1970   -1.1740 H   0  0  0  0  0  0  0  0  0  0  0  0
    0.3228   -2.4479    0.4452 H   0  0  0  0  0  0  0  0  0  0  0  0
    0.0713   -4.5191   -0.7913 H   0  0  0  0  0  0  0  0  0  0  0  0
    1.2875   -5.7569   -0.5890 H   0  0  0  0  0  0  0  0  0  0  0  0
    2.0264    1.4176    2.3008 N   0  0  0  0  0  0  0  0  0  0  0  0
    2.7266    2.3422    3.1630 C   0  0  2  0  0  0  0  0  0  0  0  0
    3.0152    3.6053    2.3625 C   0  0  0  0  0  0  0  0  0  0  0  0
    3.0596    3.6255    1.1342 O   0  0  0  0  0  0  0  0  0  0  0  0
    4.0126    1.7330    3.6995 C   0  0  0  0  0  0  0  0  0  0  0  0
    1.1797    0.9788    2.6504 H   0  0  0  0  0  0  0  0  0  0  0  0
    2.0478    2.5800    3.9893 H   0  0  0  0  0  0  0  0  0  0  0  0
    4.7052    1.4881    2.8860 H   0  0  0  0  0  0  0  0  0  0  0  0
    4.5274    2.4241    4.3751 H   0  0  0  0  0  0  0  0  0  0  0  0
    3.8061    0.8086    4.2497 H   0  0  0  0  0  0  0  0  0  0  0  0
    3.2598    4.6982    3.1822 N   0  0  0  0  0  0  0  0  0  0  0  0
    3.5707    6.0090    2.6616 C   0  0  0  0  0  0  0  0  0  0  0  0
    3.1830    4.5943    4.1897 H   0  0  0  0  0  0  0  0  0  0  0  0
    4.6619    6.1240    2.5840 H   0  0  0  0  0  0  0  0  0  0  0  0
    3.1182    6.1248    1.6657 H   0  0  0  0  0  0  0  0  0  0  0  0
    3.1685    6.7771    3.3386 H   0  0  0  0  0  0  0  0  0  0  0  0
  1  3  1  0  0  0  0
  1  7  1  0  0  0  0
  1  2  2  0  0  0  0
 22 23  1  0  0  0  0
 23 25  1  0  0  0  0
 23 24  2  0  0  0  0
 35 36  1  0  0  0  0
 36 44  1  0  0  0  0
 36 37  2  0  0  0  0
  8  9  1  0  0  0  0
  9 17  1  0  0  0  0
  9 10  2  0  0  0  0
 18 19  1  0  0  0  0
 19 34  1  0  0  0  0
 19 20  2  0  0  0  0
 35 38  1  0  0  0  0
  8 11  1  0  0  0  0
 44 45  1  0  0  0  0
 21 22  1  0  0  0  0
 18 21  1  0  0  0  0
 34 35  1  0  0  0  0
  7  8  1  0  0  0  0
 17 18  1  0  0  0  0
  3  4  1  0  0  0  0
  3  5  1  0  0  0  0
  3  6  1  0  0  0  0
 38 41  1  0  0  0  0
 38 42  1  0  0  0  0
 38 43  1  0  0  0  0
 11 14  1  0  0  0  0
 11 15  1  0  0  0  0
 11 16  1  0  0  0  0
 45 47  1  0  0  0  0
 45 48  1  0  0  0  0
 45 49  1  0  0  0  0
 22 30  1  0  0  0  0
 22 31  1  0  0  0  0
 21 28  1  0  0  0  0
 21 29  1  0  0  0  0
 35 40  1  0  0  0  0
  8 13  1  0  0  0  0
 18 27  1  0  0  0  0
 25 32  1  0  0  0  0
 25 33  1  0  0  0  0
 44 46  1  0  0  0  0
  7 12  1  0  0  0  0
 34 39  1  0  0  0  0
 17 26  1  0  0  0  0
M  END
$$$$

  -OEChem-05262214473D

 49 48  0     1  0  0  0  0  0999 V2000
   -1.9833   -0.0509   -3.3423 C   0  0  0  0  0  0  0  0  0  0  0  0
   -1.6199   -1.0613   -2.7518 O   0  0  0  0  0  0  0  0  0  0  0  0
   -3.3243   -0.0235   -3.9975 C   0  0  0  0  0  0  0  0  0  0  0  0
   -3.2886   -0.3689   -5.0432 H   0  0  0  0  0  0  0  0  0  0  0  0
   -4.0503   -0.6845   -3.4973 H   0  0  0  0  0  0  0  0  0  0  0  0
   -3.8104    0.9645   -4.0351 H   0  0  0  0  0  0  0  0  0  0  0  0
   -1.2607    1.1231   -3.4768 N   0  0  0  0  0  0  0  0  0  0  0  0
    0.0536    1.3115   -2.9213 C   0  0  2  0  0  0  0  0  0  0  0  0
    0.0266    0.8315   -1.4761 C   0  0  0  0  0  0  0  0  0  0  0  0
   -1.0065    0.7530   -0.8146 O   0  0  0  0  0  0  0  0  0  0  0  0
    0.4852    2.7674   -3.0025 C   0  0  0  0  0  0  0  0  0  0  0  0
   -1.6809    1.8924   -3.9952 H   0  0  0  0  0  0  0  0  0  0  0  0
    0.7360    0.6822   -3.5030 H   0  0  0  0  0  0  0  0  0  0  0  0
   -0.1867    3.4133   -2.4256 H   0  0  0  0  0  0  0  0  0  0  0  0
    1.4966    2.9042   -2.6056 H   0  0  0  0  0  0  0  0  0  0  0  0
    0.4754    3.1196   -4.0397 H   0  0  0  0  0  0  0  0  0  0  0  0
    1.2978    0.5411   -0.9947 N   0  0  0  0  0  0  0  0  0  0  0  0
    1.5371    0.0807    0.3489 C   0  0  2  0  0  0  0  0  0  0  0  0
    2.4528    1.0991    1.0189 C   0  0  0  0  0  0  0  0  0  0  0  0
    3.3054    1.7375    0.4053 O   0  0  0  0  0  0  0  0  0  0  0  0
    2.1775   -1.3128    0.3781 C   0  0  0  0  0  0  0  0  0  0  0  0
    1.2523   -2.4184   -0.1343 C   0  0  0  0  0  0  0  0  0  0  0  0
    1.8917   -3.7944   -0.1291 C   0  0  0  0  0  0  0  0  0  0  0  0
    3.0606   -4.0069    0.1796 O   0  0  0  0  0  0  0  0  0  0  0  0
    1.0179   -4.7799   -0.5359 N   0  0  0  0  0  0  0  0  0  0  0  0
    2.0949    0.6178   -1.6227 H   0  0  0  0  0  0  0  0  0  0  0  0
    0.5679    0.0829    0.8589 H   0  0  0  0  0  0  0  0  0  0  0  0
    3.0844   -1.3059   -0.2413 H   0  0  0  0  0  0  0  0  0  0  0  0
    2.5064   -1.5542    1.3968 H   0  0  0  0  0  0  0  0  0  0  0  0
    0.9810   -2.1970   -1.1740 H   0  0  0  0  0  0  0  0  0  0  0  0
    0.3228   -2.4479    0.4452 H   0  0  0  0  0  0  0  0  0  0  0  0
    0.0713   -4.5191   -0.7913 H   0  0  0  0  0  0  0  0  0  0  0  0
    1.2875   -5.7569   -0.5890 H   0  0  0  0  0  0  0  0  0  0  0  0
    2.2370    1.1708    2.3881 N   0  0  0  0  0  0  0  0  0  0  0  0
    2.9862    2.0418    3.2649 C   0  0  2  0  0  0  0  0  0  0  0  0
    2.9965    3.4342    2.6480 C   0  0  0  0  0  0  0  0  0  0  0  0
    2.8146    3.6383    1.4496 O   0  0  0  0  0  0  0  0  0  0  0  0
    4.4027    1.5299    3.4750 C   0  0  0  0  0  0  0  0  0  0  0  0
    1.5162    0.5815    2.7943 H   0  0  0  0  0  0  0  0  0  0  0  0
    2.4487    2.0684    4.2191 H   0  0  0  0  0  0  0  0  0  0  0  0
    4.9568    1.4962    2.5299 H   0  0  0  0  0  0  0  0  0  0  0  0
    4.9600    2.1752    4.1620 H   0  0  0  0  0  0  0  0  0  0  0  0
    4.3932    0.5166    3.8910 H   0  0  0  0  0  0  0  0  0  0  0  0
    3.2755    4.4184    3.5859 N   0  0  0  0  0  0  0  0  0  0  0  0
    3.3538    5.8199    3.2456 C   0  0  0  0  0  0  0  0  0  0  0  0
    3.3940    4.1602    4.5611 H   0  0  0  0  0  0  0  0  0  0  0  0
    4.3957    6.0830    3.0103 H   0  0  0  0  0  0  0  0  0  0  0  0
    2.7185    6.0206    2.3704 H   0  0  0  0  0  0  0  0  0  0  0  0
    3.0067    6.4237    4.0970 H   0  0  0  0  0  0  0  0  0  0  0  0
  1  3  1  0  0  0  0
  1  7  1  0  0  0  0
  1  2  2  0  0  0  0
 22 23  1  0  0  0  0
 23 25  1  0  0  0  0
 23 24  2  0  0  0  0
 35 36  1  0  0  0  0
 36 44  1  0  0  0  0
 36 37  2  0  0  0  0
  8  9  1  0  0  0  0
  9 17  1  0  0  0  0
  9 10  2  0  0  0  0
 18 19  1  0  0  0  0
 19 34  1  0  0  0  0
 19 20  2  0  0  0  0
 35 38  1  0  0  0  0
  8 11  1  0  0  0  0
 44 45  1  0  0  0  0
 21 22  1  0  0  0  0
 18 21  1  0  0  0  0
 34 35  1  0  0  0  0
  7  8  1  0  0  0  0
 17 18  1  0  0  0  0
  3  4  1  0  0  0  0
  3  5  1  0  0  0  0
  3  6  1  0  0  0  0
 38 41  1  0  0  0  0
 38 42  1  0  0  0  0
 38 43  1  0  0  0  0
 11 14  1  0  0  0  0
 11 15  1  0  0  0  0
 11 16  1  0  0  0  0
 45 47  1  0  0  0  0
 45 48  1  0  0  0  0
 45 49  1  0  0  0  0
 22 30  1  0  0  0  0
 22 31  1  0  0  0  0
 21 28  1  0  0  0  0
 21 29  1  0  0  0  0
 35 40  1  0  0  0  0
  8 13  1  0  0  0  0
 18 27  1  0  0  0  0
 25 32  1  0  0  0  0
 25 33  1  0  0  0  0
 44 46  1  0  0  0  0
  7 12  1  0  0  0  0
 34 39  1  0  0  0  0
 17 26  1  0  0  0  0
M  END
$$$$

  -OEChem-05262214473D

 49 48  0     1  0  0  0  0  0999 V2000
   -1.9833   -0.0509   -3.3423 C   0  0  0  0  0  0  0  0  0  0  0  0
   -1.6199   -1.0613   -2.7518 O   0  0  0  0  0  0  0  0  0  0  0  0
   -3.3243   -0.0235   -3.9975 C   0  0  0  0  0  0  0  0  0  0  0  0
   -3.2886   -0.3689   -5.0432 H   0  0  0  0  0  0  0  0  0  0  0  0
   -4.0503   -0.6845   -3.4973 H   0  0  0  0  0  0  0  0  0  0  0  0
   -3.8104    0.9645   -4.0351 H   0  0  0  0  0  0  0  0  0  0  0  0
   -1.2607    1.1231   -3.4768 N   0  0  0  0  0  0  0  0  0  0  0  0
    0.0536    1.3115   -2.9213 C   0  0  2  0  0  0  0  0  0  0  0  0
    0.0266    0.8315   -1.4761 C   0  0  0  0  0  0  0  0  0  0  0  0
   -1.0065    0.7530   -0.8146 O   0  0  0  0  0  0  0  0  0  0  0  0
    0.4852    2.7674   -3.0025 C   0  0  0  0  0  0  0  0  0  0  0  0
   -1.6809    1.8924   -3.9952 H   0  0  0  0  0  0  0  0  0  0  0  0
    0.7360    0.6822   -3.5030 H   0  0  0  0  0  0  0  0  0  0  0  0
   -0.1867    3.4133   -2.4256 H   0  0  0  0  0  0  0  0  0  0  0  0
    1.4966    2.9042   -2.6056 H   0  0  0  0  0  0  0  0  0  0  0  0
    0.4754    3.1196   -4.0397 H   0  0  0  0  0  0  0  0  0  0  0  0
    1.2978    0.5411   -0.9947 N   0  0  0  0  0  0  0  0  0  0  0  0
    1.5371    0.0807    0.3489 C   0  0  2  0  0  0  0  0  0  0  0  0
    2.4528    1.0991    1.0189 C   0  0  0  0  0  0  0  0  0  0  0  0
    3.1114    1.9233    0.3881 O   0  0  0  0  0  0  0  0  0  0  0  0
    2.1775   -1.3128    0.3781 C   0  0  0  0  0  0  0  0  0  0  0  0
    1.2523   -2.4184   -0.1343 C   0  0  0  0  0  0  0  0  0  0  0  0
    1.8917   -3.7944   -0.1291 C   0  0  0  0  0  0  0  0  0  0  0  0
    3.0606   -4.0069    0.1796 O   0  0  0  0  0  0  0  0  0  0  0  0
    1.0179   -4.7799   -0.5359 N   0  0  0  0  0  0  0  0  0  0  0  0
    2.0949    0.6178   -1.6227 H   0  0  0  0  0  0  0  0  0  0  0  0
    0.5679    0.0829    0.8589 H   0  0  0  0  0  0  0  0  0  0  0  0
    3.0844   -1.3059   -0.2413 H   0  0  0  0  0  0  0  0  0  0  0  0
    2.5064   -1.5542    1.3968 H   0  0  0  0  0  0  0  0  0  0  0  0
    0.9810   -2.1970   -1.1740 H   0  0  0  0  0  0  0  0  0  0  0  0
    0.3228   -2.4479    0.4452 H   0  0  0  0  0  0  0  0  0  0  0  0
    0.0713   -4.5191   -0.7913 H   0  0  0  0  0  0  0  0  0  0  0  0
    1.2875   -5.7569   -0.5890 H   0  0  0  0  0  0  0  0  0  0  0  0
    2.4835    0.9428    2.3977 N   0  0  0  0  0  0  0  0  0  0  0  0
    3.2887    1.7653    3.2717 C   0  0  2  0  0  0  0  0  0  0  0  0
    3.0473    3.2225    2.9005 C   0  0  0  0  0  0  0  0  0  0  0  0
    2.6309    3.5739    1.7986 O   0  0  0  0  0  0  0  0  0  0  0  0
    4.7638    1.4129    3.1592 C   0  0  0  0  0  0  0  0  0  0  0  0
    1.9113    0.2138    2.8133 H   0  0  0  0  0  0  0  0  0  0  0  0
    2.9338    1.5841    4.2921 H   0  0  0  0  0  0  0  0  0  0  0  0
    5.1373    1.5880    2.1437 H   0  0  0  0  0  0  0  0  0  0  0  0
    5.3693    2.0172    3.8428 H   0  0  0  0  0  0  0  0  0  0  0  0
    4.9316    0.3571    3.3977 H   0  0  0  0  0  0  0  0  0  0  0  0
    3.3923    4.0873    3.9297 N   0  0  0  0  0  0  0  0  0  0  0  0
    3.2668    5.5217    3.8178 C   0  0  0  0  0  0  0  0  0  0  0  0
    3.7114    3.7071    4.8159 H   0  0  0  0  0  0  0  0  0  0  0  0
    4.2168    5.9468    3.4617 H   0  0  0  0  0  0  0  0  0  0  0  0
    2.4660    5.7650    3.1040 H   0  0  0  0  0  0  0  0  0  0  0  0
    3.0216    5.9461    4.8026 H   0  0  0  0  0  0  0  0  0  0  0  0
  1  3  1  0  0  0  0
  1  7  1  0  0  0  0
  1  2  2  0  0  0  0
 22 23  1  0  0  0  0
 23 25  1  0  0  0  0
 23 24  2  0  0  0  0
 35 36  1  0  0  0  0
 36 44  1  0  0  0  0
 36 37  2  0  0  0  0
  8  9  1  0  0  0  0
  9 17  1  0  0  0  0
  9 10  2  0  0  0  0
 18 19  1  0  0  0  0
 19 34  1  0  0  0  0
 19 20  2  0  0  0  0
 35 38  1  0  0  0  0
  8 11  1  0  0  0  0
 44 45  1  0  0  0  0
 21 22  1  0  0  0  0
 18 21  1  0  0  0  0
 34 35  1  0  0  0  0
  7  8  1  0  0  0  0
 17 18  1  0  0  0  0
  3  4  1  0  0  0  0
  3  5  1  0  0  0  0
  3  6  1  0  0  0  0
 38 41  1  0  0  0  0
 38 42  1  0  0  0  0
 38 43  1  0  0  0  0
 11 14  1  0  0  0  0
 11 15  1  0  0  0  0
 11 16  1  0  0  0  0
 45 47  1  0  0  0  0
 45 48  1  0  0  0  0
 45 49  1  0  0  0  0
 22 30  1  0  0  0  0
 22 31  1  0  0  0  0
 21 28  1  0  0  0  0
 21 29  1  0  0  0  0
 35 40  1  0  0  0  0
  8 13  1  0  0  0  0
 18 27  1  0  0  0  0
 25 32  1  0  0  0  0
 25 33  1  0  0  0  0
 44 46  1  0  0  0  0
  7 12  1  0  0  0  0
 34 39  1  0  0  0  0
 17 26  1  0  0  0  0
M  END
$$$$

  -OEChem-05262214473D

 49 48  0     1  0  0  0  0  0999 V2000
   -1.9833   -0.0509   -3.3423 C   0  0  0  0  0  0  0  0  0  0  0  0
   -1.6199   -1.0613   -2.7518 O   0  0  0  0  0  0  0  0  0  0  0  0
   -3.3243   -0.0235   -3.9975 C   0  0  0  0  0  0  0  0  0  0  0  0
   -3.2886   -0.3689   -5.0432 H   0  0  0  0  0  0  0  0  0  0  0  0
   -4.0503   -0.6845   -3.4973 H   0  0  0  0  0  0  0  0  0  0  0  0
   -3.8104    0.9645   -4.0351 H   0  0  0  0  0  0  0  0  0  0  0  0
   -1.2607    1.1231   -3.4768 N   0  0  0  0  0  0  0  0  0  0  0  0
    0.0536    1.3115   -2.9213 C   0  0  2  0  0  0  0  0  0  0  0  0
    0.0266    0.8315   -1.4761 C   0  0  0  0  0  0  0  0  0  0  0  0
   -1.0065    0.7530   -0.8146 O   0  0  0  0  0  0  0  0  0  0  0  0
    0.4852    2.7674   -3.0025 C   0  0  0  0  0  0  0  0  0  0  0  0
   -1.6809    1.8924   -3.9952 H   0  0  0  0  0  0  0  0  0  0  0  0
    0.7360    0.6822   -3.5030 H   0  0  0  0  0  0  0  0  0  0  0  0
   -0.1867    3.4133   -2.4256 H   0  0  0  0  0  0  0  0  0  0  0  0
    1.4966    2.9042   -2.6056 H   0  0  0  0  0  0  0  0  0  0  0  0
    0.4754    3.1196   -4.0397 H   0  0  0  0  0  0  0  0  0  0  0  0
    1.2978    0.5411   -0.9947 N   0  0  0  0  0  0  0  0  0  0  0  0
    1.5371    0.0807    0.3489 C   0  0  2  0  0  0  0  0  0  0  0  0
    2.1229    1.2518    1.1300 C   0  0  0  0  0  0  0  0  0  0  0  0
    2.3609    2.3442    0.6192 O   0  0  0  0  0  0  0  0  0  0  0  0
    2.4931   -1.1183    0.3885 C   0  0  0  0  0  0  0  0  0  0  0  0
    1.9071   -2.3845   -0.2393 C   0  0  0  0  0  0  0  0  0  0  0  0
    2.8596   -3.5655   -0.2230 C   0  0  0  0  0  0  0  0  0  0  0  0
    4.0176   -3.5077    0.1802 O   0  0  0  0  0  0  0  0  0  0  0  0
    2.2860   -4.7085   -0.7373 N   0  0  0  0  0  0  0  0  0  0  0  0
    2.0949    0.6178   -1.6227 H   0  0  0  0  0  0  0  0  0  0  0  0
    0.5599   -0.1765    0.7714 H   0  0  0  0  0  0  0  0  0  0  0  0
    3.4162   -0.8613   -0.1480 H   0  0  0  0  0  0  0  0  0  0  0  0
    2.7908   -1.3277    1.4237 H   0  0  0  0  0  0  0  0  0  0  0  0
    1.6715   -2.1797   -1.2910 H   0  0  0  0  0  0  0  0  0  0  0  0
    0.9707   -2.6667    0.2549 H   0  0  0  0  0  0  0  0  0  0  0  0
    1.3271   -4.6690   -1.0664 H   0  0  0  0  0  0  0  0  0  0  0  0
    2.7884   -5.5883   -0.7985 H   0  0  0  0  0  0  0  0  0  0  0  0
    2.3931    0.9139    2.4488 N   0  0  0  0  0  0  0  0  0  0  0  0
    2.9724    1.8341    3.4008 C   0  0  2  0  0  0  0  0  0  0  0  0
    2.1905    3.1391    3.3290 C   0  0  0  0  0  0  0  0  0  0  0  0
    1.5323    3.4735    2.3462 O   0  0  0  0  0  0  0  0  0  0  0  0
    4.4479    2.0681    3.1169 C   0  0  0  0  0  0  0  0  0  0  0  0
    2.1728   -0.0274    2.7604 H   0  0  0  0  0  0  0  0  0  0  0  0
    2.8450    1.3854    4.3921 H   0  0  0  0  0  0  0  0  0  0  0  0
    4.5954    2.5172    2.1279 H   0  0  0  0  0  0  0  0  0  0  0  0
    4.8920    2.7431    3.8559 H   0  0  0  0  0  0  0  0  0  0  0  0
    5.0036    1.1245    3.1396 H   0  0  0  0  0  0  0  0  0  0  0  0
    2.3493    3.9063    4.4746 N   0  0  0  0  0  0  0  0  0  0  0  0
    1.7181    5.1943    4.6440 C   0  0  0  0  0  0  0  0  0  0  0  0
    2.8981    3.5421    5.2479 H   0  0  0  0  0  0  0  0  0  0  0  0
    2.4029    5.9861    4.3060 H   0  0  0  0  0  0  0  0  0  0  0  0
    0.7937    5.2306    4.0490 H   0  0  0  0  0  0  0  0  0  0  0  0
    1.4768    5.3473    5.7062 H   0  0  0  0  0  0  0  0  0  0  0  0
  1  3  1  0  0  0  0
  1  7  1  0  0  0  0
  1  2  2  0  0  0  0
 22 23  1  0  0  0  0
 23 25  1  0  0  0  0
 23 24  2  0  0  0  0
 35 36  1  0  0  0  0
 36 44  1  0  0  0  0
 36 37  2  0  0  0  0
  8  9  1  0  0  0  0
  9 17  1  0  0  0  0
  9 10  2  0  0  0  0
 18 19  1  0  0  0  0
 19 34  1  0  0  0  0
 19 20  2  0  0  0  0
 35 38  1  0  0  0  0
  8 11  1  0  0  0  0
 44 45  1  0  0  0  0
 21 22  1  0  0  0  0
 18 21  1  0  0  0  0
 34 35  1  0  0  0  0
  7  8  1  0  0  0  0
 17 18  1  0  0  0  0
  3  4  1  0  0  0  0
  3  5  1  0  0  0  0
  3  6  1  0  0  0  0
 38 41  1  0  0  0  0
 38 42  1  0  0  0  0
 38 43  1  0  0  0  0
 11 14  1  0  0  0  0
 11 15  1  0  0  0  0
 11 16  1  0  0  0  0
 45 47  1  0  0  0  0
 45 48  1  0  0  0  0
 45 49  1  0  0  0  0
 22 30  1  0  0  0  0
 22 31  1  0  0  0  0
 21 28  1  0  0  0  0
 21 29  1  0  0  0  0
 35 40  1  0  0  0  0
  8 13  1  0  0  0  0
 18 27  1  0  0  0  0
 25 32  1  0  0  0  0
 25 33  1  0  0  0  0
 44 46  1  0  0  0  0
  7 12  1  0  0  0  0
 34 39  1  0  0  0  0
 17 26  1  0  0  0  0
M  END
$$$$

  -OEChem-05262214473D

 49 48  0     1  0  0  0  0  0999 V2000
   -1.9833   -0.0509   -3.3423 C   0  0  0  0  0  0  0  0  0  0  0  0
   -1.6199   -1.0613   -2.7518 O   0  0  0  0  0  0  0  0  0  0  0  0
   -3.3243   -0.0235   -3.9975 C   0  0  0  0  0  0  0  0  0  0  0  0
   -3.2886   -0.3689   -5.0432 H   0  0  0  0  0  0  0  0  0  0  0  0
   -4.0503   -0.6845   -3.4973 H   0  0  0  0  0  0  0  0  0  0  0  0
   -3.8104    0.9645   -4.0351 H   0  0  0  0  0  0  0  0  0  0  0  0
   -1.2607    1.1231   -3.4768 N   0  0  0  0  0  0  0  0  0  0  0  0
    0.0536    1.3115   -2.9213 C   0  0  2  0  0  0  0  0  0  0  0  0
    0.0266    0.8315   -1.4761 C   0  0  0  0  0  0  0  0  0  0  0  0
   -1.0065    0.7530   -0.8146 O   0  0  0  0  0  0  0  0  0  0  0  0
    0.4852    2.7674   -3.0025 C   0  0  0  0  0  0  0  0  0  0  0  0
   -1.6809    1.8924   -3.9952 H   0  0  0  0  0  0  0  0  0  0  0  0
    0.7360    0.6822   -3.5030 H   0  0  0  0  0  0  0  0  0  0  0  0
   -0.1867    3.4133   -2.4256 H   0  0  0  0  0  0  0  0  0  0  0  0
    1.4966    2.9042   -2.6056 H   0  0  0  0  0  0  0  0  0  0  0  0
    0.4754    3.1196   -4.0397 H   0  0  0  0  0  0  0  0  0  0  0  0
    1.2978    0.5411   -0.9947 N   0  0  0  0  0  0  0  0  0  0  0  0
    1.5371    0.0807    0.3489 C   0  0  2  0  0  0  0  0  0  0  0  0
    2.1229    1.2518    1.1300 C   0  0  0  0  0  0  0  0  0  0  0  0
    2.1152    2.4068    0.7096 O   0  0  0  0  0  0  0  0  0  0  0  0
    2.4931   -1.1183    0.3885 C   0  0  0  0  0  0  0  0  0  0  0  0
    1.9071   -2.3845   -0.2393 C   0  0  0  0  0  0  0  0  0  0  0  0
    2.8596   -3.5655   -0.2230 C   0  0  0  0  0  0  0  0  0  0  0  0
    4.0176   -3.5077    0.1802 O   0  0  0  0  0  0  0  0  0  0  0  0
    2.2860   -4.7085   -0.7373 N   0  0  0  0  0  0  0  0  0  0  0  0
    2.0949    0.6178   -1.6227 H   0  0  0  0  0  0  0  0  0  0  0  0
    0.5599   -0.1765    0.7714 H   0  0  0  0  0  0  0  0  0  0  0  0
    3.4162   -0.8613   -0.1480 H   0  0  0  0  0  0  0  0  0  0  0  0
    2.7908   -1.3277    1.4237 H   0  0  0  0  0  0  0  0  0  0  0  0
    1.6715   -2.1797   -1.2910 H   0  0  0  0  0  0  0  0  0  0  0  0
    0.9707   -2.6667    0.2549 H   0  0  0  0  0  0  0  0  0  0  0  0
    1.3271   -4.6690   -1.0664 H   0  0  0  0  0  0  0  0  0  0  0  0
    2.7884   -5.5883   -0.7985 H   0  0  0  0  0  0  0  0  0  0  0  0
    2.6977    0.8437    2.3256 N   0  0  0  0  0  0  0  0  0  0  0  0
    3.3430    1.7518    3.2463 C   0  0  2  0  0  0  0  0  0  0  0  0
    2.4092    2.9332    3.4737 C   0  0  0  0  0  0  0  0  0  0  0  0
    1.5271    3.2536    2.6798 O   0  0  0  0  0  0  0  0  0  0  0  0
    4.6887    2.2174    2.7124 C   0  0  0  0  0  0  0  0  0  0  0  0
    2.6631   -0.1427    2.5655 H   0  0  0  0  0  0  0  0  0  0  0  0
    3.4780    1.2060    4.1865 H   0  0  0  0  0  0  0  0  0  0  0  0
    4.5736    2.7664    1.7707 H   0  0  0  0  0  0  0  0  0  0  0  0
    5.1890    2.8828    3.4238 H   0  0  0  0  0  0  0  0  0  0  0  0
    5.3485    1.3643    2.5213 H   0  0  0  0  0  0  0  0  0  0  0  0
    2.7048    3.6138    4.6466 N   0  0  0  0  0  0  0  0  0  0  0  0
    1.9689    4.7792    5.0783 C   0  0  0  0  0  0  0  0  0  0  0  0
    3.4412    3.2664    5.2539 H   0  0  0  0  0  0  0  0  0  0  0  0
    2.4673    5.6866    4.7066 H   0  0  0  0  0  0  0  0  0  0  0  0
    0.9446    4.7342    4.6800 H   0  0  0  0  0  0  0  0  0  0  0  0
    1.9341    4.8042    6.1775 H   0  0  0  0  0  0  0  0  0  0  0  0
  1  3  1  0  0  0  0
  1  7  1  0  0  0  0
  1  2  2  0  0  0  0
 22 23  1  0  0  0  0
 23 25  1  0  0  0  0
 23 24  2  0  0  0  0
 35 36  1  0  0  0  0
 36 44  1  0  0  0  0
 36 37  2  0  0  0  0
  8  9  1  0  0  0  0
  9 17  1  0  0  0  0
  9 10  2  0  0  0  0
 18 19  1  0  0  0  0
 19 34  1  0  0  0  0
 19 20  2  0  0  0  0
 35 38  1  0  0  0  0
  8 11  1  0  0  0  0
 44 45  1  0  0  0  0
 21 22  1  0  0  0  0
 18 21  1  0  0  0  0
 34 35  1  0  0  0  0
  7  8  1  0  0  0  0
 17 18  1  0  0  0  0
  3  4  1  0  0  0  0
  3  5  1  0  0  0  0
  3  6  1  0  0  0  0
 38 41  1  0  0  0  0
 38 42  1  0  0  0  0
 38 43  1  0  0  0  0
 11 14  1  0  0  0  0
 11 15  1  0  0  0  0
 11 16  1  0  0  0  0
 45 47  1  0  0  0  0
 45 48  1  0  0  0  0
 45 49  1  0  0  0  0
 22 30  1  0  0  0  0
 22 31  1  0  0  0  0
 21 28  1  0  0  0  0
 21 29  1  0  0  0  0
 35 40  1  0  0  0  0
  8 13  1  0  0  0  0
 18 27  1  0  0  0  0
 25 32  1  0  0  0  0
 25 33  1  0  0  0  0
 44 46  1  0  0  0  0
  7 12  1  0  0  0  0
 34 39  1  0  0  0  0
 17 26  1  0  0  0  0
M  END
$$$$

  -OEChem-05262214473D

 49 48  0     1  0  0  0  0  0999 V2000
   -1.9833   -0.0509   -3.3423 C   0  0  0  0  0  0  0  0  0  0  0  0
   -1.6199   -1.0613   -2.7518 O   0  0  0  0  0  0  0  0  0  0  0  0
   -3.3243   -0.0235   -3.9975 C   0  0  0  0  0  0  0  0  0  0  0  0
   -3.2886   -0.3689   -5.0432 H   0  0  0  0  0  0  0  0  0  0  0  0
   -4.0503   -0.6845   -3.4973 H   0  0  0  0  0  0  0  0  0  0  0  0
   -3.8104    0.9645   -4.0351 H   0  0  0  0  0  0  0  0  0  0  0  0
   -1.2607    1.1231   -3.4768 N   0  0  0  0  0  0  0  0  0  0  0  0
    0.0536    1.3115   -2.9213 C   0  0  2  0  0  0  0  0  0  0  0  0
    0.0266    0.8315   -1.4761 C   0  0  0  0  0  0  0  0  0  0  0  0
   -1.0065    0.7530   -0.8146 O   0  0  0  0  0  0  0  0  0  0  0  0
    0.4852    2.7674   -3.0025 C   0  0  0  0  0  0  0  0  0  0  0  0
   -1.6809    1.8924   -3.9952 H   0  0  0  0  0  0  0  0  0  0  0  0
    0.7360    0.6822   -3.5030 H   0  0  0  0  0  0  0  0  0  0  0  0
   -0.1867    3.4133   -2.4256 H   0  0  0  0  0  0  0  0  0  0  0  0
    1.4966    2.9042   -2.6056 H   0  0  0  0  0  0  0  0  0  0  0  0
    0.4754    3.1196   -4.0397 H   0  0  0  0  0  0  0  0  0  0  0  0
    1.2978    0.5411   -0.9947 N   0  0  0  0  0  0  0  0  0  0  0  0
    1.5371    0.0807    0.3489 C   0  0  2  0  0  0  0  0  0  0  0  0
    2.1229    1.2518    1.1300 C   0  0  0  0  0  0  0  0  0  0  0  0
    1.8875    2.4257    0.8520 O   0  0  0  0  0  0  0  0  0  0  0  0
    2.4931   -1.1183    0.3885 C   0  0  0  0  0  0  0  0  0  0  0  0
    1.9071   -2.3845   -0.2393 C   0  0  0  0  0  0  0  0  0  0  0  0
    2.8596   -3.5655   -0.2230 C   0  0  0  0  0  0  0  0  0  0  0  0
    4.0176   -3.5077    0.1802 O   0  0  0  0  0  0  0  0  0  0  0  0
    2.2860   -4.7085   -0.7373 N   0  0  0  0  0  0  0  0  0  0  0  0
    2.0949    0.6178   -1.6227 H   0  0  0  0  0  0  0  0  0  0  0  0
    0.5599   -0.1765    0.7714 H   0  0  0  0  0  0  0  0  0  0  0  0
    3.4162   -0.8613   -0.1480 H   0  0  0  0  0  0  0  0  0  0  0  0
    2.7908   -1.3277    1.4237 H   0  0  0  0  0  0  0  0  0  0  0  0
    1.6715   -2.1797   -1.2910 H   0  0  0  0  0  0  0  0  0  0  0  0
    0.9707   -2.6667    0.2549 H   0  0  0  0  0  0  0  0  0  0  0  0
    1.3271   -4.6690   -1.0664 H   0  0  0  0  0  0  0  0  0  0  0  0
    2.7884   -5.5883   -0.7985 H   0  0  0  0  0  0  0  0  0  0  0  0
    2.9767    0.8285    2.1391 N   0  0  0  0  0  0  0  0  0  0  0  0
    3.6812    1.7368    3.0152 C   0  0  2  0  0  0  0  0  0  0  0  0
    2.6765    2.7489    3.5496 C   0  0  0  0  0  0  0  0  0  0  0  0
    1.6176    3.0073    2.9812 O   0  0  0  0  0  0  0  0  0  0  0  0
    4.8210    2.4338    2.2888 C   0  0  0  0  0  0  0  0  0  0  0  0
    3.1133   -0.1696    2.2683 H   0  0  0  0  0  0  0  0  0  0  0  0
    4.0724    1.1370    3.8442 H   0  0  0  0  0  0  0  0  0  0  0  0
    4.4485    3.0397    1.4548 H   0  0  0  0  0  0  0  0  0  0  0  0
    5.3715    3.1000    2.9612 H   0  0  0  0  0  0  0  0  0  0  0  0
    5.5270    1.7031    1.8794 H   0  0  0  0  0  0  0  0  0  0  0  0
    3.1211    3.3613    4.7130 N   0  0  0  0  0  0  0  0  0  0  0  0
    2.3526    4.3683    5.4067 C   0  0  0  0  0  0  0  0  0  0  0  0
    4.0035    3.0715    5.1244 H   0  0  0  0  0  0  0  0  0  0  0  0
    2.6489    5.3661    5.0510 H   0  0  0  0  0  0  0  0  0  0  0  0
    1.2816    4.2121    5.2101 H   0  0  0  0  0  0  0  0  0  0  0  0
    2.5416    4.2935    6.4878 H   0  0  0  0  0  0  0  0  0  0  0  0
  1  3  1  0  0  0  0
  1  7  1  0  0  0  0
  1  2  2  0  0  0  0
 22 23  1  0  0  0  0
 23 25  1  0  0  0  0
 23 24  2  0  0  0  0
 35 36  1  0  0  0  0
 36 44  1  0  0  0  0
 36 37  2  0  0  0  0
  8  9  1  0  0  0  0
  9 17  1  0  0  0  0
  9 10  2  0  0  0  0
 18 19  1  0  0  0  0
 19 34  1  0  0  0  0
 19 20  2  0  0  0  0
 35 38  1  0  0  0  0
  8 11  1  0  0  0  0
 44 45  1  0  0  0  0
 21 22  1  0  0  0  0
 18 21  1  0  0  0  0
 34 35  1  0  0  0  0
  7  8  1  0  0  0  0
 17 18  1  0  0  0  0
  3  4  1  0  0  0  0
  3  5  1  0  0  0  0
  3  6  1  0  0  0  0
 38 41  1  0  0  0  0
 38 42  1  0  0  0  0
 38 43  1  0  0  0  0
 11 14  1  0  0  0  0
 11 15  1  0  0  0  0
 11 16  1  0  0  0  0
 45 47  1  0  0  0  0
 45 48  1  0  0  0  0
 45 49  1  0  0  0  0
 22 30  1  0  0  0  0
 22 31  1  0  0  0  0
 21 28  1  0  0  0  0
 21 29  1  0  0  0  0
 35 40  1  0  0  0  0
  8 13  1  0  0  0  0
 18 27  1  0  0  0  0
 25 32  1  0  0  0  0
 25 33  1  0  0  0  0
 44 46  1  0  0  0  0
  7 12  1  0  0  0  0
 34 39  1  0  0  0  0
 17 26  1  0  0  0  0
M  END
$$$$

  -OEChem-05262214473D

 49 48  0     1  0  0  0  0  0999 V2000
   -1.9833   -0.0509   -3.3423 C   0  0  0  0  0  0  0  0  0  0  0  0
   -1.6199   -1.0613   -2.7518 O   0  0  0  0  0  0  0  0  0  0  0  0
   -3.3243   -0.0235   -3.9975 C   0  0  0  0  0  0  0  0  0  0  0  0
   -3.2886   -0.3689   -5.0432 H   0  0  0  0  0  0  0  0  0  0  0  0
   -4.0503   -0.6845   -3.4973 H   0  0  0  0  0  0  0  0  0  0  0  0
   -3.8104    0.9645   -4.0351 H   0  0  0  0  0  0  0  0  0  0  0  0
   -1.2607    1.1231   -3.4768 N   0  0  0  0  0  0  0  0  0  0  0  0
    0.0536    1.3115   -2.9213 C   0  0  2  0  0  0  0  0  0  0  0  0
    0.0266    0.8315   -1.4761 C   0  0  0  0  0  0  0  0  0  0  0  0
   -1.0065    0.7530   -0.8146 O   0  0  0  0  0  0  0  0  0  0  0  0
    0.4852    2.7674   -3.0025 C   0  0  0  0  0  0  0  0  0  0  0  0
   -1.6809    1.8924   -3.9952 H   0  0  0  0  0  0  0  0  0  0  0  0
    0.7360    0.6822   -3.5030 H   0  0  0  0  0  0  0  0  0  0  0  0
   -0.1867    3.4133   -2.4256 H   0  0  0  0  0  0  0  0  0  0  0  0
    1.4966    2.9042   -2.6056 H   0  0  0  0  0  0  0  0  0  0  0  0
    0.4754    3.1196   -4.0397 H   0  0  0  0  0  0  0  0  0  0  0  0
    1.2978    0.5411   -0.9947 N   0  0  0  0  0  0  0  0  0  0  0  0
    1.5371    0.0807    0.3489 C   0  0  2  0  0  0  0  0  0  0  0  0
    2.1229    1.2518    1.1300 C   0  0  0  0  0  0  0  0  0  0  0  0
    1.6933    2.3997    1.0367 O   0  0  0  0  0  0  0  0  0  0  0  0
    2.4931   -1.1183    0.3885 C   0  0  0  0  0  0  0  0  0  0  0  0
    1.9071   -2.3845   -0.2393 C   0  0  0  0  0  0  0  0  0  0  0  0
    2.8596   -3.5655   -0.2230 C   0  0  0  0  0  0  0  0  0  0  0  0
    4.0176   -3.5077    0.1802 O   0  0  0  0  0  0  0  0  0  0  0  0
    2.2860   -4.7085   -0.7373 N   0  0  0  0  0  0  0  0  0  0  0  0
    2.0949    0.6178   -1.6227 H   0  0  0  0  0  0  0  0  0  0  0  0
    0.5599   -0.1765    0.7714 H   0  0  0  0  0  0  0  0  0  0  0  0
    3.4162   -0.8613   -0.1480 H   0  0  0  0  0  0  0  0  0  0  0  0
    2.7908   -1.3277    1.4237 H   0  0  0  0  0  0  0  0  0  0  0  0
    1.6715   -2.1797   -1.2910 H   0  0  0  0  0  0  0  0  0  0  0  0
    0.9707   -2.6667    0.2549 H   0  0  0  0  0  0  0  0  0  0  0  0
    1.3271   -4.6690   -1.0664 H   0  0  0  0  0  0  0  0  0  0  0  0
    2.7884   -5.5883   -0.7985 H   0  0  0  0  0  0  0  0  0  0  0  0
    3.2111    0.8694    1.9019 N   0  0  0  0  0  0  0  0  0  0  0  0
    3.9639    1.7901    2.7232 C   0  0  2  0  0  0  0  0  0  0  0  0
    2.9742    2.5988    3.5514 C   0  0  0  0  0  0  0  0  0  0  0  0
    1.7976    2.7514    3.2298 O   0  0  0  0  0  0  0  0  0  0  0  0
    4.8359    2.7025    1.8748 C   0  0  0  0  0  0  0  0  0  0  0  0
    3.4926   -0.1064    1.8891 H   0  0  0  0  0  0  0  0  0  0  0  0
    4.5876    1.1831    3.3885 H   0  0  0  0  0  0  0  0  0  0  0  0
    4.2286    3.3185    1.2016 H   0  0  0  0  0  0  0  0  0  0  0  0
    5.4270    3.3801    2.4997 H   0  0  0  0  0  0  0  0  0  0  0  0
    5.5268    2.1179    1.2577 H   0  0  0  0  0  0  0  0  0  0  0  0
    3.5699    3.1660    4.6692 N   0  0  0  0  0  0  0  0  0  0  0  0
    2.8429    3.9896    5.6068 C   0  0  0  0  0  0  0  0  0  0  0  0
    4.5467    2.9707    4.8681 H   0  0  0  0  0  0  0  0  0  0  0  0
    2.9352    5.0463    5.3157 H   0  0  0  0  0  0  0  0  0  0  0  0
    1.7818    3.6998    5.6032 H   0  0  0  0  0  0  0  0  0  0  0  0
    3.2577    3.8498    6.6159 H   0  0  0  0  0  0  0  0  0  0  0  0
  1  3  1  0  0  0  0
  1  7  1  0  0  0  0
  1  2  2  0  0  0  0
 22 23  1  0  0  0  0
 23 25  1  0  0  0  0
 23 24  2  0  0  0  0
 35 36  1  0  0  0  0
 36 44  1  0  0  0  0
 36 37  2  0  0  0  0
  8  9  1  0  0  0  0
  9 17  1  0  0  0  0
  9 10  2  0  0  0  0
 18 19  1  0  0  0  0
 19 34  1  0  0  0  0
 19 20  2  0  0  0  0
 35 38  1  0  0  0  0
  8 11  1  0  0  0  0
 44 45  1  0  0  0  0
 21 22  1  0  0  0  0
 18 21  1  0  0  0  0
 34 35  1  0  0  0  0
  7  8  1  0  0  0  0
 17 18  1  0  0  0  0
  3  4  1  0  0  0  0
  3  5  1  0  0  0  0
  3  6  1  0  0  0  0
 38 41  1  0  0  0  0
 38 42  1  0  0  0  0
 38 43  1  0  0  0  0
 11 14  1  0  0  0  0
 11 15  1  0  0  0  0
 11 16  1  0  0  0  0
 45 47  1  0  0  0  0
 45 48  1  0  0  0  0
 45 49  1  0  0  0  0
 22 30  1  0  0  0  0
 22 31  1  0  0  0  0
 21 28  1  0  0  0  0
 21 29  1  0  0  0  0
 35 40  1  0  0  0  0
  8 13  1  0  0  0  0
 18 27  1  0  0  0  0
 25 32  1  0  0  0  0
 25 33  1  0  0  0  0
 44 46  1  0  0  0  0
  7 12  1  0  0  0  0
 34 39  1  0  0  0  0
 17 26  1  0  0  0  0
M  END
$$$$

  -OEChem-05262214473D

 49 48  0     1  0  0  0  0  0999 V2000
   -1.9833   -0.0509   -3.3423 C   0  0  0  0  0  0  0  0  0  0  0  0
   -1.6199   -1.0613   -2.7518 O   0  0  0  0  0  0  0  0  0  0  0  0
   -3.3243   -0.0235   -3.9975 C   0  0  0  0  0  0  0  0  0  0  0  0
   -3.2886   -0.3689   -5.0432 H   0  0  0  0  0  0  0  0  0  0  0  0
   -4.0503   -0.6845   -3.4973 H   0  0  0  0  0  0  0  0  0  0  0  0
   -3.8104    0.9645   -4.0351 H   0  0  0  0  0  0  0  0  0  0  0  0
   -1.2607    1.1231   -3.4768 N   0  0  0  0  0  0  0  0  0  0  0  0
    0.0536    1.3115   -2.9213 C   0  0  2  0  0  0  0  0  0  0  0  0
    0.0266    0.8315   -1.4761 C   0  0  0  0  0  0  0  0  0  0  0  0
   -1.0065    0.7530   -0.8146 O   0  0  0  0  0  0  0  0  0  0  0  0
    0.4852    2.7674   -3.0025 C   0  0  0  0  0  0  0  0  0  0  0  0
   -1.6809    1.8924   -3.9952 H   0  0  0  0  0  0  0  0  0  0  0  0
    0.7360    0.6822   -3.5030 H   0  0  0  0  0  0  0  0  0  0  0  0
   -0.1867    3.4133   -2.4256 H   0  0  0  0  0  0  0  0  0  0  0  0
    1.4966    2.9042   -2.6056 H   0  0  0  0  0  0  0  0  0  0  0  0
    0.4754    3.1196   -4.0397 H   0  0  0  0  0  0  0  0  0  0  0  0
    1.2978    0.5411   -0.9947 N   0  0  0  0  0  0  0  0  0  0  0  0
    1.5371    0.0807    0.3489 C   0  0  2  0  0  0  0  0  0  0  0  0
    2.1229    1.2518    1.1300 C   0  0  0  0  0  0  0  0  0  0  0  0
    1.5460    2.3304    1.2510 O   0  0  0  0  0  0  0  0  0  0  0  0
    2.4931   -1.1183    0.3885 C   0  0  0  0  0  0  0  0  0  0  0  0
    1.9071   -2.3845   -0.2393 C   0  0  0  0  0  0  0  0  0  0  0  0
    2.8596   -3.5655   -0.2230 C   0  0  0  0  0  0  0  0  0  0  0  0
    4.0176   -3.5077    0.1802 O   0  0  0  0  0  0  0  0  0  0  0  0
    2.2860   -4.7085   -0.7373 N   0  0  0  0  0  0  0  0  0  0  0  0
    2.0949    0.6178   -1.6227 H   0  0  0  0  0  0  0  0  0  0  0  0
    0.5599   -0.1765    0.7714 H   0  0  0  0  0  0  0  0  0  0  0  0
    3.4162   -0.8613   -0.1480 H   0  0  0  0  0  0  0  0  0  0  0  0
    2.7908   -1.3277    1.4237 H   0  0  0  0  0  0  0  0  0  0  0  0
    1.6715   -2.1797   -1.2910 H   0  0  0  0  0  0  0  0  0  0  0  0
    0.9707   -2.6667    0.2549 H   0  0  0  0  0  0  0  0  0  0  0  0
    1.3271   -4.6690   -1.0664 H   0  0  0  0  0  0  0  0  0  0  0  0
    2.7884   -5.5883   -0.7985 H   0  0  0  0  0  0  0  0  0  0  0  0
    3.3850    0.9636    1.6304 N   0  0  0  0  0  0  0  0  0  0  0  0
    4.1719    1.9081    2.3902 C   0  0  2  0  0  0  0  0  0  0  0  0
    3.2820    2.4932    3.4790 C   0  0  0  0  0  0  0  0  0  0  0  0
    2.0548    2.5034    3.4087 O   0  0  0  0  0  0  0  0  0  0  0  0
    4.7324    3.0052    1.4986 C   0  0  0  0  0  0  0  0  0  0  0  0
    3.7753    0.0427    1.4536 H   0  0  0  0  0  0  0  0  0  0  0  0
    4.9885    1.3414    2.8506 H   0  0  0  0  0  0  0  0  0  0  0  0
    3.9289    3.5838    1.0286 H   0  0  0  0  0  0  0  0  0  0  0  0
    5.3517    3.7038    2.0708 H   0  0  0  0  0  0  0  0  0  0  0  0
    5.3480    2.5804    0.6983 H   0  0  0  0  0  0  0  0  0  0  0  0
    4.0207    3.0412    4.5183 N   0  0  0  0  0  0  0  0  0  0  0  0
    3.4065    3.6689    5.6649 C   0  0  0  0  0  0  0  0  0  0  0  0
    5.0339    2.9709    4.5025 H   0  0  0  0  0  0  0  0  0  0  0  0
    3.3068    4.7491    5.4827 H   0  0  0  0  0  0  0  0  0  0  0  0
    2.4109    3.2321    5.8325 H   0  0  0  0  0  0  0  0  0  0  0  0
    4.0338    3.5034    6.5532 H   0  0  0  0  0  0  0  0  0  0  0  0
  1  3  1  0  0  0  0
  1  7  1  0  0  0  0
  1  2  2  0  0  0  0
 22 23  1  0  0  0  0
 23 25  1  0  0  0  0
 23 24  2  0  0  0  0
 35 36  1  0  0  0  0
 36 44  1  0  0  0  0
 36 37  2  0  0  0  0
  8  9  1  0  0  0  0
  9 17  1  0  0  0  0
  9 10  2  0  0  0  0
 18 19  1  0  0  0  0
 19 34  1  0  0  0  0
 19 20  2  0  0  0  0
 35 38  1  0  0  0  0
  8 11  1  0  0  0  0
 44 45  1  0  0  0  0
 21 22  1  0  0  0  0
 18 21  1  0  0  0  0
 34 35  1  0  0  0  0
  7  8  1  0  0  0  0
 17 18  1  0  0  0  0
  3  4  1  0  0  0  0
  3  5  1  0  0  0  0
  3  6  1  0  0  0  0
 38 41  1  0  0  0  0
 38 42  1  0  0  0  0
 38 43  1  0  0  0  0
 11 14  1  0  0  0  0
 11 15  1  0  0  0  0
 11 16  1  0  0  0  0
 45 47  1  0  0  0  0
 45 48  1  0  0  0  0
 45 49  1  0  0  0  0
 22 30  1  0  0  0  0
 22 31  1  0  0  0  0
 21 28  1  0  0  0  0
 21 29  1  0  0  0  0
 35 40  1  0  0  0  0
  8 13  1  0  0  0  0
 18 27  1  0  0  0  0
 25 32  1  0  0  0  0
 25 33  1  0  0  0  0
 44 46  1  0  0  0  0
  7 12  1  0  0  0  0
 34 39  1  0  0  0  0
 17 26  1  0  0  0  0
M  END
$$$$

  -OEChem-05262214473D

 49 48  0     1  0  0  0  0  0999 V2000
   -1.9833   -0.0509   -3.3423 C   0  0  0  0  0  0  0  0  0  0  0  0
   -1.6199   -1.0613   -2.7518 O   0  0  0  0  0  0  0  0  0  0  0  0
   -3.3243   -0.0235   -3.9975 C   0  0  0  0  0  0  0  0  0  0  0  0
   -3.2886   -0.3689   -5.0432 H   0  0  0  0  0  0  0  0  0  0  0  0
   -4.0503   -0.6845   -3.4973 H   0  0  0  0  0  0  0  0  0  0  0  0
   -3.8104    0.9645   -4.0351 H   0  0  0  0  0  0  0  0  0  0  0  0
   -1.2607    1.1231   -3.4768 N   0  0  0  0  0  0  0  0  0  0  0  0
    0.0536    1.3115   -2.9213 C   0  0  2  0  0  0  0  0  0  0  0  0
    0.0266    0.8315   -1.4761 C   0  0  0  0  0  0  0  0  0  0  0  0
   -1.0065    0.7530   -0.8146 O   0  0  0  0  0  0  0  0  0  0  0  0
    0.4852    2.7674   -3.0025 C   0  0  0  0  0  0  0  0  0  0  0  0
   -1.6809    1.8924   -3.9952 H   0  0  0  0  0  0  0  0  0  0  0  0
    0.7360    0.6822   -3.5030 H   0  0  0  0  0  0  0  0  0  0  0  0
   -0.1867    3.4133   -2.4256 H   0  0  0  0  0  0  0  0  0  0  0  0
    1.4966    2.9042   -2.6056 H   0  0  0  0  0  0  0  0  0  0  0  0
    0.4754    3.1196   -4.0397 H   0  0  0  0  0  0  0  0  0  0  0  0
    1.2978    0.5411   -0.9947 N   0  0  0  0  0  0  0  0  0  0  0  0
    1.5371    0.0807    0.3489 C   0  0  2  0  0  0  0  0  0  0  0  0
    2.1229    1.2518    1.1300 C   0  0  0  0  0  0  0  0  0  0  0  0
    1.4554    2.2226    1.4805 O   0  0  0  0  0  0  0  0  0  0  0  0
    2.4931   -1.1183    0.3885 C   0  0  0  0  0  0  0  0  0  0  0  0
    1.9071   -2.3845   -0.2393 C   0  0  0  0  0  0  0  0  0  0  0  0
    2.8596   -3.5655   -0.2230 C   0  0  0  0  0  0  0  0  0  0  0  0
    4.0176   -3.5077    0.1802 O   0  0  0  0  0  0  0  0  0  0  0  0
    2.2860   -4.7085   -0.7373 N   0  0  0  0  0  0  0  0  0  0  0  0
    2.0949    0.6178   -1.6227 H   0  0  0  0  0  0  0  0  0  0  0  0
    0.5599   -0.1765    0.7714 H   0  0  0  0  0  0  0  0  0  0  0  0
    3.4162   -0.8613   -0.1480 H   0  0  0  0  0  0  0  0  0  0  0  0
    2.7908   -1.3277    1.4237 H   0  0  0  0  0  0  0  0  0  0  0  0
    1.6715   -2.1797   -1.2910 H   0  0  0  0  0  0  0  0  0  0  0  0
    0.9707   -2.6667    0.2549 H   0  0  0  0  0  0  0  0  0  0  0  0
    1.3271   -4.6690   -1.0664 H   0  0  0  0  0  0  0  0  0  0  0  0
    2.7884   -5.5883   -0.7985 H   0  0  0  0  0  0  0  0  0  0  0  0
    3.4865    1.1046    1.3428 N   0  0  0  0  0  0  0  0  0  0  0  0
    4.2909    2.0828    2.0391 C   0  0  2  0  0  0  0  0  0  0  0  0
    3.5789    2.4391    3.3374 C   0  0  0  0  0  0  0  0  0  0  0  0
    2.3717    2.2802    3.5058 O   0  0  0  0  0  0  0  0  0  0  0  0
    4.5175    3.3212    1.1859 C   0  0  0  0  0  0  0  0  0  0  0  0
    3.9419    0.2674    0.9916 H   0  0  0  0  0  0  0  0  0  0  0  0
    5.2479    1.6009    2.2670 H   0  0  0  0  0  0  0  0  0  0  0  0
    3.5698    3.8176    0.9473 H   0  0  0  0  0  0  0  0  0  0  0  0
    5.1508    4.0492    1.7036 H   0  0  0  0  0  0  0  0  0  0  0  0
    5.0028    3.0590    0.2396 H   0  0  0  0  0  0  0  0  0  0  0  0
    4.4426    2.9954    4.2705 N   0  0  0  0  0  0  0  0  0  0  0  0
    4.0050    3.4281    5.5771 C   0  0  0  0  0  0  0  0  0  0  0  0
    5.4317    3.0720    4.0526 H   0  0  0  0  0  0  0  0  0  0  0  0
    3.7384    4.4947    5.5405 H   0  0  0  0  0  0  0  0  0  0  0  0
    3.1263    2.8409    5.8825 H   0  0  0  0  0  0  0  0  0  0  0  0
    4.8169    3.2780    6.3040 H   0  0  0  0  0  0  0  0  0  0  0  0
  1  3  1  0  0  0  0
  1  7  1  0  0  0  0
  1  2  2  0  0  0  0
 22 23  1  0  0  0  0
 23 25  1  0  0  0  0
 23 24  2  0  0  0  0
 35 36  1  0  0  0  0
 36 44  1  0  0  0  0
 36 37  2  0  0  0  0
  8  9  1  0  0  0  0
  9 17  1  0  0  0  0
  9 10  2  0  0  0  0
 18 19  1  0  0  0  0
 19 34  1  0  0  0  0
 19 20  2  0  0  0  0
 35 38  1  0  0  0  0
  8 11  1  0  0  0  0
 44 45  1  0  0  0  0
 21 22  1  0  0  0  0
 18 21  1  0  0  0  0
 34 35  1  0  0  0  0
  7  8  1  0  0  0  0
 17 18  1  0  0  0  0
  3  4  1  0  0  0  0
  3  5  1  0  0  0  0
  3  6  1  0  0  0  0
 38 41  1  0  0  0  0
 38 42  1  0  0  0  0
 38 43  1  0  0  0  0
 11 14  1  0  0  0  0
 11 15  1  0  0  0  0
 11 16  1  0  0  0  0
 45 47  1  0  0  0  0
 45 48  1  0  0  0  0
 45 49  1  0  0  0  0
 22 30  1  0  0  0  0
 22 31  1  0  0  0  0
 21 28  1  0  0  0  0
 21 29  1  0  0  0  0
 35 40  1  0  0  0  0
  8 13  1  0  0  0  0
 18 27  1  0  0  0  0
 25 32  1  0  0  0  0
 25 33  1  0  0  0  0
 44 46  1  0  0  0  0
  7 12  1  0  0  0  0
 34 39  1  0  0  0  0
 17 26  1  0  0  0  0
M  END
$$$$

  -OEChem-05262214473D

 49 48  0     1  0  0  0  0  0999 V2000
   -1.9833   -0.0509   -3.3423 C   0  0  0  0  0  0  0  0  0  0  0  0
   -1.6199   -1.0613   -2.7518 O   0  0  0  0  0  0  0  0  0  0  0  0
   -3.3243   -0.0235   -3.9975 C   0  0  0  0  0  0  0  0  0  0  0  0
   -3.2886   -0.3689   -5.0432 H   0  0  0  0  0  0  0  0  0  0  0  0
   -4.0503   -0.6845   -3.4973 H   0  0  0  0  0  0  0  0  0  0  0  0
   -3.8104    0.9645   -4.0351 H   0  0  0  0  0  0  0  0  0  0  0  0
   -1.2607    1.1231   -3.4768 N   0  0  0  0  0  0  0  0  0  0  0  0
    0.0536    1.3115   -2.9213 C   0  0  2  0  0  0  0  0  0  0  0  0
    0.0266    0.8315   -1.4761 C   0  0  0  0  0  0  0  0  0  0  0  0
   -1.0065    0.7530   -0.8146 O   0  0  0  0  0  0  0  0  0  0  0  0
    0.4852    2.7674   -3.0025 C   0  0  0  0  0  0  0  0  0  0  0  0
   -1.6809    1.8924   -3.9952 H   0  0  0  0  0  0  0  0  0  0  0  0
    0.7360    0.6822   -3.5030 H   0  0  0  0  0  0  0  0  0  0  0  0
   -0.1867    3.4133   -2.4256 H   0  0  0  0  0  0  0  0  0  0  0  0
    1.4966    2.9042   -2.6056 H   0  0  0  0  0  0  0  0  0  0  0  0
    0.4754    3.1196   -4.0397 H   0  0  0  0  0  0  0  0  0  0  0  0
    1.2978    0.5411   -0.9947 N   0  0  0  0  0  0  0  0  0  0  0  0
    1.5371    0.0807    0.3489 C   0  0  2  0  0  0  0  0  0  0  0  0
    2.1229    1.2518    1.1300 C   0  0  0  0  0  0  0  0  0  0  0  0
    1.4279    2.0837    1.7095 O   0  0  0  0  0  0  0  0  0  0  0  0
    2.4931   -1.1183    0.3885 C   0  0  0  0  0  0  0  0  0  0  0  0
    1.9071   -2.3845   -0.2393 C   0  0  0  0  0  0  0  0  0  0  0  0
    2.8596   -3.5655   -0.2230 C   0  0  0  0  0  0  0  0  0  0  0  0
    4.0176   -3.5077    0.1802 O   0  0  0  0  0  0  0  0  0  0  0  0
    2.2860   -4.7085   -0.7373 N   0  0  0  0  0  0  0  0  0  0  0  0
    2.0949    0.6178   -1.6227 H   0  0  0  0  0  0  0  0  0  0  0  0
    0.5599   -0.1765    0.7714 H   0  0  0  0  0  0  0  0  0  0  0  0
    3.4162   -0.8613   -0.1480 H   0  0  0  0  0  0  0  0  0  0  0  0
    2.7908   -1.3277    1.4237 H   0  0  0  0  0  0  0  0  0  0  0  0
    1.6715   -2.1797   -1.2910 H   0  0  0  0  0  0  0  0  0  0  0  0
    0.9707   -2.6667    0.2549 H   0  0  0  0  0  0  0  0  0  0  0  0
    1.3271   -4.6690   -1.0664 H   0  0  0  0  0  0  0  0  0  0  0  0
    2.7884   -5.5883   -0.7985 H   0  0  0  0  0  0  0  0  0  0  0  0
    3.5087    1.2829    1.0589 N   0  0  0  0  0  0  0  0  0  0  0  0
    4.3129    2.3023    1.6935 C   0  0  2  0  0  0  0  0  0  0  0  0
    3.8448    2.4403    3.1362 C   0  0  0  0  0  0  0  0  0  0  0  0
    2.7267    2.0969    3.5143 O   0  0  0  0  0  0  0  0  0  0  0  0
    4.2059    3.6290    0.9581 C   0  0  0  0  0  0  0  0  0  0  0  0
    3.9813    0.5526    0.5346 H   0  0  0  0  0  0  0  0  0  0  0  0
    5.3480    1.9440    1.6775 H   0  0  0  0  0  0  0  0  0  0  0  0
    3.1759    4.0039    0.9635 H   0  0  0  0  0  0  0  0  0  0  0  0
    4.8379    4.3927    1.4232 H   0  0  0  0  0  0  0  0  0  0  0  0
    4.5148    3.5212   -0.0873 H   0  0  0  0  0  0  0  0  0  0  0  0
    4.8069    3.0317    3.9428 N   0  0  0  0  0  0  0  0  0  0  0  0
    4.5975    3.2836    5.3494 C   0  0  0  0  0  0  0  0  0  0  0  0
    5.7132    3.2671    3.5489 H   0  0  0  0  0  0  0  0  0  0  0  0
    4.2004    4.3004    5.4853 H   0  0  0  0  0  0  0  0  0  0  0  0
    3.8791    2.5530    5.7496 H   0  0  0  0  0  0  0  0  0  0  0  0
    5.5536    3.1888    5.8851 H   0  0  0  0  0  0  0  0  0  0  0  0
  1  3  1  0  0  0  0
  1  7  1  0  0  0  0
  1  2  2  0  0  0  0
 22 23  1  0  0  0  0
 23 25  1  0  0  0  0
 23 24  2  0  0  0  0
 35 36  1  0  0  0  0
 36 44  1  0  0  0  0
 36 37  2  0  0  0  0
  8  9  1  0  0  0  0
  9 17  1  0  0  0  0
  9 10  2  0  0  0  0
 18 19  1  0  0  0  0
 19 34  1  0  0  0  0
 19 20  2  0  0  0  0
 35 38  1  0  0  0  0
  8 11  1  0  0  0  0
 44 45  1  0  0  0  0
 21 22  1  0  0  0  0
 18 21  1  0  0  0  0
 34 35  1  0  0  0  0
  7  8  1  0  0  0  0
 17 18  1  0  0  0  0
  3  4  1  0  0  0  0
  3  5  1  0  0  0  0
  3  6  1  0  0  0  0
 38 41  1  0  0  0  0
 38 42  1  0  0  0  0
 38 43  1  0  0  0  0
 11 14  1  0  0  0  0
 11 15  1  0  0  0  0
 11 16  1  0  0  0  0
 45 47  1  0  0  0  0
 45 48  1  0  0  0  0
 45 49  1  0  0  0  0
 22 30  1  0  0  0  0
 22 31  1  0  0  0  0
 21 28  1  0  0  0  0
 21 29  1  0  0  0  0
 35 40  1  0  0  0  0
  8 13  1  0  0  0  0
 18 27  1  0  0  0  0
 25 32  1  0  0  0  0
 25 33  1  0  0  0  0
 44 46  1  0  0  0  0
  7 12  1  0  0  0  0
 34 39  1  0  0  0  0
 17 26  1  0  0  0  0
M  END
$$$$

  -OEChem-05262214473D

 49 48  0     1  0  0  0  0  0999 V2000
   -1.9833   -0.0509   -3.3423 C   0  0  0  0  0  0  0  0  0  0  0  0
   -1.6199   -1.0613   -2.7518 O   0  0  0  0  0  0  0  0  0  0  0  0
   -3.3243   -0.0235   -3.9975 C   0  0  0  0  0  0  0  0  0  0  0  0
   -3.2886   -0.3689   -5.0432 H   0  0  0  0  0  0  0  0  0  0  0  0
   -4.0503   -0.6845   -3.4973 H   0  0  0  0  0  0  0  0  0  0  0  0
   -3.8104    0.9645   -4.0351 H   0  0  0  0  0  0  0  0  0  0  0  0
   -1.2607    1.1231   -3.4768 N   0  0  0  0  0  0  0  0  0  0  0  0
    0.0536    1.3115   -2.9213 C   0  0  2  0  0  0  0  0  0  0  0  0
    0.0266    0.8315   -1.4761 C   0  0  0  0  0  0  0  0  0  0  0  0
   -1.0065    0.7530   -0.8146 O   0  0  0  0  0  0  0  0  0  0  0  0
    0.4852    2.7674   -3.0025 C   0  0  0  0  0  0  0  0  0  0  0  0
   -1.6809    1.8924   -3.9952 H   0  0  0  0  0  0  0  0  0  0  0  0
    0.7360    0.6822   -3.5030 H   0  0  0  0  0  0  0  0  0  0  0  0
   -0.1867    3.4133   -2.4256 H   0  0  0  0  0  0  0  0  0  0  0  0
    1.4966    2.9042   -2.6056 H   0  0  0  0  0  0  0  0  0  0  0  0
    0.4754    3.1196   -4.0397 H   0  0  0  0  0  0  0  0  0  0  0  0
    1.2978    0.5411   -0.9947 N   0  0  0  0  0  0  0  0  0  0  0  0
    1.5371    0.0807    0.3489 C   0  0  2  0  0  0  0  0  0  0  0  0
    2.1229    1.2518    1.1300 C   0  0  0  0  0  0  0  0  0  0  0  0
    1.4652    1.9231    1.9223 O   0  0  0  0  0  0  0  0  0  0  0  0
    2.4931   -1.1183    0.3885 C   0  0  0  0  0  0  0  0  0  0  0  0
    1.9071   -2.3845   -0.2393 C   0  0  0  0  0  0  0  0  0  0  0  0
    2.8596   -3.5655   -0.2230 C   0  0  0  0  0  0  0  0  0  0  0  0
    4.0176   -3.5077    0.1802 O   0  0  0  0  0  0  0  0  0  0  0  0
    2.2860   -4.7085   -0.7373 N   0  0  0  0  0  0  0  0  0  0  0  0
    2.0949    0.6178   -1.6227 H   0  0  0  0  0  0  0  0  0  0  0  0
    0.5599   -0.1765    0.7714 H   0  0  0  0  0  0  0  0  0  0  0  0
    3.4162   -0.8613   -0.1480 H   0  0  0  0  0  0  0  0  0  0  0  0
    2.7908   -1.3277    1.4237 H   0  0  0  0  0  0  0  0  0  0  0  0
    1.6715   -2.1797   -1.2910 H   0  0  0  0  0  0  0  0  0  0  0  0
    0.9707   -2.6667    0.2549 H   0  0  0  0  0  0  0  0  0  0  0  0
    1.3271   -4.6690   -1.0664 H   0  0  0  0  0  0  0  0  0  0  0  0
    2.7884   -5.5883   -0.7985 H   0  0  0  0  0  0  0  0  0  0  0  0
    3.4500    1.4862    0.7980 N   0  0  0  0  0  0  0  0  0  0  0  0
    4.2364    2.5515    1.3772 C   0  0  2  0  0  0  0  0  0  0  0  0
    4.0614    2.4967    2.8891 C   0  0  0  0  0  0  0  0  0  0  0  0
    3.0956    1.9661    3.4338 O   0  0  0  0  0  0  0  0  0  0  0  0
    3.8188    3.9078    0.8305 C   0  0  0  0  0  0  0  0  0  0  0  0
    3.8906    0.8786    0.1137 H   0  0  0  0  0  0  0  0  0  0  0  0
    5.2820    2.3472    1.1224 H   0  0  0  0  0  0  0  0  0  0  0  0
    2.7738    4.1299    1.0760 H   0  0  0  0  0  0  0  0  0  0  0  0
    4.4345    4.7109    1.2488 H   0  0  0  0  0  0  0  0  0  0  0  0
    3.9170    3.9354   -0.2601 H   0  0  0  0  0  0  0  0  0  0  0  0
    5.0889    3.1478    3.5574 N   0  0  0  0  0  0  0  0  0  0  0  0
    5.1438    3.2452    4.9973 C   0  0  0  0  0  0  0  0  0  0  0  0
    5.8590    3.5430    3.0259 H   0  0  0  0  0  0  0  0  0  0  0  0
    4.6616    4.1795    5.3208 H   0  0  0  0  0  0  0  0  0  0  0  0
    4.6179    2.3880    5.4430 H   0  0  0  0  0  0  0  0  0  0  0  0
    6.1938    3.2421    5.3252 H   0  0  0  0  0  0  0  0  0  0  0  0
  1  3  1  0  0  0  0
  1  7  1  0  0  0  0
  1  2  2  0  0  0  0
 22 23  1  0  0  0  0
 23 25  1  0  0  0  0
 23 24  2  0  0  0  0
 35 36  1  0  0  0  0
 36 44  1  0  0  0  0
 36 37  2  0  0  0  0
  8  9  1  0  0  0  0
  9 17  1  0  0  0  0
  9 10  2  0  0  0  0
 18 19  1  0  0  0  0
 19 34  1  0  0  0  0
 19 20  2  0  0  0  0
 35 38  1  0  0  0  0
  8 11  1  0  0  0  0
 44 45  1  0  0  0  0
 21 22  1  0  0  0  0
 18 21  1  0  0  0  0
 34 35  1  0  0  0  0
  7  8  1  0  0  0  0
 17 18  1  0  0  0  0
  3  4  1  0  0  0  0
  3  5  1  0  0  0  0
  3  6  1  0  0  0  0
 38 41  1  0  0  0  0
 38 42  1  0  0  0  0
 38 43  1  0  0  0  0
 11 14  1  0  0  0  0
 11 15  1  0  0  0  0
 11 16  1  0  0  0  0
 45 47  1  0  0  0  0
 45 48  1  0  0  0  0
 45 49  1  0  0  0  0
 22 30  1  0  0  0  0
 22 31  1  0  0  0  0
 21 28  1  0  0  0  0
 21 29  1  0  0  0  0
 35 40  1  0  0  0  0
  8 13  1  0  0  0  0
 18 27  1  0  0  0  0
 25 32  1  0  0  0  0
 25 33  1  0  0  0  0
 44 46  1  0  0  0  0
  7 12  1  0  0  0  0
 34 39  1  0  0  0  0
 17 26  1  0  0  0  0
M  END
$$$$

  -OEChem-05262214473D

 49 48  0     1  0  0  0  0  0999 V2000
   -1.9833   -0.0509   -3.3423 C   0  0  0  0  0  0  0  0  0  0  0  0
   -1.6199   -1.0613   -2.7518 O   0  0  0  0  0  0  0  0  0  0  0  0
   -3.3243   -0.0235   -3.9975 C   0  0  0  0  0  0  0  0  0  0  0  0
   -3.2886   -0.3689   -5.0432 H   0  0  0  0  0  0  0  0  0  0  0  0
   -4.0503   -0.6845   -3.4973 H   0  0  0  0  0  0  0  0  0  0  0  0
   -3.8104    0.9645   -4.0351 H   0  0  0  0  0  0  0  0  0  0  0  0
   -1.2607    1.1231   -3.4768 N   0  0  0  0  0  0  0  0  0  0  0  0
    0.0536    1.3115   -2.9213 C   0  0  2  0  0  0  0  0  0  0  0  0
    0.0266    0.8315   -1.4761 C   0  0  0  0  0  0  0  0  0  0  0  0
   -1.0065    0.7530   -0.8146 O   0  0  0  0  0  0  0  0  0  0  0  0
    0.4852    2.7674   -3.0025 C   0  0  0  0  0  0  0  0  0  0  0  0
   -1.6809    1.8924   -3.9952 H   0  0  0  0  0  0  0  0  0  0  0  0
    0.7360    0.6822   -3.5030 H   0  0  0  0  0  0  0  0  0  0  0  0
   -0.1867    3.4133   -2.4256 H   0  0  0  0  0  0  0  0  0  0  0  0
    1.4966    2.9042   -2.6056 H   0  0  0  0  0  0  0  0  0  0  0  0
    0.4754    3.1196   -4.0397 H   0  0  0  0  0  0  0  0  0  0  0  0
    1.2978    0.5411   -0.9947 N   0  0  0  0  0  0  0  0  0  0  0  0
    1.5371    0.0807    0.3489 C   0  0  2  0  0  0  0  0  0  0  0  0
    2.1229    1.2518    1.1300 C   0  0  0  0  0  0  0  0  0  0  0  0
    1.5649    1.7517    2.1045 O   0  0  0  0  0  0  0  0  0  0  0  0
    2.4931   -1.1183    0.3885 C   0  0  0  0  0  0  0  0  0  0  0  0
    1.9071   -2.3845   -0.2393 C   0  0  0  0  0  0  0  0  0  0  0  0
    2.8596   -3.5655   -0.2230 C   0  0  0  0  0  0  0  0  0  0  0  0
    4.0176   -3.5077    0.1802 O   0  0  0  0  0  0  0  0  0  0  0  0
    2.2860   -4.7085   -0.7373 N   0  0  0  0  0  0  0  0  0  0  0  0
    2.0949    0.6178   -1.6227 H   0  0  0  0  0  0  0  0  0  0  0  0
    0.5599   -0.1765    0.7714 H   0  0  0  0  0  0  0  0  0  0  0  0
    3.4162   -0.8613   -0.1480 H   0  0  0  0  0  0  0  0  0  0  0  0
    2.7908   -1.3277    1.4237 H   0  0  0  0  0  0  0  0  0  0  0  0
    1.6715   -2.1797   -1.2910 H   0  0  0  0  0  0  0  0  0  0  0  0
    0.9707   -2.6667    0.2549 H   0  0  0  0  0  0  0  0  0  0  0  0
    1.3271   -4.6690   -1.0664 H   0  0  0  0  0  0  0  0  0  0  0  0
    2.7884   -5.5883   -0.7985 H   0  0  0  0  0  0  0  0  0  0  0  0
    3.3145    1.7008    0.5779 N   0  0  0  0  0  0  0  0  0  0  0  0
    4.0666    2.8136    1.1117 C   0  0  2  0  0  0  0  0  0  0  0  0
    4.2141    2.6045    2.6130 C   0  0  0  0  0  0  0  0  0  0  0  0
    3.4532    1.8967    3.2697 O   0  0  0  0  0  0  0  0  0  0  0  0
    3.3825    4.1383    0.8120 C   0  0  0  0  0  0  0  0  0  0  0  0
    3.6762    1.2234   -0.2424 H   0  0  0  0  0  0  0  0  0  0  0  0
    5.0545    2.7832    0.6393 H   0  0  0  0  0  0  0  0  0  0  0  0
    2.3912    4.1872    1.2771 H   0  0  0  0  0  0  0  0  0  0  0  0
    3.9679    4.9821    1.1921 H   0  0  0  0  0  0  0  0  0  0  0  0
    3.2504    4.2734   -0.2670 H   0  0  0  0  0  0  0  0  0  0  0  0
    5.2693    3.3356    3.1406 N   0  0  0  0  0  0  0  0  0  0  0  0
    5.6065    3.3156    4.5448 C   0  0  0  0  0  0  0  0  0  0  0  0
    5.8594    3.8808    2.5191 H   0  0  0  0  0  0  0  0  0  0  0  0
    5.0903    4.1402    5.0582 H   0  0  0  0  0  0  0  0  0  0  0  0
    5.2926    2.3569    4.9835 H   0  0  0  0  0  0  0  0  0  0  0  0
    6.6938    3.4341    4.6624 H   0  0  0  0  0  0  0  0  0  0  0  0
  1  3  1  0  0  0  0
  1  7  1  0  0  0  0
  1  2  2  0  0  0  0
 22 23  1  0  0  0  0
 23 25  1  0  0  0  0
 23 24  2  0  0  0  0
 35 36  1  0  0  0  0
 36 44  1  0  0  0  0
 36 37  2  0  0  0  0
  8  9  1  0  0  0  0
  9 17  1  0  0  0  0
  9 10  2  0  0  0  0
 18 19  1  0  0  0  0
 19 34  1  0  0  0  0
 19 20  2  0  0  0  0
 35 38  1  0  0  0  0
  8 11  1  0  0  0  0
 44 45  1  0  0  0  0
 21 22  1  0  0  0  0
 18 21  1  0  0  0  0
 34 35  1  0  0  0  0
  7  8  1  0  0  0  0
 17 18  1  0  0  0  0
  3  4  1  0  0  0  0
  3  5  1  0  0  0  0
  3  6  1  0  0  0  0
 38 41  1  0  0  0  0
 38 42  1  0  0  0  0
 38 43  1  0  0  0  0
 11 14  1  0  0  0  0
 11 15  1  0  0  0  0
 11 16  1  0  0  0  0
 45 47  1  0  0  0  0
 45 48  1  0  0  0  0
 45 49  1  0  0  0  0
 22 30  1  0  0  0  0
 22 31  1  0  0  0  0
 21 28  1  0  0  0  0
 21 29  1  0  0  0  0
 35 40  1  0  0  0  0
  8 13  1  0  0  0  0
 18 27  1  0  0  0  0
 25 32  1  0  0  0  0
 25 33  1  0  0  0  0
 44 46  1  0  0  0  0
  7 12  1  0  0  0  0
 34 39  1  0  0  0  0
 17 26  1  0  0  0  0
M  END
$$$$

  -OEChem-05262214473D

 49 48  0     1  0  0  0  0  0999 V2000
   -1.9833   -0.0509   -3.3423 C   0  0  0  0  0  0  0  0  0  0  0  0
   -1.6199   -1.0613   -2.7518 O   0  0  0  0  0  0  0  0  0  0  0  0
   -3.3243   -0.0235   -3.9975 C   0  0  0  0  0  0  0  0  0  0  0  0
   -3.2886   -0.3689   -5.0432 H   0  0  0  0  0  0  0  0  0  0  0  0
   -4.0503   -0.6845   -3.4973 H   0  0  0  0  0  0  0  0  0  0  0  0
   -3.8104    0.9645   -4.0351 H   0  0  0  0  0  0  0  0  0  0  0  0
   -1.2607    1.1231   -3.4768 N   0  0  0  0  0  0  0  0  0  0  0  0
    0.0536    1.3115   -2.9213 C   0  0  2  0  0  0  0  0  0  0  0  0
    0.0266    0.8315   -1.4761 C   0  0  0  0  0  0  0  0  0  0  0  0
   -1.0065    0.7530   -0.8146 O   0  0  0  0  0  0  0  0  0  0  0  0
    0.4852    2.7674   -3.0025 C   0  0  0  0  0  0  0  0  0  0  0  0
   -1.6809    1.8924   -3.9952 H   0  0  0  0  0  0  0  0  0  0  0  0
    0.7360    0.6822   -3.5030 H   0  0  0  0  0  0  0  0  0  0  0  0
   -0.1867    3.4133   -2.4256 H   0  0  0  0  0  0  0  0  0  0  0  0
    1.4966    2.9042   -2.6056 H   0  0  0  0  0  0  0  0  0  0  0  0
    0.4754    3.1196   -4.0397 H   0  0  0  0  0  0  0  0  0  0  0  0
    1.2978    0.5411   -0.9947 N   0  0  0  0  0  0  0  0  0  0  0  0
    1.5371    0.0807    0.3489 C   0  0  2  0  0  0  0  0  0  0  0  0
    2.1229    1.2518    1.1300 C   0  0  0  0  0  0  0  0  0  0  0  0
    1.7201    1.5813    2.2436 O   0  0  0  0  0  0  0  0  0  0  0  0
    2.4931   -1.1183    0.3885 C   0  0  0  0  0  0  0  0  0  0  0  0
    1.9071   -2.3845   -0.2393 C   0  0  0  0  0  0  0  0  0  0  0  0
    2.8596   -3.5655   -0.2230 C   0  0  0  0  0  0  0  0  0  0  0  0
    4.0176   -3.5077    0.1802 O   0  0  0  0  0  0  0  0  0  0  0  0
    2.2860   -4.7085   -0.7373 N   0  0  0  0  0  0  0  0  0  0  0  0
    2.0949    0.6178   -1.6227 H   0  0  0  0  0  0  0  0  0  0  0  0
    0.5599   -0.1765    0.7714 H   0  0  0  0  0  0  0  0  0  0  0  0
    3.4162   -0.8613   -0.1480 H   0  0  0  0  0  0  0  0  0  0  0  0
    2.7908   -1.3277    1.4237 H   0  0  0  0  0  0  0  0  0  0  0  0
    1.6715   -2.1797   -1.2910 H   0  0  0  0  0  0  0  0  0  0  0  0
    0.9707   -2.6667    0.2549 H   0  0  0  0  0  0  0  0  0  0  0  0
    1.3271   -4.6690   -1.0664 H   0  0  0  0  0  0  0  0  0  0  0  0
    2.7884   -5.5883   -0.7985 H   0  0  0  0  0  0  0  0  0  0  0  0
    3.1114    1.9120    0.4136 N   0  0  0  0  0  0  0  0  0  0  0  0
    3.8150    3.0706    0.9150 C   0  0  2  0  0  0  0  0  0  0  0  0
    4.2923    2.7563    2.3267 C   0  0  0  0  0  0  0  0  0  0  0  0
    3.7752    1.8934    3.0331 O   0  0  0  0  0  0  0  0  0  0  0  0
    2.9269    4.3050    0.9037 C   0  0  0  0  0  0  0  0  0  0  0  0
    3.3525    1.5635   -0.5095 H   0  0  0  0  0  0  0  0  0  0  0  0
    4.6808    3.2222    0.2614 H   0  0  0  0  0  0  0  0  0  0  0  0
    2.0539    4.1718    1.5531 H   0  0  0  0  0  0  0  0  0  0  0  0
    3.4700    5.1878    1.2571 H   0  0  0  0  0  0  0  0  0  0  0  0
    2.5603    4.5122   -0.1075 H   0  0  0  0  0  0  0  0  0  0  0  0
    5.3357    3.5823    2.7208 N   0  0  0  0  0  0  0  0  0  0  0  0
    5.9542    3.4899    4.0227 C   0  0  0  0  0  0  0  0  0  0  0  0
    5.7142    4.2576    2.0632 H   0  0  0  0  0  0  0  0  0  0  0  0
    5.4574    4.1852    4.7154 H   0  0  0  0  0  0  0  0  0  0  0  0
    5.8570    2.4621    4.4025 H   0  0  0  0  0  0  0  0  0  0  0  0
    7.0195    3.7517    3.9418 H   0  0  0  0  0  0  0  0  0  0  0  0
  1  3  1  0  0  0  0
  1  7  1  0  0  0  0
  1  2  2  0  0  0  0
 22 23  1  0  0  0  0
 23 25  1  0  0  0  0
 23 24  2  0  0  0  0
 35 36  1  0  0  0  0
 36 44  1  0  0  0  0
 36 37  2  0  0  0  0
  8  9  1  0  0  0  0
  9 17  1  0  0  0  0
  9 10  2  0  0  0  0
 18 19  1  0  0  0  0
 19 34  1  0  0  0  0
 19 20  2  0  0  0  0
 35 38  1  0  0  0  0
  8 11  1  0  0  0  0
 44 45  1  0  0  0  0
 21 22  1  0  0  0  0
 18 21  1  0  0  0  0
 34 35  1  0  0  0  0
  7  8  1  0  0  0  0
 17 18  1  0  0  0  0
  3  4  1  0  0  0  0
  3  5  1  0  0  0  0
  3  6  1  0  0  0  0
 38 41  1  0  0  0  0
 38 42  1  0  0  0  0
 38 43  1  0  0  0  0
 11 14  1  0  0  0  0
 11 15  1  0  0  0  0
 11 16  1  0  0  0  0
 45 47  1  0  0  0  0
 45 48  1  0  0  0  0
 45 49  1  0  0  0  0
 22 30  1  0  0  0  0
 22 31  1  0  0  0  0
 21 28  1  0  0  0  0
 21 29  1  0  0  0  0
 35 40  1  0  0  0  0
  8 13  1  0  0  0  0
 18 27  1  0  0  0  0
 25 32  1  0  0  0  0
 25 33  1  0  0  0  0
 44 46  1  0  0  0  0
  7 12  1  0  0  0  0
 34 39  1  0  0  0  0
 17 26  1  0  0  0  0
M  END
$$$$

  -OEChem-05262214473D

 49 48  0     1  0  0  0  0  0999 V2000
   -1.9833   -0.0509   -3.3423 C   0  0  0  0  0  0  0  0  0  0  0  0
   -1.6199   -1.0613   -2.7518 O   0  0  0  0  0  0  0  0  0  0  0  0
   -3.3243   -0.0235   -3.9975 C   0  0  0  0  0  0  0  0  0  0  0  0
   -3.2886   -0.3689   -5.0432 H   0  0  0  0  0  0  0  0  0  0  0  0
   -4.0503   -0.6845   -3.4973 H   0  0  0  0  0  0  0  0  0  0  0  0
   -3.8104    0.9645   -4.0351 H   0  0  0  0  0  0  0  0  0  0  0  0
   -1.2607    1.1231   -3.4768 N   0  0  0  0  0  0  0  0  0  0  0  0
    0.0536    1.3115   -2.9213 C   0  0  2  0  0  0  0  0  0  0  0  0
    0.0266    0.8315   -1.4761 C   0  0  0  0  0  0  0  0  0  0  0  0
   -1.0065    0.7530   -0.8146 O   0  0  0  0  0  0  0  0  0  0  0  0
    0.4852    2.7674   -3.0025 C   0  0  0  0  0  0  0  0  0  0  0  0
   -1.6809    1.8924   -3.9952 H   0  0  0  0  0  0  0  0  0  0  0  0
    0.7360    0.6822   -3.5030 H   0  0  0  0  0  0  0  0  0  0  0  0
   -0.1867    3.4133   -2.4256 H   0  0  0  0  0  0  0  0  0  0  0  0
    1.4966    2.9042   -2.6056 H   0  0  0  0  0  0  0  0  0  0  0  0
    0.4754    3.1196   -4.0397 H   0  0  0  0  0  0  0  0  0  0  0  0
    1.2978    0.5411   -0.9947 N   0  0  0  0  0  0  0  0  0  0  0  0
    1.5371    0.0807    0.3489 C   0  0  2  0  0  0  0  0  0  0  0  0
    2.1229    1.2518    1.1300 C   0  0  0  0  0  0  0  0  0  0  0  0
    1.9202    1.4234    2.3301 O   0  0  0  0  0  0  0  0  0  0  0  0
    2.4931   -1.1183    0.3885 C   0  0  0  0  0  0  0  0  0  0  0  0
    1.9071   -2.3845   -0.2393 C   0  0  0  0  0  0  0  0  0  0  0  0
    2.8596   -3.5655   -0.2230 C   0  0  0  0  0  0  0  0  0  0  0  0
    4.0176   -3.5077    0.1802 O   0  0  0  0  0  0  0  0  0  0  0  0
    2.2860   -4.7085   -0.7373 N   0  0  0  0  0  0  0  0  0  0  0  0
    2.0949    0.6178   -1.6227 H   0  0  0  0  0  0  0  0  0  0  0  0
    0.5599   -0.1765    0.7714 H   0  0  0  0  0  0  0  0  0  0  0  0
    3.4162   -0.8613   -0.1480 H   0  0  0  0  0  0  0  0  0  0  0  0
    2.7908   -1.3277    1.4237 H   0  0  0  0  0  0  0  0  0  0  0  0
    1.6715   -2.1797   -1.2910 H   0  0  0  0  0  0  0  0  0  0  0  0
    0.9707   -2.6667    0.2549 H   0  0  0  0  0  0  0  0  0  0  0  0
    1.3271   -4.6690   -1.0664 H   0  0  0  0  0  0  0  0  0  0  0  0
    2.7884   -5.5883   -0.7985 H   0  0  0  0  0  0  0  0  0  0  0  0
    2.8546    2.1054    0.3162 N   0  0  0  0  0  0  0  0  0  0  0  0
    3.4988    3.3050    0.8006 C   0  0  2  0  0  0  0  0  0  0  0  0
    4.2909    2.9418    2.0497 C   0  0  0  0  0  0  0  0  0  0  0  0
    4.0397    1.9564    2.7403 O   0  0  0  0  0  0  0  0  0  0  0  0
    2.4829    4.3965    1.0995 C   0  0  0  0  0  0  0  0  0  0  0  0
    2.9416    1.8756   -0.6693 H   0  0  0  0  0  0  0  0  0  0  0  0
    4.1866    3.6343    0.0142 H   0  0  0  0  0  0  0  0  0  0  0  0
    1.7850    4.0848    1.8852 H   0  0  0  0  0  0  0  0  0  0  0  0
    2.9746    5.3140    1.4393 H   0  0  0  0  0  0  0  0  0  0  0  0
    1.8938    4.6355    0.2075 H   0  0  0  0  0  0  0  0  0  0  0  0
    5.2837    3.8712    2.3267 N   0  0  0  0  0  0  0  0  0  0  0  0
    6.1631    3.7563    3.4666 C   0  0  0  0  0  0  0  0  0  0  0  0
    5.4333    4.6476    1.6890 H   0  0  0  0  0  0  0  0  0  0  0  0
    5.7379    4.3114    4.3158 H   0  0  0  0  0  0  0  0  0  0  0  0
    6.2727    2.6964    3.7396 H   0  0  0  0  0  0  0  0  0  0  0  0
    7.1488    4.1734    3.2127 H   0  0  0  0  0  0  0  0  0  0  0  0
  1  3  1  0  0  0  0
  1  7  1  0  0  0  0
  1  2  2  0  0  0  0
 22 23  1  0  0  0  0
 23 25  1  0  0  0  0
 23 24  2  0  0  0  0
 35 36  1  0  0  0  0
 36 44  1  0  0  0  0
 36 37  2  0  0  0  0
  8  9  1  0  0  0  0
  9 17  1  0  0  0  0
  9 10  2  0  0  0  0
 18 19  1  0  0  0  0
 19 34  1  0  0  0  0
 19 20  2  0  0  0  0
 35 38  1  0  0  0  0
  8 11  1  0  0  0  0
 44 45  1  0  0  0  0
 21 22  1  0  0  0  0
 18 21  1  0  0  0  0
 34 35  1  0  0  0  0
  7  8  1  0  0  0  0
 17 18  1  0  0  0  0
  3  4  1  0  0  0  0
  3  5  1  0  0  0  0
  3  6  1  0  0  0  0
 38 41  1  0  0  0  0
 38 42  1  0  0  0  0
 38 43  1  0  0  0  0
 11 14  1  0  0  0  0
 11 15  1  0  0  0  0
 11 16  1  0  0  0  0
 45 47  1  0  0  0  0
 45 48  1  0  0  0  0
 45 49  1  0  0  0  0
 22 30  1  0  0  0  0
 22 31  1  0  0  0  0
 21 28  1  0  0  0  0
 21 29  1  0  0  0  0
 35 40  1  0  0  0  0
  8 13  1  0  0  0  0
 18 27  1  0  0  0  0
 25 32  1  0  0  0  0
 25 33  1  0  0  0  0
 44 46  1  0  0  0  0
  7 12  1  0  0  0  0
 34 39  1  0  0  0  0
 17 26  1  0  0  0  0
M  END
$$$$

  -OEChem-05262214473D

 49 48  0     1  0  0  0  0  0999 V2000
   -1.9833   -0.0509   -3.3423 C   0  0  0  0  0  0  0  0  0  0  0  0
   -1.6199   -1.0613   -2.7518 O   0  0  0  0  0  0  0  0  0  0  0  0
   -3.3243   -0.0235   -3.9975 C   0  0  0  0  0  0  0  0  0  0  0  0
   -3.2886   -0.3689   -5.0432 H   0  0  0  0  0  0  0  0  0  0  0  0
   -4.0503   -0.6845   -3.4973 H   0  0  0  0  0  0  0  0  0  0  0  0
   -3.8104    0.9645   -4.0351 H   0  0  0  0  0  0  0  0  0  0  0  0
   -1.2607    1.1231   -3.4768 N   0  0  0  0  0  0  0  0  0  0  0  0
    0.0536    1.3115   -2.9213 C   0  0  2  0  0  0  0  0  0  0  0  0
    0.0266    0.8315   -1.4761 C   0  0  0  0  0  0  0  0  0  0  0  0
   -1.0065    0.7530   -0.8146 O   0  0  0  0  0  0  0  0  0  0  0  0
    0.4852    2.7674   -3.0025 C   0  0  0  0  0  0  0  0  0  0  0  0
   -1.6809    1.8924   -3.9952 H   0  0  0  0  0  0  0  0  0  0  0  0
    0.7360    0.6822   -3.5030 H   0  0  0  0  0  0  0  0  0  0  0  0
   -0.1867    3.4133   -2.4256 H   0  0  0  0  0  0  0  0  0  0  0  0
    1.4966    2.9042   -2.6056 H   0  0  0  0  0  0  0  0  0  0  0  0
    0.4754    3.1196   -4.0397 H   0  0  0  0  0  0  0  0  0  0  0  0
    1.2978    0.5411   -0.9947 N   0  0  0  0  0  0  0  0  0  0  0  0
    1.5371    0.0807    0.3489 C   0  0  2  0  0  0  0  0  0  0  0  0
    2.1229    1.2518    1.1300 C   0  0  0  0  0  0  0  0  0  0  0  0
    2.1517    1.2889    2.3583 O   0  0  0  0  0  0  0  0  0  0  0  0
    2.4931   -1.1183    0.3885 C   0  0  0  0  0  0  0  0  0  0  0  0
    1.9071   -2.3845   -0.2393 C   0  0  0  0  0  0  0  0  0  0  0  0
    2.8596   -3.5655   -0.2230 C   0  0  0  0  0  0  0  0  0  0  0  0
    4.0176   -3.5077    0.1802 O   0  0  0  0  0  0  0  0  0  0  0  0
    2.2860   -4.7085   -0.7373 N   0  0  0  0  0  0  0  0  0  0  0  0
    2.0949    0.6178   -1.6227 H   0  0  0  0  0  0  0  0  0  0  0  0
    0.5599   -0.1765    0.7714 H   0  0  0  0  0  0  0  0  0  0  0  0
    3.4162   -0.8613   -0.1480 H   0  0  0  0  0  0  0  0  0  0  0  0
    2.7908   -1.3277    1.4237 H   0  0  0  0  0  0  0  0  0  0  0  0
    1.6715   -2.1797   -1.2910 H   0  0  0  0  0  0  0  0  0  0  0  0
    0.9707   -2.6667    0.2549 H   0  0  0  0  0  0  0  0  0  0  0  0
    1.3271   -4.6690   -1.0664 H   0  0  0  0  0  0  0  0  0  0  0  0
    2.7884   -5.5883   -0.7985 H   0  0  0  0  0  0  0  0  0  0  0  0
    2.5615    2.2679    0.2924 N   0  0  0  0  0  0  0  0  0  0  0  0
    3.1395    3.5009    0.7763 C   0  0  2  0  0  0  0  0  0  0  0  0
    4.2098    3.1483    1.8008 C   0  0  0  0  0  0  0  0  0  0  0  0
    4.2286    2.0815    2.4112 O   0  0  0  0  0  0  0  0  0  0  0  0
    2.0808    4.4066    1.3860 C   0  0  0  0  0  0  0  0  0  0  0  0
    2.4717    2.1384   -0.7110 H   0  0  0  0  0  0  0  0  0  0  0  0
    3.6054    3.9914   -0.0853 H   0  0  0  0  0  0  0  0  0  0  0  0
    1.6029    3.9320    2.2508 H   0  0  0  0  0  0  0  0  0  0  0  0
    2.5157    5.3521    1.7263 H   0  0  0  0  0  0  0  0  0  0  0  0
    1.2963    4.6349    0.6565 H   0  0  0  0  0  0  0  0  0  0  0  0
    5.1169    4.1825    1.9850 N   0  0  0  0  0  0  0  0  0  0  0  0
    6.2190    4.0966    2.9144 C   0  0  0  0  0  0  0  0  0  0  0  0
    5.0359    5.0243    1.4223 H   0  0  0  0  0  0  0  0  0  0  0  0
    5.9127    4.5103    3.8865 H   0  0  0  0  0  0  0  0  0  0  0  0
    6.5115    3.0436    3.0399 H   0  0  0  0  0  0  0  0  0  0  0  0
    7.0728    4.6703    2.5246 H   0  0  0  0  0  0  0  0  0  0  0  0
  1  3  1  0  0  0  0
  1  7  1  0  0  0  0
  1  2  2  0  0  0  0
 22 23  1  0  0  0  0
 23 25  1  0  0  0  0
 23 24  2  0  0  0  0
 35 36  1  0  0  0  0
 36 44  1  0  0  0  0
 36 37  2  0  0  0  0
  8  9  1  0  0  0  0
  9 17  1  0  0  0  0
  9 10  2  0  0  0  0
 18 19  1  0  0  0  0
 19 34  1  0  0  0  0
 19 20  2  0  0  0  0
 35 38  1  0  0  0  0
  8 11  1  0  0  0  0
 44 45  1  0  0  0  0
 21 22  1  0  0  0  0
 18 21  1  0  0  0  0
 34 35  1  0  0  0  0
  7  8  1  0  0  0  0
 17 18  1  0  0  0  0
  3  4  1  0  0  0  0
  3  5  1  0  0  0  0
  3  6  1  0  0  0  0
 38 41  1  0  0  0  0
 38 42  1  0  0  0  0
 38 43  1  0  0  0  0
 11 14  1  0  0  0  0
 11 15  1  0  0  0  0
 11 16  1  0  0  0  0
 45 47  1  0  0  0  0
 45 48  1  0  0  0  0
 45 49  1  0  0  0  0
 22 30  1  0  0  0  0
 22 31  1  0  0  0  0
 21 28  1  0  0  0  0
 21 29  1  0  0  0  0
 35 40  1  0  0  0  0
  8 13  1  0  0  0  0
 18 27  1  0  0  0  0
 25 32  1  0  0  0  0
 25 33  1  0  0  0  0
 44 46  1  0  0  0  0
  7 12  1  0  0  0  0
 34 39  1  0  0  0  0
 17 26  1  0  0  0  0
M  END
$$$$

  -OEChem-05262214473D

 49 48  0     1  0  0  0  0  0999 V2000
   -1.9833   -0.0509   -3.3423 C   0  0  0  0  0  0  0  0  0  0  0  0
   -1.6199   -1.0613   -2.7518 O   0  0  0  0  0  0  0  0  0  0  0  0
   -3.3243   -0.0235   -3.9975 C   0  0  0  0  0  0  0  0  0  0  0  0
   -3.2886   -0.3689   -5.0432 H   0  0  0  0  0  0  0  0  0  0  0  0
   -4.0503   -0.6845   -3.4973 H   0  0  0  0  0  0  0  0  0  0  0  0
   -3.8104    0.9645   -4.0351 H   0  0  0  0  0  0  0  0  0  0  0  0
   -1.2607    1.1231   -3.4768 N   0  0  0  0  0  0  0  0  0  0  0  0
    0.0536    1.3115   -2.9213 C   0  0  2  0  0  0  0  0  0  0  0  0
    0.0266    0.8315   -1.4761 C   0  0  0  0  0  0  0  0  0  0  0  0
   -1.0065    0.7530   -0.8146 O   0  0  0  0  0  0  0  0  0  0  0  0
    0.4852    2.7674   -3.0025 C   0  0  0  0  0  0  0  0  0  0  0  0
   -1.6809    1.8924   -3.9952 H   0  0  0  0  0  0  0  0  0  0  0  0
    0.7360    0.6822   -3.5030 H   0  0  0  0  0  0  0  0  0  0  0  0
   -0.1867    3.4133   -2.4256 H   0  0  0  0  0  0  0  0  0  0  0  0
    1.4966    2.9042   -2.6056 H   0  0  0  0  0  0  0  0  0  0  0  0
    0.4754    3.1196   -4.0397 H   0  0  0  0  0  0  0  0  0  0  0  0
    1.2978    0.5411   -0.9947 N   0  0  0  0  0  0  0  0  0  0  0  0
    1.5371    0.0807    0.3489 C   0  0  2  0  0  0  0  0  0  0  0  0
    2.1229    1.2518    1.1300 C   0  0  0  0  0  0  0  0  0  0  0  0
    2.3988    1.1868    2.3261 O   0  0  0  0  0  0  0  0  0  0  0  0
    2.4931   -1.1183    0.3885 C   0  0  0  0  0  0  0  0  0  0  0  0
    1.9071   -2.3845   -0.2393 C   0  0  0  0  0  0  0  0  0  0  0  0
    2.8596   -3.5655   -0.2230 C   0  0  0  0  0  0  0  0  0  0  0  0
    4.0176   -3.5077    0.1802 O   0  0  0  0  0  0  0  0  0  0  0  0
    2.2860   -4.7085   -0.7373 N   0  0  0  0  0  0  0  0  0  0  0  0
    2.0949    0.6178   -1.6227 H   0  0  0  0  0  0  0  0  0  0  0  0
    0.5599   -0.1765    0.7714 H   0  0  0  0  0  0  0  0  0  0  0  0
    3.4162   -0.8613   -0.1480 H   0  0  0  0  0  0  0  0  0  0  0  0
    2.7908   -1.3277    1.4237 H   0  0  0  0  0  0  0  0  0  0  0  0
    1.6715   -2.1797   -1.2910 H   0  0  0  0  0  0  0  0  0  0  0  0
    0.9707   -2.6667    0.2549 H   0  0  0  0  0  0  0  0  0  0  0  0
    1.3271   -4.6690   -1.0664 H   0  0  0  0  0  0  0  0  0  0  0  0
    2.7884   -5.5883   -0.7985 H   0  0  0  0  0  0  0  0  0  0  0  0
    2.2521    2.3883    0.3439 N   0  0  0  0  0  0  0  0  0  0  0  0
    2.7617    3.6450    0.8437 C   0  0  2  0  0  0  0  0  0  0  0  0
    4.0547    3.3618    1.5971 C   0  0  0  0  0  0  0  0  0  0  0  0
    4.3291    2.2600    2.0681 O   0  0  0  0  0  0  0  0  0  0  0  0
    1.7481    4.3344    1.7437 C   0  0  0  0  0  0  0  0  0  0  0  0
    1.9746    2.3342   -0.6317 H   0  0  0  0  0  0  0  0  0  0  0  0
    2.9769    4.2691   -0.0304 H   0  0  0  0  0  0  0  0  0  0  0  0
    1.5199    3.7240    2.6250 H   0  0  0  0  0  0  0  0  0  0  0  0
    2.1244    5.2996    2.0985 H   0  0  0  0  0  0  0  0  0  0  0  0
    0.8084    4.5105    1.2090 H   0  0  0  0  0  0  0  0  0  0  0  0
    4.8465    4.4951    1.7191 N   0  0  0  0  0  0  0  0  0  0  0  0
    6.1182    4.4876    2.4038 C   0  0  0  0  0  0  0  0  0  0  0  0
    4.5491    5.3620    1.2811 H   0  0  0  0  0  0  0  0  0  0  0  0
    5.9698    4.7682    3.4570 H   0  0  0  0  0  0  0  0  0  0  0  0
    6.5569    3.4803    2.3511 H   0  0  0  0  0  0  0  0  0  0  0  0
    6.7967    5.2087    1.9245 H   0  0  0  0  0  0  0  0  0  0  0  0
  1  3  1  0  0  0  0
  1  7  1  0  0  0  0
  1  2  2  0  0  0  0
 22 23  1  0  0  0  0
 23 25  1  0  0  0  0
 23 24  2  0  0  0  0
 35 36  1  0  0  0  0
 36 44  1  0  0  0  0
 36 37  2  0  0  0  0
  8  9  1  0  0  0  0
  9 17  1  0  0  0  0
  9 10  2  0  0  0  0
 18 19  1  0  0  0  0
 19 34  1  0  0  0  0
 19 20  2  0  0  0  0
 35 38  1  0  0  0  0
  8 11  1  0  0  0  0
 44 45  1  0  0  0  0
 21 22  1  0  0  0  0
 18 21  1  0  0  0  0
 34 35  1  0  0  0  0
  7  8  1  0  0  0  0
 17 18  1  0  0  0  0
  3  4  1  0  0  0  0
  3  5  1  0  0  0  0
  3  6  1  0  0  0  0
 38 41  1  0  0  0  0
 38 42  1  0  0  0  0
 38 43  1  0  0  0  0
 11 14  1  0  0  0  0
 11 15  1  0  0  0  0
 11 16  1  0  0  0  0
 45 47  1  0  0  0  0
 45 48  1  0  0  0  0
 45 49  1  0  0  0  0
 22 30  1  0  0  0  0
 22 31  1  0  0  0  0
 21 28  1  0  0  0  0
 21 29  1  0  0  0  0
 35 40  1  0  0  0  0
  8 13  1  0  0  0  0
 18 27  1  0  0  0  0
 25 32  1  0  0  0  0
 25 33  1  0  0  0  0
 44 46  1  0  0  0  0
  7 12  1  0  0  0  0
 34 39  1  0  0  0  0
 17 26  1  0  0  0  0
M  END
$$$$

  -OEChem-05262214473D

 49 48  0     1  0  0  0  0  0999 V2000
   -1.9833   -0.0509   -3.3423 C   0  0  0  0  0  0  0  0  0  0  0  0
   -1.6199   -1.0613   -2.7518 O   0  0  0  0  0  0  0  0  0  0  0  0
   -3.3243   -0.0235   -3.9975 C   0  0  0  0  0  0  0  0  0  0  0  0
   -3.2886   -0.3689   -5.0432 H   0  0  0  0  0  0  0  0  0  0  0  0
   -4.0503   -0.6845   -3.4973 H   0  0  0  0  0  0  0  0  0  0  0  0
   -3.8104    0.9645   -4.0351 H   0  0  0  0  0  0  0  0  0  0  0  0
   -1.2607    1.1231   -3.4768 N   0  0  0  0  0  0  0  0  0  0  0  0
    0.0536    1.3115   -2.9213 C   0  0  2  0  0  0  0  0  0  0  0  0
    0.0266    0.8315   -1.4761 C   0  0  0  0  0  0  0  0  0  0  0  0
   -1.0065    0.7530   -0.8146 O   0  0  0  0  0  0  0  0  0  0  0  0
    0.4852    2.7674   -3.0025 C   0  0  0  0  0  0  0  0  0  0  0  0
   -1.6809    1.8924   -3.9952 H   0  0  0  0  0  0  0  0  0  0  0  0
    0.7360    0.6822   -3.5030 H   0  0  0  0  0  0  0  0  0  0  0  0
   -0.1867    3.4133   -2.4256 H   0  0  0  0  0  0  0  0  0  0  0  0
    1.4966    2.9042   -2.6056 H   0  0  0  0  0  0  0  0  0  0  0  0
    0.4754    3.1196   -4.0397 H   0  0  0  0  0  0  0  0  0  0  0  0
    1.2978    0.5411   -0.9947 N   0  0  0  0  0  0  0  0  0  0  0  0
    1.5371    0.0807    0.3489 C   0  0  2  0  0  0  0  0  0  0  0  0
    2.1229    1.2518    1.1300 C   0  0  0  0  0  0  0  0  0  0  0  0
    2.6445    1.1242    2.2357 O   0  0  0  0  0  0  0  0  0  0  0  0
    2.4931   -1.1183    0.3885 C   0  0  0  0  0  0  0  0  0  0  0  0
    1.9071   -2.3845   -0.2393 C   0  0  0  0  0  0  0  0  0  0  0  0
    2.8596   -3.5655   -0.2230 C   0  0  0  0  0  0  0  0  0  0  0  0
    4.0176   -3.5077    0.1802 O   0  0  0  0  0  0  0  0  0  0  0  0
    2.2860   -4.7085   -0.7373 N   0  0  0  0  0  0  0  0  0  0  0  0
    2.0949    0.6178   -1.6227 H   0  0  0  0  0  0  0  0  0  0  0  0
    0.5599   -0.1765    0.7714 H   0  0  0  0  0  0  0  0  0  0  0  0
    3.4162   -0.8613   -0.1480 H   0  0  0  0  0  0  0  0  0  0  0  0
    2.7908   -1.3277    1.4237 H   0  0  0  0  0  0  0  0  0  0  0  0
    1.6715   -2.1797   -1.2910 H   0  0  0  0  0  0  0  0  0  0  0  0
    0.9707   -2.6667    0.2549 H   0  0  0  0  0  0  0  0  0  0  0  0
    1.3271   -4.6690   -1.0664 H   0  0  0  0  0  0  0  0  0  0  0  0
    2.7884   -5.5883   -0.7985 H   0  0  0  0  0  0  0  0  0  0  0  0
    1.9475    2.4585    0.4671 N   0  0  0  0  0  0  0  0  0  0  0  0
    2.3911    3.7273    0.9983 C   0  0  2  0  0  0  0  0  0  0  0  0
    3.8360    3.5677    1.4524 C   0  0  0  0  0  0  0  0  0  0  0  0
    4.3342    2.4799    1.7345 O   0  0  0  0  0  0  0  0  0  0  0  0
    1.5073    4.1851    2.1481 C   0  0  0  0  0  0  0  0  0  0  0  0
    1.4842    2.4494   -0.4368 H   0  0  0  0  0  0  0  0  0  0  0  0
    2.3439    4.4486    0.1752 H   0  0  0  0  0  0  0  0  0  0  0  0
    1.5417    3.4748    2.9822 H   0  0  0  0  0  0  0  0  0  0  0  0
    1.8273    5.1599    2.5307 H   0  0  0  0  0  0  0  0  0  0  0  0
    0.4635    4.2707    1.8272 H   0  0  0  0  0  0  0  0  0  0  0  0
    4.4910    4.7876    1.5471 N   0  0  0  0  0  0  0  0  0  0  0  0
    5.8674    4.9028    1.9695 C   0  0  0  0  0  0  0  0  0  0  0  0
    4.0061    5.6376    1.2750 H   0  0  0  0  0  0  0  0  0  0  0  0
    5.9054    5.0676    3.0564 H   0  0  0  0  0  0  0  0  0  0  0  0
    6.4060    3.9766    1.7201 H   0  0  0  0  0  0  0  0  0  0  0  0
    6.3394    5.7517    1.4532 H   0  0  0  0  0  0  0  0  0  0  0  0
  1  3  1  0  0  0  0
  1  7  1  0  0  0  0
  1  2  2  0  0  0  0
 22 23  1  0  0  0  0
 23 25  1  0  0  0  0
 23 24  2  0  0  0  0
 35 36  1  0  0  0  0
 36 44  1  0  0  0  0
 36 37  2  0  0  0  0
  8  9  1  0  0  0  0
  9 17  1  0  0  0  0
  9 10  2  0  0  0  0
 18 19  1  0  0  0  0
 19 34  1  0  0  0  0
 19 20  2  0  0  0  0
 35 38  1  0  0  0  0
  8 11  1  0  0  0  0
 44 45  1  0  0  0  0
 21 22  1  0  0  0  0
 18 21  1  0  0  0  0
 34 35  1  0  0  0  0
  7  8  1  0  0  0  0
 17 18  1  0  0  0  0
  3  4  1  0  0  0  0
  3  5  1  0  0  0  0
  3  6  1  0  0  0  0
 38 41  1  0  0  0  0
 38 42  1  0  0  0  0
 38 43  1  0  0  0  0
 11 14  1  0  0  0  0
 11 15  1  0  0  0  0
 11 16  1  0  0  0  0
 45 47  1  0  0  0  0
 45 48  1  0  0  0  0
 45 49  1  0  0  0  0
 22 30  1  0  0  0  0
 22 31  1  0  0  0  0
 21 28  1  0  0  0  0
 21 29  1  0  0  0  0
 35 40  1  0  0  0  0
  8 13  1  0  0  0  0
 18 27  1  0  0  0  0
 25 32  1  0  0  0  0
 25 33  1  0  0  0  0
 44 46  1  0  0  0  0
  7 12  1  0  0  0  0
 34 39  1  0  0  0  0
 17 26  1  0  0  0  0
M  END
$$$$

  -OEChem-05262214473D

 49 48  0     1  0  0  0  0  0999 V2000
   -1.9833   -0.0509   -3.3423 C   0  0  0  0  0  0  0  0  0  0  0  0
   -1.6199   -1.0613   -2.7518 O   0  0  0  0  0  0  0  0  0  0  0  0
   -3.3243   -0.0235   -3.9975 C   0  0  0  0  0  0  0  0  0  0  0  0
   -3.2886   -0.3689   -5.0432 H   0  0  0  0  0  0  0  0  0  0  0  0
   -4.0503   -0.6845   -3.4973 H   0  0  0  0  0  0  0  0  0  0  0  0
   -3.8104    0.9645   -4.0351 H   0  0  0  0  0  0  0  0  0  0  0  0
   -1.2607    1.1231   -3.4768 N   0  0  0  0  0  0  0  0  0  0  0  0
    0.0536    1.3115   -2.9213 C   0  0  2  0  0  0  0  0  0  0  0  0
    0.0266    0.8315   -1.4761 C   0  0  0  0  0  0  0  0  0  0  0  0
   -1.0065    0.7530   -0.8146 O   0  0  0  0  0  0  0  0  0  0  0  0
    0.4852    2.7674   -3.0025 C   0  0  0  0  0  0  0  0  0  0  0  0
   -1.6809    1.8924   -3.9952 H   0  0  0  0  0  0  0  0  0  0  0  0
    0.7360    0.6822   -3.5030 H   0  0  0  0  0  0  0  0  0  0  0  0
   -0.1867    3.4133   -2.4256 H   0  0  0  0  0  0  0  0  0  0  0  0
    1.4966    2.9042   -2.6056 H   0  0  0  0  0  0  0  0  0  0  0  0
    0.4754    3.1196   -4.0397 H   0  0  0  0  0  0  0  0  0  0  0  0
    1.2978    0.5411   -0.9947 N   0  0  0  0  0  0  0  0  0  0  0  0
    1.5371    0.0807    0.3489 C   0  0  2  0  0  0  0  0  0  0  0  0
    2.1229    1.2518    1.1300 C   0  0  0  0  0  0  0  0  0  0  0  0
    2.8722    1.1053    2.0933 O   0  0  0  0  0  0  0  0  0  0  0  0
    2.4931   -1.1183    0.3885 C   0  0  0  0  0  0  0  0  0  0  0  0
    1.9071   -2.3845   -0.2393 C   0  0  0  0  0  0  0  0  0  0  0  0
    2.8596   -3.5655   -0.2230 C   0  0  0  0  0  0  0  0  0  0  0  0
    4.0176   -3.5077    0.1802 O   0  0  0  0  0  0  0  0  0  0  0  0
    2.2860   -4.7085   -0.7373 N   0  0  0  0  0  0  0  0  0  0  0  0
    2.0949    0.6178   -1.6227 H   0  0  0  0  0  0  0  0  0  0  0  0
    0.5599   -0.1765    0.7714 H   0  0  0  0  0  0  0  0  0  0  0  0
    3.4162   -0.8613   -0.1480 H   0  0  0  0  0  0  0  0  0  0  0  0
    2.7908   -1.3277    1.4237 H   0  0  0  0  0  0  0  0  0  0  0  0
    1.6715   -2.1797   -1.2910 H   0  0  0  0  0  0  0  0  0  0  0  0
    0.9707   -2.6667    0.2549 H   0  0  0  0  0  0  0  0  0  0  0  0
    1.3271   -4.6690   -1.0664 H   0  0  0  0  0  0  0  0  0  0  0  0
    2.7884   -5.5883   -0.7985 H   0  0  0  0  0  0  0  0  0  0  0  0
    1.6685    2.4736    0.6536 N   0  0  0  0  0  0  0  0  0  0  0  0
    2.0529    3.7423    1.2294 C   0  0  2  0  0  0  0  0  0  0  0  0
    3.5687    3.7520    1.3766 C   0  0  0  0  0  0  0  0  0  0  0  0
    4.2437    2.7262    1.4331 O   0  0  0  0  0  0  0  0  0  0  0  0
    1.3750    3.9687    2.5717 C   0  0  0  0  0  0  0  0  0  0  0  0
    1.0340    2.4764   -0.1396 H   0  0  0  0  0  0  0  0  0  0  0  0
    1.7495    4.5176    0.5175 H   0  0  0  0  0  0  0  0  0  0  0  0
    1.6668    3.2015    3.2982 H   0  0  0  0  0  0  0  0  0  0  0  0
    1.6449    4.9427    2.9932 H   0  0  0  0  0  0  0  0  0  0  0  0
    0.2851    3.9318    2.4691 H   0  0  0  0  0  0  0  0  0  0  0  0
    4.0747    5.0401    1.4807 N   0  0  0  0  0  0  0  0  0  0  0  0
    5.4838    5.3137    1.6411 C   0  0  0  0  0  0  0  0  0  0  0  0
    3.4437    5.8325    1.4046 H   0  0  0  0  0  0  0  0  0  0  0  0
    5.7238    5.3881    2.7120 H   0  0  0  0  0  0  0  0  0  0  0  0
    6.0690    4.4988    1.1901 H   0  0  0  0  0  0  0  0  0  0  0  0
    5.7319    6.2625    1.1430 H   0  0  0  0  0  0  0  0  0  0  0  0
  1  3  1  0  0  0  0
  1  7  1  0  0  0  0
  1  2  2  0  0  0  0
 22 23  1  0  0  0  0
 23 25  1  0  0  0  0
 23 24  2  0  0  0  0
 35 36  1  0  0  0  0
 36 44  1  0  0  0  0
 36 37  2  0  0  0  0
  8  9  1  0  0  0  0
  9 17  1  0  0  0  0
  9 10  2  0  0  0  0
 18 19  1  0  0  0  0
 19 34  1  0  0  0  0
 19 20  2  0  0  0  0
 35 38  1  0  0  0  0
  8 11  1  0  0  0  0
 44 45  1  0  0  0  0
 21 22  1  0  0  0  0
 18 21  1  0  0  0  0
 34 35  1  0  0  0  0
  7  8  1  0  0  0  0
 17 18  1  0  0  0  0
  3  4  1  0  0  0  0
  3  5  1  0  0  0  0
  3  6  1  0  0  0  0
 38 41  1  0  0  0  0
 38 42  1  0  0  0  0
 38 43  1  0  0  0  0
 11 14  1  0  0  0  0
 11 15  1  0  0  0  0
 11 16  1  0  0  0  0
 45 47  1  0  0  0  0
 45 48  1  0  0  0  0
 45 49  1  0  0  0  0
 22 30  1  0  0  0  0
 22 31  1  0  0  0  0
 21 28  1  0  0  0  0
 21 29  1  0  0  0  0
 35 40  1  0  0  0  0
  8 13  1  0  0  0  0
 18 27  1  0  0  0  0
 25 32  1  0  0  0  0
 25 33  1  0  0  0  0
 44 46  1  0  0  0  0
  7 12  1  0  0  0  0
 34 39  1  0  0  0  0
 17 26  1  0  0  0  0
M  END
$$$$

  -OEChem-05262214473D

 49 48  0     1  0  0  0  0  0999 V2000
   -1.9833   -0.0509   -3.3423 C   0  0  0  0  0  0  0  0  0  0  0  0
   -1.6199   -1.0613   -2.7518 O   0  0  0  0  0  0  0  0  0  0  0  0
   -3.3243   -0.0235   -3.9975 C   0  0  0  0  0  0  0  0  0  0  0  0
   -3.2886   -0.3689   -5.0432 H   0  0  0  0  0  0  0  0  0  0  0  0
   -4.0503   -0.6845   -3.4973 H   0  0  0  0  0  0  0  0  0  0  0  0
   -3.8104    0.9645   -4.0351 H   0  0  0  0  0  0  0  0  0  0  0  0
   -1.2607    1.1231   -3.4768 N   0  0  0  0  0  0  0  0  0  0  0  0
    0.0536    1.3115   -2.9213 C   0  0  2  0  0  0  0  0  0  0  0  0
    0.0266    0.8315   -1.4761 C   0  0  0  0  0  0  0  0  0  0  0  0
   -1.0065    0.7530   -0.8146 O   0  0  0  0  0  0  0  0  0  0  0  0
    0.4852    2.7674   -3.0025 C   0  0  0  0  0  0  0  0  0  0  0  0
   -1.6809    1.8924   -3.9952 H   0  0  0  0  0  0  0  0  0  0  0  0
    0.7360    0.6822   -3.5030 H   0  0  0  0  0  0  0  0  0  0  0  0
   -0.1867    3.4133   -2.4256 H   0  0  0  0  0  0  0  0  0  0  0  0
    1.4966    2.9042   -2.6056 H   0  0  0  0  0  0  0  0  0  0  0  0
    0.4754    3.1196   -4.0397 H   0  0  0  0  0  0  0  0  0  0  0  0
    1.2978    0.5411   -0.9947 N   0  0  0  0  0  0  0  0  0  0  0  0
    1.5371    0.0807    0.3489 C   0  0  2  0  0  0  0  0  0  0  0  0
    2.1229    1.2518    1.1300 C   0  0  0  0  0  0  0  0  0  0  0  0
    3.0663    1.1313    1.9086 O   0  0  0  0  0  0  0  0  0  0  0  0
    2.4931   -1.1183    0.3885 C   0  0  0  0  0  0  0  0  0  0  0  0
    1.9071   -2.3845   -0.2393 C   0  0  0  0  0  0  0  0  0  0  0  0
    2.8596   -3.5655   -0.2230 C   0  0  0  0  0  0  0  0  0  0  0  0
    4.0176   -3.5077    0.1802 O   0  0  0  0  0  0  0  0  0  0  0  0
    2.2860   -4.7085   -0.7373 N   0  0  0  0  0  0  0  0  0  0  0  0
    2.0949    0.6178   -1.6227 H   0  0  0  0  0  0  0  0  0  0  0  0
    0.5599   -0.1765    0.7714 H   0  0  0  0  0  0  0  0  0  0  0  0
    3.4162   -0.8613   -0.1480 H   0  0  0  0  0  0  0  0  0  0  0  0
    2.7908   -1.3277    1.4237 H   0  0  0  0  0  0  0  0  0  0  0  0
    1.6715   -2.1797   -1.2910 H   0  0  0  0  0  0  0  0  0  0  0  0
    0.9707   -2.6667    0.2549 H   0  0  0  0  0  0  0  0  0  0  0  0
    1.3271   -4.6690   -1.0664 H   0  0  0  0  0  0  0  0  0  0  0  0
    2.7884   -5.5883   -0.7985 H   0  0  0  0  0  0  0  0  0  0  0  0
    1.4341    2.4327    0.8907 N   0  0  0  0  0  0  0  0  0  0  0  0
    1.7702    3.6889    1.5214 C   0  0  2  0  0  0  0  0  0  0  0  0
    3.2710    3.9021    1.3748 C   0  0  0  0  0  0  0  0  0  0  0  0
    4.0638    2.9821    1.1845 O   0  0  0  0  0  0  0  0  0  0  0  0
    1.3601    3.7001    2.9858 C   0  0  0  0  0  0  0  0  0  0  0  0
    0.6547    2.4132    0.2397 H   0  0  0  0  0  0  0  0  0  0  0  0
    1.2343    4.4714    0.9731 H   0  0  0  0  0  0  0  0  0  0  0  0
    1.8867    2.9227    3.5513 H   0  0  0  0  0  0  0  0  0  0  0  0
    1.5894    4.6626    3.4547 H   0  0  0  0  0  0  0  0  0  0  0  0
    0.2852    3.5170    3.0909 H   0  0  0  0  0  0  0  0  0  0  0  0
    3.6259    5.2354    1.5245 N   0  0  0  0  0  0  0  0  0  0  0  0
    4.9934    5.6924    1.4410 C   0  0  0  0  0  0  0  0  0  0  0  0
    2.9005    5.9333    1.6608 H   0  0  0  0  0  0  0  0  0  0  0  0
    5.4375    5.7079    2.4473 H   0  0  0  0  0  0  0  0  0  0  0  0
    5.5688    5.0111    0.7969 H   0  0  0  0  0  0  0  0  0  0  0  0
    5.0158    6.7062    1.0148 H   0  0  0  0  0  0  0  0  0  0  0  0
  1  3  1  0  0  0  0
  1  7  1  0  0  0  0
  1  2  2  0  0  0  0
 22 23  1  0  0  0  0
 23 25  1  0  0  0  0
 23 24  2  0  0  0  0
 35 36  1  0  0  0  0
 36 44  1  0  0  0  0
 36 37  2  0  0  0  0
  8  9  1  0  0  0  0
  9 17  1  0  0  0  0
  9 10  2  0  0  0  0
 18 19  1  0  0  0  0
 19 34  1  0  0  0  0
 19 20  2  0  0  0  0
 35 38  1  0  0  0  0
  8 11  1  0  0  0  0
 44 45  1  0  0  0  0
 21 22  1  0  0  0  0
 18 21  1  0  0  0  0
 34 35  1  0  0  0  0
  7  8  1  0  0  0  0
 17 18  1  0  0  0  0
  3  4  1  0  0  0  0
  3  5  1  0  0  0  0
  3  6  1  0  0  0  0
 38 41  1  0  0  0  0
 38 42  1  0  0  0  0
 38 43  1  0  0  0  0
 11 14  1  0  0  0  0
 11 15  1  0  0  0  0
 11 16  1  0  0  0  0
 45 47  1  0  0  0  0
 45 48  1  0  0  0  0
 45 49  1  0  0  0  0
 22 30  1  0  0  0  0
 22 31  1  0  0  0  0
 21 28  1  0  0  0  0
 21 29  1  0  0  0  0
 35 40  1  0  0  0  0
  8 13  1  0  0  0  0
 18 27  1  0  0  0  0
 25 32  1  0  0  0  0
 25 33  1  0  0  0  0
 44 46  1  0  0  0  0
  7 12  1  0  0  0  0
 34 39  1  0  0  0  0
 17 26  1  0  0  0  0
M  END
$$$$

  -OEChem-05262214473D

 49 48  0     1  0  0  0  0  0999 V2000
   -1.9833   -0.0509   -3.3423 C   0  0  0  0  0  0  0  0  0  0  0  0
   -1.6199   -1.0613   -2.7518 O   0  0  0  0  0  0  0  0  0  0  0  0
   -3.3243   -0.0235   -3.9975 C   0  0  0  0  0  0  0  0  0  0  0  0
   -3.2886   -0.3689   -5.0432 H   0  0  0  0  0  0  0  0  0  0  0  0
   -4.0503   -0.6845   -3.4973 H   0  0  0  0  0  0  0  0  0  0  0  0
   -3.8104    0.9645   -4.0351 H   0  0  0  0  0  0  0  0  0  0  0  0
   -1.2607    1.1231   -3.4768 N   0  0  0  0  0  0  0  0  0  0  0  0
    0.0536    1.3115   -2.9213 C   0  0  2  0  0  0  0  0  0  0  0  0
    0.0266    0.8315   -1.4761 C   0  0  0  0  0  0  0  0  0  0  0  0
   -1.0065    0.7530   -0.8146 O   0  0  0  0  0  0  0  0  0  0  0  0
    0.4852    2.7674   -3.0025 C   0  0  0  0  0  0  0  0  0  0  0  0
   -1.6809    1.8924   -3.9952 H   0  0  0  0  0  0  0  0  0  0  0  0
    0.7360    0.6822   -3.5030 H   0  0  0  0  0  0  0  0  0  0  0  0
   -0.1867    3.4133   -2.4256 H   0  0  0  0  0  0  0  0  0  0  0  0
    1.4966    2.9042   -2.6056 H   0  0  0  0  0  0  0  0  0  0  0  0
    0.4754    3.1196   -4.0397 H   0  0  0  0  0  0  0  0  0  0  0  0
    1.2978    0.5411   -0.9947 N   0  0  0  0  0  0  0  0  0  0  0  0
    1.5371    0.0807    0.3489 C   0  0  2  0  0  0  0  0  0  0  0  0
    2.1229    1.2518    1.1300 C   0  0  0  0  0  0  0  0  0  0  0  0
    3.2137    1.2006    1.6942 O   0  0  0  0  0  0  0  0  0  0  0  0
    2.4931   -1.1183    0.3885 C   0  0  0  0  0  0  0  0  0  0  0  0
    1.9071   -2.3845   -0.2393 C   0  0  0  0  0  0  0  0  0  0  0  0
    2.8596   -3.5655   -0.2230 C   0  0  0  0  0  0  0  0  0  0  0  0
    4.0176   -3.5077    0.1802 O   0  0  0  0  0  0  0  0  0  0  0  0
    2.2860   -4.7085   -0.7373 N   0  0  0  0  0  0  0  0  0  0  0  0
    2.0949    0.6178   -1.6227 H   0  0  0  0  0  0  0  0  0  0  0  0
    0.5599   -0.1765    0.7714 H   0  0  0  0  0  0  0  0  0  0  0  0
    3.4162   -0.8613   -0.1480 H   0  0  0  0  0  0  0  0  0  0  0  0
    2.7908   -1.3277    1.4237 H   0  0  0  0  0  0  0  0  0  0  0  0
    1.6715   -2.1797   -1.2910 H   0  0  0  0  0  0  0  0  0  0  0  0
    0.9707   -2.6667    0.2549 H   0  0  0  0  0  0  0  0  0  0  0  0
    1.3271   -4.6690   -1.0664 H   0  0  0  0  0  0  0  0  0  0  0  0
    2.7884   -5.5883   -0.7985 H   0  0  0  0  0  0  0  0  0  0  0  0
    1.2602    2.3386    1.1623 N   0  0  0  0  0  0  0  0  0  0  0  0
    1.5622    3.5709    1.8543 C   0  0  2  0  0  0  0  0  0  0  0  0
    2.9632    4.0078    1.4472 C   0  0  0  0  0  0  0  0  0  0  0  0
    3.8066    3.2301    1.0055 O   0  0  0  0  0  0  0  0  0  0  0  0
    1.4636    3.3974    3.3619 C   0  0  0  0  0  0  0  0  0  0  0  0
    0.3721    2.2641    0.6751 H   0  0  0  0  0  0  0  0  0  0  0  0
    0.8334    4.3132    1.5111 H   0  0  0  0  0  0  0  0  0  0  0  0
    2.1864    2.6574    3.7244 H   0  0  0  0  0  0  0  0  0  0  0  0
    1.6647    4.3389    3.8837 H   0  0  0  0  0  0  0  0  0  0  0  0
    0.4640    3.0545    3.6502 H   0  0  0  0  0  0  0  0  0  0  0  0
    3.1751    5.3602    1.6754 N   0  0  0  0  0  0  0  0  0  0  0  0
    4.4298    6.0130    1.3829 C   0  0  0  0  0  0  0  0  0  0  0  0
    2.4133    5.9331    2.0264 H   0  0  0  0  0  0  0  0  0  0  0  0
    5.0659    6.0051    2.2803 H   0  0  0  0  0  0  0  0  0  0  0  0
    4.9397    5.4788    0.5676 H   0  0  0  0  0  0  0  0  0  0  0  0
    4.2397    7.0526    1.0775 H   0  0  0  0  0  0  0  0  0  0  0  0
  1  3  1  0  0  0  0
  1  7  1  0  0  0  0
  1  2  2  0  0  0  0
 22 23  1  0  0  0  0
 23 25  1  0  0  0  0
 23 24  2  0  0  0  0
 35 36  1  0  0  0  0
 36 44  1  0  0  0  0
 36 37  2  0  0  0  0
  8  9  1  0  0  0  0
  9 17  1  0  0  0  0
  9 10  2  0  0  0  0
 18 19  1  0  0  0  0
 19 34  1  0  0  0  0
 19 20  2  0  0  0  0
 35 38  1  0  0  0  0
  8 11  1  0  0  0  0
 44 45  1  0  0  0  0
 21 22  1  0  0  0  0
 18 21  1  0  0  0  0
 34 35  1  0  0  0  0
  7  8  1  0  0  0  0
 17 18  1  0  0  0  0
  3  4  1  0  0  0  0
  3  5  1  0  0  0  0
  3  6  1  0  0  0  0
 38 41  1  0  0  0  0
 38 42  1  0  0  0  0
 38 43  1  0  0  0  0
 11 14  1  0  0  0  0
 11 15  1  0  0  0  0
 11 16  1  0  0  0  0
 45 47  1  0  0  0  0
 45 48  1  0  0  0  0
 45 49  1  0  0  0  0
 22 30  1  0  0  0  0
 22 31  1  0  0  0  0
 21 28  1  0  0  0  0
 21 29  1  0  0  0  0
 35 40  1  0  0  0  0
  8 13  1  0  0  0  0
 18 27  1  0  0  0  0
 25 32  1  0  0  0  0
 25 33  1  0  0  0  0
 44 46  1  0  0  0  0
  7 12  1  0  0  0  0
 34 39  1  0  0  0  0
 17 26  1  0  0  0  0
M  END
$$$$

  -OEChem-05262214473D

 49 48  0     1  0  0  0  0  0999 V2000
   -1.9833   -0.0509   -3.3423 C   0  0  0  0  0  0  0  0  0  0  0  0
   -1.6199   -1.0613   -2.7518 O   0  0  0  0  0  0  0  0  0  0  0  0
   -3.3243   -0.0235   -3.9975 C   0  0  0  0  0  0  0  0  0  0  0  0
   -3.2886   -0.3689   -5.0432 H   0  0  0  0  0  0  0  0  0  0  0  0
   -4.0503   -0.6845   -3.4973 H   0  0  0  0  0  0  0  0  0  0  0  0
   -3.8104    0.9645   -4.0351 H   0  0  0  0  0  0  0  0  0  0  0  0
   -1.2607    1.1231   -3.4768 N   0  0  0  0  0  0  0  0  0  0  0  0
    0.0536    1.3115   -2.9213 C   0  0  2  0  0  0  0  0  0  0  0  0
    0.0266    0.8315   -1.4761 C   0  0  0  0  0  0  0  0  0  0  0  0
   -1.0065    0.7530   -0.8146 O   0  0  0  0  0  0  0  0  0  0  0  0
    0.4852    2.7674   -3.0025 C   0  0  0  0  0  0  0  0  0  0  0  0
   -1.6809    1.8924   -3.9952 H   0  0  0  0  0  0  0  0  0  0  0  0
    0.7360    0.6822   -3.5030 H   0  0  0  0  0  0  0  0  0  0  0  0
   -0.1867    3.4133   -2.4256 H   0  0  0  0  0  0  0  0  0  0  0  0
    1.4966    2.9042   -2.6056 H   0  0  0  0  0  0  0  0  0  0  0  0
    0.4754    3.1196   -4.0397 H   0  0  0  0  0  0  0  0  0  0  0  0
    1.2978    0.5411   -0.9947 N   0  0  0  0  0  0  0  0  0  0  0  0
    1.5371    0.0807    0.3489 C   0  0  2  0  0  0  0  0  0  0  0  0
    2.1229    1.2518    1.1300 C   0  0  0  0  0  0  0  0  0  0  0  0
    3.3043    1.3084    1.4647 O   0  0  0  0  0  0  0  0  0  0  0  0
    2.4931   -1.1183    0.3885 C   0  0  0  0  0  0  0  0  0  0  0  0
    1.9071   -2.3845   -0.2393 C   0  0  0  0  0  0  0  0  0  0  0  0
    2.8596   -3.5655   -0.2230 C   0  0  0  0  0  0  0  0  0  0  0  0
    4.0176   -3.5077    0.1802 O   0  0  0  0  0  0  0  0  0  0  0  0
    2.2860   -4.7085   -0.7373 N   0  0  0  0  0  0  0  0  0  0  0  0
    2.0949    0.6178   -1.6227 H   0  0  0  0  0  0  0  0  0  0  0  0
    0.5599   -0.1765    0.7714 H   0  0  0  0  0  0  0  0  0  0  0  0
    3.4162   -0.8613   -0.1480 H   0  0  0  0  0  0  0  0  0  0  0  0
    2.7908   -1.3277    1.4237 H   0  0  0  0  0  0  0  0  0  0  0  0
    1.6715   -2.1797   -1.2910 H   0  0  0  0  0  0  0  0  0  0  0  0
    0.9707   -2.6667    0.2549 H   0  0  0  0  0  0  0  0  0  0  0  0
    1.3271   -4.6690   -1.0664 H   0  0  0  0  0  0  0  0  0  0  0  0
    2.7884   -5.5883   -0.7985 H   0  0  0  0  0  0  0  0  0  0  0  0
    1.1587    2.1976    1.4498 N   0  0  0  0  0  0  0  0  0  0  0  0
    1.4432    3.3962    2.2055 C   0  0  2  0  0  0  0  0  0  0  0  0
    2.6663    4.0619    1.5888 C   0  0  0  0  0  0  0  0  0  0  0  0
    3.4897    3.4533    0.9085 O   0  0  0  0  0  0  0  0  0  0  0  0
    1.6785    3.0814    3.6746 C   0  0  0  0  0  0  0  0  0  0  0  0
    0.2054    2.0393    1.1371 H   0  0  0  0  0  0  0  0  0  0  0  0
    0.5740    4.0537    2.0946 H   0  0  0  0  0  0  0  0  0  0  0  0
    2.5455    2.4236    3.8056 H   0  0  0  0  0  0  0  0  0  0  0  0
    1.8656    3.9935    4.2508 H   0  0  0  0  0  0  0  0  0  0  0  0
    0.8092    2.5759    4.1090 H   0  0  0  0  0  0  0  0  0  0  0  0
    2.7532    5.4060    1.9232 N   0  0  0  0  0  0  0  0  0  0  0  0
    3.8314    6.2538    1.4706 C   0  0  0  0  0  0  0  0  0  0  0  0
    2.0155    5.8320    2.4763 H   0  0  0  0  0  0  0  0  0  0  0  0
    4.6343    6.2596    2.2225 H   0  0  0  0  0  0  0  0  0  0  0  0
    4.2243    5.8699    0.5176 H   0  0  0  0  0  0  0  0  0  0  0  0
    3.4566    7.2780    1.3268 H   0  0  0  0  0  0  0  0  0  0  0  0
  1  3  1  0  0  0  0
  1  7  1  0  0  0  0
  1  2  2  0  0  0  0
 22 23  1  0  0  0  0
 23 25  1  0  0  0  0
 23 24  2  0  0  0  0
 35 36  1  0  0  0  0
 36 44  1  0  0  0  0
 36 37  2  0  0  0  0
  8  9  1  0  0  0  0
  9 17  1  0  0  0  0
  9 10  2  0  0  0  0
 18 19  1  0  0  0  0
 19 34  1  0  0  0  0
 19 20  2  0  0  0  0
 35 38  1  0  0  0  0
  8 11  1  0  0  0  0
 44 45  1  0  0  0  0
 21 22  1  0  0  0  0
 18 21  1  0  0  0  0
 34 35  1  0  0  0  0
  7  8  1  0  0  0  0
 17 18  1  0  0  0  0
  3  4  1  0  0  0  0
  3  5  1  0  0  0  0
  3  6  1  0  0  0  0
 38 41  1  0  0  0  0
 38 42  1  0  0  0  0
 38 43  1  0  0  0  0
 11 14  1  0  0  0  0
 11 15  1  0  0  0  0
 11 16  1  0  0  0  0
 45 47  1  0  0  0  0
 45 48  1  0  0  0  0
 45 49  1  0  0  0  0
 22 30  1  0  0  0  0
 22 31  1  0  0  0  0
 21 28  1  0  0  0  0
 21 29  1  0  0  0  0
 35 40  1  0  0  0  0
  8 13  1  0  0  0  0
 18 27  1  0  0  0  0
 25 32  1  0  0  0  0
 25 33  1  0  0  0  0
 44 46  1  0  0  0  0
  7 12  1  0  0  0  0
 34 39  1  0  0  0  0
 17 26  1  0  0  0  0
M  END
$$$$

  -OEChem-05262214473D

 49 48  0     1  0  0  0  0  0999 V2000
   -1.9833   -0.0509   -3.3423 C   0  0  0  0  0  0  0  0  0  0  0  0
   -1.6199   -1.0613   -2.7518 O   0  0  0  0  0  0  0  0  0  0  0  0
   -3.3243   -0.0235   -3.9975 C   0  0  0  0  0  0  0  0  0  0  0  0
   -3.2886   -0.3689   -5.0432 H   0  0  0  0  0  0  0  0  0  0  0  0
   -4.0503   -0.6845   -3.4973 H   0  0  0  0  0  0  0  0  0  0  0  0
   -3.8104    0.9645   -4.0351 H   0  0  0  0  0  0  0  0  0  0  0  0
   -1.2607    1.1231   -3.4768 N   0  0  0  0  0  0  0  0  0  0  0  0
    0.0536    1.3115   -2.9213 C   0  0  2  0  0  0  0  0  0  0  0  0
    0.0266    0.8315   -1.4761 C   0  0  0  0  0  0  0  0  0  0  0  0
   -1.0065    0.7530   -0.8146 O   0  0  0  0  0  0  0  0  0  0  0  0
    0.4852    2.7674   -3.0025 C   0  0  0  0  0  0  0  0  0  0  0  0
   -1.6809    1.8924   -3.9952 H   0  0  0  0  0  0  0  0  0  0  0  0
    0.7360    0.6822   -3.5030 H   0  0  0  0  0  0  0  0  0  0  0  0
   -0.1867    3.4133   -2.4256 H   0  0  0  0  0  0  0  0  0  0  0  0
    1.4966    2.9042   -2.6056 H   0  0  0  0  0  0  0  0  0  0  0  0
    0.4754    3.1196   -4.0397 H   0  0  0  0  0  0  0  0  0  0  0  0
    1.2978    0.5411   -0.9947 N   0  0  0  0  0  0  0  0  0  0  0  0
    1.5371    0.0807    0.3489 C   0  0  2  0  0  0  0  0  0  0  0  0
    2.1229    1.2518    1.1300 C   0  0  0  0  0  0  0  0  0  0  0  0
    3.3318    1.4473    1.2358 O   0  0  0  0  0  0  0  0  0  0  0  0
    2.4931   -1.1183    0.3885 C   0  0  0  0  0  0  0  0  0  0  0  0
    1.9071   -2.3845   -0.2393 C   0  0  0  0  0  0  0  0  0  0  0  0
    2.8596   -3.5655   -0.2230 C   0  0  0  0  0  0  0  0  0  0  0  0
    4.0176   -3.5077    0.1802 O   0  0  0  0  0  0  0  0  0  0  0  0
    2.2860   -4.7085   -0.7373 N   0  0  0  0  0  0  0  0  0  0  0  0
    2.0949    0.6178   -1.6227 H   0  0  0  0  0  0  0  0  0  0  0  0
    0.5599   -0.1765    0.7714 H   0  0  0  0  0  0  0  0  0  0  0  0
    3.4162   -0.8613   -0.1480 H   0  0  0  0  0  0  0  0  0  0  0  0
    2.7908   -1.3277    1.4237 H   0  0  0  0  0  0  0  0  0  0  0  0
    1.6715   -2.1797   -1.2910 H   0  0  0  0  0  0  0  0  0  0  0  0
    0.9707   -2.6667    0.2549 H   0  0  0  0  0  0  0  0  0  0  0  0
    1.3271   -4.6690   -1.0664 H   0  0  0  0  0  0  0  0  0  0  0  0
    2.7884   -5.5883   -0.7985 H   0  0  0  0  0  0  0  0  0  0  0  0
    1.1366    2.0193    1.7337 N   0  0  0  0  0  0  0  0  0  0  0  0
    1.4212    3.1768    2.5510 C   0  0  2  0  0  0  0  0  0  0  0  0
    2.4004    4.0606    1.7900 C   0  0  0  0  0  0  0  0  0  0  0  0
    3.1347    3.6366    0.8999 O   0  0  0  0  0  0  0  0  0  0  0  0
    1.9901    2.7735    3.9025 C   0  0  0  0  0  0  0  0  0  0  0  0
    0.1661    1.7542    1.5941 H   0  0  0  0  0  0  0  0  0  0  0  0
    0.4739    3.7106    2.6841 H   0  0  0  0  0  0  0  0  0  0  0  0
    2.9394    2.2374    3.7894 H   0  0  0  0  0  0  0  0  0  0  0  0
    2.1784    3.6500    4.5312 H   0  0  0  0  0  0  0  0  0  0  0  0
    1.2973    2.1137    4.4358 H   0  0  0  0  0  0  0  0  0  0  0  0
    2.3889    5.3697    2.2509 N   0  0  0  0  0  0  0  0  0  0  0  0
    3.2388    6.3984    1.6984 C   0  0  0  0  0  0  0  0  0  0  0  0
    1.7340    5.6369    2.9800 H   0  0  0  0  0  0  0  0  0  0  0  0
    4.1722    6.4539    2.2777 H   0  0  0  0  0  0  0  0  0  0  0  0
    3.4715    6.1578    0.6505 H   0  0  0  0  0  0  0  0  0  0  0  0
    2.7199    7.3671    1.7456 H   0  0  0  0  0  0  0  0  0  0  0  0
  1  3  1  0  0  0  0
  1  7  1  0  0  0  0
  1  2  2  0  0  0  0
 22 23  1  0  0  0  0
 23 25  1  0  0  0  0
 23 24  2  0  0  0  0
 35 36  1  0  0  0  0
 36 44  1  0  0  0  0
 36 37  2  0  0  0  0
  8  9  1  0  0  0  0
  9 17  1  0  0  0  0
  9 10  2  0  0  0  0
 18 19  1  0  0  0  0
 19 34  1  0  0  0  0
 19 20  2  0  0  0  0
 35 38  1  0  0  0  0
  8 11  1  0  0  0  0
 44 45  1  0  0  0  0
 21 22  1  0  0  0  0
 18 21  1  0  0  0  0
 34 35  1  0  0  0  0
  7  8  1  0  0  0  0
 17 18  1  0  0  0  0
  3  4  1  0  0  0  0
  3  5  1  0  0  0  0
  3  6  1  0  0  0  0
 38 41  1  0  0  0  0
 38 42  1  0  0  0  0
 38 43  1  0  0  0  0
 11 14  1  0  0  0  0
 11 15  1  0  0  0  0
 11 16  1  0  0  0  0
 45 47  1  0  0  0  0
 45 48  1  0  0  0  0
 45 49  1  0  0  0  0
 22 30  1  0  0  0  0
 22 31  1  0  0  0  0
 21 28  1  0  0  0  0
 21 29  1  0  0  0  0
 35 40  1  0  0  0  0
  8 13  1  0  0  0  0
 18 27  1  0  0  0  0
 25 32  1  0  0  0  0
 25 33  1  0  0  0  0
 44 46  1  0  0  0  0
  7 12  1  0  0  0  0
 34 39  1  0  0  0  0
 17 26  1  0  0  0  0
M  END
$$$$

  -OEChem-05262214473D

 49 48  0     1  0  0  0  0  0999 V2000
   -1.9833   -0.0509   -3.3423 C   0  0  0  0  0  0  0  0  0  0  0  0
   -1.6199   -1.0613   -2.7518 O   0  0  0  0  0  0  0  0  0  0  0  0
   -3.3243   -0.0235   -3.9975 C   0  0  0  0  0  0  0  0  0  0  0  0
   -3.2886   -0.3689   -5.0432 H   0  0  0  0  0  0  0  0  0  0  0  0
   -4.0503   -0.6845   -3.4973 H   0  0  0  0  0  0  0  0  0  0  0  0
   -3.8104    0.9645   -4.0351 H   0  0  0  0  0  0  0  0  0  0  0  0
   -1.2607    1.1231   -3.4768 N   0  0  0  0  0  0  0  0  0  0  0  0
    0.0536    1.3115   -2.9213 C   0  0  2  0  0  0  0  0  0  0  0  0
    0.0266    0.8315   -1.4761 C   0  0  0  0  0  0  0  0  0  0  0  0
   -1.0065    0.7530   -0.8146 O   0  0  0  0  0  0  0  0  0  0  0  0
    0.4852    2.7674   -3.0025 C   0  0  0  0  0  0  0  0  0  0  0  0
   -1.6809    1.8924   -3.9952 H   0  0  0  0  0  0  0  0  0  0  0  0
    0.7360    0.6822   -3.5030 H   0  0  0  0  0  0  0  0  0  0  0  0
   -0.1867    3.4133   -2.4256 H   0  0  0  0  0  0  0  0  0  0  0  0
    1.4966    2.9042   -2.6056 H   0  0  0  0  0  0  0  0  0  0  0  0
    0.4754    3.1196   -4.0397 H   0  0  0  0  0  0  0  0  0  0  0  0
    1.2978    0.5411   -0.9947 N   0  0  0  0  0  0  0  0  0  0  0  0
    1.5371    0.0807    0.3489 C   0  0  2  0  0  0  0  0  0  0  0  0
    2.1229    1.2518    1.1300 C   0  0  0  0  0  0  0  0  0  0  0  0
    3.2945    1.6079    1.0230 O   0  0  0  0  0  0  0  0  0  0  0  0
    2.4931   -1.1183    0.3885 C   0  0  0  0  0  0  0  0  0  0  0  0
    1.9071   -2.3845   -0.2393 C   0  0  0  0  0  0  0  0  0  0  0  0
    2.8596   -3.5655   -0.2230 C   0  0  0  0  0  0  0  0  0  0  0  0
    4.0176   -3.5077    0.1802 O   0  0  0  0  0  0  0  0  0  0  0  0
    2.2860   -4.7085   -0.7373 N   0  0  0  0  0  0  0  0  0  0  0  0
    2.0949    0.6178   -1.6227 H   0  0  0  0  0  0  0  0  0  0  0  0
    0.5599   -0.1765    0.7714 H   0  0  0  0  0  0  0  0  0  0  0  0
    3.4162   -0.8613   -0.1480 H   0  0  0  0  0  0  0  0  0  0  0  0
    2.7908   -1.3277    1.4237 H   0  0  0  0  0  0  0  0  0  0  0  0
    1.6715   -2.1797   -1.2910 H   0  0  0  0  0  0  0  0  0  0  0  0
    0.9707   -2.6667    0.2549 H   0  0  0  0  0  0  0  0  0  0  0  0
    1.3271   -4.6690   -1.0664 H   0  0  0  0  0  0  0  0  0  0  0  0
    2.7884   -5.5883   -0.7985 H   0  0  0  0  0  0  0  0  0  0  0  0
    1.1952    1.8159    1.9946 N   0  0  0  0  0  0  0  0  0  0  0  0
    1.4977    2.9275    2.8673 C   0  0  2  0  0  0  0  0  0  0  0  0
    2.1838    4.0042    2.0370 C   0  0  0  0  0  0  0  0  0  0  0  0
    2.7658    3.7674    0.9805 O   0  0  0  0  0  0  0  0  0  0  0  0
    2.3773    2.4948    4.0300 C   0  0  0  0  0  0  0  0  0  0  0  0
    0.2567    1.4281    2.0151 H   0  0  0  0  0  0  0  0  0  0  0  0
    0.5398    3.3073    3.2393 H   0  0  0  0  0  0  0  0  0  0  0  0
    3.3415    2.1113    3.6769 H   0  0  0  0  0  0  0  0  0  0  0  0
    2.5819    3.3318    4.7057 H   0  0  0  0  0  0  0  0  0  0  0  0
    1.8950    1.6995    4.6086 H   0  0  0  0  0  0  0  0  0  0  0  0
    2.1069    5.2536    2.6363 N   0  0  0  0  0  0  0  0  0  0  0  0
    2.6926    6.4367    2.0505 C   0  0  0  0  0  0  0  0  0  0  0  0
    1.5882    5.3610    3.5030 H   0  0  0  0  0  0  0  0  0  0  0  0
    3.7111    6.5748    2.4422 H   0  0  0  0  0  0  0  0  0  0  0  0
    2.7327    6.3229    0.9571 H   0  0  0  0  0  0  0  0  0  0  0  0
    2.0797    7.3139    2.3056 H   0  0  0  0  0  0  0  0  0  0  0  0
  1  3  1  0  0  0  0
  1  7  1  0  0  0  0
  1  2  2  0  0  0  0
 22 23  1  0  0  0  0
 23 25  1  0  0  0  0
 23 24  2  0  0  0  0
 35 36  1  0  0  0  0
 36 44  1  0  0  0  0
 36 37  2  0  0  0  0
  8  9  1  0  0  0  0
  9 17  1  0  0  0  0
  9 10  2  0  0  0  0
 18 19  1  0  0  0  0
 19 34  1  0  0  0  0
 19 20  2  0  0  0  0
 35 38  1  0  0  0  0
  8 11  1  0  0  0  0
 44 45  1  0  0  0  0
 21 22  1  0  0  0  0
 18 21  1  0  0  0  0
 34 35  1  0  0  0  0
  7  8  1  0  0  0  0
 17 18  1  0  0  0  0
  3  4  1  0  0  0  0
  3  5  1  0  0  0  0
  3  6  1  0  0  0  0
 38 41  1  0  0  0  0
 38 42  1  0  0  0  0
 38 43  1  0  0  0  0
 11 14  1  0  0  0  0
 11 15  1  0  0  0  0
 11 16  1  0  0  0  0
 45 47  1  0  0  0  0
 45 48  1  0  0  0  0
 45 49  1  0  0  0  0
 22 30  1  0  0  0  0
 22 31  1  0  0  0  0
 21 28  1  0  0  0  0
 21 29  1  0  0  0  0
 35 40  1  0  0  0  0
  8 13  1  0  0  0  0
 18 27  1  0  0  0  0
 25 32  1  0  0  0  0
 25 33  1  0  0  0  0
 44 46  1  0  0  0  0
  7 12  1  0  0  0  0
 34 39  1  0  0  0  0
 17 26  1  0  0  0  0
M  END
$$$$

  -OEChem-05262214473D

 49 48  0     1  0  0  0  0  0999 V2000
   -1.9833   -0.0509   -3.3423 C   0  0  0  0  0  0  0  0  0  0  0  0
   -1.6199   -1.0613   -2.7518 O   0  0  0  0  0  0  0  0  0  0  0  0
   -3.3243   -0.0235   -3.9975 C   0  0  0  0  0  0  0  0  0  0  0  0
   -3.2886   -0.3689   -5.0432 H   0  0  0  0  0  0  0  0  0  0  0  0
   -4.0503   -0.6845   -3.4973 H   0  0  0  0  0  0  0  0  0  0  0  0
   -3.8104    0.9645   -4.0351 H   0  0  0  0  0  0  0  0  0  0  0  0
   -1.2607    1.1231   -3.4768 N   0  0  0  0  0  0  0  0  0  0  0  0
    0.0536    1.3115   -2.9213 C   0  0  2  0  0  0  0  0  0  0  0  0
    0.0266    0.8315   -1.4761 C   0  0  0  0  0  0  0  0  0  0  0  0
   -1.0065    0.7530   -0.8146 O   0  0  0  0  0  0  0  0  0  0  0  0
    0.4852    2.7674   -3.0025 C   0  0  0  0  0  0  0  0  0  0  0  0
   -1.6809    1.8924   -3.9952 H   0  0  0  0  0  0  0  0  0  0  0  0
    0.7360    0.6822   -3.5030 H   0  0  0  0  0  0  0  0  0  0  0  0
   -0.1867    3.4133   -2.4256 H   0  0  0  0  0  0  0  0  0  0  0  0
    1.4966    2.9042   -2.6056 H   0  0  0  0  0  0  0  0  0  0  0  0
    0.4754    3.1196   -4.0397 H   0  0  0  0  0  0  0  0  0  0  0  0
    1.2978    0.5411   -0.9947 N   0  0  0  0  0  0  0  0  0  0  0  0
    1.5371    0.0807    0.3489 C   0  0  2  0  0  0  0  0  0  0  0  0
    2.1229    1.2518    1.1300 C   0  0  0  0  0  0  0  0  0  0  0  0
    3.1948    1.7793    0.8408 O   0  0  0  0  0  0  0  0  0  0  0  0
    2.4931   -1.1183    0.3885 C   0  0  0  0  0  0  0  0  0  0  0  0
    1.9071   -2.3845   -0.2393 C   0  0  0  0  0  0  0  0  0  0  0  0
    2.8596   -3.5655   -0.2230 C   0  0  0  0  0  0  0  0  0  0  0  0
    4.0176   -3.5077    0.1802 O   0  0  0  0  0  0  0  0  0  0  0  0
    2.2860   -4.7085   -0.7373 N   0  0  0  0  0  0  0  0  0  0  0  0
    2.0949    0.6178   -1.6227 H   0  0  0  0  0  0  0  0  0  0  0  0
    0.5599   -0.1765    0.7714 H   0  0  0  0  0  0  0  0  0  0  0  0
    3.4162   -0.8613   -0.1480 H   0  0  0  0  0  0  0  0  0  0  0  0
    2.7908   -1.3277    1.4237 H   0  0  0  0  0  0  0  0  0  0  0  0
    1.6715   -2.1797   -1.2910 H   0  0  0  0  0  0  0  0  0  0  0  0
    0.9707   -2.6667    0.2549 H   0  0  0  0  0  0  0  0  0  0  0  0
    1.3271   -4.6690   -1.0664 H   0  0  0  0  0  0  0  0  0  0  0  0
    2.7884   -5.5883   -0.7985 H   0  0  0  0  0  0  0  0  0  0  0  0
    1.3307    1.6014    2.2147 N   0  0  0  0  0  0  0  0  0  0  0  0
    1.6675    2.6655    3.1329 C   0  0  2  0  0  0  0  0  0  0  0  0
    2.0312    3.8964    2.3131 C   0  0  0  0  0  0  0  0  0  0  0  0
    2.4082    3.8368    1.1446 O   0  0  0  0  0  0  0  0  0  0  0  0
    2.8135    2.2642    4.0485 C   0  0  0  0  0  0  0  0  0  0  0  0
    0.4712    1.0833    2.3712 H   0  0  0  0  0  0  0  0  0  0  0  0
    0.7674    2.8713    3.7223 H   0  0  0  0  0  0  0  0  0  0  0  0
    3.7241    2.0540    3.4758 H   0  0  0  0  0  0  0  0  0  0  0  0
    3.0485    3.0606    4.7624 H   0  0  0  0  0  0  0  0  0  0  0  0
    2.5616    1.3615    4.6155 H   0  0  0  0  0  0  0  0  0  0  0  0
    1.9266    5.0659    3.0531 N   0  0  0  0  0  0  0  0  0  0  0  0
    2.2298    6.3664    2.5030 C   0  0  0  0  0  0  0  0  0  0  0  0
    1.5878    5.0232    4.0098 H   0  0  0  0  0  0  0  0  0  0  0  0
    3.2824    6.6141    2.7048 H   0  0  0  0  0  0  0  0  0  0  0  0
    2.0580    6.3539    1.4166 H   0  0  0  0  0  0  0  0  0  0  0  0
    1.5797    7.1219    2.9684 H   0  0  0  0  0  0  0  0  0  0  0  0
  1  3  1  0  0  0  0
  1  7  1  0  0  0  0
  1  2  2  0  0  0  0
 22 23  1  0  0  0  0
 23 25  1  0  0  0  0
 23 24  2  0  0  0  0
 35 36  1  0  0  0  0
 36 44  1  0  0  0  0
 36 37  2  0  0  0  0
  8  9  1  0  0  0  0
  9 17  1  0  0  0  0
  9 10  2  0  0  0  0
 18 19  1  0  0  0  0
 19 34  1  0  0  0  0
 19 20  2  0  0  0  0
 35 38  1  0  0  0  0
  8 11  1  0  0  0  0
 44 45  1  0  0  0  0
 21 22  1  0  0  0  0
 18 21  1  0  0  0  0
 34 35  1  0  0  0  0
  7  8  1  0  0  0  0
 17 18  1  0  0  0  0
  3  4  1  0  0  0  0
  3  5  1  0  0  0  0
  3  6  1  0  0  0  0
 38 41  1  0  0  0  0
 38 42  1  0  0  0  0
 38 43  1  0  0  0  0
 11 14  1  0  0  0  0
 11 15  1  0  0  0  0
 11 16  1  0  0  0  0
 45 47  1  0  0  0  0
 45 48  1  0  0  0  0
 45 49  1  0  0  0  0
 22 30  1  0  0  0  0
 22 31  1  0  0  0  0
 21 28  1  0  0  0  0
 21 29  1  0  0  0  0
 35 40  1  0  0  0  0
  8 13  1  0  0  0  0
 18 27  1  0  0  0  0
 25 32  1  0  0  0  0
 25 33  1  0  0  0  0
 44 46  1  0  0  0  0
  7 12  1  0  0  0  0
 34 39  1  0  0  0  0
 17 26  1  0  0  0  0
M  END
$$$$

  -OEChem-05262214473D

 49 48  0     1  0  0  0  0  0999 V2000
   -1.9833   -0.0509   -3.3423 C   0  0  0  0  0  0  0  0  0  0  0  0
   -1.6199   -1.0613   -2.7518 O   0  0  0  0  0  0  0  0  0  0  0  0
   -3.3243   -0.0235   -3.9975 C   0  0  0  0  0  0  0  0  0  0  0  0
   -3.2886   -0.3689   -5.0432 H   0  0  0  0  0  0  0  0  0  0  0  0
   -4.0503   -0.6845   -3.4973 H   0  0  0  0  0  0  0  0  0  0  0  0
   -3.8104    0.9645   -4.0351 H   0  0  0  0  0  0  0  0  0  0  0  0
   -1.2607    1.1231   -3.4768 N   0  0  0  0  0  0  0  0  0  0  0  0
    0.0536    1.3115   -2.9213 C   0  0  2  0  0  0  0  0  0  0  0  0
    0.0266    0.8315   -1.4761 C   0  0  0  0  0  0  0  0  0  0  0  0
   -1.0065    0.7530   -0.8146 O   0  0  0  0  0  0  0  0  0  0  0  0
    0.4852    2.7674   -3.0025 C   0  0  0  0  0  0  0  0  0  0  0  0
   -1.6809    1.8924   -3.9952 H   0  0  0  0  0  0  0  0  0  0  0  0
    0.7360    0.6822   -3.5030 H   0  0  0  0  0  0  0  0  0  0  0  0
   -0.1867    3.4133   -2.4256 H   0  0  0  0  0  0  0  0  0  0  0  0
    1.4966    2.9042   -2.6056 H   0  0  0  0  0  0  0  0  0  0  0  0
    0.4754    3.1196   -4.0397 H   0  0  0  0  0  0  0  0  0  0  0  0
    1.2978    0.5411   -0.9947 N   0  0  0  0  0  0  0  0  0  0  0  0
    1.5371    0.0807    0.3489 C   0  0  2  0  0  0  0  0  0  0  0  0
    2.1229    1.2518    1.1300 C   0  0  0  0  0  0  0  0  0  0  0  0
    3.0396    1.9497    0.7017 O   0  0  0  0  0  0  0  0  0  0  0  0
    2.4931   -1.1183    0.3885 C   0  0  0  0  0  0  0  0  0  0  0  0
    1.9071   -2.3845   -0.2393 C   0  0  0  0  0  0  0  0  0  0  0  0
    2.8596   -3.5655   -0.2230 C   0  0  0  0  0  0  0  0  0  0  0  0
    4.0176   -3.5077    0.1802 O   0  0  0  0  0  0  0  0  0  0  0  0
    2.2860   -4.7085   -0.7373 N   0  0  0  0  0  0  0  0  0  0  0  0
    2.0949    0.6178   -1.6227 H   0  0  0  0  0  0  0  0  0  0  0  0
    0.5599   -0.1765    0.7714 H   0  0  0  0  0  0  0  0  0  0  0  0
    3.4162   -0.8613   -0.1480 H   0  0  0  0  0  0  0  0  0  0  0  0
    2.7908   -1.3277    1.4237 H   0  0  0  0  0  0  0  0  0  0  0  0
    1.6715   -2.1797   -1.2910 H   0  0  0  0  0  0  0  0  0  0  0  0
    0.9707   -2.6667    0.2549 H   0  0  0  0  0  0  0  0  0  0  0  0
    1.3271   -4.6690   -1.0664 H   0  0  0  0  0  0  0  0  0  0  0  0
    2.7884   -5.5883   -0.7985 H   0  0  0  0  0  0  0  0  0  0  0  0
    1.5338    1.3902    2.3791 N   0  0  0  0  0  0  0  0  0  0  0  0
    1.9191    2.4085    3.3295 C   0  0  2  0  0  0  0  0  0  0  0  0
    1.9529    3.7446    2.5994 C   0  0  0  0  0  0  0  0  0  0  0  0
    2.0861    3.8401    1.3811 O   0  0  0  0  0  0  0  0  0  0  0  0
    3.2691    2.0975    3.9568 C   0  0  0  0  0  0  0  0  0  0  0  0
    0.7949    0.7433    2.6383 H   0  0  0  0  0  0  0  0  0  0  0  0
    1.1410    2.4323    4.1003 H   0  0  0  0  0  0  0  0  0  0  0  0
    4.0614    2.0694    3.1998 H   0  0  0  0  0  0  0  0  0  0  0  0
    3.5464    2.8549    4.6974 H   0  0  0  0  0  0  0  0  0  0  0  0
    3.2517    1.1227    4.4560 H   0  0  0  0  0  0  0  0  0  0  0  0
    1.8601    4.8191    3.4729 N   0  0  0  0  0  0  0  0  0  0  0  0
    1.8821    6.1921    3.0251 C   0  0  0  0  0  0  0  0  0  0  0  0
    1.7330    4.6464    4.4658 H   0  0  0  0  0  0  0  0  0  0  0  0
    2.9153    6.5691    3.0476 H   0  0  0  0  0  0  0  0  0  0  0  0
    1.4936    6.2487    1.9976 H   0  0  0  0  0  0  0  0  0  0  0  0
    1.2540    6.8042    3.6889 H   0  0  0  0  0  0  0  0  0  0  0  0
  1  3  1  0  0  0  0
  1  7  1  0  0  0  0
  1  2  2  0  0  0  0
 22 23  1  0  0  0  0
 23 25  1  0  0  0  0
 23 24  2  0  0  0  0
 35 36  1  0  0  0  0
 36 44  1  0  0  0  0
 36 37  2  0  0  0  0
  8  9  1  0  0  0  0
  9 17  1  0  0  0  0
  9 10  2  0  0  0  0
 18 19  1  0  0  0  0
 19 34  1  0  0  0  0
 19 20  2  0  0  0  0
 35 38  1  0  0  0  0
  8 11  1  0  0  0  0
 44 45  1  0  0  0  0
 21 22  1  0  0  0  0
 18 21  1  0  0  0  0
 34 35  1  0  0  0  0
  7  8  1  0  0  0  0
 17 18  1  0  0  0  0
  3  4  1  0  0  0  0
  3  5  1  0  0  0  0
  3  6  1  0  0  0  0
 38 41  1  0  0  0  0
 38 42  1  0  0  0  0
 38 43  1  0  0  0  0
 11 14  1  0  0  0  0
 11 15  1  0  0  0  0
 11 16  1  0  0  0  0
 45 47  1  0  0  0  0
 45 48  1  0  0  0  0
 45 49  1  0  0  0  0
 22 30  1  0  0  0  0
 22 31  1  0  0  0  0
 21 28  1  0  0  0  0
 21 29  1  0  0  0  0
 35 40  1  0  0  0  0
  8 13  1  0  0  0  0
 18 27  1  0  0  0  0
 25 32  1  0  0  0  0
 25 33  1  0  0  0  0
 44 46  1  0  0  0  0
  7 12  1  0  0  0  0
 34 39  1  0  0  0  0
 17 26  1  0  0  0  0
M  END
$$$$

  -OEChem-05262214473D

 49 48  0     1  0  0  0  0  0999 V2000
   -1.9833   -0.0509   -3.3423 C   0  0  0  0  0  0  0  0  0  0  0  0
   -1.6199   -1.0613   -2.7518 O   0  0  0  0  0  0  0  0  0  0  0  0
   -3.3243   -0.0235   -3.9975 C   0  0  0  0  0  0  0  0  0  0  0  0
   -3.2886   -0.3689   -5.0432 H   0  0  0  0  0  0  0  0  0  0  0  0
   -4.0503   -0.6845   -3.4973 H   0  0  0  0  0  0  0  0  0  0  0  0
   -3.8104    0.9645   -4.0351 H   0  0  0  0  0  0  0  0  0  0  0  0
   -1.2607    1.1231   -3.4768 N   0  0  0  0  0  0  0  0  0  0  0  0
    0.0536    1.3115   -2.9213 C   0  0  2  0  0  0  0  0  0  0  0  0
    0.0266    0.8315   -1.4761 C   0  0  0  0  0  0  0  0  0  0  0  0
   -1.0065    0.7530   -0.8146 O   0  0  0  0  0  0  0  0  0  0  0  0
    0.4852    2.7674   -3.0025 C   0  0  0  0  0  0  0  0  0  0  0  0
   -1.6809    1.8924   -3.9952 H   0  0  0  0  0  0  0  0  0  0  0  0
    0.7360    0.6822   -3.5030 H   0  0  0  0  0  0  0  0  0  0  0  0
   -0.1867    3.4133   -2.4256 H   0  0  0  0  0  0  0  0  0  0  0  0
    1.4966    2.9042   -2.6056 H   0  0  0  0  0  0  0  0  0  0  0  0
    0.4754    3.1196   -4.0397 H   0  0  0  0  0  0  0  0  0  0  0  0
    1.2978    0.5411   -0.9947 N   0  0  0  0  0  0  0  0  0  0  0  0
    1.5371    0.0807    0.3489 C   0  0  2  0  0  0  0  0  0  0  0  0
    2.1229    1.2518    1.1300 C   0  0  0  0  0  0  0  0  0  0  0  0
    2.8394    2.1075    0.6151 O   0  0  0  0  0  0  0  0  0  0  0  0
    2.4931   -1.1183    0.3885 C   0  0  0  0  0  0  0  0  0  0  0  0
    1.9071   -2.3845   -0.2393 C   0  0  0  0  0  0  0  0  0  0  0  0
    2.8596   -3.5655   -0.2230 C   0  0  0  0  0  0  0  0  0  0  0  0
    4.0176   -3.5077    0.1802 O   0  0  0  0  0  0  0  0  0  0  0  0
    2.2860   -4.7085   -0.7373 N   0  0  0  0  0  0  0  0  0  0  0  0
    2.0949    0.6178   -1.6227 H   0  0  0  0  0  0  0  0  0  0  0  0
    0.5599   -0.1765    0.7714 H   0  0  0  0  0  0  0  0  0  0  0  0
    3.4162   -0.8613   -0.1480 H   0  0  0  0  0  0  0  0  0  0  0  0
    2.7908   -1.3277    1.4237 H   0  0  0  0  0  0  0  0  0  0  0  0
    1.6715   -2.1797   -1.2910 H   0  0  0  0  0  0  0  0  0  0  0  0
    0.9707   -2.6667    0.2549 H   0  0  0  0  0  0  0  0  0  0  0  0
    1.3271   -4.6690   -1.0664 H   0  0  0  0  0  0  0  0  0  0  0  0
    2.7884   -5.5883   -0.7985 H   0  0  0  0  0  0  0  0  0  0  0  0
    1.7907    1.1967    2.4765 N   0  0  0  0  0  0  0  0  0  0  0  0
    2.2353    2.1740    3.4439 C   0  0  2  0  0  0  0  0  0  0  0  0
    1.9543    3.5591    2.8764 C   0  0  0  0  0  0  0  0  0  0  0  0
    1.8216    3.7771    1.6740 O   0  0  0  0  0  0  0  0  0  0  0  0
    3.7131    2.0060    3.7610 C   0  0  0  0  0  0  0  0  0  0  0  0
    1.2057    0.4312    2.7981 H   0  0  0  0  0  0  0  0  0  0  0  0
    1.6353    2.0203    4.3474 H   0  0  0  0  0  0  0  0  0  0  0  0
    4.3303    2.1564    2.8677 H   0  0  0  0  0  0  0  0  0  0  0  0
    4.0417    2.7287    4.5152 H   0  0  0  0  0  0  0  0  0  0  0  0
    3.9182    0.9994    4.1410 H   0  0  0  0  0  0  0  0  0  0  0  0
    1.9121    4.5302    3.8671 N   0  0  0  0  0  0  0  0  0  0  0  0
    1.6732    5.9257    3.5812 C   0  0  0  0  0  0  0  0  0  0  0  0
    2.0139    4.2564    4.8399 H   0  0  0  0  0  0  0  0  0  0  0  0
    2.6348    6.4429    3.4472 H   0  0  0  0  0  0  0  0  0  0  0  0
    1.0779    6.0145    2.6605 H   0  0  0  0  0  0  0  0  0  0  0  0
    1.1247    6.3826    4.4181 H   0  0  0  0  0  0  0  0  0  0  0  0
  1  3  1  0  0  0  0
  1  7  1  0  0  0  0
  1  2  2  0  0  0  0
 22 23  1  0  0  0  0
 23 25  1  0  0  0  0
 23 24  2  0  0  0  0
 35 36  1  0  0  0  0
 36 44  1  0  0  0  0
 36 37  2  0  0  0  0
  8  9  1  0  0  0  0
  9 17  1  0  0  0  0
  9 10  2  0  0  0  0
 18 19  1  0  0  0  0
 19 34  1  0  0  0  0
 19 20  2  0  0  0  0
 35 38  1  0  0  0  0
  8 11  1  0  0  0  0
 44 45  1  0  0  0  0
 21 22  1  0  0  0  0
 18 21  1  0  0  0  0
 34 35  1  0  0  0  0
  7  8  1  0  0  0  0
 17 18  1  0  0  0  0
  3  4  1  0  0  0  0
  3  5  1  0  0  0  0
  3  6  1  0  0  0  0
 38 41  1  0  0  0  0
 38 42  1  0  0  0  0
 38 43  1  0  0  0  0
 11 14  1  0  0  0  0
 11 15  1  0  0  0  0
 11 16  1  0  0  0  0
 45 47  1  0  0  0  0
 45 48  1  0  0  0  0
 45 49  1  0  0  0  0
 22 30  1  0  0  0  0
 22 31  1  0  0  0  0
 21 28  1  0  0  0  0
 21 29  1  0  0  0  0
 35 40  1  0  0  0  0
  8 13  1  0  0  0  0
 18 27  1  0  0  0  0
 25 32  1  0  0  0  0
 25 33  1  0  0  0  0
 44 46  1  0  0  0  0
  7 12  1  0  0  0  0
 34 39  1  0  0  0  0
 17 26  1  0  0  0  0
M  END
$$$$

  -OEChem-05262214473D

 49 48  0     1  0  0  0  0  0999 V2000
   -1.9833   -0.0509   -3.3423 C   0  0  0  0  0  0  0  0  0  0  0  0
   -1.6199   -1.0613   -2.7518 O   0  0  0  0  0  0  0  0  0  0  0  0
   -3.3243   -0.0235   -3.9975 C   0  0  0  0  0  0  0  0  0  0  0  0
   -3.2886   -0.3689   -5.0432 H   0  0  0  0  0  0  0  0  0  0  0  0
   -4.0503   -0.6845   -3.4973 H   0  0  0  0  0  0  0  0  0  0  0  0
   -3.8104    0.9645   -4.0351 H   0  0  0  0  0  0  0  0  0  0  0  0
   -1.2607    1.1231   -3.4768 N   0  0  0  0  0  0  0  0  0  0  0  0
    0.0536    1.3115   -2.9213 C   0  0  2  0  0  0  0  0  0  0  0  0
    0.0266    0.8315   -1.4761 C   0  0  0  0  0  0  0  0  0  0  0  0
   -1.0065    0.7530   -0.8146 O   0  0  0  0  0  0  0  0  0  0  0  0
    0.4852    2.7674   -3.0025 C   0  0  0  0  0  0  0  0  0  0  0  0
   -1.6809    1.8924   -3.9952 H   0  0  0  0  0  0  0  0  0  0  0  0
    0.7360    0.6822   -3.5030 H   0  0  0  0  0  0  0  0  0  0  0  0
   -0.1867    3.4133   -2.4256 H   0  0  0  0  0  0  0  0  0  0  0  0
    1.4966    2.9042   -2.6056 H   0  0  0  0  0  0  0  0  0  0  0  0
    0.4754    3.1196   -4.0397 H   0  0  0  0  0  0  0  0  0  0  0  0
    1.2978    0.5411   -0.9947 N   0  0  0  0  0  0  0  0  0  0  0  0
    1.5371    0.0807    0.3489 C   0  0  2  0  0  0  0  0  0  0  0  0
    2.1229    1.2518    1.1300 C   0  0  0  0  0  0  0  0  0  0  0  0
    2.6080    2.2421    0.5870 O   0  0  0  0  0  0  0  0  0  0  0  0
    2.4931   -1.1183    0.3885 C   0  0  0  0  0  0  0  0  0  0  0  0
    1.9071   -2.3845   -0.2393 C   0  0  0  0  0  0  0  0  0  0  0  0
    2.8596   -3.5655   -0.2230 C   0  0  0  0  0  0  0  0  0  0  0  0
    4.0176   -3.5077    0.1802 O   0  0  0  0  0  0  0  0  0  0  0  0
    2.2860   -4.7085   -0.7373 N   0  0  0  0  0  0  0  0  0  0  0  0
    2.0949    0.6178   -1.6227 H   0  0  0  0  0  0  0  0  0  0  0  0
    0.5599   -0.1765    0.7714 H   0  0  0  0  0  0  0  0  0  0  0  0
    3.4162   -0.8613   -0.1480 H   0  0  0  0  0  0  0  0  0  0  0  0
    2.7908   -1.3277    1.4237 H   0  0  0  0  0  0  0  0  0  0  0  0
    1.6715   -2.1797   -1.2910 H   0  0  0  0  0  0  0  0  0  0  0  0
    0.9707   -2.6667    0.2549 H   0  0  0  0  0  0  0  0  0  0  0  0
    1.3271   -4.6690   -1.0664 H   0  0  0  0  0  0  0  0  0  0  0  0
    2.7884   -5.5883   -0.7985 H   0  0  0  0  0  0  0  0  0  0  0  0
    2.0838    1.0343    2.5002 N   0  0  0  0  0  0  0  0  0  0  0  0
    2.5945    1.9781    3.4682 C   0  0  2  0  0  0  0  0  0  0  0  0
    2.0354    3.3526    3.1253 C   0  0  0  0  0  0  0  0  0  0  0  0
    1.6327    3.6520    2.0031 O   0  0  0  0  0  0  0  0  0  0  0  0
    4.1152    1.9960    3.4745 C   0  0  0  0  0  0  0  0  0  0  0  0
    1.6757    0.1683    2.8397 H   0  0  0  0  0  0  0  0  0  0  0  0
    2.2165    1.6632    4.4470 H   0  0  0  0  0  0  0  0  0  0  0  0
    4.5124    2.3092    2.5021 H   0  0  0  0  0  0  0  0  0  0  0  0
    4.5007    2.6905    4.2282 H   0  0  0  0  0  0  0  0  0  0  0  0
    4.5158    1.0000    3.6920 H   0  0  0  0  0  0  0  0  0  0  0  0
    2.0789    4.2189    4.2087 N   0  0  0  0  0  0  0  0  0  0  0  0
    1.6173    5.5853    4.1334 C   0  0  0  0  0  0  0  0  0  0  0  0
    2.4113    3.8797    5.1066 H   0  0  0  0  0  0  0  0  0  0  0  0
    2.4600    6.2440    3.8764 H   0  0  0  0  0  0  0  0  0  0  0  0
    0.8391    5.6672    3.3602 H   0  0  0  0  0  0  0  0  0  0  0  0
    1.2007    5.8857    5.1061 H   0  0  0  0  0  0  0  0  0  0  0  0
  1  3  1  0  0  0  0
  1  7  1  0  0  0  0
  1  2  2  0  0  0  0
 22 23  1  0  0  0  0
 23 25  1  0  0  0  0
 23 24  2  0  0  0  0
 35 36  1  0  0  0  0
 36 44  1  0  0  0  0
 36 37  2  0  0  0  0
  8  9  1  0  0  0  0
  9 17  1  0  0  0  0
  9 10  2  0  0  0  0
 18 19  1  0  0  0  0
 19 34  1  0  0  0  0
 19 20  2  0  0  0  0
 35 38  1  0  0  0  0
  8 11  1  0  0  0  0
 44 45  1  0  0  0  0
 21 22  1  0  0  0  0
 18 21  1  0  0  0  0
 34 35  1  0  0  0  0
  7  8  1  0  0  0  0
 17 18  1  0  0  0  0
  3  4  1  0  0  0  0
  3  5  1  0  0  0  0
  3  6  1  0  0  0  0
 38 41  1  0  0  0  0
 38 42  1  0  0  0  0
 38 43  1  0  0  0  0
 11 14  1  0  0  0  0
 11 15  1  0  0  0  0
 11 16  1  0  0  0  0
 45 47  1  0  0  0  0
 45 48  1  0  0  0  0
 45 49  1  0  0  0  0
 22 30  1  0  0  0  0
 22 31  1  0  0  0  0
 21 28  1  0  0  0  0
 21 29  1  0  0  0  0
 35 40  1  0  0  0  0
  8 13  1  0  0  0  0
 18 27  1  0  0  0  0
 25 32  1  0  0  0  0
 25 33  1  0  0  0  0
 44 46  1  0  0  0  0
  7 12  1  0  0  0  0
 34 39  1  0  0  0  0
 17 26  1  0  0  0  0
M  END
$$$$

  -OEChem-05262214473D

 49 48  0     1  0  0  0  0  0999 V2000
   -1.9833   -0.0509   -3.3423 C   0  0  0  0  0  0  0  0  0  0  0  0
   -1.6199   -1.0613   -2.7518 O   0  0  0  0  0  0  0  0  0  0  0  0
   -3.3243   -0.0235   -3.9975 C   0  0  0  0  0  0  0  0  0  0  0  0
   -3.2886   -0.3689   -5.0432 H   0  0  0  0  0  0  0  0  0  0  0  0
   -4.0503   -0.6845   -3.4973 H   0  0  0  0  0  0  0  0  0  0  0  0
   -3.8104    0.9645   -4.0351 H   0  0  0  0  0  0  0  0  0  0  0  0
   -1.2607    1.1231   -3.4768 N   0  0  0  0  0  0  0  0  0  0  0  0
    0.0536    1.3115   -2.9213 C   0  0  2  0  0  0  0  0  0  0  0  0
    0.0266    0.8315   -1.4761 C   0  0  0  0  0  0  0  0  0  0  0  0
   -1.0065    0.7530   -0.8146 O   0  0  0  0  0  0  0  0  0  0  0  0
    0.4852    2.7674   -3.0025 C   0  0  0  0  0  0  0  0  0  0  0  0
   -1.6809    1.8924   -3.9952 H   0  0  0  0  0  0  0  0  0  0  0  0
    0.7360    0.6822   -3.5030 H   0  0  0  0  0  0  0  0  0  0  0  0
   -0.1867    3.4133   -2.4256 H   0  0  0  0  0  0  0  0  0  0  0  0
    1.4966    2.9042   -2.6056 H   0  0  0  0  0  0  0  0  0  0  0  0
    0.4754    3.1196   -4.0397 H   0  0  0  0  0  0  0  0  0  0  0  0
    1.2978    0.5411   -0.9947 N   0  0  0  0  0  0  0  0  0  0  0  0
    1.5371    0.0807    0.3489 C   0  0  2  0  0  0  0  0  0  0  0  0
    1.7581    1.3148    1.2165 C   0  0  0  0  0  0  0  0  0  0  0  0
    1.7621    2.4580    0.7649 O   0  0  0  0  0  0  0  0  0  0  0  0
    2.7500   -0.8546    0.4331 C   0  0  0  0  0  0  0  0  0  0  0  0
    2.5400   -2.1891   -0.2851 C   0  0  0  0  0  0  0  0  0  0  0  0
    3.7470   -3.1066   -0.2238 C   0  0  0  0  0  0  0  0  0  0  0  0
    4.8213   -2.7946    0.2814 O   0  0  0  0  0  0  0  0  0  0  0  0
    3.5103   -4.3248   -0.8238 N   0  0  0  0  0  0  0  0  0  0  0  0
    2.0949    0.6178   -1.6227 H   0  0  0  0  0  0  0  0  0  0  0  0
    0.6222   -0.4253    0.6751 H   0  0  0  0  0  0  0  0  0  0  0  0
    3.6215   -0.3558   -0.0114 H   0  0  0  0  0  0  0  0  0  0  0  0
    3.0086   -1.0413    1.4831 H   0  0  0  0  0  0  0  0  0  0  0  0
    2.3439   -1.9911   -1.3461 H   0  0  0  0  0  0  0  0  0  0  0  0
    1.6651   -2.7134    0.1152 H   0  0  0  0  0  0  0  0  0  0  0  0
    2.5990   -4.4988   -1.2346 H   0  0  0  0  0  0  0  0  0  0  0  0
    4.2148   -5.0540   -0.8695 H   0  0  0  0  0  0  0  0  0  0  0  0
    1.9995    0.9819    2.5422 N   0  0  0  0  0  0  0  0  0  0  0  0
    2.2619    1.9621    3.5712 C   0  0  2  0  0  0  0  0  0  0  0  0
    1.1941    3.0437    3.4738 C   0  0  0  0  0  0  0  0  0  0  0  0
    0.5524    3.2623    2.4484 O   0  0  0  0  0  0  0  0  0  0  0  0
    3.6537    2.5577    3.4261 C   0  0  0  0  0  0  0  0  0  0  0  0
    1.9912    0.0000    2.8021 H   0  0  0  0  0  0  0  0  0  0  0  0
    2.1711    1.4440    4.5321 H   0  0  0  0  0  0  0  0  0  0  0  0
    3.7636    3.0810    2.4692 H   0  0  0  0  0  0  0  0  0  0  0  0
    3.8616    3.2792    4.2231 H   0  0  0  0  0  0  0  0  0  0  0  0
    4.4187    1.7749    3.4666 H   0  0  0  0  0  0  0  0  0  0  0  0
    1.0723    3.7646    4.6535 N   0  0  0  0  0  0  0  0  0  0  0  0
    0.1356    4.8529    4.8089 C   0  0  0  0  0  0  0  0  0  0  0  0
    1.6316    3.5019    5.4596 H   0  0  0  0  0  0  0  0  0  0  0  0
    0.6312    5.8025    4.5586 H   0  0  0  0  0  0  0  0  0  0  0  0
   -0.7210    4.6981    4.1364 H   0  0  0  0  0  0  0  0  0  0  0  0
   -0.2173    4.8869    5.8502 H   0  0  0  0  0  0  0  0  0  0  0  0
  1  3  1  0  0  0  0
  1  7  1  0  0  0  0
  1  2  2  0  0  0  0
 22 23  1  0  0  0  0
 23 25  1  0  0  0  0
 23 24  2  0  0  0  0
 35 36  1  0  0  0  0
 36 44  1  0  0  0  0
 36 37  2  0  0  0  0
  8  9  1  0  0  0  0
  9 17  1  0  0  0  0
  9 10  2  0  0  0  0
 18 19  1  0  0  0  0
 19 34  1  0  0  0  0
 19 20  2  0  0  0  0
 35 38  1  0  0  0  0
  8 11  1  0  0  0  0
 44 45  1  0  0  0  0
 21 22  1  0  0  0  0
 18 21  1  0  0  0  0
 34 35  1  0  0  0  0
  7  8  1  0  0  0  0
 17 18  1  0  0  0  0
  3  4  1  0  0  0  0
  3  5  1  0  0  0  0
  3  6  1  0  0  0  0
 38 41  1  0  0  0  0
 38 42  1  0  0  0  0
 38 43  1  0  0  0  0
 11 14  1  0  0  0  0
 11 15  1  0  0  0  0
 11 16  1  0  0  0  0
 45 47  1  0  0  0  0
 45 48  1  0  0  0  0
 45 49  1  0  0  0  0
 22 30  1  0  0  0  0
 22 31  1  0  0  0  0
 21 28  1  0  0  0  0
 21 29  1  0  0  0  0
 35 40  1  0  0  0  0
  8 13  1  0  0  0  0
 18 27  1  0  0  0  0
 25 32  1  0  0  0  0
 25 33  1  0  0  0  0
 44 46  1  0  0  0  0
  7 12  1  0  0  0  0
 34 39  1  0  0  0  0
 17 26  1  0  0  0  0
M  END
$$$$

  -OEChem-05262214473D

 49 48  0     1  0  0  0  0  0999 V2000
   -1.9833   -0.0509   -3.3423 C   0  0  0  0  0  0  0  0  0  0  0  0
   -1.6199   -1.0613   -2.7518 O   0  0  0  0  0  0  0  0  0  0  0  0
   -3.3243   -0.0235   -3.9975 C   0  0  0  0  0  0  0  0  0  0  0  0
   -3.2886   -0.3689   -5.0432 H   0  0  0  0  0  0  0  0  0  0  0  0
   -4.0503   -0.6845   -3.4973 H   0  0  0  0  0  0  0  0  0  0  0  0
   -3.8104    0.9645   -4.0351 H   0  0  0  0  0  0  0  0  0  0  0  0
   -1.2607    1.1231   -3.4768 N   0  0  0  0  0  0  0  0  0  0  0  0
    0.0536    1.3115   -2.9213 C   0  0  2  0  0  0  0  0  0  0  0  0
    0.0266    0.8315   -1.4761 C   0  0  0  0  0  0  0  0  0  0  0  0
   -1.0065    0.7530   -0.8146 O   0  0  0  0  0  0  0  0  0  0  0  0
    0.4852    2.7674   -3.0025 C   0  0  0  0  0  0  0  0  0  0  0  0
   -1.6809    1.8924   -3.9952 H   0  0  0  0  0  0  0  0  0  0  0  0
    0.7360    0.6822   -3.5030 H   0  0  0  0  0  0  0  0  0  0  0  0
   -0.1867    3.4133   -2.4256 H   0  0  0  0  0  0  0  0  0  0  0  0
    1.4966    2.9042   -2.6056 H   0  0  0  0  0  0  0  0  0  0  0  0
    0.4754    3.1196   -4.0397 H   0  0  0  0  0  0  0  0  0  0  0  0
    1.2978    0.5411   -0.9947 N   0  0  0  0  0  0  0  0  0  0  0  0
    1.5371    0.0807    0.3489 C   0  0  2  0  0  0  0  0  0  0  0  0
    1.7581    1.3148    1.2165 C   0  0  0  0  0  0  0  0  0  0  0  0
    1.5023    2.4550    0.8353 O   0  0  0  0  0  0  0  0  0  0  0  0
    2.7500   -0.8546    0.4331 C   0  0  0  0  0  0  0  0  0  0  0  0
    2.5400   -2.1891   -0.2851 C   0  0  0  0  0  0  0  0  0  0  0  0
    3.7470   -3.1066   -0.2238 C   0  0  0  0  0  0  0  0  0  0  0  0
    4.8213   -2.7946    0.2814 O   0  0  0  0  0  0  0  0  0  0  0  0
    3.5103   -4.3248   -0.8238 N   0  0  0  0  0  0  0  0  0  0  0  0
    2.0949    0.6178   -1.6227 H   0  0  0  0  0  0  0  0  0  0  0  0
    0.6222   -0.4253    0.6751 H   0  0  0  0  0  0  0  0  0  0  0  0
    3.6215   -0.3558   -0.0114 H   0  0  0  0  0  0  0  0  0  0  0  0
    3.0086   -1.0413    1.4831 H   0  0  0  0  0  0  0  0  0  0  0  0
    2.3439   -1.9911   -1.3461 H   0  0  0  0  0  0  0  0  0  0  0  0
    1.6651   -2.7134    0.1152 H   0  0  0  0  0  0  0  0  0  0  0  0
    2.5990   -4.4988   -1.2346 H   0  0  0  0  0  0  0  0  0  0  0  0
    4.2148   -5.0540   -0.8695 H   0  0  0  0  0  0  0  0  0  0  0  0
    2.3206    0.9934    2.4440 N   0  0  0  0  0  0  0  0  0  0  0  0
    2.6523    1.9794    3.4473 C   0  0  2  0  0  0  0  0  0  0  0  0
    1.4444    2.8888    3.6303 C   0  0  0  0  0  0  0  0  0  0  0  0
    0.5751    3.0302    2.7728 O   0  0  0  0  0  0  0  0  0  0  0  0
    3.8814    2.7816    3.0495 C   0  0  0  0  0  0  0  0  0  0  0  0
    2.5085    0.0162    2.6475 H   0  0  0  0  0  0  0  0  0  0  0  0
    2.8428    1.4326    4.3773 H   0  0  0  0  0  0  0  0  0  0  0  0
    3.7096    3.3363    2.1198 H   0  0  0  0  0  0  0  0  0  0  0  0
    4.1483    3.5087    3.8236 H   0  0  0  0  0  0  0  0  0  0  0  0
    4.7418    2.1229    2.8893 H   0  0  0  0  0  0  0  0  0  0  0  0
    1.4738    3.5571    4.8464 N   0  0  0  0  0  0  0  0  0  0  0  0
    0.4454    4.4875    5.2497 C   0  0  0  0  0  0  0  0  0  0  0  0
    2.2233    3.3644    5.5044 H   0  0  0  0  0  0  0  0  0  0  0  0
    0.7353    5.5064    4.9533 H   0  0  0  0  0  0  0  0  0  0  0  0
   -0.5032    4.2196    4.7615 H   0  0  0  0  0  0  0  0  0  0  0  0
    0.3205    4.4450    6.3418 H   0  0  0  0  0  0  0  0  0  0  0  0
  1  3  1  0  0  0  0
  1  7  1  0  0  0  0
  1  2  2  0  0  0  0
 22 23  1  0  0  0  0
 23 25  1  0  0  0  0
 23 24  2  0  0  0  0
 35 36  1  0  0  0  0
 36 44  1  0  0  0  0
 36 37  2  0  0  0  0
  8  9  1  0  0  0  0
  9 17  1  0  0  0  0
  9 10  2  0  0  0  0
 18 19  1  0  0  0  0
 19 34  1  0  0  0  0
 19 20  2  0  0  0  0
 35 38  1  0  0  0  0
  8 11  1  0  0  0  0
 44 45  1  0  0  0  0
 21 22  1  0  0  0  0
 18 21  1  0  0  0  0
 34 35  1  0  0  0  0
  7  8  1  0  0  0  0
 17 18  1  0  0  0  0
  3  4  1  0  0  0  0
  3  5  1  0  0  0  0
  3  6  1  0  0  0  0
 38 41  1  0  0  0  0
 38 42  1  0  0  0  0
 38 43  1  0  0  0  0
 11 14  1  0  0  0  0
 11 15  1  0  0  0  0
 11 16  1  0  0  0  0
 45 47  1  0  0  0  0
 45 48  1  0  0  0  0
 45 49  1  0  0  0  0
 22 30  1  0  0  0  0
 22 31  1  0  0  0  0
 21 28  1  0  0  0  0
 21 29  1  0  0  0  0
 35 40  1  0  0  0  0
  8 13  1  0  0  0  0
 18 27  1  0  0  0  0
 25 32  1  0  0  0  0
 25 33  1  0  0  0  0
 44 46  1  0  0  0  0
  7 12  1  0  0  0  0
 34 39  1  0  0  0  0
 17 26  1  0  0  0  0
M  END
$$$$

  -OEChem-05262214473D

 49 48  0     1  0  0  0  0  0999 V2000
   -1.9833   -0.0509   -3.3423 C   0  0  0  0  0  0  0  0  0  0  0  0
   -1.6199   -1.0613   -2.7518 O   0  0  0  0  0  0  0  0  0  0  0  0
   -3.3243   -0.0235   -3.9975 C   0  0  0  0  0  0  0  0  0  0  0  0
   -3.2886   -0.3689   -5.0432 H   0  0  0  0  0  0  0  0  0  0  0  0
   -4.0503   -0.6845   -3.4973 H   0  0  0  0  0  0  0  0  0  0  0  0
   -3.8104    0.9645   -4.0351 H   0  0  0  0  0  0  0  0  0  0  0  0
   -1.2607    1.1231   -3.4768 N   0  0  0  0  0  0  0  0  0  0  0  0
    0.0536    1.3115   -2.9213 C   0  0  2  0  0  0  0  0  0  0  0  0
    0.0266    0.8315   -1.4761 C   0  0  0  0  0  0  0  0  0  0  0  0
   -1.0065    0.7530   -0.8146 O   0  0  0  0  0  0  0  0  0  0  0  0
    0.4852    2.7674   -3.0025 C   0  0  0  0  0  0  0  0  0  0  0  0
   -1.6809    1.8924   -3.9952 H   0  0  0  0  0  0  0  0  0  0  0  0
    0.7360    0.6822   -3.5030 H   0  0  0  0  0  0  0  0  0  0  0  0
   -0.1867    3.4133   -2.4256 H   0  0  0  0  0  0  0  0  0  0  0  0
    1.4966    2.9042   -2.6056 H   0  0  0  0  0  0  0  0  0  0  0  0
    0.4754    3.1196   -4.0397 H   0  0  0  0  0  0  0  0  0  0  0  0
    1.2978    0.5411   -0.9947 N   0  0  0  0  0  0  0  0  0  0  0  0
    1.5371    0.0807    0.3489 C   0  0  2  0  0  0  0  0  0  0  0  0
    1.7581    1.3148    1.2165 C   0  0  0  0  0  0  0  0  0  0  0  0
    1.2665    2.4112    0.9576 O   0  0  0  0  0  0  0  0  0  0  0  0
    2.7500   -0.8546    0.4331 C   0  0  0  0  0  0  0  0  0  0  0  0
    2.5400   -2.1891   -0.2851 C   0  0  0  0  0  0  0  0  0  0  0  0
    3.7470   -3.1066   -0.2238 C   0  0  0  0  0  0  0  0  0  0  0  0
    4.8213   -2.7946    0.2814 O   0  0  0  0  0  0  0  0  0  0  0  0
    3.5103   -4.3248   -0.8238 N   0  0  0  0  0  0  0  0  0  0  0  0
    2.0949    0.6178   -1.6227 H   0  0  0  0  0  0  0  0  0  0  0  0
    0.6222   -0.4253    0.6751 H   0  0  0  0  0  0  0  0  0  0  0  0
    3.6215   -0.3558   -0.0114 H   0  0  0  0  0  0  0  0  0  0  0  0
    3.0086   -1.0413    1.4831 H   0  0  0  0  0  0  0  0  0  0  0  0
    2.3439   -1.9911   -1.3461 H   0  0  0  0  0  0  0  0  0  0  0  0
    1.6651   -2.7134    0.1152 H   0  0  0  0  0  0  0  0  0  0  0  0
    2.5990   -4.4988   -1.2346 H   0  0  0  0  0  0  0  0  0  0  0  0
    4.2148   -5.0540   -0.8695 H   0  0  0  0  0  0  0  0  0  0  0  0
    2.6085    1.0555    2.2824 N   0  0  0  0  0  0  0  0  0  0  0  0
    3.0008    2.0582    3.2465 C   0  0  2  0  0  0  0  0  0  0  0  0
    1.7418    2.7702    3.7233 C   0  0  0  0  0  0  0  0  0  0  0  0
    0.6992    2.7971    3.0727 O   0  0  0  0  0  0  0  0  0  0  0  0
    3.9896    3.0456    2.6465 C   0  0  0  0  0  0  0  0  0  0  0  0
    2.9733    0.1137    2.3903 H   0  0  0  0  0  0  0  0  0  0  0  0
    3.4607    1.5264    4.0865 H   0  0  0  0  0  0  0  0  0  0  0  0
    3.5466    3.5880    1.8033 H   0  0  0  0  0  0  0  0  0  0  0  0
    4.3077    3.7876    3.3863 H   0  0  0  0  0  0  0  0  0  0  0  0
    4.8816    2.5282    2.2771 H   0  0  0  0  0  0  0  0  0  0  0  0
    1.9326    3.4085    4.9408 N   0  0  0  0  0  0  0  0  0  0  0  0
    0.8909    4.1636    5.5969 C   0  0  0  0  0  0  0  0  0  0  0  0
    2.8244    3.3172    5.4185 H   0  0  0  0  0  0  0  0  0  0  0  0
    0.9622    5.2209    5.3017 H   0  0  0  0  0  0  0  0  0  0  0  0
   -0.0914    3.7661    5.3017 H   0  0  0  0  0  0  0  0  0  0  0  0
    1.0081    4.0789    6.6874 H   0  0  0  0  0  0  0  0  0  0  0  0
  1  3  1  0  0  0  0
  1  7  1  0  0  0  0
  1  2  2  0  0  0  0
 22 23  1  0  0  0  0
 23 25  1  0  0  0  0
 23 24  2  0  0  0  0
 35 36  1  0  0  0  0
 36 44  1  0  0  0  0
 36 37  2  0  0  0  0
  8  9  1  0  0  0  0
  9 17  1  0  0  0  0
  9 10  2  0  0  0  0
 18 19  1  0  0  0  0
 19 34  1  0  0  0  0
 19 20  2  0  0  0  0
 35 38  1  0  0  0  0
  8 11  1  0  0  0  0
 44 45  1  0  0  0  0
 21 22  1  0  0  0  0
 18 21  1  0  0  0  0
 34 35  1  0  0  0  0
  7  8  1  0  0  0  0
 17 18  1  0  0  0  0
  3  4  1  0  0  0  0
  3  5  1  0  0  0  0
  3  6  1  0  0  0  0
 38 41  1  0  0  0  0
 38 42  1  0  0  0  0
 38 43  1  0  0  0  0
 11 14  1  0  0  0  0
 11 15  1  0  0  0  0
 11 16  1  0  0  0  0
 45 47  1  0  0  0  0
 45 48  1  0  0  0  0
 45 49  1  0  0  0  0
 22 30  1  0  0  0  0
 22 31  1  0  0  0  0
 21 28  1  0  0  0  0
 21 29  1  0  0  0  0
 35 40  1  0  0  0  0
  8 13  1  0  0  0  0
 18 27  1  0  0  0  0
 25 32  1  0  0  0  0
 25 33  1  0  0  0  0
 44 46  1  0  0  0  0
  7 12  1  0  0  0  0
 34 39  1  0  0  0  0
 17 26  1  0  0  0  0
M  END
$$$$

  -OEChem-05262214473D

 49 48  0     1  0  0  0  0  0999 V2000
   -1.9833   -0.0509   -3.3423 C   0  0  0  0  0  0  0  0  0  0  0  0
   -1.6199   -1.0613   -2.7518 O   0  0  0  0  0  0  0  0  0  0  0  0
   -3.3243   -0.0235   -3.9975 C   0  0  0  0  0  0  0  0  0  0  0  0
   -3.2886   -0.3689   -5.0432 H   0  0  0  0  0  0  0  0  0  0  0  0
   -4.0503   -0.6845   -3.4973 H   0  0  0  0  0  0  0  0  0  0  0  0
   -3.8104    0.9645   -4.0351 H   0  0  0  0  0  0  0  0  0  0  0  0
   -1.2607    1.1231   -3.4768 N   0  0  0  0  0  0  0  0  0  0  0  0
    0.0536    1.3115   -2.9213 C   0  0  2  0  0  0  0  0  0  0  0  0
    0.0266    0.8315   -1.4761 C   0  0  0  0  0  0  0  0  0  0  0  0
   -1.0065    0.7530   -0.8146 O   0  0  0  0  0  0  0  0  0  0  0  0
    0.4852    2.7674   -3.0025 C   0  0  0  0  0  0  0  0  0  0  0  0
   -1.6809    1.8924   -3.9952 H   0  0  0  0  0  0  0  0  0  0  0  0
    0.7360    0.6822   -3.5030 H   0  0  0  0  0  0  0  0  0  0  0  0
   -0.1867    3.4133   -2.4256 H   0  0  0  0  0  0  0  0  0  0  0  0
    1.4966    2.9042   -2.6056 H   0  0  0  0  0  0  0  0  0  0  0  0
    0.4754    3.1196   -4.0397 H   0  0  0  0  0  0  0  0  0  0  0  0
    1.2978    0.5411   -0.9947 N   0  0  0  0  0  0  0  0  0  0  0  0
    1.5371    0.0807    0.3489 C   0  0  2  0  0  0  0  0  0  0  0  0
    1.7581    1.3148    1.2165 C   0  0  0  0  0  0  0  0  0  0  0  0
    1.0708    2.3296    1.1235 O   0  0  0  0  0  0  0  0  0  0  0  0
    2.7500   -0.8546    0.4331 C   0  0  0  0  0  0  0  0  0  0  0  0
    2.5400   -2.1891   -0.2851 C   0  0  0  0  0  0  0  0  0  0  0  0
    3.7470   -3.1066   -0.2238 C   0  0  0  0  0  0  0  0  0  0  0  0
    4.8213   -2.7946    0.2814 O   0  0  0  0  0  0  0  0  0  0  0  0
    3.5103   -4.3248   -0.8238 N   0  0  0  0  0  0  0  0  0  0  0  0
    2.0949    0.6178   -1.6227 H   0  0  0  0  0  0  0  0  0  0  0  0
    0.6222   -0.4253    0.6751 H   0  0  0  0  0  0  0  0  0  0  0  0
    3.6215   -0.3558   -0.0114 H   0  0  0  0  0  0  0  0  0  0  0  0
    3.0086   -1.0413    1.4831 H   0  0  0  0  0  0  0  0  0  0  0  0
    2.3439   -1.9911   -1.3461 H   0  0  0  0  0  0  0  0  0  0  0  0
    1.6651   -2.7134    0.1152 H   0  0  0  0  0  0  0  0  0  0  0  0
    2.5990   -4.4988   -1.2346 H   0  0  0  0  0  0  0  0  0  0  0  0
    4.2148   -5.0540   -0.8695 H   0  0  0  0  0  0  0  0  0  0  0  0
    2.8435    1.1639    2.0683 N   0  0  0  0  0  0  0  0  0  0  0  0
    3.2838    2.1931    2.9824 C   0  0  2  0  0  0  0  0  0  0  0  0
    2.0660    2.6959    3.7464 C   0  0  0  0  0  0  0  0  0  0  0  0
    0.9162    2.5790    3.3277 O   0  0  0  0  0  0  0  0  0  0  0  0
    3.9707    3.3317    2.2444 C   0  0  0  0  0  0  0  0  0  0  0  0
    3.3541    0.2861    2.0482 H   0  0  0  0  0  0  0  0  0  0  0  0
    3.9829    1.7188    3.6798 H   0  0  0  0  0  0  0  0  0  0  0  0
    3.2858    3.8191    1.5411 H   0  0  0  0  0  0  0  0  0  0  0  0
    4.3289    4.0969    2.9409 H   0  0  0  0  0  0  0  0  0  0  0  0
    4.8287    2.9634    1.6717 H   0  0  0  0  0  0  0  0  0  0  0  0
    2.4175    3.3290    4.9304 N   0  0  0  0  0  0  0  0  0  0  0  0
    1.4416    3.9034    5.8268 C   0  0  0  0  0  0  0  0  0  0  0  0
    3.3940    3.3633    5.2079 H   0  0  0  0  0  0  0  0  0  0  0  0
    1.2963    4.9654    5.5799 H   0  0  0  0  0  0  0  0  0  0  0  0
    0.4864    3.3683    5.7203 H   0  0  0  0  0  0  0  0  0  0  0  0
    1.7985    3.8136    6.8634 H   0  0  0  0  0  0  0  0  0  0  0  0
  1  3  1  0  0  0  0
  1  7  1  0  0  0  0
  1  2  2  0  0  0  0
 22 23  1  0  0  0  0
 23 25  1  0  0  0  0
 23 24  2  0  0  0  0
 35 36  1  0  0  0  0
 36 44  1  0  0  0  0
 36 37  2  0  0  0  0
  8  9  1  0  0  0  0
  9 17  1  0  0  0  0
  9 10  2  0  0  0  0
 18 19  1  0  0  0  0
 19 34  1  0  0  0  0
 19 20  2  0  0  0  0
 35 38  1  0  0  0  0
  8 11  1  0  0  0  0
 44 45  1  0  0  0  0
 21 22  1  0  0  0  0
 18 21  1  0  0  0  0
 34 35  1  0  0  0  0
  7  8  1  0  0  0  0
 17 18  1  0  0  0  0
  3  4  1  0  0  0  0
  3  5  1  0  0  0  0
  3  6  1  0  0  0  0
 38 41  1  0  0  0  0
 38 42  1  0  0  0  0
 38 43  1  0  0  0  0
 11 14  1  0  0  0  0
 11 15  1  0  0  0  0
 11 16  1  0  0  0  0
 45 47  1  0  0  0  0
 45 48  1  0  0  0  0
 45 49  1  0  0  0  0
 22 30  1  0  0  0  0
 22 31  1  0  0  0  0
 21 28  1  0  0  0  0
 21 29  1  0  0  0  0
 35 40  1  0  0  0  0
  8 13  1  0  0  0  0
 18 27  1  0  0  0  0
 25 32  1  0  0  0  0
 25 33  1  0  0  0  0
 44 46  1  0  0  0  0
  7 12  1  0  0  0  0
 34 39  1  0  0  0  0
 17 26  1  0  0  0  0
M  END
$$$$

  -OEChem-05262214473D

 49 48  0     1  0  0  0  0  0999 V2000
   -1.9833   -0.0509   -3.3423 C   0  0  0  0  0  0  0  0  0  0  0  0
   -1.6199   -1.0613   -2.7518 O   0  0  0  0  0  0  0  0  0  0  0  0
   -3.3243   -0.0235   -3.9975 C   0  0  0  0  0  0  0  0  0  0  0  0
   -3.2886   -0.3689   -5.0432 H   0  0  0  0  0  0  0  0  0  0  0  0
   -4.0503   -0.6845   -3.4973 H   0  0  0  0  0  0  0  0  0  0  0  0
   -3.8104    0.9645   -4.0351 H   0  0  0  0  0  0  0  0  0  0  0  0
   -1.2607    1.1231   -3.4768 N   0  0  0  0  0  0  0  0  0  0  0  0
    0.0536    1.3115   -2.9213 C   0  0  2  0  0  0  0  0  0  0  0  0
    0.0266    0.8315   -1.4761 C   0  0  0  0  0  0  0  0  0  0  0  0
   -1.0065    0.7530   -0.8146 O   0  0  0  0  0  0  0  0  0  0  0  0
    0.4852    2.7674   -3.0025 C   0  0  0  0  0  0  0  0  0  0  0  0
   -1.6809    1.8924   -3.9952 H   0  0  0  0  0  0  0  0  0  0  0  0
    0.7360    0.6822   -3.5030 H   0  0  0  0  0  0  0  0  0  0  0  0
   -0.1867    3.4133   -2.4256 H   0  0  0  0  0  0  0  0  0  0  0  0
    1.4966    2.9042   -2.6056 H   0  0  0  0  0  0  0  0  0  0  0  0
    0.4754    3.1196   -4.0397 H   0  0  0  0  0  0  0  0  0  0  0  0
    1.2978    0.5411   -0.9947 N   0  0  0  0  0  0  0  0  0  0  0  0
    1.5371    0.0807    0.3489 C   0  0  2  0  0  0  0  0  0  0  0  0
    1.7581    1.3148    1.2165 C   0  0  0  0  0  0  0  0  0  0  0  0
    0.9286    2.2157    1.3217 O   0  0  0  0  0  0  0  0  0  0  0  0
    2.7500   -0.8546    0.4331 C   0  0  0  0  0  0  0  0  0  0  0  0
    2.5400   -2.1891   -0.2851 C   0  0  0  0  0  0  0  0  0  0  0  0
    3.7470   -3.1066   -0.2238 C   0  0  0  0  0  0  0  0  0  0  0  0
    4.8213   -2.7946    0.2814 O   0  0  0  0  0  0  0  0  0  0  0  0
    3.5103   -4.3248   -0.8238 N   0  0  0  0  0  0  0  0  0  0  0  0
    2.0949    0.6178   -1.6227 H   0  0  0  0  0  0  0  0  0  0  0  0
    0.6222   -0.4253    0.6751 H   0  0  0  0  0  0  0  0  0  0  0  0
    3.6215   -0.3558   -0.0114 H   0  0  0  0  0  0  0  0  0  0  0  0
    3.0086   -1.0413    1.4831 H   0  0  0  0  0  0  0  0  0  0  0  0
    2.3439   -1.9911   -1.3461 H   0  0  0  0  0  0  0  0  0  0  0  0
    1.6651   -2.7134    0.1152 H   0  0  0  0  0  0  0  0  0  0  0  0
    2.5990   -4.4988   -1.2346 H   0  0  0  0  0  0  0  0  0  0  0  0
    4.2148   -5.0540   -0.8695 H   0  0  0  0  0  0  0  0  0  0  0  0
    3.0098    1.3113    1.8163 N   0  0  0  0  0  0  0  0  0  0  0  0
    3.4819    2.3751    2.6731 C   0  0  2  0  0  0  0  0  0  0  0  0
    2.3949    2.6711    3.6979 C   0  0  0  0  0  0  0  0  0  0  0  0
    1.2113    2.3907    3.5203 O   0  0  0  0  0  0  0  0  0  0  0  0
    3.8261    3.6203    1.8708 C   0  0  0  0  0  0  0  0  0  0  0  0
    3.6248    0.5214    1.6444 H   0  0  0  0  0  0  0  0  0  0  0  0
    4.3737    1.9969    3.1847 H   0  0  0  0  0  0  0  0  0  0  0  0
    2.9449    4.0137    1.3511 H   0  0  0  0  0  0  0  0  0  0  0  0
    4.2106    4.4155    2.5179 H   0  0  0  0  0  0  0  0  0  0  0  0
    4.5866    3.3986    1.1143 H   0  0  0  0  0  0  0  0  0  0  0  0
    2.8953    3.3241    4.8157 N   0  0  0  0  0  0  0  0  0  0  0  0
    2.0600    3.7245    5.9238 C   0  0  0  0  0  0  0  0  0  0  0  0
    3.8933    3.4996    4.8868 H   0  0  0  0  0  0  0  0  0  0  0  0
    1.7150    4.7574    5.7690 H   0  0  0  0  0  0  0  0  0  0  0  0
    1.1907    3.0535    5.9887 H   0  0  0  0  0  0  0  0  0  0  0  0
    2.6380    3.6671    6.8579 H   0  0  0  0  0  0  0  0  0  0  0  0
  1  3  1  0  0  0  0
  1  7  1  0  0  0  0
  1  2  2  0  0  0  0
 22 23  1  0  0  0  0
 23 25  1  0  0  0  0
 23 24  2  0  0  0  0
 35 36  1  0  0  0  0
 36 44  1  0  0  0  0
 36 37  2  0  0  0  0
  8  9  1  0  0  0  0
  9 17  1  0  0  0  0
  9 10  2  0  0  0  0
 18 19  1  0  0  0  0
 19 34  1  0  0  0  0
 19 20  2  0  0  0  0
 35 38  1  0  0  0  0
  8 11  1  0  0  0  0
 44 45  1  0  0  0  0
 21 22  1  0  0  0  0
 18 21  1  0  0  0  0
 34 35  1  0  0  0  0
  7  8  1  0  0  0  0
 17 18  1  0  0  0  0
  3  4  1  0  0  0  0
  3  5  1  0  0  0  0
  3  6  1  0  0  0  0
 38 41  1  0  0  0  0
 38 42  1  0  0  0  0
 38 43  1  0  0  0  0
 11 14  1  0  0  0  0
 11 15  1  0  0  0  0
 11 16  1  0  0  0  0
 45 47  1  0  0  0  0
 45 48  1  0  0  0  0
 45 49  1  0  0  0  0
 22 30  1  0  0  0  0
 22 31  1  0  0  0  0
 21 28  1  0  0  0  0
 21 29  1  0  0  0  0
 35 40  1  0  0  0  0
  8 13  1  0  0  0  0
 18 27  1  0  0  0  0
 25 32  1  0  0  0  0
 25 33  1  0  0  0  0
 44 46  1  0  0  0  0
  7 12  1  0  0  0  0
 34 39  1  0  0  0  0
 17 26  1  0  0  0  0
M  END
$$$$

  -OEChem-05262214473D

 49 48  0     1  0  0  0  0  0999 V2000
   -1.9833   -0.0509   -3.3423 C   0  0  0  0  0  0  0  0  0  0  0  0
   -1.6199   -1.0613   -2.7518 O   0  0  0  0  0  0  0  0  0  0  0  0
   -3.3243   -0.0235   -3.9975 C   0  0  0  0  0  0  0  0  0  0  0  0
   -3.2886   -0.3689   -5.0432 H   0  0  0  0  0  0  0  0  0  0  0  0
   -4.0503   -0.6845   -3.4973 H   0  0  0  0  0  0  0  0  0  0  0  0
   -3.8104    0.9645   -4.0351 H   0  0  0  0  0  0  0  0  0  0  0  0
   -1.2607    1.1231   -3.4768 N   0  0  0  0  0  0  0  0  0  0  0  0
    0.0536    1.3115   -2.9213 C   0  0  2  0  0  0  0  0  0  0  0  0
    0.0266    0.8315   -1.4761 C   0  0  0  0  0  0  0  0  0  0  0  0
   -1.0065    0.7530   -0.8146 O   0  0  0  0  0  0  0  0  0  0  0  0
    0.4852    2.7674   -3.0025 C   0  0  0  0  0  0  0  0  0  0  0  0
   -1.6809    1.8924   -3.9952 H   0  0  0  0  0  0  0  0  0  0  0  0
    0.7360    0.6822   -3.5030 H   0  0  0  0  0  0  0  0  0  0  0  0
   -0.1867    3.4133   -2.4256 H   0  0  0  0  0  0  0  0  0  0  0  0
    1.4966    2.9042   -2.6056 H   0  0  0  0  0  0  0  0  0  0  0  0
    0.4754    3.1196   -4.0397 H   0  0  0  0  0  0  0  0  0  0  0  0
    1.2978    0.5411   -0.9947 N   0  0  0  0  0  0  0  0  0  0  0  0
    1.5371    0.0807    0.3489 C   0  0  2  0  0  0  0  0  0  0  0  0
    1.7581    1.3148    1.2165 C   0  0  0  0  0  0  0  0  0  0  0  0
    0.8495    2.0773    1.5387 O   0  0  0  0  0  0  0  0  0  0  0  0
    2.7500   -0.8546    0.4331 C   0  0  0  0  0  0  0  0  0  0  0  0
    2.5400   -2.1891   -0.2851 C   0  0  0  0  0  0  0  0  0  0  0  0
    3.7470   -3.1066   -0.2238 C   0  0  0  0  0  0  0  0  0  0  0  0
    4.8213   -2.7946    0.2814 O   0  0  0  0  0  0  0  0  0  0  0  0
    3.5103   -4.3248   -0.8238 N   0  0  0  0  0  0  0  0  0  0  0  0
    2.0949    0.6178   -1.6227 H   0  0  0  0  0  0  0  0  0  0  0  0
    0.6222   -0.4253    0.6751 H   0  0  0  0  0  0  0  0  0  0  0  0
    3.6215   -0.3558   -0.0114 H   0  0  0  0  0  0  0  0  0  0  0  0
    3.0086   -1.0413    1.4831 H   0  0  0  0  0  0  0  0  0  0  0  0
    2.3439   -1.9911   -1.3461 H   0  0  0  0  0  0  0  0  0  0  0  0
    1.6651   -2.7134    0.1152 H   0  0  0  0  0  0  0  0  0  0  0  0
    2.5990   -4.4988   -1.2346 H   0  0  0  0  0  0  0  0  0  0  0  0
    4.2148   -5.0540   -0.8695 H   0  0  0  0  0  0  0  0  0  0  0  0
    3.0959    1.4876    1.5436 N   0  0  0  0  0  0  0  0  0  0  0  0
    3.5818    2.5916    2.3397 C   0  0  2  0  0  0  0  0  0  0  0  0
    2.7062    2.6973    3.5813 C   0  0  0  0  0  0  0  0  0  0  0  0
    1.5645    2.2451    3.6375 O   0  0  0  0  0  0  0  0  0  0  0  0
    3.5657    3.8918    1.5509 C   0  0  0  0  0  0  0  0  0  0  0  0
    3.7670    0.8038    1.2066 H   0  0  0  0  0  0  0  0  0  0  0  0
    4.6066    2.3416    2.6350 H   0  0  0  0  0  0  0  0  0  0  0  0
    2.5471    4.1586    1.2463 H   0  0  0  0  0  0  0  0  0  0  0  0
    3.9608    4.7217    2.1460 H   0  0  0  0  0  0  0  0  0  0  0  0
    4.1720    3.8042    0.6429 H   0  0  0  0  0  0  0  0  0  0  0  0
    3.3336    3.3940    4.6046 N   0  0  0  0  0  0  0  0  0  0  0  0
    2.7040    3.6391    5.8811 C   0  0  0  0  0  0  0  0  0  0  0  0
    4.2882    3.7168    4.4772 H   0  0  0  0  0  0  0  0  0  0  0  0
    2.1896    4.6111    5.8562 H   0  0  0  0  0  0  0  0  0  0  0  0
    1.9736    2.8432    6.0885 H   0  0  0  0  0  0  0  0  0  0  0  0
    3.4692    3.6495    6.6713 H   0  0  0  0  0  0  0  0  0  0  0  0
  1  3  1  0  0  0  0
  1  7  1  0  0  0  0
  1  2  2  0  0  0  0
 22 23  1  0  0  0  0
 23 25  1  0  0  0  0
 23 24  2  0  0  0  0
 35 36  1  0  0  0  0
 36 44  1  0  0  0  0
 36 37  2  0  0  0  0
  8  9  1  0  0  0  0
  9 17  1  0  0  0  0
  9 10  2  0  0  0  0
 18 19  1  0  0  0  0
 19 34  1  0  0  0  0
 19 20  2  0  0  0  0
 35 38  1  0  0  0  0
  8 11  1  0  0  0  0
 44 45  1  0  0  0  0
 21 22  1  0  0  0  0
 18 21  1  0  0  0  0
 34 35  1  0  0  0  0
  7  8  1  0  0  0  0
 17 18  1  0  0  0  0
  3  4  1  0  0  0  0
  3  5  1  0  0  0  0
  3  6  1  0  0  0  0
 38 41  1  0  0  0  0
 38 42  1  0  0  0  0
 38 43  1  0  0  0  0
 11 14  1  0  0  0  0
 11 15  1  0  0  0  0
 11 16  1  0  0  0  0
 45 47  1  0  0  0  0
 45 48  1  0  0  0  0
 45 49  1  0  0  0  0
 22 30  1  0  0  0  0
 22 31  1  0  0  0  0
 21 28  1  0  0  0  0
 21 29  1  0  0  0  0
 35 40  1  0  0  0  0
  8 13  1  0  0  0  0
 18 27  1  0  0  0  0
 25 32  1  0  0  0  0
 25 33  1  0  0  0  0
 44 46  1  0  0  0  0
  7 12  1  0  0  0  0
 34 39  1  0  0  0  0
 17 26  1  0  0  0  0
M  END
$$$$

  -OEChem-05262214473D

 49 48  0     1  0  0  0  0  0999 V2000
   -1.9833   -0.0509   -3.3423 C   0  0  0  0  0  0  0  0  0  0  0  0
   -1.6199   -1.0613   -2.7518 O   0  0  0  0  0  0  0  0  0  0  0  0
   -3.3243   -0.0235   -3.9975 C   0  0  0  0  0  0  0  0  0  0  0  0
   -3.2886   -0.3689   -5.0432 H   0  0  0  0  0  0  0  0  0  0  0  0
   -4.0503   -0.6845   -3.4973 H   0  0  0  0  0  0  0  0  0  0  0  0
   -3.8104    0.9645   -4.0351 H   0  0  0  0  0  0  0  0  0  0  0  0
   -1.2607    1.1231   -3.4768 N   0  0  0  0  0  0  0  0  0  0  0  0
    0.0536    1.3115   -2.9213 C   0  0  2  0  0  0  0  0  0  0  0  0
    0.0266    0.8315   -1.4761 C   0  0  0  0  0  0  0  0  0  0  0  0
   -1.0065    0.7530   -0.8146 O   0  0  0  0  0  0  0  0  0  0  0  0
    0.4852    2.7674   -3.0025 C   0  0  0  0  0  0  0  0  0  0  0  0
   -1.6809    1.8924   -3.9952 H   0  0  0  0  0  0  0  0  0  0  0  0
    0.7360    0.6822   -3.5030 H   0  0  0  0  0  0  0  0  0  0  0  0
   -0.1867    3.4133   -2.4256 H   0  0  0  0  0  0  0  0  0  0  0  0
    1.4966    2.9042   -2.6056 H   0  0  0  0  0  0  0  0  0  0  0  0
    0.4754    3.1196   -4.0397 H   0  0  0  0  0  0  0  0  0  0  0  0
    1.2978    0.5411   -0.9947 N   0  0  0  0  0  0  0  0  0  0  0  0
    1.5371    0.0807    0.3489 C   0  0  2  0  0  0  0  0  0  0  0  0
    1.7581    1.3148    1.2165 C   0  0  0  0  0  0  0  0  0  0  0  0
    0.8389    1.9239    1.7596 O   0  0  0  0  0  0  0  0  0  0  0  0
    2.7500   -0.8546    0.4331 C   0  0  0  0  0  0  0  0  0  0  0  0
    2.5400   -2.1891   -0.2851 C   0  0  0  0  0  0  0  0  0  0  0  0
    3.7470   -3.1066   -0.2238 C   0  0  0  0  0  0  0  0  0  0  0  0
    4.8213   -2.7946    0.2814 O   0  0  0  0  0  0  0  0  0  0  0  0
    3.5103   -4.3248   -0.8238 N   0  0  0  0  0  0  0  0  0  0  0  0
    2.0949    0.6178   -1.6227 H   0  0  0  0  0  0  0  0  0  0  0  0
    0.6222   -0.4253    0.6751 H   0  0  0  0  0  0  0  0  0  0  0  0
    3.6215   -0.3558   -0.0114 H   0  0  0  0  0  0  0  0  0  0  0  0
    3.0086   -1.0413    1.4831 H   0  0  0  0  0  0  0  0  0  0  0  0
    2.3439   -1.9911   -1.3461 H   0  0  0  0  0  0  0  0  0  0  0  0
    1.6651   -2.7134    0.1152 H   0  0  0  0  0  0  0  0  0  0  0  0
    2.5990   -4.4988   -1.2346 H   0  0  0  0  0  0  0  0  0  0  0  0
    4.2148   -5.0540   -0.8695 H   0  0  0  0  0  0  0  0  0  0  0  0
    3.0959    1.6808    1.2688 N   0  0  0  0  0  0  0  0  0  0  0  0
    3.5764    2.8280    2.0048 C   0  0  2  0  0  0  0  0  0  0  0  0
    2.9785    2.7729    3.4045 C   0  0  0  0  0  0  0  0  0  0  0  0
    1.9516    2.1520    3.6713 O   0  0  0  0  0  0  0  0  0  0  0  0
    3.2071    4.1276    1.3068 C   0  0  0  0  0  0  0  0  0  0  0  0
    3.7711    1.1140    0.7644 H   0  0  0  0  0  0  0  0  0  0  0  0
    4.6656    2.7295    2.0682 H   0  0  0  0  0  0  0  0  0  0  0  0
    2.1197    4.2439    1.2339 H   0  0  0  0  0  0  0  0  0  0  0  0
    3.5965    4.9946    1.8506 H   0  0  0  0  0  0  0  0  0  0  0  0
    3.6130    4.1527    0.2897 H   0  0  0  0  0  0  0  0  0  0  0  0
    3.7024    3.5340    4.3116 N   0  0  0  0  0  0  0  0  0  0  0  0
    3.3297    3.6531    5.7019 C   0  0  0  0  0  0  0  0  0  0  0  0
    4.5519    4.0002    4.0070 H   0  0  0  0  0  0  0  0  0  0  0  0
    2.6879    4.5365    5.8356 H   0  0  0  0  0  0  0  0  0  0  0  0
    2.7818    2.7515    6.0130 H   0  0  0  0  0  0  0  0  0  0  0  0
    4.2357    3.7619    6.3162 H   0  0  0  0  0  0  0  0  0  0  0  0
  1  3  1  0  0  0  0
  1  7  1  0  0  0  0
  1  2  2  0  0  0  0
 22 23  1  0  0  0  0
 23 25  1  0  0  0  0
 23 24  2  0  0  0  0
 35 36  1  0  0  0  0
 36 44  1  0  0  0  0
 36 37  2  0  0  0  0
  8  9  1  0  0  0  0
  9 17  1  0  0  0  0
  9 10  2  0  0  0  0
 18 19  1  0  0  0  0
 19 34  1  0  0  0  0
 19 20  2  0  0  0  0
 35 38  1  0  0  0  0
  8 11  1  0  0  0  0
 44 45  1  0  0  0  0
 21 22  1  0  0  0  0
 18 21  1  0  0  0  0
 34 35  1  0  0  0  0
  7  8  1  0  0  0  0
 17 18  1  0  0  0  0
  3  4  1  0  0  0  0
  3  5  1  0  0  0  0
  3  6  1  0  0  0  0
 38 41  1  0  0  0  0
 38 42  1  0  0  0  0
 38 43  1  0  0  0  0
 11 14  1  0  0  0  0
 11 15  1  0  0  0  0
 11 16  1  0  0  0  0
 45 47  1  0  0  0  0
 45 48  1  0  0  0  0
 45 49  1  0  0  0  0
 22 30  1  0  0  0  0
 22 31  1  0  0  0  0
 21 28  1  0  0  0  0
 21 29  1  0  0  0  0
 35 40  1  0  0  0  0
  8 13  1  0  0  0  0
 18 27  1  0  0  0  0
 25 32  1  0  0  0  0
 25 33  1  0  0  0  0
 44 46  1  0  0  0  0
  7 12  1  0  0  0  0
 34 39  1  0  0  0  0
 17 26  1  0  0  0  0
M  END
$$$$

  -OEChem-05262214473D

 49 48  0     1  0  0  0  0  0999 V2000
   -1.9833   -0.0509   -3.3423 C   0  0  0  0  0  0  0  0  0  0  0  0
   -1.6199   -1.0613   -2.7518 O   0  0  0  0  0  0  0  0  0  0  0  0
   -3.3243   -0.0235   -3.9975 C   0  0  0  0  0  0  0  0  0  0  0  0
   -3.2886   -0.3689   -5.0432 H   0  0  0  0  0  0  0  0  0  0  0  0
   -4.0503   -0.6845   -3.4973 H   0  0  0  0  0  0  0  0  0  0  0  0
   -3.8104    0.9645   -4.0351 H   0  0  0  0  0  0  0  0  0  0  0  0
   -1.2607    1.1231   -3.4768 N   0  0  0  0  0  0  0  0  0  0  0  0
    0.0536    1.3115   -2.9213 C   0  0  2  0  0  0  0  0  0  0  0  0
    0.0266    0.8315   -1.4761 C   0  0  0  0  0  0  0  0  0  0  0  0
   -1.0065    0.7530   -0.8146 O   0  0  0  0  0  0  0  0  0  0  0  0
    0.4852    2.7674   -3.0025 C   0  0  0  0  0  0  0  0  0  0  0  0
   -1.6809    1.8924   -3.9952 H   0  0  0  0  0  0  0  0  0  0  0  0
    0.7360    0.6822   -3.5030 H   0  0  0  0  0  0  0  0  0  0  0  0
   -0.1867    3.4133   -2.4256 H   0  0  0  0  0  0  0  0  0  0  0  0
    1.4966    2.9042   -2.6056 H   0  0  0  0  0  0  0  0  0  0  0  0
    0.4754    3.1196   -4.0397 H   0  0  0  0  0  0  0  0  0  0  0  0
    1.2978    0.5411   -0.9947 N   0  0  0  0  0  0  0  0  0  0  0  0
    1.5371    0.0807    0.3489 C   0  0  2  0  0  0  0  0  0  0  0  0
    1.7581    1.3148    1.2165 C   0  0  0  0  0  0  0  0  0  0  0  0
    0.8976    1.7658    1.9695 O   0  0  0  0  0  0  0  0  0  0  0  0
    2.7500   -0.8546    0.4331 C   0  0  0  0  0  0  0  0  0  0  0  0
    2.5400   -2.1891   -0.2851 C   0  0  0  0  0  0  0  0  0  0  0  0
    3.7470   -3.1066   -0.2238 C   0  0  0  0  0  0  0  0  0  0  0  0
    4.8213   -2.7946    0.2814 O   0  0  0  0  0  0  0  0  0  0  0  0
    3.5103   -4.3248   -0.8238 N   0  0  0  0  0  0  0  0  0  0  0  0
    2.0949    0.6178   -1.6227 H   0  0  0  0  0  0  0  0  0  0  0  0
    0.6222   -0.4253    0.6751 H   0  0  0  0  0  0  0  0  0  0  0  0
    3.6215   -0.3558   -0.0114 H   0  0  0  0  0  0  0  0  0  0  0  0
    3.0086   -1.0413    1.4831 H   0  0  0  0  0  0  0  0  0  0  0  0
    2.3439   -1.9911   -1.3461 H   0  0  0  0  0  0  0  0  0  0  0  0
    1.6651   -2.7134    0.1152 H   0  0  0  0  0  0  0  0  0  0  0  0
    2.5990   -4.4988   -1.2346 H   0  0  0  0  0  0  0  0  0  0  0  0
    4.2148   -5.0540   -0.8695 H   0  0  0  0  0  0  0  0  0  0  0  0
    3.0099    1.8777    1.0106 N   0  0  0  0  0  0  0  0  0  0  0  0
    3.4663    3.0681    1.6914 C   0  0  2  0  0  0  0  0  0  0  0  0
    3.1933    2.8927    3.1794 C   0  0  0  0  0  0  0  0  0  0  0  0
    2.3464    2.1179    3.6192 O   0  0  0  0  0  0  0  0  0  0  0  0
    2.7749    4.3118    1.1549 C   0  0  0  0  0  0  0  0  0  0  0  0
    3.6368    1.4307    0.3481 H   0  0  0  0  0  0  0  0  0  0  0  0
    4.5467    3.1342    1.5230 H   0  0  0  0  0  0  0  0  0  0  0  0
    1.6916    4.2638    1.3146 H   0  0  0  0  0  0  0  0  0  0  0  0
    3.1425    5.2157    1.6518 H   0  0  0  0  0  0  0  0  0  0  0  0
    2.9477    4.4202    0.0787 H   0  0  0  0  0  0  0  0  0  0  0  0
    3.9767    3.7345    3.9565 N   0  0  0  0  0  0  0  0  0  0  0  0
    3.8945    3.7655    5.3981 C   0  0  0  0  0  0  0  0  0  0  0  0
    4.6663    4.3304    3.5081 H   0  0  0  0  0  0  0  0  0  0  0  0
    3.1759    4.5385    5.7084 H   0  0  0  0  0  0  0  0  0  0  0  0
    3.5601    2.7848    5.7674 H   0  0  0  0  0  0  0  0  0  0  0  0
    4.8851    3.9967    5.8168 H   0  0  0  0  0  0  0  0  0  0  0  0
  1  3  1  0  0  0  0
  1  7  1  0  0  0  0
  1  2  2  0  0  0  0
 22 23  1  0  0  0  0
 23 25  1  0  0  0  0
 23 24  2  0  0  0  0
 35 36  1  0  0  0  0
 36 44  1  0  0  0  0
 36 37  2  0  0  0  0
  8  9  1  0  0  0  0
  9 17  1  0  0  0  0
  9 10  2  0  0  0  0
 18 19  1  0  0  0  0
 19 34  1  0  0  0  0
 19 20  2  0  0  0  0
 35 38  1  0  0  0  0
  8 11  1  0  0  0  0
 44 45  1  0  0  0  0
 21 22  1  0  0  0  0
 18 21  1  0  0  0  0
 34 35  1  0  0  0  0
  7  8  1  0  0  0  0
 17 18  1  0  0  0  0
  3  4  1  0  0  0  0
  3  5  1  0  0  0  0
  3  6  1  0  0  0  0
 38 41  1  0  0  0  0
 38 42  1  0  0  0  0
 38 43  1  0  0  0  0
 11 14  1  0  0  0  0
 11 15  1  0  0  0  0
 11 16  1  0  0  0  0
 45 47  1  0  0  0  0
 45 48  1  0  0  0  0
 45 49  1  0  0  0  0
 22 30  1  0  0  0  0
 22 31  1  0  0  0  0
 21 28  1  0  0  0  0
 21 29  1  0  0  0  0
 35 40  1  0  0  0  0
  8 13  1  0  0  0  0
 18 27  1  0  0  0  0
 25 32  1  0  0  0  0
 25 33  1  0  0  0  0
 44 46  1  0  0  0  0
  7 12  1  0  0  0  0
 34 39  1  0  0  0  0
 17 26  1  0  0  0  0
M  END
$$$$

  -OEChem-05262214473D

 49 48  0     1  0  0  0  0  0999 V2000
   -1.9833   -0.0509   -3.3423 C   0  0  0  0  0  0  0  0  0  0  0  0
   -1.6199   -1.0613   -2.7518 O   0  0  0  0  0  0  0  0  0  0  0  0
   -3.3243   -0.0235   -3.9975 C   0  0  0  0  0  0  0  0  0  0  0  0
   -3.2886   -0.3689   -5.0432 H   0  0  0  0  0  0  0  0  0  0  0  0
   -4.0503   -0.6845   -3.4973 H   0  0  0  0  0  0  0  0  0  0  0  0
   -3.8104    0.9645   -4.0351 H   0  0  0  0  0  0  0  0  0  0  0  0
   -1.2607    1.1231   -3.4768 N   0  0  0  0  0  0  0  0  0  0  0  0
    0.0536    1.3115   -2.9213 C   0  0  2  0  0  0  0  0  0  0  0  0
    0.0266    0.8315   -1.4761 C   0  0  0  0  0  0  0  0  0  0  0  0
   -1.0065    0.7530   -0.8146 O   0  0  0  0  0  0  0  0  0  0  0  0
    0.4852    2.7674   -3.0025 C   0  0  0  0  0  0  0  0  0  0  0  0
   -1.6809    1.8924   -3.9952 H   0  0  0  0  0  0  0  0  0  0  0  0
    0.7360    0.6822   -3.5030 H   0  0  0  0  0  0  0  0  0  0  0  0
   -0.1867    3.4133   -2.4256 H   0  0  0  0  0  0  0  0  0  0  0  0
    1.4966    2.9042   -2.6056 H   0  0  0  0  0  0  0  0  0  0  0  0
    0.4754    3.1196   -4.0397 H   0  0  0  0  0  0  0  0  0  0  0  0
    1.2978    0.5411   -0.9947 N   0  0  0  0  0  0  0  0  0  0  0  0
    1.5371    0.0807    0.3489 C   0  0  2  0  0  0  0  0  0  0  0  0
    1.7581    1.3148    1.2165 C   0  0  0  0  0  0  0  0  0  0  0  0
    1.0215    1.6139    2.1540 O   0  0  0  0  0  0  0  0  0  0  0  0
    2.7500   -0.8546    0.4331 C   0  0  0  0  0  0  0  0  0  0  0  0
    2.5400   -2.1891   -0.2851 C   0  0  0  0  0  0  0  0  0  0  0  0
    3.7470   -3.1066   -0.2238 C   0  0  0  0  0  0  0  0  0  0  0  0
    4.8213   -2.7946    0.2814 O   0  0  0  0  0  0  0  0  0  0  0  0
    3.5103   -4.3248   -0.8238 N   0  0  0  0  0  0  0  0  0  0  0  0
    2.0949    0.6178   -1.6227 H   0  0  0  0  0  0  0  0  0  0  0  0
    0.6222   -0.4253    0.6751 H   0  0  0  0  0  0  0  0  0  0  0  0
    3.6215   -0.3558   -0.0114 H   0  0  0  0  0  0  0  0  0  0  0  0
    3.0086   -1.0413    1.4831 H   0  0  0  0  0  0  0  0  0  0  0  0
    2.3439   -1.9911   -1.3461 H   0  0  0  0  0  0  0  0  0  0  0  0
    1.6651   -2.7134    0.1152 H   0  0  0  0  0  0  0  0  0  0  0  0
    2.5990   -4.4988   -1.2346 H   0  0  0  0  0  0  0  0  0  0  0  0
    4.2148   -5.0540   -0.8695 H   0  0  0  0  0  0  0  0  0  0  0  0
    2.8438    2.0650    0.7865 N   0  0  0  0  0  0  0  0  0  0  0  0
    3.2589    3.2956    1.4207 C   0  0  2  0  0  0  0  0  0  0  0  0
    3.3361    3.0484    2.9215 C   0  0  0  0  0  0  0  0  0  0  0  0
    2.7218    2.1450    3.4850 O   0  0  0  0  0  0  0  0  0  0  0  0
    2.2985    4.4318    1.1056 C   0  0  0  0  0  0  0  0  0  0  0  0
    3.3731    1.7325   -0.0140 H   0  0  0  0  0  0  0  0  0  0  0  0
    4.2580    3.5280    1.0364 H   0  0  0  0  0  0  0  0  0  0  0  0
    1.2921    4.2169    1.4830 H   0  0  0  0  0  0  0  0  0  0  0  0
    2.6298    5.3698    1.5633 H   0  0  0  0  0  0  0  0  0  0  0  0
    2.2215    4.5885    0.0243 H   0  0  0  0  0  0  0  0  0  0  0  0
    4.1376    3.9819    3.5636 N   0  0  0  0  0  0  0  0  0  0  0  0
    4.3598    3.9687    4.9906 C   0  0  0  0  0  0  0  0  0  0  0  0
    4.6237    4.6850    3.0147 H   0  0  0  0  0  0  0  0  0  0  0  0
    3.6204    4.6171    5.4834 H   0  0  0  0  0  0  0  0  0  0  0  0
    4.2555    2.9409    5.3683 H   0  0  0  0  0  0  0  0  0  0  0  0
    5.3731    4.3379    5.2073 H   0  0  0  0  0  0  0  0  0  0  0  0
  1  3  1  0  0  0  0
  1  7  1  0  0  0  0
  1  2  2  0  0  0  0
 22 23  1  0  0  0  0
 23 25  1  0  0  0  0
 23 24  2  0  0  0  0
 35 36  1  0  0  0  0
 36 44  1  0  0  0  0
 36 37  2  0  0  0  0
  8  9  1  0  0  0  0
  9 17  1  0  0  0  0
  9 10  2  0  0  0  0
 18 19  1  0  0  0  0
 19 34  1  0  0  0  0
 19 20  2  0  0  0  0
 35 38  1  0  0  0  0
  8 11  1  0  0  0  0
 44 45  1  0  0  0  0
 21 22  1  0  0  0  0
 18 21  1  0  0  0  0
 34 35  1  0  0  0  0
  7  8  1  0  0  0  0
 17 18  1  0  0  0  0
  3  4  1  0  0  0  0
  3  5  1  0  0  0  0
  3  6  1  0  0  0  0
 38 41  1  0  0  0  0
 38 42  1  0  0  0  0
 38 43  1  0  0  0  0
 11 14  1  0  0  0  0
 11 15  1  0  0  0  0
 11 16  1  0  0  0  0
 45 47  1  0  0  0  0
 45 48  1  0  0  0  0
 45 49  1  0  0  0  0
 22 30  1  0  0  0  0
 22 31  1  0  0  0  0
 21 28  1  0  0  0  0
 21 29  1  0  0  0  0
 35 40  1  0  0  0  0
  8 13  1  0  0  0  0
 18 27  1  0  0  0  0
 25 32  1  0  0  0  0
 25 33  1  0  0  0  0
 44 46  1  0  0  0  0
  7 12  1  0  0  0  0
 34 39  1  0  0  0  0
 17 26  1  0  0  0  0
M  END
$$$$

  -OEChem-05262214473D

 49 48  0     1  0  0  0  0  0999 V2000
   -1.9833   -0.0509   -3.3423 C   0  0  0  0  0  0  0  0  0  0  0  0
   -1.6199   -1.0613   -2.7518 O   0  0  0  0  0  0  0  0  0  0  0  0
   -3.3243   -0.0235   -3.9975 C   0  0  0  0  0  0  0  0  0  0  0  0
   -3.2886   -0.3689   -5.0432 H   0  0  0  0  0  0  0  0  0  0  0  0
   -4.0503   -0.6845   -3.4973 H   0  0  0  0  0  0  0  0  0  0  0  0
   -3.8104    0.9645   -4.0351 H   0  0  0  0  0  0  0  0  0  0  0  0
   -1.2607    1.1231   -3.4768 N   0  0  0  0  0  0  0  0  0  0  0  0
    0.0536    1.3115   -2.9213 C   0  0  2  0  0  0  0  0  0  0  0  0
    0.0266    0.8315   -1.4761 C   0  0  0  0  0  0  0  0  0  0  0  0
   -1.0065    0.7530   -0.8146 O   0  0  0  0  0  0  0  0  0  0  0  0
    0.4852    2.7674   -3.0025 C   0  0  0  0  0  0  0  0  0  0  0  0
   -1.6809    1.8924   -3.9952 H   0  0  0  0  0  0  0  0  0  0  0  0
    0.7360    0.6822   -3.5030 H   0  0  0  0  0  0  0  0  0  0  0  0
   -0.1867    3.4133   -2.4256 H   0  0  0  0  0  0  0  0  0  0  0  0
    1.4966    2.9042   -2.6056 H   0  0  0  0  0  0  0  0  0  0  0  0
    0.4754    3.1196   -4.0397 H   0  0  0  0  0  0  0  0  0  0  0  0
    1.2978    0.5411   -0.9947 N   0  0  0  0  0  0  0  0  0  0  0  0
    1.5371    0.0807    0.3489 C   0  0  2  0  0  0  0  0  0  0  0  0
    1.7581    1.3148    1.2165 C   0  0  0  0  0  0  0  0  0  0  0  0
    1.2023    1.4785    2.3006 O   0  0  0  0  0  0  0  0  0  0  0  0
    2.7500   -0.8546    0.4331 C   0  0  0  0  0  0  0  0  0  0  0  0
    2.5400   -2.1891   -0.2851 C   0  0  0  0  0  0  0  0  0  0  0  0
    3.7470   -3.1066   -0.2238 C   0  0  0  0  0  0  0  0  0  0  0  0
    4.8213   -2.7946    0.2814 O   0  0  0  0  0  0  0  0  0  0  0  0
    3.5103   -4.3248   -0.8238 N   0  0  0  0  0  0  0  0  0  0  0  0
    2.0949    0.6178   -1.6227 H   0  0  0  0  0  0  0  0  0  0  0  0
    0.6222   -0.4253    0.6751 H   0  0  0  0  0  0  0  0  0  0  0  0
    3.6215   -0.3558   -0.0114 H   0  0  0  0  0  0  0  0  0  0  0  0
    3.0086   -1.0413    1.4831 H   0  0  0  0  0  0  0  0  0  0  0  0
    2.3439   -1.9911   -1.3461 H   0  0  0  0  0  0  0  0  0  0  0  0
    1.6651   -2.7134    0.1152 H   0  0  0  0  0  0  0  0  0  0  0  0
    2.5990   -4.4988   -1.2346 H   0  0  0  0  0  0  0  0  0  0  0  0
    4.2148   -5.0540   -0.8695 H   0  0  0  0  0  0  0  0  0  0  0  0
    2.6088    2.2298    0.6120 N   0  0  0  0  0  0  0  0  0  0  0  0
    2.9683    3.4949    1.2112 C   0  0  2  0  0  0  0  0  0  0  0  0
    3.3970    3.2296    2.6483 C   0  0  0  0  0  0  0  0  0  0  0  0
    3.0523    2.2316    3.2778 O   0  0  0  0  0  0  0  0  0  0  0  0
    1.8103    4.4793    1.1623 C   0  0  0  0  0  0  0  0  0  0  0  0
    2.9981    1.9988   -0.2972 H   0  0  0  0  0  0  0  0  0  0  0  0
    3.8193    3.8841    0.6416 H   0  0  0  0  0  0  0  0  0  0  0  0
    0.9483    4.1065    1.7276 H   0  0  0  0  0  0  0  0  0  0  0  0
    2.0933    5.4464    1.5909 H   0  0  0  0  0  0  0  0  0  0  0  0
    1.4838    4.6461    0.1301 H   0  0  0  0  0  0  0  0  0  0  0  0
    4.1744    4.2593    3.1596 N   0  0  0  0  0  0  0  0  0  0  0  0
    4.6940    4.2488    4.5072 C   0  0  0  0  0  0  0  0  0  0  0  0
    4.4270    5.0396    2.5604 H   0  0  0  0  0  0  0  0  0  0  0  0
    3.9909    4.7669    5.1759 H   0  0  0  0  0  0  0  0  0  0  0  0
    4.8206    3.2090    4.8430 H   0  0  0  0  0  0  0  0  0  0  0  0
    5.6666    4.7622    4.5290 H   0  0  0  0  0  0  0  0  0  0  0  0
  1  3  1  0  0  0  0
  1  7  1  0  0  0  0
  1  2  2  0  0  0  0
 22 23  1  0  0  0  0
 23 25  1  0  0  0  0
 23 24  2  0  0  0  0
 35 36  1  0  0  0  0
 36 44  1  0  0  0  0
 36 37  2  0  0  0  0
  8  9  1  0  0  0  0
  9 17  1  0  0  0  0
  9 10  2  0  0  0  0
 18 19  1  0  0  0  0
 19 34  1  0  0  0  0
 19 20  2  0  0  0  0
 35 38  1  0  0  0  0
  8 11  1  0  0  0  0
 44 45  1  0  0  0  0
 21 22  1  0  0  0  0
 18 21  1  0  0  0  0
 34 35  1  0  0  0  0
  7  8  1  0  0  0  0
 17 18  1  0  0  0  0
  3  4  1  0  0  0  0
  3  5  1  0  0  0  0
  3  6  1  0  0  0  0
 38 41  1  0  0  0  0
 38 42  1  0  0  0  0
 38 43  1  0  0  0  0
 11 14  1  0  0  0  0
 11 15  1  0  0  0  0
 11 16  1  0  0  0  0
 45 47  1  0  0  0  0
 45 48  1  0  0  0  0
 45 49  1  0  0  0  0
 22 30  1  0  0  0  0
 22 31  1  0  0  0  0
 21 28  1  0  0  0  0
 21 29  1  0  0  0  0
 35 40  1  0  0  0  0
  8 13  1  0  0  0  0
 18 27  1  0  0  0  0
 25 32  1  0  0  0  0
 25 33  1  0  0  0  0
 44 46  1  0  0  0  0
  7 12  1  0  0  0  0
 34 39  1  0  0  0  0
 17 26  1  0  0  0  0
M  END
$$$$

  -OEChem-05262214473D

 49 48  0     1  0  0  0  0  0999 V2000
   -1.9833   -0.0509   -3.3423 C   0  0  0  0  0  0  0  0  0  0  0  0
   -1.6199   -1.0613   -2.7518 O   0  0  0  0  0  0  0  0  0  0  0  0
   -3.3243   -0.0235   -3.9975 C   0  0  0  0  0  0  0  0  0  0  0  0
   -3.2886   -0.3689   -5.0432 H   0  0  0  0  0  0  0  0  0  0  0  0
   -4.0503   -0.6845   -3.4973 H   0  0  0  0  0  0  0  0  0  0  0  0
   -3.8104    0.9645   -4.0351 H   0  0  0  0  0  0  0  0  0  0  0  0
   -1.2607    1.1231   -3.4768 N   0  0  0  0  0  0  0  0  0  0  0  0
    0.0536    1.3115   -2.9213 C   0  0  2  0  0  0  0  0  0  0  0  0
    0.0266    0.8315   -1.4761 C   0  0  0  0  0  0  0  0  0  0  0  0
   -1.0065    0.7530   -0.8146 O   0  0  0  0  0  0  0  0  0  0  0  0
    0.4852    2.7674   -3.0025 C   0  0  0  0  0  0  0  0  0  0  0  0
   -1.6809    1.8924   -3.9952 H   0  0  0  0  0  0  0  0  0  0  0  0
    0.7360    0.6822   -3.5030 H   0  0  0  0  0  0  0  0  0  0  0  0
   -0.1867    3.4133   -2.4256 H   0  0  0  0  0  0  0  0  0  0  0  0
    1.4966    2.9042   -2.6056 H   0  0  0  0  0  0  0  0  0  0  0  0
    0.4754    3.1196   -4.0397 H   0  0  0  0  0  0  0  0  0  0  0  0
    1.2978    0.5411   -0.9947 N   0  0  0  0  0  0  0  0  0  0  0  0
    1.5371    0.0807    0.3489 C   0  0  2  0  0  0  0  0  0  0  0  0
    1.7581    1.3148    1.2165 C   0  0  0  0  0  0  0  0  0  0  0  0
    1.4275    1.3688    2.3992 O   0  0  0  0  0  0  0  0  0  0  0  0
    2.7500   -0.8546    0.4331 C   0  0  0  0  0  0  0  0  0  0  0  0
    2.5400   -2.1891   -0.2851 C   0  0  0  0  0  0  0  0  0  0  0  0
    3.7470   -3.1066   -0.2238 C   0  0  0  0  0  0  0  0  0  0  0  0
    4.8213   -2.7946    0.2814 O   0  0  0  0  0  0  0  0  0  0  0  0
    3.5103   -4.3248   -0.8238 N   0  0  0  0  0  0  0  0  0  0  0  0
    2.0949    0.6178   -1.6227 H   0  0  0  0  0  0  0  0  0  0  0  0
    0.6222   -0.4253    0.6751 H   0  0  0  0  0  0  0  0  0  0  0  0
    3.6215   -0.3558   -0.0114 H   0  0  0  0  0  0  0  0  0  0  0  0
    3.0086   -1.0413    1.4831 H   0  0  0  0  0  0  0  0  0  0  0  0
    2.3439   -1.9911   -1.3461 H   0  0  0  0  0  0  0  0  0  0  0  0
    1.6651   -2.7134    0.1152 H   0  0  0  0  0  0  0  0  0  0  0  0
    2.5990   -4.4988   -1.2346 H   0  0  0  0  0  0  0  0  0  0  0  0
    4.2148   -5.0540   -0.8695 H   0  0  0  0  0  0  0  0  0  0  0  0
    2.3209    2.3609    0.4988 N   0  0  0  0  0  0  0  0  0  0  0  0
    2.6145    3.6525    1.0772 C   0  0  2  0  0  0  0  0  0  0  0  0
    3.3719    3.4238    2.3785 C   0  0  0  0  0  0  0  0  0  0  0  0
    3.3153    2.3716    3.0116 O   0  0  0  0  0  0  0  0  0  0  0  0
    1.3436    4.4512    1.3212 C   0  0  0  0  0  0  0  0  0  0  0  0
    2.5374    2.2113   -0.4823 H   0  0  0  0  0  0  0  0  0  0  0  0
    3.2603    4.1783    0.3656 H   0  0  0  0  0  0  0  0  0  0  0  0
    0.6838    3.9400    2.0318 H   0  0  0  0  0  0  0  0  0  0  0  0
    1.5696    5.4404    1.7328 H   0  0  0  0  0  0  0  0  0  0  0  0
    0.7850    4.5892    0.3891 H   0  0  0  0  0  0  0  0  0  0  0  0
    4.0844    4.5479    2.7721 N   0  0  0  0  0  0  0  0  0  0  0  0
    4.8743    4.5866    3.9807 C   0  0  0  0  0  0  0  0  0  0  0  0
    4.0895    5.3703    2.1760 H   0  0  0  0  0  0  0  0  0  0  0  0
    4.2624    4.9777    4.8069 H   0  0  0  0  0  0  0  0  0  0  0  0
    5.2170    3.5709    4.2273 H   0  0  0  0  0  0  0  0  0  0  0  0
    5.7455    5.2407    3.8283 H   0  0  0  0  0  0  0  0  0  0  0  0
  1  3  1  0  0  0  0
  1  7  1  0  0  0  0
  1  2  2  0  0  0  0
 22 23  1  0  0  0  0
 23 25  1  0  0  0  0
 23 24  2  0  0  0  0
 35 36  1  0  0  0  0
 36 44  1  0  0  0  0
 36 37  2  0  0  0  0
  8  9  1  0  0  0  0
  9 17  1  0  0  0  0
  9 10  2  0  0  0  0
 18 19  1  0  0  0  0
 19 34  1  0  0  0  0
 19 20  2  0  0  0  0
 35 38  1  0  0  0  0
  8 11  1  0  0  0  0
 44 45  1  0  0  0  0
 21 22  1  0  0  0  0
 18 21  1  0  0  0  0
 34 35  1  0  0  0  0
  7  8  1  0  0  0  0
 17 18  1  0  0  0  0
  3  4  1  0  0  0  0
  3  5  1  0  0  0  0
  3  6  1  0  0  0  0
 38 41  1  0  0  0  0
 38 42  1  0  0  0  0
 38 43  1  0  0  0  0
 11 14  1  0  0  0  0
 11 15  1  0  0  0  0
 11 16  1  0  0  0  0
 45 47  1  0  0  0  0
 45 48  1  0  0  0  0
 45 49  1  0  0  0  0
 22 30  1  0  0  0  0
 22 31  1  0  0  0  0
 21 28  1  0  0  0  0
 21 29  1  0  0  0  0
 35 40  1  0  0  0  0
  8 13  1  0  0  0  0
 18 27  1  0  0  0  0
 25 32  1  0  0  0  0
 25 33  1  0  0  0  0
 44 46  1  0  0  0  0
  7 12  1  0  0  0  0
 34 39  1  0  0  0  0
 17 26  1  0  0  0  0
M  END
$$$$

  -OEChem-05262214473D

 49 48  0     1  0  0  0  0  0999 V2000
   -1.9833   -0.0509   -3.3423 C   0  0  0  0  0  0  0  0  0  0  0  0
   -1.6199   -1.0613   -2.7518 O   0  0  0  0  0  0  0  0  0  0  0  0
   -3.3243   -0.0235   -3.9975 C   0  0  0  0  0  0  0  0  0  0  0  0
   -3.2886   -0.3689   -5.0432 H   0  0  0  0  0  0  0  0  0  0  0  0
   -4.0503   -0.6845   -3.4973 H   0  0  0  0  0  0  0  0  0  0  0  0
   -3.8104    0.9645   -4.0351 H   0  0  0  0  0  0  0  0  0  0  0  0
   -1.2607    1.1231   -3.4768 N   0  0  0  0  0  0  0  0  0  0  0  0
    0.0536    1.3115   -2.9213 C   0  0  2  0  0  0  0  0  0  0  0  0
    0.0266    0.8315   -1.4761 C   0  0  0  0  0  0  0  0  0  0  0  0
   -1.0065    0.7530   -0.8146 O   0  0  0  0  0  0  0  0  0  0  0  0
    0.4852    2.7674   -3.0025 C   0  0  0  0  0  0  0  0  0  0  0  0
   -1.6809    1.8924   -3.9952 H   0  0  0  0  0  0  0  0  0  0  0  0
    0.7360    0.6822   -3.5030 H   0  0  0  0  0  0  0  0  0  0  0  0
   -0.1867    3.4133   -2.4256 H   0  0  0  0  0  0  0  0  0  0  0  0
    1.4966    2.9042   -2.6056 H   0  0  0  0  0  0  0  0  0  0  0  0
    0.4754    3.1196   -4.0397 H   0  0  0  0  0  0  0  0  0  0  0  0
    1.2978    0.5411   -0.9947 N   0  0  0  0  0  0  0  0  0  0  0  0
    1.5371    0.0807    0.3489 C   0  0  2  0  0  0  0  0  0  0  0  0
    1.7581    1.3148    1.2165 C   0  0  0  0  0  0  0  0  0  0  0  0
    1.6818    1.2924    2.4432 O   0  0  0  0  0  0  0  0  0  0  0  0
    2.7500   -0.8546    0.4331 C   0  0  0  0  0  0  0  0  0  0  0  0
    2.5400   -2.1891   -0.2851 C   0  0  0  0  0  0  0  0  0  0  0  0
    3.7470   -3.1066   -0.2238 C   0  0  0  0  0  0  0  0  0  0  0  0
    4.8213   -2.7946    0.2814 O   0  0  0  0  0  0  0  0  0  0  0  0
    3.5103   -4.3248   -0.8238 N   0  0  0  0  0  0  0  0  0  0  0  0
    2.0949    0.6178   -1.6227 H   0  0  0  0  0  0  0  0  0  0  0  0
    0.6222   -0.4253    0.6751 H   0  0  0  0  0  0  0  0  0  0  0  0
    3.6215   -0.3558   -0.0114 H   0  0  0  0  0  0  0  0  0  0  0  0
    3.0086   -1.0413    1.4831 H   0  0  0  0  0  0  0  0  0  0  0  0
    2.3439   -1.9911   -1.3461 H   0  0  0  0  0  0  0  0  0  0  0  0
    1.6651   -2.7134    0.1152 H   0  0  0  0  0  0  0  0  0  0  0  0
    2.5990   -4.4988   -1.2346 H   0  0  0  0  0  0  0  0  0  0  0  0
    4.2148   -5.0540   -0.8695 H   0  0  0  0  0  0  0  0  0  0  0  0
    1.9999    2.4495    0.4547 N   0  0  0  0  0  0  0  0  0  0  0  0
    2.2213    3.7576    1.0278 C   0  0  2  0  0  0  0  0  0  0  0  0
    3.2626    3.6178    2.1304 C   0  0  0  0  0  0  0  0  0  0  0  0
    3.4931    2.5556    2.7046 O   0  0  0  0  0  0  0  0  0  0  0  0
    0.9302    4.3494    1.5713 C   0  0  0  0  0  0  0  0  0  0  0  0
    2.0222    2.3558   -0.5565 H   0  0  0  0  0  0  0  0  0  0  0  0
    2.6192    4.3905    0.2271 H   0  0  0  0  0  0  0  0  0  0  0  0
    0.5166    3.7289    2.3747 H   0  0  0  0  0  0  0  0  0  0  0  0
    1.0943    5.3522    1.9794 H   0  0  0  0  0  0  0  0  0  0  0  0
    0.1726    4.4215    0.7835 H   0  0  0  0  0  0  0  0  0  0  0  0
    3.8738    4.8279    2.4275 N   0  0  0  0  0  0  0  0  0  0  0  0
    4.8883    4.9593    3.4470 C   0  0  0  0  0  0  0  0  0  0  0  0
    3.6343    5.6544    1.8878 H   0  0  0  0  0  0  0  0  0  0  0  0
    4.4162    5.2352    4.4015 H   0  0  0  0  0  0  0  0  0  0  0  0
    5.4175    4.0020    3.5631 H   0  0  0  0  0  0  0  0  0  0  0  0
    5.6044    5.7408    3.1529 H   0  0  0  0  0  0  0  0  0  0  0  0
  1  3  1  0  0  0  0
  1  7  1  0  0  0  0
  1  2  2  0  0  0  0
 22 23  1  0  0  0  0
 23 25  1  0  0  0  0
 23 24  2  0  0  0  0
 35 36  1  0  0  0  0
 36 44  1  0  0  0  0
 36 37  2  0  0  0  0
  8  9  1  0  0  0  0
  9 17  1  0  0  0  0
  9 10  2  0  0  0  0
 18 19  1  0  0  0  0
 19 34  1  0  0  0  0
 19 20  2  0  0  0  0
 35 38  1  0  0  0  0
  8 11  1  0  0  0  0
 44 45  1  0  0  0  0
 21 22  1  0  0  0  0
 18 21  1  0  0  0  0
 34 35  1  0  0  0  0
  7  8  1  0  0  0  0
 17 18  1  0  0  0  0
  3  4  1  0  0  0  0
  3  5  1  0  0  0  0
  3  6  1  0  0  0  0
 38 41  1  0  0  0  0
 38 42  1  0  0  0  0
 38 43  1  0  0  0  0
 11 14  1  0  0  0  0
 11 15  1  0  0  0  0
 11 16  1  0  0  0  0
 45 47  1  0  0  0  0
 45 48  1  0  0  0  0
 45 49  1  0  0  0  0
 22 30  1  0  0  0  0
 22 31  1  0  0  0  0
 21 28  1  0  0  0  0
 21 29  1  0  0  0  0
 35 40  1  0  0  0  0
  8 13  1  0  0  0  0
 18 27  1  0  0  0  0
 25 32  1  0  0  0  0
 25 33  1  0  0  0  0
 44 46  1  0  0  0  0
  7 12  1  0  0  0  0
 34 39  1  0  0  0  0
 17 26  1  0  0  0  0
M  END
$$$$

  -OEChem-05262214473D

 49 48  0     1  0  0  0  0  0999 V2000
   -1.9833   -0.0509   -3.3423 C   0  0  0  0  0  0  0  0  0  0  0  0
   -1.6199   -1.0613   -2.7518 O   0  0  0  0  0  0  0  0  0  0  0  0
   -3.3243   -0.0235   -3.9975 C   0  0  0  0  0  0  0  0  0  0  0  0
   -3.2886   -0.3689   -5.0432 H   0  0  0  0  0  0  0  0  0  0  0  0
   -4.0503   -0.6845   -3.4973 H   0  0  0  0  0  0  0  0  0  0  0  0
   -3.8104    0.9645   -4.0351 H   0  0  0  0  0  0  0  0  0  0  0  0
   -1.2607    1.1231   -3.4768 N   0  0  0  0  0  0  0  0  0  0  0  0
    0.0536    1.3115   -2.9213 C   0  0  2  0  0  0  0  0  0  0  0  0
    0.0266    0.8315   -1.4761 C   0  0  0  0  0  0  0  0  0  0  0  0
   -1.0065    0.7530   -0.8146 O   0  0  0  0  0  0  0  0  0  0  0  0
    0.4852    2.7674   -3.0025 C   0  0  0  0  0  0  0  0  0  0  0  0
   -1.6809    1.8924   -3.9952 H   0  0  0  0  0  0  0  0  0  0  0  0
    0.7360    0.6822   -3.5030 H   0  0  0  0  0  0  0  0  0  0  0  0
   -0.1867    3.4133   -2.4256 H   0  0  0  0  0  0  0  0  0  0  0  0
    1.4966    2.9042   -2.6056 H   0  0  0  0  0  0  0  0  0  0  0  0
    0.4754    3.1196   -4.0397 H   0  0  0  0  0  0  0  0  0  0  0  0
    1.2978    0.5411   -0.9947 N   0  0  0  0  0  0  0  0  0  0  0  0
    1.5371    0.0807    0.3489 C   0  0  2  0  0  0  0  0  0  0  0  0
    1.7581    1.3148    1.2165 C   0  0  0  0  0  0  0  0  0  0  0  0
    1.9480    1.2544    2.4295 O   0  0  0  0  0  0  0  0  0  0  0  0
    2.7500   -0.8546    0.4331 C   0  0  0  0  0  0  0  0  0  0  0  0
    2.5400   -2.1891   -0.2851 C   0  0  0  0  0  0  0  0  0  0  0  0
    3.7470   -3.1066   -0.2238 C   0  0  0  0  0  0  0  0  0  0  0  0
    4.8213   -2.7946    0.2814 O   0  0  0  0  0  0  0  0  0  0  0  0
    3.5103   -4.3248   -0.8238 N   0  0  0  0  0  0  0  0  0  0  0  0
    2.0949    0.6178   -1.6227 H   0  0  0  0  0  0  0  0  0  0  0  0
    0.6222   -0.4253    0.6751 H   0  0  0  0  0  0  0  0  0  0  0  0
    3.6215   -0.3558   -0.0114 H   0  0  0  0  0  0  0  0  0  0  0  0
    3.0086   -1.0413    1.4831 H   0  0  0  0  0  0  0  0  0  0  0  0
    2.3439   -1.9911   -1.3461 H   0  0  0  0  0  0  0  0  0  0  0  0
    1.6651   -2.7134    0.1152 H   0  0  0  0  0  0  0  0  0  0  0  0
    2.5990   -4.4988   -1.2346 H   0  0  0  0  0  0  0  0  0  0  0  0
    4.2148   -5.0540   -0.8695 H   0  0  0  0  0  0  0  0  0  0  0  0
    1.6675    2.4893    0.4826 N   0  0  0  0  0  0  0  0  0  0  0  0
    1.8158    3.8031    1.0664 C   0  0  2  0  0  0  0  0  0  0  0  0
    3.0764    3.7984    1.9209 C   0  0  0  0  0  0  0  0  0  0  0  0
    3.5733    2.7710    2.3778 O   0  0  0  0  0  0  0  0  0  0  0  0
    0.5983    4.1807    1.8957 C   0  0  0  0  0  0  0  0  0  0  0  0
    1.4879    2.4222   -0.5148 H   0  0  0  0  0  0  0  0  0  0  0  0
    1.9397    4.5062    0.2355 H   0  0  0  0  0  0  0  0  0  0  0  0
    0.4580    3.4874    2.7331 H   0  0  0  0  0  0  0  0  0  0  0  0
    0.6999    5.1876    2.3139 H   0  0  0  0  0  0  0  0  0  0  0  0
   -0.3116    4.1546    1.2865 H   0  0  0  0  0  0  0  0  0  0  0  0
    3.5569    5.0802    2.1493 N   0  0  0  0  0  0  0  0  0  0  0  0
    4.7352    5.3414    2.9426 C   0  0  0  0  0  0  0  0  0  0  0  0
    3.0925    5.8726    1.7155 H   0  0  0  0  0  0  0  0  0  0  0  0
    4.4420    5.5218    3.9873 H   0  0  0  0  0  0  0  0  0  0  0  0
    5.4086    4.4728    2.8957 H   0  0  0  0  0  0  0  0  0  0  0  0
    5.2530    6.2284    2.5488 H   0  0  0  0  0  0  0  0  0  0  0  0
  1  3  1  0  0  0  0
  1  7  1  0  0  0  0
  1  2  2  0  0  0  0
 22 23  1  0  0  0  0
 23 25  1  0  0  0  0
 23 24  2  0  0  0  0
 35 36  1  0  0  0  0
 36 44  1  0  0  0  0
 36 37  2  0  0  0  0
  8  9  1  0  0  0  0
  9 17  1  0  0  0  0
  9 10  2  0  0  0  0
 18 19  1  0  0  0  0
 19 34  1  0  0  0  0
 19 20  2  0  0  0  0
 35 38  1  0  0  0  0
  8 11  1  0  0  0  0
 44 45  1  0  0  0  0
 21 22  1  0  0  0  0
 18 21  1  0  0  0  0
 34 35  1  0  0  0  0
  7  8  1  0  0  0  0
 17 18  1  0  0  0  0
  3  4  1  0  0  0  0
  3  5  1  0  0  0  0
  3  6  1  0  0  0  0
 38 41  1  0  0  0  0
 38 42  1  0  0  0  0
 38 43  1  0  0  0  0
 11 14  1  0  0  0  0
 11 15  1  0  0  0  0
 11 16  1  0  0  0  0
 45 47  1  0  0  0  0
 45 48  1  0  0  0  0
 45 49  1  0  0  0  0
 22 30  1  0  0  0  0
 22 31  1  0  0  0  0
 21 28  1  0  0  0  0
 21 29  1  0  0  0  0
 35 40  1  0  0  0  0
  8 13  1  0  0  0  0
 18 27  1  0  0  0  0
 25 32  1  0  0  0  0
 25 33  1  0  0  0  0
 44 46  1  0  0  0  0
  7 12  1  0  0  0  0
 34 39  1  0  0  0  0
 17 26  1  0  0  0  0
M  END
$$$$

  -OEChem-05262214473D

 49 48  0     1  0  0  0  0  0999 V2000
   -1.9833   -0.0509   -3.3423 C   0  0  0  0  0  0  0  0  0  0  0  0
   -1.6199   -1.0613   -2.7518 O   0  0  0  0  0  0  0  0  0  0  0  0
   -3.3243   -0.0235   -3.9975 C   0  0  0  0  0  0  0  0  0  0  0  0
   -3.2886   -0.3689   -5.0432 H   0  0  0  0  0  0  0  0  0  0  0  0
   -4.0503   -0.6845   -3.4973 H   0  0  0  0  0  0  0  0  0  0  0  0
   -3.8104    0.9645   -4.0351 H   0  0  0  0  0  0  0  0  0  0  0  0
   -1.2607    1.1231   -3.4768 N   0  0  0  0  0  0  0  0  0  0  0  0
    0.0536    1.3115   -2.9213 C   0  0  2  0  0  0  0  0  0  0  0  0
    0.0266    0.8315   -1.4761 C   0  0  0  0  0  0  0  0  0  0  0  0
   -1.0065    0.7530   -0.8146 O   0  0  0  0  0  0  0  0  0  0  0  0
    0.4852    2.7674   -3.0025 C   0  0  0  0  0  0  0  0  0  0  0  0
   -1.6809    1.8924   -3.9952 H   0  0  0  0  0  0  0  0  0  0  0  0
    0.7360    0.6822   -3.5030 H   0  0  0  0  0  0  0  0  0  0  0  0
   -0.1867    3.4133   -2.4256 H   0  0  0  0  0  0  0  0  0  0  0  0
    1.4966    2.9042   -2.6056 H   0  0  0  0  0  0  0  0  0  0  0  0
    0.4754    3.1196   -4.0397 H   0  0  0  0  0  0  0  0  0  0  0  0
    1.2978    0.5411   -0.9947 N   0  0  0  0  0  0  0  0  0  0  0  0
    1.5371    0.0807    0.3489 C   0  0  2  0  0  0  0  0  0  0  0  0
    1.7581    1.3148    1.2165 C   0  0  0  0  0  0  0  0  0  0  0  0
    2.2078    1.2573    2.3591 O   0  0  0  0  0  0  0  0  0  0  0  0
    2.7500   -0.8546    0.4331 C   0  0  0  0  0  0  0  0  0  0  0  0
    2.5400   -2.1891   -0.2851 C   0  0  0  0  0  0  0  0  0  0  0  0
    3.7470   -3.1066   -0.2238 C   0  0  0  0  0  0  0  0  0  0  0  0
    4.8213   -2.7946    0.2814 O   0  0  0  0  0  0  0  0  0  0  0  0
    3.5103   -4.3248   -0.8238 N   0  0  0  0  0  0  0  0  0  0  0  0
    2.0949    0.6178   -1.6227 H   0  0  0  0  0  0  0  0  0  0  0  0
    0.6222   -0.4253    0.6751 H   0  0  0  0  0  0  0  0  0  0  0  0
    3.6215   -0.3558   -0.0114 H   0  0  0  0  0  0  0  0  0  0  0  0
    3.0086   -1.0413    1.4831 H   0  0  0  0  0  0  0  0  0  0  0  0
    2.3439   -1.9911   -1.3461 H   0  0  0  0  0  0  0  0  0  0  0  0
    1.6651   -2.7134    0.1152 H   0  0  0  0  0  0  0  0  0  0  0  0
    2.5990   -4.4988   -1.2346 H   0  0  0  0  0  0  0  0  0  0  0  0
    4.2148   -5.0540   -0.8695 H   0  0  0  0  0  0  0  0  0  0  0  0
    1.3464    2.4778    0.5808 N   0  0  0  0  0  0  0  0  0  0  0  0
    1.4255    3.7858    1.1903 C   0  0  2  0  0  0  0  0  0  0  0  0
    2.8261    3.9533    1.7644 C   0  0  0  0  0  0  0  0  0  0  0  0
    3.5506    3.0032    2.0533 O   0  0  0  0  0  0  0  0  0  0  0  0
    0.3706    3.9568    2.2723 C   0  0  0  0  0  0  0  0  0  0  0  0
    0.9706    2.4061   -0.3601 H   0  0  0  0  0  0  0  0  0  0  0  0
    1.2681    4.5176    0.3904 H   0  0  0  0  0  0  0  0  0  0  0  0
    0.5120    3.2321    3.0825 H   0  0  0  0  0  0  0  0  0  0  0  0
    0.4132    4.9581    2.7134 H   0  0  0  0  0  0  0  0  0  0  0  0
   -0.6346    3.8066    1.8638 H   0  0  0  0  0  0  0  0  0  0  0  0
    3.1554    5.2878    1.9564 N   0  0  0  0  0  0  0  0  0  0  0  0
    4.4254    5.7068    2.5018 C   0  0  0  0  0  0  0  0  0  0  0  0
    2.5008    6.0100    1.6707 H   0  0  0  0  0  0  0  0  0  0  0  0
    4.3379    5.8179    3.5926 H   0  0  0  0  0  0  0  0  0  0  0  0
    5.1908    4.9513    2.2705 H   0  0  0  0  0  0  0  0  0  0  0  0
    4.7152    6.6703    2.0572 H   0  0  0  0  0  0  0  0  0  0  0  0
  1  3  1  0  0  0  0
  1  7  1  0  0  0  0
  1  2  2  0  0  0  0
 22 23  1  0  0  0  0
 23 25  1  0  0  0  0
 23 24  2  0  0  0  0
 35 36  1  0  0  0  0
 36 44  1  0  0  0  0
 36 37  2  0  0  0  0
  8  9  1  0  0  0  0
  9 17  1  0  0  0  0
  9 10  2  0  0  0  0
 18 19  1  0  0  0  0
 19 34  1  0  0  0  0
 19 20  2  0  0  0  0
 35 38  1  0  0  0  0
  8 11  1  0  0  0  0
 44 45  1  0  0  0  0
 21 22  1  0  0  0  0
 18 21  1  0  0  0  0
 34 35  1  0  0  0  0
  7  8  1  0  0  0  0
 17 18  1  0  0  0  0
  3  4  1  0  0  0  0
  3  5  1  0  0  0  0
  3  6  1  0  0  0  0
 38 41  1  0  0  0  0
 38 42  1  0  0  0  0
 38 43  1  0  0  0  0
 11 14  1  0  0  0  0
 11 15  1  0  0  0  0
 11 16  1  0  0  0  0
 45 47  1  0  0  0  0
 45 48  1  0  0  0  0
 45 49  1  0  0  0  0
 22 30  1  0  0  0  0
 22 31  1  0  0  0  0
 21 28  1  0  0  0  0
 21 29  1  0  0  0  0
 35 40  1  0  0  0  0
  8 13  1  0  0  0  0
 18 27  1  0  0  0  0
 25 32  1  0  0  0  0
 25 33  1  0  0  0  0
 44 46  1  0  0  0  0
  7 12  1  0  0  0  0
 34 39  1  0  0  0  0
 17 26  1  0  0  0  0
M  END
$$$$

  -OEChem-05262214473D

 49 48  0     1  0  0  0  0  0999 V2000
   -1.9833   -0.0509   -3.3423 C   0  0  0  0  0  0  0  0  0  0  0  0
   -1.6199   -1.0613   -2.7518 O   0  0  0  0  0  0  0  0  0  0  0  0
   -3.3243   -0.0235   -3.9975 C   0  0  0  0  0  0  0  0  0  0  0  0
   -3.2886   -0.3689   -5.0432 H   0  0  0  0  0  0  0  0  0  0  0  0
   -4.0503   -0.6845   -3.4973 H   0  0  0  0  0  0  0  0  0  0  0  0
   -3.8104    0.9645   -4.0351 H   0  0  0  0  0  0  0  0  0  0  0  0
   -1.2607    1.1231   -3.4768 N   0  0  0  0  0  0  0  0  0  0  0  0
    0.0536    1.3115   -2.9213 C   0  0  2  0  0  0  0  0  0  0  0  0
    0.0266    0.8315   -1.4761 C   0  0  0  0  0  0  0  0  0  0  0  0
   -1.0065    0.7530   -0.8146 O   0  0  0  0  0  0  0  0  0  0  0  0
    0.4852    2.7674   -3.0025 C   0  0  0  0  0  0  0  0  0  0  0  0
   -1.6809    1.8924   -3.9952 H   0  0  0  0  0  0  0  0  0  0  0  0
    0.7360    0.6822   -3.5030 H   0  0  0  0  0  0  0  0  0  0  0  0
   -0.1867    3.4133   -2.4256 H   0  0  0  0  0  0  0  0  0  0  0  0
    1.4966    2.9042   -2.6056 H   0  0  0  0  0  0  0  0  0  0  0  0
    0.4754    3.1196   -4.0397 H   0  0  0  0  0  0  0  0  0  0  0  0
    1.2978    0.5411   -0.9947 N   0  0  0  0  0  0  0  0  0  0  0  0
    1.5371    0.0807    0.3489 C   0  0  2  0  0  0  0  0  0  0  0  0
    1.7581    1.3148    1.2165 C   0  0  0  0  0  0  0  0  0  0  0  0
    2.4436    1.3011    2.2367 O   0  0  0  0  0  0  0  0  0  0  0  0
    2.7500   -0.8546    0.4331 C   0  0  0  0  0  0  0  0  0  0  0  0
    2.5400   -2.1891   -0.2851 C   0  0  0  0  0  0  0  0  0  0  0  0
    3.7470   -3.1066   -0.2238 C   0  0  0  0  0  0  0  0  0  0  0  0
    4.8213   -2.7946    0.2814 O   0  0  0  0  0  0  0  0  0  0  0  0
    3.5103   -4.3248   -0.8238 N   0  0  0  0  0  0  0  0  0  0  0  0
    2.0949    0.6178   -1.6227 H   0  0  0  0  0  0  0  0  0  0  0  0
    0.6222   -0.4253    0.6751 H   0  0  0  0  0  0  0  0  0  0  0  0
    3.6215   -0.3558   -0.0114 H   0  0  0  0  0  0  0  0  0  0  0  0
    3.0086   -1.0413    1.4831 H   0  0  0  0  0  0  0  0  0  0  0  0
    2.3439   -1.9911   -1.3461 H   0  0  0  0  0  0  0  0  0  0  0  0
    1.6651   -2.7134    0.1152 H   0  0  0  0  0  0  0  0  0  0  0  0
    2.5990   -4.4988   -1.2346 H   0  0  0  0  0  0  0  0  0  0  0  0
    4.2148   -5.0540   -0.8695 H   0  0  0  0  0  0  0  0  0  0  0  0
    1.0585    2.4157    0.7424 N   0  0  0  0  0  0  0  0  0  0  0  0
    1.0769    3.7070    1.3912 C   0  0  2  0  0  0  0  0  0  0  0  0
    2.5288    4.0719    1.6714 C   0  0  0  0  0  0  0  0  0  0  0  0
    3.4266    3.2362    1.7534 O   0  0  0  0  0  0  0  0  0  0  0  0
    0.2624    3.6928    2.6753 C   0  0  0  0  0  0  0  0  0  0  0  0
    0.5058    2.3085   -0.1030 H   0  0  0  0  0  0  0  0  0  0  0  0
    0.6501    4.4238    0.6811 H   0  0  0  0  0  0  0  0  0  0  0  0
    0.6750    2.9804    3.3990 H   0  0  0  0  0  0  0  0  0  0  0  0
    0.2538    4.6792    3.1507 H   0  0  0  0  0  0  0  0  0  0  0  0
   -0.7744    3.4012    2.4760 H   0  0  0  0  0  0  0  0  0  0  0  0
    2.6966    5.4363    1.8619 N   0  0  0  0  0  0  0  0  0  0  0  0
    3.9800    6.0306    2.1546 C   0  0  0  0  0  0  0  0  0  0  0  0
    1.8997    6.0573    1.7566 H   0  0  0  0  0  0  0  0  0  0  0  0
    4.1110    6.1034    3.2443 H   0  0  0  0  0  0  0  0  0  0  0  0
    4.7790    5.4049    1.7303 H   0  0  0  0  0  0  0  0  0  0  0  0
    4.0277    7.0364    1.7116 H   0  0  0  0  0  0  0  0  0  0  0  0
  1  3  1  0  0  0  0
  1  7  1  0  0  0  0
  1  2  2  0  0  0  0
 22 23  1  0  0  0  0
 23 25  1  0  0  0  0
 23 24  2  0  0  0  0
 35 36  1  0  0  0  0
 36 44  1  0  0  0  0
 36 37  2  0  0  0  0
  8  9  1  0  0  0  0
  9 17  1  0  0  0  0
  9 10  2  0  0  0  0
 18 19  1  0  0  0  0
 19 34  1  0  0  0  0
 19 20  2  0  0  0  0
 35 38  1  0  0  0  0
  8 11  1  0  0  0  0
 44 45  1  0  0  0  0
 21 22  1  0  0  0  0
 18 21  1  0  0  0  0
 34 35  1  0  0  0  0
  7  8  1  0  0  0  0
 17 18  1  0  0  0  0
  3  4  1  0  0  0  0
  3  5  1  0  0  0  0
  3  6  1  0  0  0  0
 38 41  1  0  0  0  0
 38 42  1  0  0  0  0
 38 43  1  0  0  0  0
 11 14  1  0  0  0  0
 11 15  1  0  0  0  0
 11 16  1  0  0  0  0
 45 47  1  0  0  0  0
 45 48  1  0  0  0  0
 45 49  1  0  0  0  0
 22 30  1  0  0  0  0
 22 31  1  0  0  0  0
 21 28  1  0  0  0  0
 21 29  1  0  0  0  0
 35 40  1  0  0  0  0
  8 13  1  0  0  0  0
 18 27  1  0  0  0  0
 25 32  1  0  0  0  0
 25 33  1  0  0  0  0
 44 46  1  0  0  0  0
  7 12  1  0  0  0  0
 34 39  1  0  0  0  0
 17 26  1  0  0  0  0
M  END
$$$$

  -OEChem-05262214473D

 49 48  0     1  0  0  0  0  0999 V2000
   -1.9833   -0.0509   -3.3423 C   0  0  0  0  0  0  0  0  0  0  0  0
   -1.6199   -1.0613   -2.7518 O   0  0  0  0  0  0  0  0  0  0  0  0
   -3.3243   -0.0235   -3.9975 C   0  0  0  0  0  0  0  0  0  0  0  0
   -3.2886   -0.3689   -5.0432 H   0  0  0  0  0  0  0  0  0  0  0  0
   -4.0503   -0.6845   -3.4973 H   0  0  0  0  0  0  0  0  0  0  0  0
   -3.8104    0.9645   -4.0351 H   0  0  0  0  0  0  0  0  0  0  0  0
   -1.2607    1.1231   -3.4768 N   0  0  0  0  0  0  0  0  0  0  0  0
    0.0536    1.3115   -2.9213 C   0  0  2  0  0  0  0  0  0  0  0  0
    0.0266    0.8315   -1.4761 C   0  0  0  0  0  0  0  0  0  0  0  0
   -1.0065    0.7530   -0.8146 O   0  0  0  0  0  0  0  0  0  0  0  0
    0.4852    2.7674   -3.0025 C   0  0  0  0  0  0  0  0  0  0  0  0
   -1.6809    1.8924   -3.9952 H   0  0  0  0  0  0  0  0  0  0  0  0
    0.7360    0.6822   -3.5030 H   0  0  0  0  0  0  0  0  0  0  0  0
   -0.1867    3.4133   -2.4256 H   0  0  0  0  0  0  0  0  0  0  0  0
    1.4966    2.9042   -2.6056 H   0  0  0  0  0  0  0  0  0  0  0  0
    0.4754    3.1196   -4.0397 H   0  0  0  0  0  0  0  0  0  0  0  0
    1.2978    0.5411   -0.9947 N   0  0  0  0  0  0  0  0  0  0  0  0
    1.5371    0.0807    0.3489 C   0  0  2  0  0  0  0  0  0  0  0  0
    1.7581    1.3148    1.2165 C   0  0  0  0  0  0  0  0  0  0  0  0
    2.6393    1.3827    2.0708 O   0  0  0  0  0  0  0  0  0  0  0  0
    2.7500   -0.8546    0.4331 C   0  0  0  0  0  0  0  0  0  0  0  0
    2.5400   -2.1891   -0.2851 C   0  0  0  0  0  0  0  0  0  0  0  0
    3.7470   -3.1066   -0.2238 C   0  0  0  0  0  0  0  0  0  0  0  0
    4.8213   -2.7946    0.2814 O   0  0  0  0  0  0  0  0  0  0  0  0
    3.5103   -4.3248   -0.8238 N   0  0  0  0  0  0  0  0  0  0  0  0
    2.0949    0.6178   -1.6227 H   0  0  0  0  0  0  0  0  0  0  0  0
    0.6222   -0.4253    0.6751 H   0  0  0  0  0  0  0  0  0  0  0  0
    3.6215   -0.3558   -0.0114 H   0  0  0  0  0  0  0  0  0  0  0  0
    3.0086   -1.0413    1.4831 H   0  0  0  0  0  0  0  0  0  0  0  0
    2.3439   -1.9911   -1.3461 H   0  0  0  0  0  0  0  0  0  0  0  0
    1.6651   -2.7134    0.1152 H   0  0  0  0  0  0  0  0  0  0  0  0
    2.5990   -4.4988   -1.2346 H   0  0  0  0  0  0  0  0  0  0  0  0
    4.2148   -5.0540   -0.8695 H   0  0  0  0  0  0  0  0  0  0  0  0
    0.8234    2.3073    0.9565 N   0  0  0  0  0  0  0  0  0  0  0  0
    0.7939    3.5721    1.6552 C   0  0  2  0  0  0  0  0  0  0  0  0
    2.2046    4.1461    1.6483 C   0  0  0  0  0  0  0  0  0  0  0  0
    3.2096    3.4544    1.4984 O   0  0  0  0  0  0  0  0  0  0  0  0
    0.2813    3.4067    3.0774 C   0  0  0  0  0  0  0  0  0  0  0  0
    0.1250    2.1362    0.2391 H   0  0  0  0  0  0  0  0  0  0  0  0
    0.1279    4.2314    1.0879 H   0  0  0  0  0  0  0  0  0  0  0  0
    0.9358    2.7493    3.6612 H   0  0  0  0  0  0  0  0  0  0  0  0
    0.2326    4.3699    3.5961 H   0  0  0  0  0  0  0  0  0  0  0  0
   -0.7215    2.9661    3.0814 H   0  0  0  0  0  0  0  0  0  0  0  0
    2.2117    5.5158    1.8724 N   0  0  0  0  0  0  0  0  0  0  0  0
    3.4293    6.2909    1.9246 C   0  0  0  0  0  0  0  0  0  0  0  0
    1.3301    6.0112    1.9672 H   0  0  0  0  0  0  0  0  0  0  0  0
    3.7769    6.3589    2.9661 H   0  0  0  0  0  0  0  0  0  0  0  0
    4.2012    5.8026    1.3117 H   0  0  0  0  0  0  0  0  0  0  0  0
    3.2373    7.3017    1.5356 H   0  0  0  0  0  0  0  0  0  0  0  0
  1  3  1  0  0  0  0
  1  7  1  0  0  0  0
  1  2  2  0  0  0  0
 22 23  1  0  0  0  0
 23 25  1  0  0  0  0
 23 24  2  0  0  0  0
 35 36  1  0  0  0  0
 36 44  1  0  0  0  0
 36 37  2  0  0  0  0
  8  9  1  0  0  0  0
  9 17  1  0  0  0  0
  9 10  2  0  0  0  0
 18 19  1  0  0  0  0
 19 34  1  0  0  0  0
 19 20  2  0  0  0  0
 35 38  1  0  0  0  0
  8 11  1  0  0  0  0
 44 45  1  0  0  0  0
 21 22  1  0  0  0  0
 18 21  1  0  0  0  0
 34 35  1  0  0  0  0
  7  8  1  0  0  0  0
 17 18  1  0  0  0  0
  3  4  1  0  0  0  0
  3  5  1  0  0  0  0
  3  6  1  0  0  0  0
 38 41  1  0  0  0  0
 38 42  1  0  0  0  0
 38 43  1  0  0  0  0
 11 14  1  0  0  0  0
 11 15  1  0  0  0  0
 11 16  1  0  0  0  0
 45 47  1  0  0  0  0
 45 48  1  0  0  0  0
 45 49  1  0  0  0  0
 22 30  1  0  0  0  0
 22 31  1  0  0  0  0
 21 28  1  0  0  0  0
 21 29  1  0  0  0  0
 35 40  1  0  0  0  0
  8 13  1  0  0  0  0
 18 27  1  0  0  0  0
 25 32  1  0  0  0  0
 25 33  1  0  0  0  0
 44 46  1  0  0  0  0
  7 12  1  0  0  0  0
 34 39  1  0  0  0  0
 17 26  1  0  0  0  0
M  END
$$$$

  -OEChem-05262214473D

 49 48  0     1  0  0  0  0  0999 V2000
   -1.9833   -0.0509   -3.3423 C   0  0  0  0  0  0  0  0  0  0  0  0
   -1.6199   -1.0613   -2.7518 O   0  0  0  0  0  0  0  0  0  0  0  0
   -3.3243   -0.0235   -3.9975 C   0  0  0  0  0  0  0  0  0  0  0  0
   -3.2886   -0.3689   -5.0432 H   0  0  0  0  0  0  0  0  0  0  0  0
   -4.0503   -0.6845   -3.4973 H   0  0  0  0  0  0  0  0  0  0  0  0
   -3.8104    0.9645   -4.0351 H   0  0  0  0  0  0  0  0  0  0  0  0
   -1.2607    1.1231   -3.4768 N   0  0  0  0  0  0  0  0  0  0  0  0
    0.0536    1.3115   -2.9213 C   0  0  2  0  0  0  0  0  0  0  0  0
    0.0266    0.8315   -1.4761 C   0  0  0  0  0  0  0  0  0  0  0  0
   -1.0065    0.7530   -0.8146 O   0  0  0  0  0  0  0  0  0  0  0  0
    0.4852    2.7674   -3.0025 C   0  0  0  0  0  0  0  0  0  0  0  0
   -1.6809    1.8924   -3.9952 H   0  0  0  0  0  0  0  0  0  0  0  0
    0.7360    0.6822   -3.5030 H   0  0  0  0  0  0  0  0  0  0  0  0
   -0.1867    3.4133   -2.4256 H   0  0  0  0  0  0  0  0  0  0  0  0
    1.4966    2.9042   -2.6056 H   0  0  0  0  0  0  0  0  0  0  0  0
    0.4754    3.1196   -4.0397 H   0  0  0  0  0  0  0  0  0  0  0  0
    1.2978    0.5411   -0.9947 N   0  0  0  0  0  0  0  0  0  0  0  0
    1.5371    0.0807    0.3489 C   0  0  2  0  0  0  0  0  0  0  0  0
    1.7581    1.3148    1.2165 C   0  0  0  0  0  0  0  0  0  0  0  0
    2.7815    1.4966    1.8726 O   0  0  0  0  0  0  0  0  0  0  0  0
    2.7500   -0.8546    0.4331 C   0  0  0  0  0  0  0  0  0  0  0  0
    2.5400   -2.1891   -0.2851 C   0  0  0  0  0  0  0  0  0  0  0  0
    3.7470   -3.1066   -0.2238 C   0  0  0  0  0  0  0  0  0  0  0  0
    4.8213   -2.7946    0.2814 O   0  0  0  0  0  0  0  0  0  0  0  0
    3.5103   -4.3248   -0.8238 N   0  0  0  0  0  0  0  0  0  0  0  0
    2.0949    0.6178   -1.6227 H   0  0  0  0  0  0  0  0  0  0  0  0
    0.6222   -0.4253    0.6751 H   0  0  0  0  0  0  0  0  0  0  0  0
    3.6215   -0.3558   -0.0114 H   0  0  0  0  0  0  0  0  0  0  0  0
    3.0086   -1.0413    1.4831 H   0  0  0  0  0  0  0  0  0  0  0  0
    2.3439   -1.9911   -1.3461 H   0  0  0  0  0  0  0  0  0  0  0  0
    1.6651   -2.7134    0.1152 H   0  0  0  0  0  0  0  0  0  0  0  0
    2.5990   -4.4988   -1.2346 H   0  0  0  0  0  0  0  0  0  0  0  0
    4.2148   -5.0540   -0.8695 H   0  0  0  0  0  0  0  0  0  0  0  0
    0.6572    2.1599    1.2085 N   0  0  0  0  0  0  0  0  0  0  0  0
    0.5958    3.3901    1.9645 C   0  0  2  0  0  0  0  0  0  0  0  0
    1.8756    4.1710    1.6968 C   0  0  0  0  0  0  0  0  0  0  0  0
    2.9144    3.6427    1.3058 O   0  0  0  0  0  0  0  0  0  0  0  0
    0.4259    3.1181    3.4511 C   0  0  0  0  0  0  0  0  0  0  0  0
   -0.1457    1.9008    0.6429 H   0  0  0  0  0  0  0  0  0  0  0  0
   -0.2629    3.9533    1.5830 H   0  0  0  0  0  0  0  0  0  0  0  0
    1.2767    2.5547    3.8512 H   0  0  0  0  0  0  0  0  0  0  0  0
    0.3509    4.0513    4.0191 H   0  0  0  0  0  0  0  0  0  0  0  0
   -0.4795    2.5309    3.6388 H   0  0  0  0  0  0  0  0  0  0  0  0
    1.7339    5.5207    1.9871 N   0  0  0  0  0  0  0  0  0  0  0  0
    2.8109    6.4698    1.8277 C   0  0  0  0  0  0  0  0  0  0  0  0
    0.8308    5.8749    2.2883 H   0  0  0  0  0  0  0  0  0  0  0  0
    3.3582    6.5668    2.7769 H   0  0  0  0  0  0  0  0  0  0  0  0
    3.4969    6.1174    1.0434 H   0  0  0  0  0  0  0  0  0  0  0  0
    2.3978    7.4482    1.5411 H   0  0  0  0  0  0  0  0  0  0  0  0
  1  3  1  0  0  0  0
  1  7  1  0  0  0  0
  1  2  2  0  0  0  0
 22 23  1  0  0  0  0
 23 25  1  0  0  0  0
 23 24  2  0  0  0  0
 35 36  1  0  0  0  0
 36 44  1  0  0  0  0
 36 37  2  0  0  0  0
  8  9  1  0  0  0  0
  9 17  1  0  0  0  0
  9 10  2  0  0  0  0
 18 19  1  0  0  0  0
 19 34  1  0  0  0  0
 19 20  2  0  0  0  0
 35 38  1  0  0  0  0
  8 11  1  0  0  0  0
 44 45  1  0  0  0  0
 21 22  1  0  0  0  0
 18 21  1  0  0  0  0
 34 35  1  0  0  0  0
  7  8  1  0  0  0  0
 17 18  1  0  0  0  0
  3  4  1  0  0  0  0
  3  5  1  0  0  0  0
  3  6  1  0  0  0  0
 38 41  1  0  0  0  0
 38 42  1  0  0  0  0
 38 43  1  0  0  0  0
 11 14  1  0  0  0  0
 11 15  1  0  0  0  0
 11 16  1  0  0  0  0
 45 47  1  0  0  0  0
 45 48  1  0  0  0  0
 45 49  1  0  0  0  0
 22 30  1  0  0  0  0
 22 31  1  0  0  0  0
 21 28  1  0  0  0  0
 21 29  1  0  0  0  0
 35 40  1  0  0  0  0
  8 13  1  0  0  0  0
 18 27  1  0  0  0  0
 25 32  1  0  0  0  0
 25 33  1  0  0  0  0
 44 46  1  0  0  0  0
  7 12  1  0  0  0  0
 34 39  1  0  0  0  0
 17 26  1  0  0  0  0
M  END
$$$$

  -OEChem-05262214473D

 49 48  0     1  0  0  0  0  0999 V2000
   -1.9833   -0.0509   -3.3423 C   0  0  0  0  0  0  0  0  0  0  0  0
   -1.6199   -1.0613   -2.7518 O   0  0  0  0  0  0  0  0  0  0  0  0
   -3.3243   -0.0235   -3.9975 C   0  0  0  0  0  0  0  0  0  0  0  0
   -3.2886   -0.3689   -5.0432 H   0  0  0  0  0  0  0  0  0  0  0  0
   -4.0503   -0.6845   -3.4973 H   0  0  0  0  0  0  0  0  0  0  0  0
   -3.8104    0.9645   -4.0351 H   0  0  0  0  0  0  0  0  0  0  0  0
   -1.2607    1.1231   -3.4768 N   0  0  0  0  0  0  0  0  0  0  0  0
    0.0536    1.3115   -2.9213 C   0  0  2  0  0  0  0  0  0  0  0  0
    0.0266    0.8315   -1.4761 C   0  0  0  0  0  0  0  0  0  0  0  0
   -1.0065    0.7530   -0.8146 O   0  0  0  0  0  0  0  0  0  0  0  0
    0.4852    2.7674   -3.0025 C   0  0  0  0  0  0  0  0  0  0  0  0
   -1.6809    1.8924   -3.9952 H   0  0  0  0  0  0  0  0  0  0  0  0
    0.7360    0.6822   -3.5030 H   0  0  0  0  0  0  0  0  0  0  0  0
   -0.1867    3.4133   -2.4256 H   0  0  0  0  0  0  0  0  0  0  0  0
    1.4966    2.9042   -2.6056 H   0  0  0  0  0  0  0  0  0  0  0  0
    0.4754    3.1196   -4.0397 H   0  0  0  0  0  0  0  0  0  0  0  0
    1.2978    0.5411   -0.9947 N   0  0  0  0  0  0  0  0  0  0  0  0
    1.5371    0.0807    0.3489 C   0  0  2  0  0  0  0  0  0  0  0  0
    1.7581    1.3148    1.2165 C   0  0  0  0  0  0  0  0  0  0  0  0
    2.8606    1.6350    1.6556 O   0  0  0  0  0  0  0  0  0  0  0  0
    2.7500   -0.8546    0.4331 C   0  0  0  0  0  0  0  0  0  0  0  0
    2.5400   -2.1891   -0.2851 C   0  0  0  0  0  0  0  0  0  0  0  0
    3.7470   -3.1066   -0.2238 C   0  0  0  0  0  0  0  0  0  0  0  0
    4.8213   -2.7946    0.2814 O   0  0  0  0  0  0  0  0  0  0  0  0
    3.5103   -4.3248   -0.8238 N   0  0  0  0  0  0  0  0  0  0  0  0
    2.0949    0.6178   -1.6227 H   0  0  0  0  0  0  0  0  0  0  0  0
    0.6222   -0.4253    0.6751 H   0  0  0  0  0  0  0  0  0  0  0  0
    3.6215   -0.3558   -0.0114 H   0  0  0  0  0  0  0  0  0  0  0  0
    3.0086   -1.0413    1.4831 H   0  0  0  0  0  0  0  0  0  0  0  0
    2.3439   -1.9911   -1.3461 H   0  0  0  0  0  0  0  0  0  0  0  0
    1.6651   -2.7134    0.1152 H   0  0  0  0  0  0  0  0  0  0  0  0
    2.5990   -4.4988   -1.2346 H   0  0  0  0  0  0  0  0  0  0  0  0
    4.2148   -5.0540   -0.8695 H   0  0  0  0  0  0  0  0  0  0  0  0
    0.5711    1.9836    1.4812 N   0  0  0  0  0  0  0  0  0  0  0  0
    0.4960    3.1736    2.2979 C   0  0  2  0  0  0  0  0  0  0  0  0
    1.5644    4.1447    1.8134 C   0  0  0  0  0  0  0  0  0  0  0  0
    2.5612    3.7883    1.1886 O   0  0  0  0  0  0  0  0  0  0  0  0
    0.6863    2.8466    3.7709 C   0  0  0  0  0  0  0  0  0  0  0  0
   -0.2880    1.6184    1.0808 H   0  0  0  0  0  0  0  0  0  0  0  0
   -0.4957    3.6085    2.1326 H   0  0  0  0  0  0  0  0  0  0  0  0
    1.6744    2.4098    3.9560 H   0  0  0  0  0  0  0  0  0  0  0  0
    0.6007    3.7451    4.3910 H   0  0  0  0  0  0  0  0  0  0  0  0
   -0.0648    2.1252    4.1102 H   0  0  0  0  0  0  0  0  0  0  0  0
    1.2956    5.4508    2.1981 N   0  0  0  0  0  0  0  0  0  0  0  0
    2.1668    6.5551    1.8703 C   0  0  0  0  0  0  0  0  0  0  0  0
    0.4358    5.6576    2.6979 H   0  0  0  0  0  0  0  0  0  0  0  0
    2.8836    6.7131    2.6897 H   0  0  0  0  0  0  0  0  0  0  0  0
    2.7140    6.3278    0.9435 H   0  0  0  0  0  0  0  0  0  0  0  0
    1.5666    7.4658    1.7278 H   0  0  0  0  0  0  0  0  0  0  0  0
  1  3  1  0  0  0  0
  1  7  1  0  0  0  0
  1  2  2  0  0  0  0
 22 23  1  0  0  0  0
 23 25  1  0  0  0  0
 23 24  2  0  0  0  0
 35 36  1  0  0  0  0
 36 44  1  0  0  0  0
 36 37  2  0  0  0  0
  8  9  1  0  0  0  0
  9 17  1  0  0  0  0
  9 10  2  0  0  0  0
 18 19  1  0  0  0  0
 19 34  1  0  0  0  0
 19 20  2  0  0  0  0
 35 38  1  0  0  0  0
  8 11  1  0  0  0  0
 44 45  1  0  0  0  0
 21 22  1  0  0  0  0
 18 21  1  0  0  0  0
 34 35  1  0  0  0  0
  7  8  1  0  0  0  0
 17 18  1  0  0  0  0
  3  4  1  0  0  0  0
  3  5  1  0  0  0  0
  3  6  1  0  0  0  0
 38 41  1  0  0  0  0
 38 42  1  0  0  0  0
 38 43  1  0  0  0  0
 11 14  1  0  0  0  0
 11 15  1  0  0  0  0
 11 16  1  0  0  0  0
 45 47  1  0  0  0  0
 45 48  1  0  0  0  0
 45 49  1  0  0  0  0
 22 30  1  0  0  0  0
 22 31  1  0  0  0  0
 21 28  1  0  0  0  0
 21 29  1  0  0  0  0
 35 40  1  0  0  0  0
  8 13  1  0  0  0  0
 18 27  1  0  0  0  0
 25 32  1  0  0  0  0
 25 33  1  0  0  0  0
 44 46  1  0  0  0  0
  7 12  1  0  0  0  0
 34 39  1  0  0  0  0
 17 26  1  0  0  0  0
M  END
$$$$

  -OEChem-05262214473D

 49 48  0     1  0  0  0  0  0999 V2000
   -1.9833   -0.0509   -3.3423 C   0  0  0  0  0  0  0  0  0  0  0  0
   -1.6199   -1.0613   -2.7518 O   0  0  0  0  0  0  0  0  0  0  0  0
   -3.3243   -0.0235   -3.9975 C   0  0  0  0  0  0  0  0  0  0  0  0
   -3.2886   -0.3689   -5.0432 H   0  0  0  0  0  0  0  0  0  0  0  0
   -4.0503   -0.6845   -3.4973 H   0  0  0  0  0  0  0  0  0  0  0  0
   -3.8104    0.9645   -4.0351 H   0  0  0  0  0  0  0  0  0  0  0  0
   -1.2607    1.1231   -3.4768 N   0  0  0  0  0  0  0  0  0  0  0  0
    0.0536    1.3115   -2.9213 C   0  0  2  0  0  0  0  0  0  0  0  0
    0.0266    0.8315   -1.4761 C   0  0  0  0  0  0  0  0  0  0  0  0
   -1.0065    0.7530   -0.8146 O   0  0  0  0  0  0  0  0  0  0  0  0
    0.4852    2.7674   -3.0025 C   0  0  0  0  0  0  0  0  0  0  0  0
   -1.6809    1.8924   -3.9952 H   0  0  0  0  0  0  0  0  0  0  0  0
    0.7360    0.6822   -3.5030 H   0  0  0  0  0  0  0  0  0  0  0  0
   -0.1867    3.4133   -2.4256 H   0  0  0  0  0  0  0  0  0  0  0  0
    1.4966    2.9042   -2.6056 H   0  0  0  0  0  0  0  0  0  0  0  0
    0.4754    3.1196   -4.0397 H   0  0  0  0  0  0  0  0  0  0  0  0
    1.2978    0.5411   -0.9947 N   0  0  0  0  0  0  0  0  0  0  0  0
    1.5371    0.0807    0.3489 C   0  0  2  0  0  0  0  0  0  0  0  0
    1.7581    1.3148    1.2165 C   0  0  0  0  0  0  0  0  0  0  0  0
    2.8712    1.7884    1.4347 O   0  0  0  0  0  0  0  0  0  0  0  0
    2.7500   -0.8546    0.4331 C   0  0  0  0  0  0  0  0  0  0  0  0
    2.5400   -2.1891   -0.2851 C   0  0  0  0  0  0  0  0  0  0  0  0
    3.7470   -3.1066   -0.2238 C   0  0  0  0  0  0  0  0  0  0  0  0
    4.8213   -2.7946    0.2814 O   0  0  0  0  0  0  0  0  0  0  0  0
    3.5103   -4.3248   -0.8238 N   0  0  0  0  0  0  0  0  0  0  0  0
    2.0949    0.6178   -1.6227 H   0  0  0  0  0  0  0  0  0  0  0  0
    0.6222   -0.4253    0.6751 H   0  0  0  0  0  0  0  0  0  0  0  0
    3.6215   -0.3558   -0.0114 H   0  0  0  0  0  0  0  0  0  0  0  0
    3.0086   -1.0413    1.4831 H   0  0  0  0  0  0  0  0  0  0  0  0
    2.3439   -1.9911   -1.3461 H   0  0  0  0  0  0  0  0  0  0  0  0
    1.6651   -2.7134    0.1152 H   0  0  0  0  0  0  0  0  0  0  0  0
    2.5990   -4.4988   -1.2346 H   0  0  0  0  0  0  0  0  0  0  0  0
    4.2148   -5.0540   -0.8695 H   0  0  0  0  0  0  0  0  0  0  0  0
    0.5710    1.7904    1.7560 N   0  0  0  0  0  0  0  0  0  0  0  0
    0.5013    2.9372    2.6328 C   0  0  2  0  0  0  0  0  0  0  0  0
    1.2921    4.0692    1.9903 C   0  0  0  0  0  0  0  0  0  0  0  0
    2.1741    3.8813    1.1549 O   0  0  0  0  0  0  0  0  0  0  0  0
    1.0449    2.6108    4.0151 C   0  0  0  0  0  0  0  0  0  0  0  0
   -0.2920    1.3083    1.5229 H   0  0  0  0  0  0  0  0  0  0  0  0
   -0.5547    3.2206    2.6994 H   0  0  0  0  0  0  0  0  0  0  0  0
    2.1019    2.3245    3.9684 H   0  0  0  0  0  0  0  0  0  0  0  0
    0.9650    3.4722    4.6864 H   0  0  0  0  0  0  0  0  0  0  0  0
    0.4942    1.7768    4.4634 H   0  0  0  0  0  0  0  0  0  0  0  0
    0.9268    5.3108    2.4912 N   0  0  0  0  0  0  0  0  0  0  0  0
    1.5411    6.5411    2.0496 C   0  0  0  0  0  0  0  0  0  0  0  0
    0.1722    5.3742    3.1682 H   0  0  0  0  0  0  0  0  0  0  0  0
    2.3853    6.7878    2.7104 H   0  0  0  0  0  0  0  0  0  0  0  0
    1.9058    6.4194    1.0190 H   0  0  0  0  0  0  0  0  0  0  0  0
    0.8001    7.3534    2.0829 H   0  0  0  0  0  0  0  0  0  0  0  0
  1  3  1  0  0  0  0
  1  7  1  0  0  0  0
  1  2  2  0  0  0  0
 22 23  1  0  0  0  0
 23 25  1  0  0  0  0
 23 24  2  0  0  0  0
 35 36  1  0  0  0  0
 36 44  1  0  0  0  0
 36 37  2  0  0  0  0
  8  9  1  0  0  0  0
  9 17  1  0  0  0  0
  9 10  2  0  0  0  0
 18 19  1  0  0  0  0
 19 34  1  0  0  0  0
 19 20  2  0  0  0  0
 35 38  1  0  0  0  0
  8 11  1  0  0  0  0
 44 45  1  0  0  0  0
 21 22  1  0  0  0  0
 18 21  1  0  0  0  0
 34 35  1  0  0  0  0
  7  8  1  0  0  0  0
 17 18  1  0  0  0  0
  3  4  1  0  0  0  0
  3  5  1  0  0  0  0
  3  6  1  0  0  0  0
 38 41  1  0  0  0  0
 38 42  1  0  0  0  0
 38 43  1  0  0  0  0
 11 14  1  0  0  0  0
 11 15  1  0  0  0  0
 11 16  1  0  0  0  0
 45 47  1  0  0  0  0
 45 48  1  0  0  0  0
 45 49  1  0  0  0  0
 22 30  1  0  0  0  0
 22 31  1  0  0  0  0
 21 28  1  0  0  0  0
 21 29  1  0  0  0  0
 35 40  1  0  0  0  0
  8 13  1  0  0  0  0
 18 27  1  0  0  0  0
 25 32  1  0  0  0  0
 25 33  1  0  0  0  0
 44 46  1  0  0  0  0
  7 12  1  0  0  0  0
 34 39  1  0  0  0  0
 17 26  1  0  0  0  0
M  END
$$$$

  -OEChem-05262214473D

 49 48  0     1  0  0  0  0  0999 V2000
   -1.9833   -0.0509   -3.3423 C   0  0  0  0  0  0  0  0  0  0  0  0
   -1.6199   -1.0613   -2.7518 O   0  0  0  0  0  0  0  0  0  0  0  0
   -3.3243   -0.0235   -3.9975 C   0  0  0  0  0  0  0  0  0  0  0  0
   -3.2886   -0.3689   -5.0432 H   0  0  0  0  0  0  0  0  0  0  0  0
   -4.0503   -0.6845   -3.4973 H   0  0  0  0  0  0  0  0  0  0  0  0
   -3.8104    0.9645   -4.0351 H   0  0  0  0  0  0  0  0  0  0  0  0
   -1.2607    1.1231   -3.4768 N   0  0  0  0  0  0  0  0  0  0  0  0
    0.0536    1.3115   -2.9213 C   0  0  2  0  0  0  0  0  0  0  0  0
    0.0266    0.8315   -1.4761 C   0  0  0  0  0  0  0  0  0  0  0  0
   -1.0065    0.7530   -0.8146 O   0  0  0  0  0  0  0  0  0  0  0  0
    0.4852    2.7674   -3.0025 C   0  0  0  0  0  0  0  0  0  0  0  0
   -1.6809    1.8924   -3.9952 H   0  0  0  0  0  0  0  0  0  0  0  0
    0.7360    0.6822   -3.5030 H   0  0  0  0  0  0  0  0  0  0  0  0
   -0.1867    3.4133   -2.4256 H   0  0  0  0  0  0  0  0  0  0  0  0
    1.4966    2.9042   -2.6056 H   0  0  0  0  0  0  0  0  0  0  0  0
    0.4754    3.1196   -4.0397 H   0  0  0  0  0  0  0  0  0  0  0  0
    1.2978    0.5411   -0.9947 N   0  0  0  0  0  0  0  0  0  0  0  0
    1.5371    0.0807    0.3489 C   0  0  2  0  0  0  0  0  0  0  0  0
    1.7581    1.3148    1.2165 C   0  0  0  0  0  0  0  0  0  0  0  0
    2.8125    1.9465    1.2248 O   0  0  0  0  0  0  0  0  0  0  0  0
    2.7500   -0.8546    0.4331 C   0  0  0  0  0  0  0  0  0  0  0  0
    2.5400   -2.1891   -0.2851 C   0  0  0  0  0  0  0  0  0  0  0  0
    3.7470   -3.1066   -0.2238 C   0  0  0  0  0  0  0  0  0  0  0  0
    4.8213   -2.7946    0.2814 O   0  0  0  0  0  0  0  0  0  0  0  0
    3.5103   -4.3248   -0.8238 N   0  0  0  0  0  0  0  0  0  0  0  0
    2.0949    0.6178   -1.6227 H   0  0  0  0  0  0  0  0  0  0  0  0
    0.6222   -0.4253    0.6751 H   0  0  0  0  0  0  0  0  0  0  0  0
    3.6215   -0.3558   -0.0114 H   0  0  0  0  0  0  0  0  0  0  0  0
    3.0086   -1.0413    1.4831 H   0  0  0  0  0  0  0  0  0  0  0  0
    2.3439   -1.9911   -1.3461 H   0  0  0  0  0  0  0  0  0  0  0  0
    1.6651   -2.7134    0.1152 H   0  0  0  0  0  0  0  0  0  0  0  0
    2.5990   -4.4988   -1.2346 H   0  0  0  0  0  0  0  0  0  0  0  0
    4.2148   -5.0540   -0.8695 H   0  0  0  0  0  0  0  0  0  0  0  0
    0.6570    1.5934    2.0142 N   0  0  0  0  0  0  0  0  0  0  0  0
    0.6114    2.6971    2.9462 C   0  0  2  0  0  0  0  0  0  0  0  0
    1.0772    3.9494    2.2153 C   0  0  0  0  0  0  0  0  0  0  0  0
    1.7794    3.9154    1.2069 O   0  0  0  0  0  0  0  0  0  0  0  0
    1.4771    2.4266    4.1670 C   0  0  0  0  0  0  0  0  0  0  0  0
   -0.1577    0.9915    1.9392 H   0  0  0  0  0  0  0  0  0  0  0  0
   -0.4358    2.8160    3.2447 H   0  0  0  0  0  0  0  0  0  0  0  0
    2.5300    2.3046    3.8877 H   0  0  0  0  0  0  0  0  0  0  0  0
    1.4190    3.2511    4.8851 H   0  0  0  0  0  0  0  0  0  0  0  0
    1.1595    1.5093    4.6744 H   0  0  0  0  0  0  0  0  0  0  0  0
    0.6525    5.1103    2.8463 N   0  0  0  0  0  0  0  0  0  0  0  0
    0.9764    6.4287    2.3534 C   0  0  0  0  0  0  0  0  0  0  0  0
    0.0577    5.0440    3.6670 H   0  0  0  0  0  0  0  0  0  0  0  0
    1.8973    6.7858    2.8376 H   0  0  0  0  0  0  0  0  0  0  0  0
    1.1275    6.3861    1.2646 H   0  0  0  0  0  0  0  0  0  0  0  0
    0.1507    7.1186    2.5822 H   0  0  0  0  0  0  0  0  0  0  0  0
  1  3  1  0  0  0  0
  1  7  1  0  0  0  0
  1  2  2  0  0  0  0
 22 23  1  0  0  0  0
 23 25  1  0  0  0  0
 23 24  2  0  0  0  0
 35 36  1  0  0  0  0
 36 44  1  0  0  0  0
 36 37  2  0  0  0  0
  8  9  1  0  0  0  0
  9 17  1  0  0  0  0
  9 10  2  0  0  0  0
 18 19  1  0  0  0  0
 19 34  1  0  0  0  0
 19 20  2  0  0  0  0
 35 38  1  0  0  0  0
  8 11  1  0  0  0  0
 44 45  1  0  0  0  0
 21 22  1  0  0  0  0
 18 21  1  0  0  0  0
 34 35  1  0  0  0  0
  7  8  1  0  0  0  0
 17 18  1  0  0  0  0
  3  4  1  0  0  0  0
  3  5  1  0  0  0  0
  3  6  1  0  0  0  0
 38 41  1  0  0  0  0
 38 42  1  0  0  0  0
 38 43  1  0  0  0  0
 11 14  1  0  0  0  0
 11 15  1  0  0  0  0
 11 16  1  0  0  0  0
 45 47  1  0  0  0  0
 45 48  1  0  0  0  0
 45 49  1  0  0  0  0
 22 30  1  0  0  0  0
 22 31  1  0  0  0  0
 21 28  1  0  0  0  0
 21 29  1  0  0  0  0
 35 40  1  0  0  0  0
  8 13  1  0  0  0  0
 18 27  1  0  0  0  0
 25 32  1  0  0  0  0
 25 33  1  0  0  0  0
 44 46  1  0  0  0  0
  7 12  1  0  0  0  0
 34 39  1  0  0  0  0
 17 26  1  0  0  0  0
M  END
$$$$

  -OEChem-05262214473D

 49 48  0     1  0  0  0  0  0999 V2000
   -1.9833   -0.0509   -3.3423 C   0  0  0  0  0  0  0  0  0  0  0  0
   -1.6199   -1.0613   -2.7518 O   0  0  0  0  0  0  0  0  0  0  0  0
   -3.3243   -0.0235   -3.9975 C   0  0  0  0  0  0  0  0  0  0  0  0
   -3.2886   -0.3689   -5.0432 H   0  0  0  0  0  0  0  0  0  0  0  0
   -4.0503   -0.6845   -3.4973 H   0  0  0  0  0  0  0  0  0  0  0  0
   -3.8104    0.9645   -4.0351 H   0  0  0  0  0  0  0  0  0  0  0  0
   -1.2607    1.1231   -3.4768 N   0  0  0  0  0  0  0  0  0  0  0  0
    0.0536    1.3115   -2.9213 C   0  0  2  0  0  0  0  0  0  0  0  0
    0.0266    0.8315   -1.4761 C   0  0  0  0  0  0  0  0  0  0  0  0
   -1.0065    0.7530   -0.8146 O   0  0  0  0  0  0  0  0  0  0  0  0
    0.4852    2.7674   -3.0025 C   0  0  0  0  0  0  0  0  0  0  0  0
   -1.6809    1.8924   -3.9952 H   0  0  0  0  0  0  0  0  0  0  0  0
    0.7360    0.6822   -3.5030 H   0  0  0  0  0  0  0  0  0  0  0  0
   -0.1867    3.4133   -2.4256 H   0  0  0  0  0  0  0  0  0  0  0  0
    1.4966    2.9042   -2.6056 H   0  0  0  0  0  0  0  0  0  0  0  0
    0.4754    3.1196   -4.0397 H   0  0  0  0  0  0  0  0  0  0  0  0
    1.2978    0.5411   -0.9947 N   0  0  0  0  0  0  0  0  0  0  0  0
    1.5371    0.0807    0.3489 C   0  0  2  0  0  0  0  0  0  0  0  0
    1.7581    1.3148    1.2165 C   0  0  0  0  0  0  0  0  0  0  0  0
    2.6886    2.0984    1.0403 O   0  0  0  0  0  0  0  0  0  0  0  0
    2.7500   -0.8546    0.4331 C   0  0  0  0  0  0  0  0  0  0  0  0
    2.5400   -2.1891   -0.2851 C   0  0  0  0  0  0  0  0  0  0  0  0
    3.7470   -3.1066   -0.2238 C   0  0  0  0  0  0  0  0  0  0  0  0
    4.8213   -2.7946    0.2814 O   0  0  0  0  0  0  0  0  0  0  0  0
    3.5103   -4.3248   -0.8238 N   0  0  0  0  0  0  0  0  0  0  0  0
    2.0949    0.6178   -1.6227 H   0  0  0  0  0  0  0  0  0  0  0  0
    0.6222   -0.4253    0.6751 H   0  0  0  0  0  0  0  0  0  0  0  0
    3.6215   -0.3558   -0.0114 H   0  0  0  0  0  0  0  0  0  0  0  0
    3.0086   -1.0413    1.4831 H   0  0  0  0  0  0  0  0  0  0  0  0
    2.3439   -1.9911   -1.3461 H   0  0  0  0  0  0  0  0  0  0  0  0
    1.6651   -2.7134    0.1152 H   0  0  0  0  0  0  0  0  0  0  0  0
    2.5990   -4.4988   -1.2346 H   0  0  0  0  0  0  0  0  0  0  0  0
    4.2148   -5.0540   -0.8695 H   0  0  0  0  0  0  0  0  0  0  0  0
    0.8232    1.4062    2.2383 N   0  0  0  0  0  0  0  0  0  0  0  0
    0.8188    2.4696    3.2169 C   0  0  2  0  0  0  0  0  0  0  0  0
    0.9345    3.7937    2.4732 C   0  0  0  0  0  0  0  0  0  0  0  0
    1.4040    3.8883    1.3411 O   0  0  0  0  0  0  0  0  0  0  0  0
    1.9535    2.3066    4.2162 C   0  0  0  0  0  0  0  0  0  0  0  0
    0.1060    0.6897    2.3014 H   0  0  0  0  0  0  0  0  0  0  0  0
   -0.1472    2.4222    3.7313 H   0  0  0  0  0  0  0  0  0  0  0  0
    2.9295    2.3515    3.7193 H   0  0  0  0  0  0  0  0  0  0  0  0
    1.9317    3.0970    4.9737 H   0  0  0  0  0  0  0  0  0  0  0  0
    1.8857    1.3410    4.7289 H   0  0  0  0  0  0  0  0  0  0  0  0
    0.4916    4.8629    3.2392 N   0  0  0  0  0  0  0  0  0  0  0  0
    0.5110    6.2256    2.7609 C   0  0  0  0  0  0  0  0  0  0  0  0
    0.1003    4.6895    4.1604 H   0  0  0  0  0  0  0  0  0  0  0  0
    1.4529    6.7072    3.0626 H   0  0  0  0  0  0  0  0  0  0  0  0
    0.4321    6.2301    1.6637 H   0  0  0  0  0  0  0  0  0  0  0  0
   -0.3373    6.7774    3.1918 H   0  0  0  0  0  0  0  0  0  0  0  0
  1  3  1  0  0  0  0
  1  7  1  0  0  0  0
  1  2  2  0  0  0  0
 22 23  1  0  0  0  0
 23 25  1  0  0  0  0
 23 24  2  0  0  0  0
 35 36  1  0  0  0  0
 36 44  1  0  0  0  0
 36 37  2  0  0  0  0
  8  9  1  0  0  0  0
  9 17  1  0  0  0  0
  9 10  2  0  0  0  0
 18 19  1  0  0  0  0
 19 34  1  0  0  0  0
 19 20  2  0  0  0  0
 35 38  1  0  0  0  0
  8 11  1  0  0  0  0
 44 45  1  0  0  0  0
 21 22  1  0  0  0  0
 18 21  1  0  0  0  0
 34 35  1  0  0  0  0
  7  8  1  0  0  0  0
 17 18  1  0  0  0  0
  3  4  1  0  0  0  0
  3  5  1  0  0  0  0
  3  6  1  0  0  0  0
 38 41  1  0  0  0  0
 38 42  1  0  0  0  0
 38 43  1  0  0  0  0
 11 14  1  0  0  0  0
 11 15  1  0  0  0  0
 11 16  1  0  0  0  0
 45 47  1  0  0  0  0
 45 48  1  0  0  0  0
 45 49  1  0  0  0  0
 22 30  1  0  0  0  0
 22 31  1  0  0  0  0
 21 28  1  0  0  0  0
 21 29  1  0  0  0  0
 35 40  1  0  0  0  0
  8 13  1  0  0  0  0
 18 27  1  0  0  0  0
 25 32  1  0  0  0  0
 25 33  1  0  0  0  0
 44 46  1  0  0  0  0
  7 12  1  0  0  0  0
 34 39  1  0  0  0  0
 17 26  1  0  0  0  0
M  END
$$$$

  -OEChem-05262214473D

 49 48  0     1  0  0  0  0  0999 V2000
   -1.9833   -0.0509   -3.3423 C   0  0  0  0  0  0  0  0  0  0  0  0
   -1.6199   -1.0613   -2.7518 O   0  0  0  0  0  0  0  0  0  0  0  0
   -3.3243   -0.0235   -3.9975 C   0  0  0  0  0  0  0  0  0  0  0  0
   -3.2886   -0.3689   -5.0432 H   0  0  0  0  0  0  0  0  0  0  0  0
   -4.0503   -0.6845   -3.4973 H   0  0  0  0  0  0  0  0  0  0  0  0
   -3.8104    0.9645   -4.0351 H   0  0  0  0  0  0  0  0  0  0  0  0
   -1.2607    1.1231   -3.4768 N   0  0  0  0  0  0  0  0  0  0  0  0
    0.0536    1.3115   -2.9213 C   0  0  2  0  0  0  0  0  0  0  0  0
    0.0266    0.8315   -1.4761 C   0  0  0  0  0  0  0  0  0  0  0  0
   -1.0065    0.7530   -0.8146 O   0  0  0  0  0  0  0  0  0  0  0  0
    0.4852    2.7674   -3.0025 C   0  0  0  0  0  0  0  0  0  0  0  0
   -1.6809    1.8924   -3.9952 H   0  0  0  0  0  0  0  0  0  0  0  0
    0.7360    0.6822   -3.5030 H   0  0  0  0  0  0  0  0  0  0  0  0
   -0.1867    3.4133   -2.4256 H   0  0  0  0  0  0  0  0  0  0  0  0
    1.4966    2.9042   -2.6056 H   0  0  0  0  0  0  0  0  0  0  0  0
    0.4754    3.1196   -4.0397 H   0  0  0  0  0  0  0  0  0  0  0  0
    1.2978    0.5411   -0.9947 N   0  0  0  0  0  0  0  0  0  0  0  0
    1.5371    0.0807    0.3489 C   0  0  2  0  0  0  0  0  0  0  0  0
    1.7581    1.3148    1.2165 C   0  0  0  0  0  0  0  0  0  0  0  0
    2.5079    2.2338    0.8937 O   0  0  0  0  0  0  0  0  0  0  0  0
    2.7500   -0.8546    0.4331 C   0  0  0  0  0  0  0  0  0  0  0  0
    2.5400   -2.1891   -0.2851 C   0  0  0  0  0  0  0  0  0  0  0  0
    3.7470   -3.1066   -0.2238 C   0  0  0  0  0  0  0  0  0  0  0  0
    4.8213   -2.7946    0.2814 O   0  0  0  0  0  0  0  0  0  0  0  0
    3.5103   -4.3248   -0.8238 N   0  0  0  0  0  0  0  0  0  0  0  0
    2.0949    0.6178   -1.6227 H   0  0  0  0  0  0  0  0  0  0  0  0
    0.6222   -0.4253    0.6751 H   0  0  0  0  0  0  0  0  0  0  0  0
    3.6215   -0.3558   -0.0114 H   0  0  0  0  0  0  0  0  0  0  0  0
    3.0086   -1.0413    1.4831 H   0  0  0  0  0  0  0  0  0  0  0  0
    2.3439   -1.9911   -1.3461 H   0  0  0  0  0  0  0  0  0  0  0  0
    1.6651   -2.7134    0.1152 H   0  0  0  0  0  0  0  0  0  0  0  0
    2.5990   -4.4988   -1.2346 H   0  0  0  0  0  0  0  0  0  0  0  0
    4.2148   -5.0540   -0.8695 H   0  0  0  0  0  0  0  0  0  0  0  0
    1.0582    1.2414    2.4128 N   0  0  0  0  0  0  0  0  0  0  0  0
    1.1094    2.2703    3.4264 C   0  0  2  0  0  0  0  0  0  0  0  0
    0.8736    3.6125    2.7464 C   0  0  0  0  0  0  0  0  0  0  0  0
    1.0735    3.8018    1.5484 O   0  0  0  0  0  0  0  0  0  0  0  0
    2.4417    2.2591    4.1595 C   0  0  0  0  0  0  0  0  0  0  0  0
    0.4810    0.4235    2.5846 H   0  0  0  0  0  0  0  0  0  0  0  0
    0.2916    2.0661    4.1261 H   0  0  0  0  0  0  0  0  0  0  0  0
    3.2732    2.4619    3.4747 H   0  0  0  0  0  0  0  0  0  0  0  0
    2.4682    3.0204    4.9461 H   0  0  0  0  0  0  0  0  0  0  0  0
    2.6233    1.2834    4.6230 H   0  0  0  0  0  0  0  0  0  0  0  0
    0.4548    4.5855    3.6431 N   0  0  0  0  0  0  0  0  0  0  0  0
    0.1769    5.9455    3.2443 C   0  0  0  0  0  0  0  0  0  0  0  0
    0.2971    4.3348    4.6148 H   0  0  0  0  0  0  0  0  0  0  0  0
    1.0823    6.5574    3.3700 H   0  0  0  0  0  0  0  0  0  0  0  0
   -0.1330    5.9620    2.1890 H   0  0  0  0  0  0  0  0  0  0  0  0
   -0.6308    6.3532    3.8700 H   0  0  0  0  0  0  0  0  0  0  0  0
  1  3  1  0  0  0  0
  1  7  1  0  0  0  0
  1  2  2  0  0  0  0
 22 23  1  0  0  0  0
 23 25  1  0  0  0  0
 23 24  2  0  0  0  0
 35 36  1  0  0  0  0
 36 44  1  0  0  0  0
 36 37  2  0  0  0  0
  8  9  1  0  0  0  0
  9 17  1  0  0  0  0
  9 10  2  0  0  0  0
 18 19  1  0  0  0  0
 19 34  1  0  0  0  0
 19 20  2  0  0  0  0
 35 38  1  0  0  0  0
  8 11  1  0  0  0  0
 44 45  1  0  0  0  0
 21 22  1  0  0  0  0
 18 21  1  0  0  0  0
 34 35  1  0  0  0  0
  7  8  1  0  0  0  0
 17 18  1  0  0  0  0
  3  4  1  0  0  0  0
  3  5  1  0  0  0  0
  3  6  1  0  0  0  0
 38 41  1  0  0  0  0
 38 42  1  0  0  0  0
 38 43  1  0  0  0  0
 11 14  1  0  0  0  0
 11 15  1  0  0  0  0
 11 16  1  0  0  0  0
 45 47  1  0  0  0  0
 45 48  1  0  0  0  0
 45 49  1  0  0  0  0
 22 30  1  0  0  0  0
 22 31  1  0  0  0  0
 21 28  1  0  0  0  0
 21 29  1  0  0  0  0
 35 40  1  0  0  0  0
  8 13  1  0  0  0  0
 18 27  1  0  0  0  0
 25 32  1  0  0  0  0
 25 33  1  0  0  0  0
 44 46  1  0  0  0  0
  7 12  1  0  0  0  0
 34 39  1  0  0  0  0
 17 26  1  0  0  0  0
M  END
$$$$

  -OEChem-05262214473D

 49 48  0     1  0  0  0  0  0999 V2000
   -1.9833   -0.0509   -3.3423 C   0  0  0  0  0  0  0  0  0  0  0  0
   -1.6199   -1.0613   -2.7518 O   0  0  0  0  0  0  0  0  0  0  0  0
   -3.3243   -0.0235   -3.9975 C   0  0  0  0  0  0  0  0  0  0  0  0
   -3.2886   -0.3689   -5.0432 H   0  0  0  0  0  0  0  0  0  0  0  0
   -4.0503   -0.6845   -3.4973 H   0  0  0  0  0  0  0  0  0  0  0  0
   -3.8104    0.9645   -4.0351 H   0  0  0  0  0  0  0  0  0  0  0  0
   -1.2607    1.1231   -3.4768 N   0  0  0  0  0  0  0  0  0  0  0  0
    0.0536    1.3115   -2.9213 C   0  0  2  0  0  0  0  0  0  0  0  0
    0.0266    0.8315   -1.4761 C   0  0  0  0  0  0  0  0  0  0  0  0
   -1.0065    0.7530   -0.8146 O   0  0  0  0  0  0  0  0  0  0  0  0
    0.4852    2.7674   -3.0025 C   0  0  0  0  0  0  0  0  0  0  0  0
   -1.6809    1.8924   -3.9952 H   0  0  0  0  0  0  0  0  0  0  0  0
    0.7360    0.6822   -3.5030 H   0  0  0  0  0  0  0  0  0  0  0  0
   -0.1867    3.4133   -2.4256 H   0  0  0  0  0  0  0  0  0  0  0  0
    1.4966    2.9042   -2.6056 H   0  0  0  0  0  0  0  0  0  0  0  0
    0.4754    3.1196   -4.0397 H   0  0  0  0  0  0  0  0  0  0  0  0
    1.2978    0.5411   -0.9947 N   0  0  0  0  0  0  0  0  0  0  0  0
    1.5371    0.0807    0.3489 C   0  0  2  0  0  0  0  0  0  0  0  0
    1.7581    1.3148    1.2165 C   0  0  0  0  0  0  0  0  0  0  0  0
    2.2826    2.3435    0.7951 O   0  0  0  0  0  0  0  0  0  0  0  0
    2.7500   -0.8546    0.4331 C   0  0  0  0  0  0  0  0  0  0  0  0
    2.5400   -2.1891   -0.2851 C   0  0  0  0  0  0  0  0  0  0  0  0
    3.7470   -3.1066   -0.2238 C   0  0  0  0  0  0  0  0  0  0  0  0
    4.8213   -2.7946    0.2814 O   0  0  0  0  0  0  0  0  0  0  0  0
    3.5103   -4.3248   -0.8238 N   0  0  0  0  0  0  0  0  0  0  0  0
    2.0949    0.6178   -1.6227 H   0  0  0  0  0  0  0  0  0  0  0  0
    0.6222   -0.4253    0.6751 H   0  0  0  0  0  0  0  0  0  0  0  0
    3.6215   -0.3558   -0.0114 H   0  0  0  0  0  0  0  0  0  0  0  0
    3.0086   -1.0413    1.4831 H   0  0  0  0  0  0  0  0  0  0  0  0
    2.3439   -1.9911   -1.3461 H   0  0  0  0  0  0  0  0  0  0  0  0
    1.6651   -2.7134    0.1152 H   0  0  0  0  0  0  0  0  0  0  0  0
    2.5990   -4.4988   -1.2346 H   0  0  0  0  0  0  0  0  0  0  0  0
    4.2148   -5.0540   -0.8695 H   0  0  0  0  0  0  0  0  0  0  0  0
    1.3460    1.1103    2.5260 N   0  0  0  0  0  0  0  0  0  0  0  0
    1.4633    2.1127    3.5604 C   0  0  2  0  0  0  0  0  0  0  0  0
    0.8986    3.4183    3.0162 C   0  0  0  0  0  0  0  0  0  0  0  0
    0.8104    3.6618    1.8145 O   0  0  0  0  0  0  0  0  0  0  0  0
    2.9084    2.2872    4.0006 C   0  0  0  0  0  0  0  0  0  0  0  0
    0.9417    0.2109    2.7696 H   0  0  0  0  0  0  0  0  0  0  0  0
    0.8506    1.7719    4.4021 H   0  0  0  0  0  0  0  0  0  0  0  0
    3.5377    2.6284    3.1705 H   0  0  0  0  0  0  0  0  0  0  0  0
    2.9920    3.0264    4.8042 H   0  0  0  0  0  0  0  0  0  0  0  0
    3.3222    1.3403    4.3640 H   0  0  0  0  0  0  0  0  0  0  0  0
    0.5448    4.2969    4.0306 N   0  0  0  0  0  0  0  0  0  0  0  0
   -0.0034    5.6076    3.7708 C   0  0  0  0  0  0  0  0  0  0  0  0
    0.6345    4.0042    4.9991 H   0  0  0  0  0  0  0  0  0  0  0  0
    0.8108    6.3465    3.7391 H   0  0  0  0  0  0  0  0  0  0  0  0
   -0.5294    5.6000    2.8047 H   0  0  0  0  0  0  0  0  0  0  0  0
   -0.7097    5.8747    4.5707 H   0  0  0  0  0  0  0  0  0  0  0  0
  1  3  1  0  0  0  0
  1  7  1  0  0  0  0
  1  2  2  0  0  0  0
 22 23  1  0  0  0  0
 23 25  1  0  0  0  0
 23 24  2  0  0  0  0
 35 36  1  0  0  0  0
 36 44  1  0  0  0  0
 36 37  2  0  0  0  0
  8  9  1  0  0  0  0
  9 17  1  0  0  0  0
  9 10  2  0  0  0  0
 18 19  1  0  0  0  0
 19 34  1  0  0  0  0
 19 20  2  0  0  0  0
 35 38  1  0  0  0  0
  8 11  1  0  0  0  0
 44 45  1  0  0  0  0
 21 22  1  0  0  0  0
 18 21  1  0  0  0  0
 34 35  1  0  0  0  0
  7  8  1  0  0  0  0
 17 18  1  0  0  0  0
  3  4  1  0  0  0  0
  3  5  1  0  0  0  0
  3  6  1  0  0  0  0
 38 41  1  0  0  0  0
 38 42  1  0  0  0  0
 38 43  1  0  0  0  0
 11 14  1  0  0  0  0
 11 15  1  0  0  0  0
 11 16  1  0  0  0  0
 45 47  1  0  0  0  0
 45 48  1  0  0  0  0
 45 49  1  0  0  0  0
 22 30  1  0  0  0  0
 22 31  1  0  0  0  0
 21 28  1  0  0  0  0
 21 29  1  0  0  0  0
 35 40  1  0  0  0  0
  8 13  1  0  0  0  0
 18 27  1  0  0  0  0
 25 32  1  0  0  0  0
 25 33  1  0  0  0  0
 44 46  1  0  0  0  0
  7 12  1  0  0  0  0
 34 39  1  0  0  0  0
 17 26  1  0  0  0  0
M  END
$$$$

  -OEChem-05262214473D

 49 48  0     1  0  0  0  0  0999 V2000
   -1.9833   -0.0509   -3.3423 C   0  0  0  0  0  0  0  0  0  0  0  0
   -1.6199   -1.0613   -2.7518 O   0  0  0  0  0  0  0  0  0  0  0  0
   -3.3243   -0.0235   -3.9975 C   0  0  0  0  0  0  0  0  0  0  0  0
   -3.2886   -0.3689   -5.0432 H   0  0  0  0  0  0  0  0  0  0  0  0
   -4.0503   -0.6845   -3.4973 H   0  0  0  0  0  0  0  0  0  0  0  0
   -3.8104    0.9645   -4.0351 H   0  0  0  0  0  0  0  0  0  0  0  0
   -1.2607    1.1231   -3.4768 N   0  0  0  0  0  0  0  0  0  0  0  0
    0.0536    1.3115   -2.9213 C   0  0  2  0  0  0  0  0  0  0  0  0
    0.0266    0.8315   -1.4761 C   0  0  0  0  0  0  0  0  0  0  0  0
   -1.0065    0.7530   -0.8146 O   0  0  0  0  0  0  0  0  0  0  0  0
    0.4852    2.7674   -3.0025 C   0  0  0  0  0  0  0  0  0  0  0  0
   -1.6809    1.8924   -3.9952 H   0  0  0  0  0  0  0  0  0  0  0  0
    0.7360    0.6822   -3.5030 H   0  0  0  0  0  0  0  0  0  0  0  0
   -0.1867    3.4133   -2.4256 H   0  0  0  0  0  0  0  0  0  0  0  0
    1.4966    2.9042   -2.6056 H   0  0  0  0  0  0  0  0  0  0  0  0
    0.4754    3.1196   -4.0397 H   0  0  0  0  0  0  0  0  0  0  0  0
    1.2978    0.5411   -0.9947 N   0  0  0  0  0  0  0  0  0  0  0  0
    1.5371    0.0807    0.3489 C   0  0  2  0  0  0  0  0  0  0  0  0
    1.7581    1.3148    1.2165 C   0  0  0  0  0  0  0  0  0  0  0  0
    2.0283    2.4199    0.7512 O   0  0  0  0  0  0  0  0  0  0  0  0
    2.7500   -0.8546    0.4331 C   0  0  0  0  0  0  0  0  0  0  0  0
    2.5400   -2.1891   -0.2851 C   0  0  0  0  0  0  0  0  0  0  0  0
    3.7470   -3.1066   -0.2238 C   0  0  0  0  0  0  0  0  0  0  0  0
    4.8213   -2.7946    0.2814 O   0  0  0  0  0  0  0  0  0  0  0  0
    3.5103   -4.3248   -0.8238 N   0  0  0  0  0  0  0  0  0  0  0  0
    2.0949    0.6178   -1.6227 H   0  0  0  0  0  0  0  0  0  0  0  0
    0.6222   -0.4253    0.6751 H   0  0  0  0  0  0  0  0  0  0  0  0
    3.6215   -0.3558   -0.0114 H   0  0  0  0  0  0  0  0  0  0  0  0
    3.0086   -1.0413    1.4831 H   0  0  0  0  0  0  0  0  0  0  0  0
    2.3439   -1.9911   -1.3461 H   0  0  0  0  0  0  0  0  0  0  0  0
    1.6651   -2.7134    0.1152 H   0  0  0  0  0  0  0  0  0  0  0  0
    2.5990   -4.4988   -1.2346 H   0  0  0  0  0  0  0  0  0  0  0  0
    4.2148   -5.0540   -0.8695 H   0  0  0  0  0  0  0  0  0  0  0  0
    1.6671    1.0217    2.5702 N   0  0  0  0  0  0  0  0  0  0  0  0
    1.8564    2.0076    3.6098 C   0  0  2  0  0  0  0  0  0  0  0  0
    1.0080    3.2243    3.2643 C   0  0  0  0  0  0  0  0  0  0  0  0
    0.6327    3.4778    2.1215 O   0  0  0  0  0  0  0  0  0  0  0  0
    3.3218    2.3890    3.7505 C   0  0  0  0  0  0  0  0  0  0  0  0
    1.4569    0.0664    2.8438 H   0  0  0  0  0  0  0  0  0  0  0  0
    1.4916    1.5597    4.5406 H   0  0  0  0  0  0  0  0  0  0  0  0
    3.7050    2.8395    2.8276 H   0  0  0  0  0  0  0  0  0  0  0  0
    3.4672    3.1146    4.5576 H   0  0  0  0  0  0  0  0  0  0  0  0
    3.9346    1.5079    3.9696 H   0  0  0  0  0  0  0  0  0  0  0  0
    0.7554    4.0169    4.3752 N   0  0  0  0  0  0  0  0  0  0  0  0
   -0.0175    5.2350    4.3045 C   0  0  0  0  0  0  0  0  0  0  0  0
    1.0897    3.7201    5.2873 H   0  0  0  0  0  0  0  0  0  0  0  0
    0.6570    6.0891    4.1445 H   0  0  0  0  0  0  0  0  0  0  0  0
   -0.7299    5.1690    3.4689 H   0  0  0  0  0  0  0  0  0  0  0  0
   -0.5686    5.3746    5.2461 H   0  0  0  0  0  0  0  0  0  0  0  0
  1  3  1  0  0  0  0
  1  7  1  0  0  0  0
  1  2  2  0  0  0  0
 22 23  1  0  0  0  0
 23 25  1  0  0  0  0
 23 24  2  0  0  0  0
 35 36  1  0  0  0  0
 36 44  1  0  0  0  0
 36 37  2  0  0  0  0
  8  9  1  0  0  0  0
  9 17  1  0  0  0  0
  9 10  2  0  0  0  0
 18 19  1  0  0  0  0
 19 34  1  0  0  0  0
 19 20  2  0  0  0  0
 35 38  1  0  0  0  0
  8 11  1  0  0  0  0
 44 45  1  0  0  0  0
 21 22  1  0  0  0  0
 18 21  1  0  0  0  0
 34 35  1  0  0  0  0
  7  8  1  0  0  0  0
 17 18  1  0  0  0  0
  3  4  1  0  0  0  0
  3  5  1  0  0  0  0
  3  6  1  0  0  0  0
 38 41  1  0  0  0  0
 38 42  1  0  0  0  0
 38 43  1  0  0  0  0
 11 14  1  0  0  0  0
 11 15  1  0  0  0  0
 11 16  1  0  0  0  0
 45 47  1  0  0  0  0
 45 48  1  0  0  0  0
 45 49  1  0  0  0  0
 22 30  1  0  0  0  0
 22 31  1  0  0  0  0
 21 28  1  0  0  0  0
 21 29  1  0  0  0  0
 35 40  1  0  0  0  0
  8 13  1  0  0  0  0
 18 27  1  0  0  0  0
 25 32  1  0  0  0  0
 25 33  1  0  0  0  0
 44 46  1  0  0  0  0
  7 12  1  0  0  0  0
 34 39  1  0  0  0  0
 17 26  1  0  0  0  0
M  END
$$$$

  -OEChem-05262214473D

 49 48  0     1  0  0  0  0  0999 V2000
   -1.9833   -0.0509   -3.3423 C   0  0  0  0  0  0  0  0  0  0  0  0
   -1.6199   -1.0613   -2.7518 O   0  0  0  0  0  0  0  0  0  0  0  0
   -3.3243   -0.0235   -3.9975 C   0  0  0  0  0  0  0  0  0  0  0  0
   -3.2886   -0.3689   -5.0432 H   0  0  0  0  0  0  0  0  0  0  0  0
   -4.0503   -0.6845   -3.4973 H   0  0  0  0  0  0  0  0  0  0  0  0
   -3.8104    0.9645   -4.0351 H   0  0  0  0  0  0  0  0  0  0  0  0
   -1.2607    1.1231   -3.4768 N   0  0  0  0  0  0  0  0  0  0  0  0
    0.0536    1.3115   -2.9213 C   0  0  2  0  0  0  0  0  0  0  0  0
    0.0266    0.8315   -1.4761 C   0  0  0  0  0  0  0  0  0  0  0  0
   -1.0065    0.7530   -0.8146 O   0  0  0  0  0  0  0  0  0  0  0  0
    0.4852    2.7674   -3.0025 C   0  0  0  0  0  0  0  0  0  0  0  0
   -1.6809    1.8924   -3.9952 H   0  0  0  0  0  0  0  0  0  0  0  0
    0.7360    0.6822   -3.5030 H   0  0  0  0  0  0  0  0  0  0  0  0
   -0.1867    3.4133   -2.4256 H   0  0  0  0  0  0  0  0  0  0  0  0
    1.4966    2.9042   -2.6056 H   0  0  0  0  0  0  0  0  0  0  0  0
    0.4754    3.1196   -4.0397 H   0  0  0  0  0  0  0  0  0  0  0  0
    1.2978    0.5411   -0.9947 N   0  0  0  0  0  0  0  0  0  0  0  0
    1.5371    0.0807    0.3489 C   0  0  2  0  0  0  0  0  0  0  0  0
    1.3834    1.2839    1.2727 C   0  0  0  0  0  0  0  0  0  0  0  0
    1.1442    2.4170    0.8609 O   0  0  0  0  0  0  0  0  0  0  0  0
    2.9308   -0.5399    0.5088 C   0  0  0  0  0  0  0  0  0  0  0  0
    3.1080   -1.8456   -0.2686 C   0  0  0  0  0  0  0  0  0  0  0  0
    4.4935   -2.4491   -0.1315 C   0  0  0  0  0  0  0  0  0  0  0  0
    5.4172   -1.9160    0.4763 O   0  0  0  0  0  0  0  0  0  0  0  0
    4.6074   -3.6549   -0.7897 N   0  0  0  0  0  0  0  0  0  0  0  0
    2.0949    0.6178   -1.6227 H   0  0  0  0  0  0  0  0  0  0  0  0
    0.7503   -0.6464    0.5765 H   0  0  0  0  0  0  0  0  0  0  0  0
    3.6866    0.1762    0.1593 H   0  0  0  0  0  0  0  0  0  0  0  0
    3.1449   -0.7147    1.5707 H   0  0  0  0  0  0  0  0  0  0  0  0
    2.9524   -1.6443   -1.3357 H   0  0  0  0  0  0  0  0  0  0  0  0
    2.3586   -2.5848    0.0357 H   0  0  0  0  0  0  0  0  0  0  0  0
    3.8005   -4.0201   -1.2845 H   0  0  0  0  0  0  0  0  0  0  0  0
    5.4695   -4.1905   -0.7971 H   0  0  0  0  0  0  0  0  0  0  0  0
    1.5951    0.9485    2.6028 N   0  0  0  0  0  0  0  0  0  0  0  0
    1.5307    1.9070    3.6826 C   0  0  2  0  0  0  0  0  0  0  0  0
    0.2427    2.7047    3.5271 C   0  0  0  0  0  0  0  0  0  0  0  0
   -0.3515    2.8174    2.4569 O   0  0  0  0  0  0  0  0  0  0  0  0
    2.7427    2.8255    3.6801 C   0  0  0  0  0  0  0  0  0  0  0  0
    1.8058   -0.0191    2.8286 H   0  0  0  0  0  0  0  0  0  0  0  0
    1.4945    1.3318    4.6142 H   0  0  0  0  0  0  0  0  0  0  0  0
    2.7958    3.4100    2.7543 H   0  0  0  0  0  0  0  0  0  0  0  0
    2.7065    3.5324    4.5156 H   0  0  0  0  0  0  0  0  0  0  0  0
    3.6697    2.2478    3.7620 H   0  0  0  0  0  0  0  0  0  0  0  0
   -0.1418    3.3117    4.7145 N   0  0  0  0  0  0  0  0  0  0  0  0
   -1.3242    4.1340    4.8226 C   0  0  0  0  0  0  0  0  0  0  0  0
    0.4005    3.1481    5.5577 H   0  0  0  0  0  0  0  0  0  0  0  0
   -1.0566    5.1866    4.6482 H   0  0  0  0  0  0  0  0  0  0  0  0
   -2.0627    3.8144    4.0725 H   0  0  0  0  0  0  0  0  0  0  0  0
   -1.7543    4.0270    5.8293 H   0  0  0  0  0  0  0  0  0  0  0  0
  1  3  1  0  0  0  0
  1  7  1  0  0  0  0
  1  2  2  0  0  0  0
 22 23  1  0  0  0  0
 23 25  1  0  0  0  0
 23 24  2  0  0  0  0
 35 36  1  0  0  0  0
 36 44  1  0  0  0  0
 36 37  2  0  0  0  0
  8  9  1  0  0  0  0
  9 17  1  0  0  0  0
  9 10  2  0  0  0  0
 18 19  1  0  0  0  0
 19 34  1  0  0  0  0
 19 20  2  0  0  0  0
 35 38  1  0  0  0  0
  8 11  1  0  0  0  0
 44 45  1  0  0  0  0
 21 22  1  0  0  0  0
 18 21  1  0  0  0  0
 34 35  1  0  0  0  0
  7  8  1  0  0  0  0
 17 18  1  0  0  0  0
  3  4  1  0  0  0  0
  3  5  1  0  0  0  0
  3  6  1  0  0  0  0
 38 41  1  0  0  0  0
 38 42  1  0  0  0  0
 38 43  1  0  0  0  0
 11 14  1  0  0  0  0
 11 15  1  0  0  0  0
 11 16  1  0  0  0  0
 45 47  1  0  0  0  0
 45 48  1  0  0  0  0
 45 49  1  0  0  0  0
 22 30  1  0  0  0  0
 22 31  1  0  0  0  0
 21 28  1  0  0  0  0
 21 29  1  0  0  0  0
 35 40  1  0  0  0  0
  8 13  1  0  0  0  0
 18 27  1  0  0  0  0
 25 32  1  0  0  0  0
 25 33  1  0  0  0  0
 44 46  1  0  0  0  0
  7 12  1  0  0  0  0
 34 39  1  0  0  0  0
 17 26  1  0  0  0  0
M  END
$$$$

  -OEChem-05262214473D

 49 48  0     1  0  0  0  0  0999 V2000
   -1.9833   -0.0509   -3.3423 C   0  0  0  0  0  0  0  0  0  0  0  0
   -1.6199   -1.0613   -2.7518 O   0  0  0  0  0  0  0  0  0  0  0  0
   -3.3243   -0.0235   -3.9975 C   0  0  0  0  0  0  0  0  0  0  0  0
   -3.2886   -0.3689   -5.0432 H   0  0  0  0  0  0  0  0  0  0  0  0
   -4.0503   -0.6845   -3.4973 H   0  0  0  0  0  0  0  0  0  0  0  0
   -3.8104    0.9645   -4.0351 H   0  0  0  0  0  0  0  0  0  0  0  0
   -1.2607    1.1231   -3.4768 N   0  0  0  0  0  0  0  0  0  0  0  0
    0.0536    1.3115   -2.9213 C   0  0  2  0  0  0  0  0  0  0  0  0
    0.0266    0.8315   -1.4761 C   0  0  0  0  0  0  0  0  0  0  0  0
   -1.0065    0.7530   -0.8146 O   0  0  0  0  0  0  0  0  0  0  0  0
    0.4852    2.7674   -3.0025 C   0  0  0  0  0  0  0  0  0  0  0  0
   -1.6809    1.8924   -3.9952 H   0  0  0  0  0  0  0  0  0  0  0  0
    0.7360    0.6822   -3.5030 H   0  0  0  0  0  0  0  0  0  0  0  0
   -0.1867    3.4133   -2.4256 H   0  0  0  0  0  0  0  0  0  0  0  0
    1.4966    2.9042   -2.6056 H   0  0  0  0  0  0  0  0  0  0  0  0
    0.4754    3.1196   -4.0397 H   0  0  0  0  0  0  0  0  0  0  0  0
    1.2978    0.5411   -0.9947 N   0  0  0  0  0  0  0  0  0  0  0  0
    1.5371    0.0807    0.3489 C   0  0  2  0  0  0  0  0  0  0  0  0
    1.3834    1.2839    1.2727 C   0  0  0  0  0  0  0  0  0  0  0  0
    0.8882    2.3481    0.9080 O   0  0  0  0  0  0  0  0  0  0  0  0
    2.9308   -0.5399    0.5088 C   0  0  0  0  0  0  0  0  0  0  0  0
    3.1080   -1.8456   -0.2686 C   0  0  0  0  0  0  0  0  0  0  0  0
    4.4935   -2.4491   -0.1315 C   0  0  0  0  0  0  0  0  0  0  0  0
    5.4172   -1.9160    0.4763 O   0  0  0  0  0  0  0  0  0  0  0  0
    4.6074   -3.6549   -0.7897 N   0  0  0  0  0  0  0  0  0  0  0  0
    2.0949    0.6178   -1.6227 H   0  0  0  0  0  0  0  0  0  0  0  0
    0.7503   -0.6464    0.5765 H   0  0  0  0  0  0  0  0  0  0  0  0
    3.6866    0.1762    0.1593 H   0  0  0  0  0  0  0  0  0  0  0  0
    3.1449   -0.7147    1.5707 H   0  0  0  0  0  0  0  0  0  0  0  0
    2.9524   -1.6443   -1.3357 H   0  0  0  0  0  0  0  0  0  0  0  0
    2.3586   -2.5848    0.0357 H   0  0  0  0  0  0  0  0  0  0  0  0
    3.8005   -4.0201   -1.2845 H   0  0  0  0  0  0  0  0  0  0  0  0
    5.4695   -4.1905   -0.7971 H   0  0  0  0  0  0  0  0  0  0  0  0
    1.9103    1.0418    2.5337 N   0  0  0  0  0  0  0  0  0  0  0  0
    1.9135    2.0238    3.5941 C   0  0  2  0  0  0  0  0  0  0  0  0
    0.5103    2.6063    3.6999 C   0  0  0  0  0  0  0  0  0  0  0  0
   -0.2982    2.5806    2.7743 O   0  0  0  0  0  0  0  0  0  0  0  0
    2.9376    3.1172    3.3326 C   0  0  0  0  0  0  0  0  0  0  0  0
    2.3140    0.1287    2.7207 H   0  0  0  0  0  0  0  0  0  0  0  0
    2.1587    1.4900    4.5187 H   0  0  0  0  0  0  0  0  0  0  0  0
    2.7085    3.6631    2.4101 H   0  0  0  0  0  0  0  0  0  0  0  0
    2.9588    3.8448    4.1506 H   0  0  0  0  0  0  0  0  0  0  0  0
    3.9421    2.6933    3.2272 H   0  0  0  0  0  0  0  0  0  0  0  0
    0.2820    3.1964    4.9351 N   0  0  0  0  0  0  0  0  0  0  0  0
   -0.9699    3.8305    5.2767 C   0  0  0  0  0  0  0  0  0  0  0  0
    1.0025    3.1543    5.6498 H   0  0  0  0  0  0  0  0  0  0  0  0
   -0.9145    4.9035    5.0406 H   0  0  0  0  0  0  0  0  0  0  0  0
   -1.7841    3.3695    4.6983 H   0  0  0  0  0  0  0  0  0  0  0  0
   -1.1649    3.7014    6.3515 H   0  0  0  0  0  0  0  0  0  0  0  0
  1  3  1  0  0  0  0
  1  7  1  0  0  0  0
  1  2  2  0  0  0  0
 22 23  1  0  0  0  0
 23 25  1  0  0  0  0
 23 24  2  0  0  0  0
 35 36  1  0  0  0  0
 36 44  1  0  0  0  0
 36 37  2  0  0  0  0
  8  9  1  0  0  0  0
  9 17  1  0  0  0  0
  9 10  2  0  0  0  0
 18 19  1  0  0  0  0
 19 34  1  0  0  0  0
 19 20  2  0  0  0  0
 35 38  1  0  0  0  0
  8 11  1  0  0  0  0
 44 45  1  0  0  0  0
 21 22  1  0  0  0  0
 18 21  1  0  0  0  0
 34 35  1  0  0  0  0
  7  8  1  0  0  0  0
 17 18  1  0  0  0  0
  3  4  1  0  0  0  0
  3  5  1  0  0  0  0
  3  6  1  0  0  0  0
 38 41  1  0  0  0  0
 38 42  1  0  0  0  0
 38 43  1  0  0  0  0
 11 14  1  0  0  0  0
 11 15  1  0  0  0  0
 11 16  1  0  0  0  0
 45 47  1  0  0  0  0
 45 48  1  0  0  0  0
 45 49  1  0  0  0  0
 22 30  1  0  0  0  0
 22 31  1  0  0  0  0
 21 28  1  0  0  0  0
 21 29  1  0  0  0  0
 35 40  1  0  0  0  0
  8 13  1  0  0  0  0
 18 27  1  0  0  0  0
 25 32  1  0  0  0  0
 25 33  1  0  0  0  0
 44 46  1  0  0  0  0
  7 12  1  0  0  0  0
 34 39  1  0  0  0  0
 17 26  1  0  0  0  0
M  END
$$$$

  -OEChem-05262214473D

 49 48  0     1  0  0  0  0  0999 V2000
   -1.9833   -0.0509   -3.3423 C   0  0  0  0  0  0  0  0  0  0  0  0
   -1.6199   -1.0613   -2.7518 O   0  0  0  0  0  0  0  0  0  0  0  0
   -3.3243   -0.0235   -3.9975 C   0  0  0  0  0  0  0  0  0  0  0  0
   -3.2886   -0.3689   -5.0432 H   0  0  0  0  0  0  0  0  0  0  0  0
   -4.0503   -0.6845   -3.4973 H   0  0  0  0  0  0  0  0  0  0  0  0
   -3.8104    0.9645   -4.0351 H   0  0  0  0  0  0  0  0  0  0  0  0
   -1.2607    1.1231   -3.4768 N   0  0  0  0  0  0  0  0  0  0  0  0
    0.0536    1.3115   -2.9213 C   0  0  2  0  0  0  0  0  0  0  0  0
    0.0266    0.8315   -1.4761 C   0  0  0  0  0  0  0  0  0  0  0  0
   -1.0065    0.7530   -0.8146 O   0  0  0  0  0  0  0  0  0  0  0  0
    0.4852    2.7674   -3.0025 C   0  0  0  0  0  0  0  0  0  0  0  0
   -1.6809    1.8924   -3.9952 H   0  0  0  0  0  0  0  0  0  0  0  0
    0.7360    0.6822   -3.5030 H   0  0  0  0  0  0  0  0  0  0  0  0
   -0.1867    3.4133   -2.4256 H   0  0  0  0  0  0  0  0  0  0  0  0
    1.4966    2.9042   -2.6056 H   0  0  0  0  0  0  0  0  0  0  0  0
    0.4754    3.1196   -4.0397 H   0  0  0  0  0  0  0  0  0  0  0  0
    1.2978    0.5411   -0.9947 N   0  0  0  0  0  0  0  0  0  0  0  0
    1.5371    0.0807    0.3489 C   0  0  2  0  0  0  0  0  0  0  0  0
    1.3834    1.2839    1.2727 C   0  0  0  0  0  0  0  0  0  0  0  0
    0.6614    2.2427    1.0076 O   0  0  0  0  0  0  0  0  0  0  0  0
    2.9308   -0.5399    0.5088 C   0  0  0  0  0  0  0  0  0  0  0  0
    3.1080   -1.8456   -0.2686 C   0  0  0  0  0  0  0  0  0  0  0  0
    4.4935   -2.4491   -0.1315 C   0  0  0  0  0  0  0  0  0  0  0  0
    5.4172   -1.9160    0.4763 O   0  0  0  0  0  0  0  0  0  0  0  0
    4.6074   -3.6549   -0.7897 N   0  0  0  0  0  0  0  0  0  0  0  0
    2.0949    0.6178   -1.6227 H   0  0  0  0  0  0  0  0  0  0  0  0
    0.7503   -0.6464    0.5765 H   0  0  0  0  0  0  0  0  0  0  0  0
    3.6866    0.1762    0.1593 H   0  0  0  0  0  0  0  0  0  0  0  0
    3.1449   -0.7147    1.5707 H   0  0  0  0  0  0  0  0  0  0  0  0
    2.9524   -1.6443   -1.3357 H   0  0  0  0  0  0  0  0  0  0  0  0
    2.3586   -2.5848    0.0357 H   0  0  0  0  0  0  0  0  0  0  0  0
    3.8005   -4.0201   -1.2845 H   0  0  0  0  0  0  0  0  0  0  0  0
    5.4695   -4.1905   -0.7971 H   0  0  0  0  0  0  0  0  0  0  0  0
    2.1861    1.1796    2.4002 N   0  0  0  0  0  0  0  0  0  0  0  0
    2.2469    2.1944    3.4274 C   0  0  2  0  0  0  0  0  0  0  0  0
    0.8195    2.5576    3.8147 C   0  0  0  0  0  0  0  0  0  0  0  0
   -0.1448    2.3684    3.0761 O   0  0  0  0  0  0  0  0  0  0  0  0
    3.0092    3.4205    2.9495 C   0  0  0  0  0  0  0  0  0  0  0  0
    2.7596    0.3483    2.5088 H   0  0  0  0  0  0  0  0  0  0  0  0
    2.7559    1.7444    4.2868 H   0  0  0  0  0  0  0  0  0  0  0  0
    2.5142    3.8850    2.0889 H   0  0  0  0  0  0  0  0  0  0  0  0
    3.0789    4.1767    3.7384 H   0  0  0  0  0  0  0  0  0  0  0  0
    4.0261    3.1523    2.6433 H   0  0  0  0  0  0  0  0  0  0  0  0
    0.7544    3.1574    5.0646 N   0  0  0  0  0  0  0  0  0  0  0  0
   -0.4873    3.6049    5.6509 C   0  0  0  0  0  0  0  0  0  0  0  0
    1.6018    3.2571    5.6157 H   0  0  0  0  0  0  0  0  0  0  0  0
   -0.6527    4.6625    5.3980 H   0  0  0  0  0  0  0  0  0  0  0  0
   -1.3175    2.9998    5.2576 H   0  0  0  0  0  0  0  0  0  0  0  0
   -0.4379    3.4929    6.7441 H   0  0  0  0  0  0  0  0  0  0  0  0
  1  3  1  0  0  0  0
  1  7  1  0  0  0  0
  1  2  2  0  0  0  0
 22 23  1  0  0  0  0
 23 25  1  0  0  0  0
 23 24  2  0  0  0  0
 35 36  1  0  0  0  0
 36 44  1  0  0  0  0
 36 37  2  0  0  0  0
  8  9  1  0  0  0  0
  9 17  1  0  0  0  0
  9 10  2  0  0  0  0
 18 19  1  0  0  0  0
 19 34  1  0  0  0  0
 19 20  2  0  0  0  0
 35 38  1  0  0  0  0
  8 11  1  0  0  0  0
 44 45  1  0  0  0  0
 21 22  1  0  0  0  0
 18 21  1  0  0  0  0
 34 35  1  0  0  0  0
  7  8  1  0  0  0  0
 17 18  1  0  0  0  0
  3  4  1  0  0  0  0
  3  5  1  0  0  0  0
  3  6  1  0  0  0  0
 38 41  1  0  0  0  0
 38 42  1  0  0  0  0
 38 43  1  0  0  0  0
 11 14  1  0  0  0  0
 11 15  1  0  0  0  0
 11 16  1  0  0  0  0
 45 47  1  0  0  0  0
 45 48  1  0  0  0  0
 45 49  1  0  0  0  0
 22 30  1  0  0  0  0
 22 31  1  0  0  0  0
 21 28  1  0  0  0  0
 21 29  1  0  0  0  0
 35 40  1  0  0  0  0
  8 13  1  0  0  0  0
 18 27  1  0  0  0  0
 25 32  1  0  0  0  0
 25 33  1  0  0  0  0
 44 46  1  0  0  0  0
  7 12  1  0  0  0  0
 34 39  1  0  0  0  0
 17 26  1  0  0  0  0
M  END
$$$$

  -OEChem-05262214473D

 49 48  0     1  0  0  0  0  0999 V2000
   -1.9833   -0.0509   -3.3423 C   0  0  0  0  0  0  0  0  0  0  0  0
   -1.6199   -1.0613   -2.7518 O   0  0  0  0  0  0  0  0  0  0  0  0
   -3.3243   -0.0235   -3.9975 C   0  0  0  0  0  0  0  0  0  0  0  0
   -3.2886   -0.3689   -5.0432 H   0  0  0  0  0  0  0  0  0  0  0  0
   -4.0503   -0.6845   -3.4973 H   0  0  0  0  0  0  0  0  0  0  0  0
   -3.8104    0.9645   -4.0351 H   0  0  0  0  0  0  0  0  0  0  0  0
   -1.2607    1.1231   -3.4768 N   0  0  0  0  0  0  0  0  0  0  0  0
    0.0536    1.3115   -2.9213 C   0  0  2  0  0  0  0  0  0  0  0  0
    0.0266    0.8315   -1.4761 C   0  0  0  0  0  0  0  0  0  0  0  0
   -1.0065    0.7530   -0.8146 O   0  0  0  0  0  0  0  0  0  0  0  0
    0.4852    2.7674   -3.0025 C   0  0  0  0  0  0  0  0  0  0  0  0
   -1.6809    1.8924   -3.9952 H   0  0  0  0  0  0  0  0  0  0  0  0
    0.7360    0.6822   -3.5030 H   0  0  0  0  0  0  0  0  0  0  0  0
   -0.1867    3.4133   -2.4256 H   0  0  0  0  0  0  0  0  0  0  0  0
    1.4966    2.9042   -2.6056 H   0  0  0  0  0  0  0  0  0  0  0  0
    0.4754    3.1196   -4.0397 H   0  0  0  0  0  0  0  0  0  0  0  0
    1.2978    0.5411   -0.9947 N   0  0  0  0  0  0  0  0  0  0  0  0
    1.5371    0.0807    0.3489 C   0  0  2  0  0  0  0  0  0  0  0  0
    1.3834    1.2839    1.2727 C   0  0  0  0  0  0  0  0  0  0  0  0
    0.4792    2.1079    1.1529 O   0  0  0  0  0  0  0  0  0  0  0  0
    2.9308   -0.5399    0.5088 C   0  0  0  0  0  0  0  0  0  0  0  0
    3.1080   -1.8456   -0.2686 C   0  0  0  0  0  0  0  0  0  0  0  0
    4.4935   -2.4491   -0.1315 C   0  0  0  0  0  0  0  0  0  0  0  0
    5.4172   -1.9160    0.4763 O   0  0  0  0  0  0  0  0  0  0  0  0
    4.6074   -3.6549   -0.7897 N   0  0  0  0  0  0  0  0  0  0  0  0
    2.0949    0.6178   -1.6227 H   0  0  0  0  0  0  0  0  0  0  0  0
    0.7503   -0.6464    0.5765 H   0  0  0  0  0  0  0  0  0  0  0  0
    3.6866    0.1762    0.1593 H   0  0  0  0  0  0  0  0  0  0  0  0
    3.1449   -0.7147    1.5707 H   0  0  0  0  0  0  0  0  0  0  0  0
    2.9524   -1.6443   -1.3357 H   0  0  0  0  0  0  0  0  0  0  0  0
    2.3586   -2.5848    0.0357 H   0  0  0  0  0  0  0  0  0  0  0  0
    3.8005   -4.0201   -1.2845 H   0  0  0  0  0  0  0  0  0  0  0  0
    5.4695   -4.1905   -0.7971 H   0  0  0  0  0  0  0  0  0  0  0  0
    2.4036    1.3524    2.2113 N   0  0  0  0  0  0  0  0  0  0  0  0
    2.5081    2.4071    3.1939 C   0  0  2  0  0  0  0  0  0  0  0  0
    1.1492    2.5621    3.8638 C   0  0  0  0  0  0  0  0  0  0  0  0
    0.0983    2.1954    3.3419 O   0  0  0  0  0  0  0  0  0  0  0  0
    2.9525    3.7146    2.5570 C   0  0  0  0  0  0  0  0  0  0  0  0
    3.1123    0.6248    2.2073 H   0  0  0  0  0  0  0  0  0  0  0  0
    3.2454    2.0777    3.9341 H   0  0  0  0  0  0  0  0  0  0  0  0
    2.2261    4.0604    1.8125 H   0  0  0  0  0  0  0  0  0  0  0  0
    3.0587    4.5053    3.3071 H   0  0  0  0  0  0  0  0  0  0  0  0
    3.9159    3.5936    2.0502 H   0  0  0  0  0  0  0  0  0  0  0  0
    1.2433    3.1971    5.0943 N   0  0  0  0  0  0  0  0  0  0  0  0
    0.0906    3.4723    5.9197 C   0  0  0  0  0  0  0  0  0  0  0  0
    2.1577    3.4495    5.4576 H   0  0  0  0  0  0  0  0  0  0  0  0
   -0.2890    4.4802    5.6960 H   0  0  0  0  0  0  0  0  0  0  0  0
   -0.6945    2.7304    5.7121 H   0  0  0  0  0  0  0  0  0  0  0  0
    0.3773    3.4157    6.9802 H   0  0  0  0  0  0  0  0  0  0  0  0
  1  3  1  0  0  0  0
  1  7  1  0  0  0  0
  1  2  2  0  0  0  0
 22 23  1  0  0  0  0
 23 25  1  0  0  0  0
 23 24  2  0  0  0  0
 35 36  1  0  0  0  0
 36 44  1  0  0  0  0
 36 37  2  0  0  0  0
  8  9  1  0  0  0  0
  9 17  1  0  0  0  0
  9 10  2  0  0  0  0
 18 19  1  0  0  0  0
 19 34  1  0  0  0  0
 19 20  2  0  0  0  0
 35 38  1  0  0  0  0
  8 11  1  0  0  0  0
 44 45  1  0  0  0  0
 21 22  1  0  0  0  0
 18 21  1  0  0  0  0
 34 35  1  0  0  0  0
  7  8  1  0  0  0  0
 17 18  1  0  0  0  0
  3  4  1  0  0  0  0
  3  5  1  0  0  0  0
  3  6  1  0  0  0  0
 38 41  1  0  0  0  0
 38 42  1  0  0  0  0
 38 43  1  0  0  0  0
 11 14  1  0  0  0  0
 11 15  1  0  0  0  0
 11 16  1  0  0  0  0
 45 47  1  0  0  0  0
 45 48  1  0  0  0  0
 45 49  1  0  0  0  0
 22 30  1  0  0  0  0
 22 31  1  0  0  0  0
 21 28  1  0  0  0  0
 21 29  1  0  0  0  0
 35 40  1  0  0  0  0
  8 13  1  0  0  0  0
 18 27  1  0  0  0  0
 25 32  1  0  0  0  0
 25 33  1  0  0  0  0
 44 46  1  0  0  0  0
  7 12  1  0  0  0  0
 34 39  1  0  0  0  0
 17 26  1  0  0  0  0
M  END
$$$$

  -OEChem-05262214473D

 49 48  0     1  0  0  0  0  0999 V2000
   -1.9833   -0.0509   -3.3423 C   0  0  0  0  0  0  0  0  0  0  0  0
   -1.6199   -1.0613   -2.7518 O   0  0  0  0  0  0  0  0  0  0  0  0
   -3.3243   -0.0235   -3.9975 C   0  0  0  0  0  0  0  0  0  0  0  0
   -3.2886   -0.3689   -5.0432 H   0  0  0  0  0  0  0  0  0  0  0  0
   -4.0503   -0.6845   -3.4973 H   0  0  0  0  0  0  0  0  0  0  0  0
   -3.8104    0.9645   -4.0351 H   0  0  0  0  0  0  0  0  0  0  0  0
   -1.2607    1.1231   -3.4768 N   0  0  0  0  0  0  0  0  0  0  0  0
    0.0536    1.3115   -2.9213 C   0  0  2  0  0  0  0  0  0  0  0  0
    0.0266    0.8315   -1.4761 C   0  0  0  0  0  0  0  0  0  0  0  0
   -1.0065    0.7530   -0.8146 O   0  0  0  0  0  0  0  0  0  0  0  0
    0.4852    2.7674   -3.0025 C   0  0  0  0  0  0  0  0  0  0  0  0
   -1.6809    1.8924   -3.9952 H   0  0  0  0  0  0  0  0  0  0  0  0
    0.7360    0.6822   -3.5030 H   0  0  0  0  0  0  0  0  0  0  0  0
   -0.1867    3.4133   -2.4256 H   0  0  0  0  0  0  0  0  0  0  0  0
    1.4966    2.9042   -2.6056 H   0  0  0  0  0  0  0  0  0  0  0  0
    0.4754    3.1196   -4.0397 H   0  0  0  0  0  0  0  0  0  0  0  0
    1.2978    0.5411   -0.9947 N   0  0  0  0  0  0  0  0  0  0  0  0
    1.5371    0.0807    0.3489 C   0  0  2  0  0  0  0  0  0  0  0  0
    1.3834    1.2839    1.2727 C   0  0  0  0  0  0  0  0  0  0  0  0
    0.3540    1.9529    1.3340 O   0  0  0  0  0  0  0  0  0  0  0  0
    2.9308   -0.5399    0.5088 C   0  0  0  0  0  0  0  0  0  0  0  0
    3.1080   -1.8456   -0.2686 C   0  0  0  0  0  0  0  0  0  0  0  0
    4.4935   -2.4491   -0.1315 C   0  0  0  0  0  0  0  0  0  0  0  0
    5.4172   -1.9160    0.4763 O   0  0  0  0  0  0  0  0  0  0  0  0
    4.6074   -3.6549   -0.7897 N   0  0  0  0  0  0  0  0  0  0  0  0
    2.0949    0.6178   -1.6227 H   0  0  0  0  0  0  0  0  0  0  0  0
    0.7503   -0.6464    0.5765 H   0  0  0  0  0  0  0  0  0  0  0  0
    3.6866    0.1762    0.1593 H   0  0  0  0  0  0  0  0  0  0  0  0
    3.1449   -0.7147    1.5707 H   0  0  0  0  0  0  0  0  0  0  0  0
    2.9524   -1.6443   -1.3357 H   0  0  0  0  0  0  0  0  0  0  0  0
    2.3586   -2.5848    0.0357 H   0  0  0  0  0  0  0  0  0  0  0  0
    3.8005   -4.0201   -1.2845 H   0  0  0  0  0  0  0  0  0  0  0  0
    5.4695   -4.1905   -0.7971 H   0  0  0  0  0  0  0  0  0  0  0  0
    2.5480    1.5485    1.9799 N   0  0  0  0  0  0  0  0  0  0  0  0
    2.6794    2.6474    2.9094 C   0  0  2  0  0  0  0  0  0  0  0  0
    1.4770    2.6194    3.8437 C   0  0  0  0  0  0  0  0  0  0  0  0
    0.4146    2.0734    3.5535 O   0  0  0  0  0  0  0  0  0  0  0  0
    2.7714    3.9796    2.1817 C   0  0  0  0  0  0  0  0  0  0  0  0
    3.3481    0.9394    1.8369 H   0  0  0  0  0  0  0  0  0  0  0  0
    3.5940    2.4673    3.4847 H   0  0  0  0  0  0  0  0  0  0  0  0
    1.8639    4.1774    1.5997 H   0  0  0  0  0  0  0  0  0  0  0  0
    2.8996    4.8083    2.8859 H   0  0  0  0  0  0  0  0  0  0  0  0
    3.6192    3.9872    1.4882 H   0  0  0  0  0  0  0  0  0  0  0  0
    1.7154    3.3129    5.0220 N   0  0  0  0  0  0  0  0  0  0  0  0
    0.7246    3.4419    6.0648 C   0  0  0  0  0  0  0  0  0  0  0  0
    2.6321    3.7184    5.1864 H   0  0  0  0  0  0  0  0  0  0  0  0
    0.1517    4.3689    5.9143 H   0  0  0  0  0  0  0  0  0  0  0  0
    0.0423    2.5798    6.0309 H   0  0  0  0  0  0  0  0  0  0  0  0
    1.2250    3.4752    7.0438 H   0  0  0  0  0  0  0  0  0  0  0  0
  1  3  1  0  0  0  0
  1  7  1  0  0  0  0
  1  2  2  0  0  0  0
 22 23  1  0  0  0  0
 23 25  1  0  0  0  0
 23 24  2  0  0  0  0
 35 36  1  0  0  0  0
 36 44  1  0  0  0  0
 36 37  2  0  0  0  0
  8  9  1  0  0  0  0
  9 17  1  0  0  0  0
  9 10  2  0  0  0  0
 18 19  1  0  0  0  0
 19 34  1  0  0  0  0
 19 20  2  0  0  0  0
 35 38  1  0  0  0  0
  8 11  1  0  0  0  0
 44 45  1  0  0  0  0
 21 22  1  0  0  0  0
 18 21  1  0  0  0  0
 34 35  1  0  0  0  0
  7  8  1  0  0  0  0
 17 18  1  0  0  0  0
  3  4  1  0  0  0  0
  3  5  1  0  0  0  0
  3  6  1  0  0  0  0
 38 41  1  0  0  0  0
 38 42  1  0  0  0  0
 38 43  1  0  0  0  0
 11 14  1  0  0  0  0
 11 15  1  0  0  0  0
 11 16  1  0  0  0  0
 45 47  1  0  0  0  0
 45 48  1  0  0  0  0
 45 49  1  0  0  0  0
 22 30  1  0  0  0  0
 22 31  1  0  0  0  0
 21 28  1  0  0  0  0
 21 29  1  0  0  0  0
 35 40  1  0  0  0  0
  8 13  1  0  0  0  0
 18 27  1  0  0  0  0
 25 32  1  0  0  0  0
 25 33  1  0  0  0  0
 44 46  1  0  0  0  0
  7 12  1  0  0  0  0
 34 39  1  0  0  0  0
 17 26  1  0  0  0  0
M  END
$$$$

  -OEChem-05262214473D

 49 48  0     1  0  0  0  0  0999 V2000
   -1.9833   -0.0509   -3.3423 C   0  0  0  0  0  0  0  0  0  0  0  0
   -1.6199   -1.0613   -2.7518 O   0  0  0  0  0  0  0  0  0  0  0  0
   -3.3243   -0.0235   -3.9975 C   0  0  0  0  0  0  0  0  0  0  0  0
   -3.2886   -0.3689   -5.0432 H   0  0  0  0  0  0  0  0  0  0  0  0
   -4.0503   -0.6845   -3.4973 H   0  0  0  0  0  0  0  0  0  0  0  0
   -3.8104    0.9645   -4.0351 H   0  0  0  0  0  0  0  0  0  0  0  0
   -1.2607    1.1231   -3.4768 N   0  0  0  0  0  0  0  0  0  0  0  0
    0.0536    1.3115   -2.9213 C   0  0  2  0  0  0  0  0  0  0  0  0
    0.0266    0.8315   -1.4761 C   0  0  0  0  0  0  0  0  0  0  0  0
   -1.0065    0.7530   -0.8146 O   0  0  0  0  0  0  0  0  0  0  0  0
    0.4852    2.7674   -3.0025 C   0  0  0  0  0  0  0  0  0  0  0  0
   -1.6809    1.8924   -3.9952 H   0  0  0  0  0  0  0  0  0  0  0  0
    0.7360    0.6822   -3.5030 H   0  0  0  0  0  0  0  0  0  0  0  0
   -0.1867    3.4133   -2.4256 H   0  0  0  0  0  0  0  0  0  0  0  0
    1.4966    2.9042   -2.6056 H   0  0  0  0  0  0  0  0  0  0  0  0
    0.4754    3.1196   -4.0397 H   0  0  0  0  0  0  0  0  0  0  0  0
    1.2978    0.5411   -0.9947 N   0  0  0  0  0  0  0  0  0  0  0  0
    1.5371    0.0807    0.3489 C   0  0  2  0  0  0  0  0  0  0  0  0
    1.3834    1.2839    1.2727 C   0  0  0  0  0  0  0  0  0  0  0  0
    0.2944    1.7882    1.5385 O   0  0  0  0  0  0  0  0  0  0  0  0
    2.9308   -0.5399    0.5088 C   0  0  0  0  0  0  0  0  0  0  0  0
    3.1080   -1.8456   -0.2686 C   0  0  0  0  0  0  0  0  0  0  0  0
    4.4935   -2.4491   -0.1315 C   0  0  0  0  0  0  0  0  0  0  0  0
    5.4172   -1.9160    0.4763 O   0  0  0  0  0  0  0  0  0  0  0  0
    4.6074   -3.6549   -0.7897 N   0  0  0  0  0  0  0  0  0  0  0  0
    2.0949    0.6178   -1.6227 H   0  0  0  0  0  0  0  0  0  0  0  0
    0.7503   -0.6464    0.5765 H   0  0  0  0  0  0  0  0  0  0  0  0
    3.6866    0.1762    0.1593 H   0  0  0  0  0  0  0  0  0  0  0  0
    3.1449   -0.7147    1.5707 H   0  0  0  0  0  0  0  0  0  0  0  0
    2.9524   -1.6443   -1.3357 H   0  0  0  0  0  0  0  0  0  0  0  0
    2.3586   -2.5848    0.0357 H   0  0  0  0  0  0  0  0  0  0  0  0
    3.8005   -4.0201   -1.2845 H   0  0  0  0  0  0  0  0  0  0  0  0
    5.4695   -4.1905   -0.7971 H   0  0  0  0  0  0  0  0  0  0  0  0
    2.6095    1.7546    1.7217 N   0  0  0  0  0  0  0  0  0  0  0  0
    2.7490    2.8989    2.5933 C   0  0  2  0  0  0  0  0  0  0  0  0
    1.7806    2.7256    3.7558 C   0  0  0  0  0  0  0  0  0  0  0  0
    0.7824    2.0106    3.6965 O   0  0  0  0  0  0  0  0  0  0  0  0
    2.4783    4.1974    1.8493 C   0  0  0  0  0  0  0  0  0  0  0  0
    3.4508    1.2705    1.4228 H   0  0  0  0  0  0  0  0  0  0  0  0
    3.7779    2.8865    2.9693 H   0  0  0  0  0  0  0  0  0  0  0  0
    1.4522    4.2281    1.4652 H   0  0  0  0  0  0  0  0  0  0  0  0
    2.6124    5.0650    2.5038 H   0  0  0  0  0  0  0  0  0  0  0  0
    3.1562    4.3061    0.9958 H   0  0  0  0  0  0  0  0  0  0  0  0
    2.1385    3.4969    4.8527 N   0  0  0  0  0  0  0  0  0  0  0  0
    1.3713    3.5158    6.0762 C   0  0  0  0  0  0  0  0  0  0  0  0
    2.9928    4.0454    4.8205 H   0  0  0  0  0  0  0  0  0  0  0  0
    0.6395    4.3361    6.0381 H   0  0  0  0  0  0  0  0  0  0  0  0
    0.8427    2.5581    6.1923 H   0  0  0  0  0  0  0  0  0  0  0  0
    2.0475    3.6672    6.9306 H   0  0  0  0  0  0  0  0  0  0  0  0
  1  3  1  0  0  0  0
  1  7  1  0  0  0  0
  1  2  2  0  0  0  0
 22 23  1  0  0  0  0
 23 25  1  0  0  0  0
 23 24  2  0  0  0  0
 35 36  1  0  0  0  0
 36 44  1  0  0  0  0
 36 37  2  0  0  0  0
  8  9  1  0  0  0  0
  9 17  1  0  0  0  0
  9 10  2  0  0  0  0
 18 19  1  0  0  0  0
 19 34  1  0  0  0  0
 19 20  2  0  0  0  0
 35 38  1  0  0  0  0
  8 11  1  0  0  0  0
 44 45  1  0  0  0  0
 21 22  1  0  0  0  0
 18 21  1  0  0  0  0
 34 35  1  0  0  0  0
  7  8  1  0  0  0  0
 17 18  1  0  0  0  0
  3  4  1  0  0  0  0
  3  5  1  0  0  0  0
  3  6  1  0  0  0  0
 38 41  1  0  0  0  0
 38 42  1  0  0  0  0
 38 43  1  0  0  0  0
 11 14  1  0  0  0  0
 11 15  1  0  0  0  0
 11 16  1  0  0  0  0
 45 47  1  0  0  0  0
 45 48  1  0  0  0  0
 45 49  1  0  0  0  0
 22 30  1  0  0  0  0
 22 31  1  0  0  0  0
 21 28  1  0  0  0  0
 21 29  1  0  0  0  0
 35 40  1  0  0  0  0
  8 13  1  0  0  0  0
 18 27  1  0  0  0  0
 25 32  1  0  0  0  0
 25 33  1  0  0  0  0
 44 46  1  0  0  0  0
  7 12  1  0  0  0  0
 34 39  1  0  0  0  0
 17 26  1  0  0  0  0
M  END
$$$$

  -OEChem-05262214473D

 49 48  0     1  0  0  0  0  0999 V2000
   -1.9833   -0.0509   -3.3423 C   0  0  0  0  0  0  0  0  0  0  0  0
   -1.6199   -1.0613   -2.7518 O   0  0  0  0  0  0  0  0  0  0  0  0
   -3.3243   -0.0235   -3.9975 C   0  0  0  0  0  0  0  0  0  0  0  0
   -3.2886   -0.3689   -5.0432 H   0  0  0  0  0  0  0  0  0  0  0  0
   -4.0503   -0.6845   -3.4973 H   0  0  0  0  0  0  0  0  0  0  0  0
   -3.8104    0.9645   -4.0351 H   0  0  0  0  0  0  0  0  0  0  0  0
   -1.2607    1.1231   -3.4768 N   0  0  0  0  0  0  0  0  0  0  0  0
    0.0536    1.3115   -2.9213 C   0  0  2  0  0  0  0  0  0  0  0  0
    0.0266    0.8315   -1.4761 C   0  0  0  0  0  0  0  0  0  0  0  0
   -1.0065    0.7530   -0.8146 O   0  0  0  0  0  0  0  0  0  0  0  0
    0.4852    2.7674   -3.0025 C   0  0  0  0  0  0  0  0  0  0  0  0
   -1.6809    1.8924   -3.9952 H   0  0  0  0  0  0  0  0  0  0  0  0
    0.7360    0.6822   -3.5030 H   0  0  0  0  0  0  0  0  0  0  0  0
   -0.1867    3.4133   -2.4256 H   0  0  0  0  0  0  0  0  0  0  0  0
    1.4966    2.9042   -2.6056 H   0  0  0  0  0  0  0  0  0  0  0  0
    0.4754    3.1196   -4.0397 H   0  0  0  0  0  0  0  0  0  0  0  0
    1.2978    0.5411   -0.9947 N   0  0  0  0  0  0  0  0  0  0  0  0
    1.5371    0.0807    0.3489 C   0  0  2  0  0  0  0  0  0  0  0  0
    1.3834    1.2839    1.2727 C   0  0  0  0  0  0  0  0  0  0  0  0
    0.3044    1.6252    1.7525 O   0  0  0  0  0  0  0  0  0  0  0  0
    2.9308   -0.5399    0.5088 C   0  0  0  0  0  0  0  0  0  0  0  0
    3.1080   -1.8456   -0.2686 C   0  0  0  0  0  0  0  0  0  0  0  0
    4.4935   -2.4491   -0.1315 C   0  0  0  0  0  0  0  0  0  0  0  0
    5.4172   -1.9160    0.4763 O   0  0  0  0  0  0  0  0  0  0  0  0
    4.6074   -3.6549   -0.7897 N   0  0  0  0  0  0  0  0  0  0  0  0
    2.0949    0.6178   -1.6227 H   0  0  0  0  0  0  0  0  0  0  0  0
    0.7503   -0.6464    0.5765 H   0  0  0  0  0  0  0  0  0  0  0  0
    3.6866    0.1762    0.1593 H   0  0  0  0  0  0  0  0  0  0  0  0
    3.1449   -0.7147    1.5707 H   0  0  0  0  0  0  0  0  0  0  0  0
    2.9524   -1.6443   -1.3357 H   0  0  0  0  0  0  0  0  0  0  0  0
    2.3586   -2.5848    0.0357 H   0  0  0  0  0  0  0  0  0  0  0  0
    3.8005   -4.0201   -1.2845 H   0  0  0  0  0  0  0  0  0  0  0  0
    5.4695   -4.1905   -0.7971 H   0  0  0  0  0  0  0  0  0  0  0  0
    2.5838    1.9565    1.4545 N   0  0  0  0  0  0  0  0  0  0  0  0
    2.7123    3.1446    2.2672 C   0  0  2  0  0  0  0  0  0  0  0  0
    2.0392    2.8735    3.6062 C   0  0  0  0  0  0  0  0  0  0  0  0
    1.1767    2.0114    3.7611 O   0  0  0  0  0  0  0  0  0  0  0  0
    2.0932    4.3531    1.5824 C   0  0  0  0  0  0  0  0  0  0  0  0
    3.4136    1.5956    0.9931 H   0  0  0  0  0  0  0  0  0  0  0  0
    3.7844    3.3068    2.4230 H   0  0  0  0  0  0  0  0  0  0  0  0
    1.0191    4.2091    1.4180 H   0  0  0  0  0  0  0  0  0  0  0  0
    2.2166    5.2580    2.1866 H   0  0  0  0  0  0  0  0  0  0  0  0
    2.5583    4.5287    0.6064 H   0  0  0  0  0  0  0  0  0  0  0  0
    2.4838    3.7365    4.5980 N   0  0  0  0  0  0  0  0  0  0  0  0
    1.9867    3.6888    5.9533 C   0  0  0  0  0  0  0  0  0  0  0  0
    3.2152    4.4083    4.3848 H   0  0  0  0  0  0  0  0  0  0  0  0
    1.1410    4.3842    6.0589 H   0  0  0  0  0  0  0  0  0  0  0  0
    1.6522    2.6669    6.1852 H   0  0  0  0  0  0  0  0  0  0  0  0
    2.7887    3.9787    6.6482 H   0  0  0  0  0  0  0  0  0  0  0  0
  1  3  1  0  0  0  0
  1  7  1  0  0  0  0
  1  2  2  0  0  0  0
 22 23  1  0  0  0  0
 23 25  1  0  0  0  0
 23 24  2  0  0  0  0
 35 36  1  0  0  0  0
 36 44  1  0  0  0  0
 36 37  2  0  0  0  0
  8  9  1  0  0  0  0
  9 17  1  0  0  0  0
  9 10  2  0  0  0  0
 18 19  1  0  0  0  0
 19 34  1  0  0  0  0
 19 20  2  0  0  0  0
 35 38  1  0  0  0  0
  8 11  1  0  0  0  0
 44 45  1  0  0  0  0
 21 22  1  0  0  0  0
 18 21  1  0  0  0  0
 34 35  1  0  0  0  0
  7  8  1  0  0  0  0
 17 18  1  0  0  0  0
  3  4  1  0  0  0  0
  3  5  1  0  0  0  0
  3  6  1  0  0  0  0
 38 41  1  0  0  0  0
 38 42  1  0  0  0  0
 38 43  1  0  0  0  0
 11 14  1  0  0  0  0
 11 15  1  0  0  0  0
 11 16  1  0  0  0  0
 45 47  1  0  0  0  0
 45 48  1  0  0  0  0
 45 49  1  0  0  0  0
 22 30  1  0  0  0  0
 22 31  1  0  0  0  0
 21 28  1  0  0  0  0
 21 29  1  0  0  0  0
 35 40  1  0  0  0  0
  8 13  1  0  0  0  0
 18 27  1  0  0  0  0
 25 32  1  0  0  0  0
 25 33  1  0  0  0  0
 44 46  1  0  0  0  0
  7 12  1  0  0  0  0
 34 39  1  0  0  0  0
 17 26  1  0  0  0  0
M  END
$$$$

  -OEChem-05262214473D

 49 48  0     1  0  0  0  0  0999 V2000
   -1.9833   -0.0509   -3.3423 C   0  0  0  0  0  0  0  0  0  0  0  0
   -1.6199   -1.0613   -2.7518 O   0  0  0  0  0  0  0  0  0  0  0  0
   -3.3243   -0.0235   -3.9975 C   0  0  0  0  0  0  0  0  0  0  0  0
   -3.2886   -0.3689   -5.0432 H   0  0  0  0  0  0  0  0  0  0  0  0
   -4.0503   -0.6845   -3.4973 H   0  0  0  0  0  0  0  0  0  0  0  0
   -3.8104    0.9645   -4.0351 H   0  0  0  0  0  0  0  0  0  0  0  0
   -1.2607    1.1231   -3.4768 N   0  0  0  0  0  0  0  0  0  0  0  0
    0.0536    1.3115   -2.9213 C   0  0  2  0  0  0  0  0  0  0  0  0
    0.0266    0.8315   -1.4761 C   0  0  0  0  0  0  0  0  0  0  0  0
   -1.0065    0.7530   -0.8146 O   0  0  0  0  0  0  0  0  0  0  0  0
    0.4852    2.7674   -3.0025 C   0  0  0  0  0  0  0  0  0  0  0  0
   -1.6809    1.8924   -3.9952 H   0  0  0  0  0  0  0  0  0  0  0  0
    0.7360    0.6822   -3.5030 H   0  0  0  0  0  0  0  0  0  0  0  0
   -0.1867    3.4133   -2.4256 H   0  0  0  0  0  0  0  0  0  0  0  0
    1.4966    2.9042   -2.6056 H   0  0  0  0  0  0  0  0  0  0  0  0
    0.4754    3.1196   -4.0397 H   0  0  0  0  0  0  0  0  0  0  0  0
    1.2978    0.5411   -0.9947 N   0  0  0  0  0  0  0  0  0  0  0  0
    1.5371    0.0807    0.3489 C   0  0  2  0  0  0  0  0  0  0  0  0
    1.3834    1.2839    1.2727 C   0  0  0  0  0  0  0  0  0  0  0  0
    0.3834    1.4749    1.9614 O   0  0  0  0  0  0  0  0  0  0  0  0
    2.9308   -0.5399    0.5088 C   0  0  0  0  0  0  0  0  0  0  0  0
    3.1080   -1.8456   -0.2686 C   0  0  0  0  0  0  0  0  0  0  0  0
    4.4935   -2.4491   -0.1315 C   0  0  0  0  0  0  0  0  0  0  0  0
    5.4172   -1.9160    0.4763 O   0  0  0  0  0  0  0  0  0  0  0  0
    4.6074   -3.6549   -0.7897 N   0  0  0  0  0  0  0  0  0  0  0  0
    2.0949    0.6178   -1.6227 H   0  0  0  0  0  0  0  0  0  0  0  0
    0.7503   -0.6464    0.5765 H   0  0  0  0  0  0  0  0  0  0  0  0
    3.6866    0.1762    0.1593 H   0  0  0  0  0  0  0  0  0  0  0  0
    3.1449   -0.7147    1.5707 H   0  0  0  0  0  0  0  0  0  0  0  0
    2.9524   -1.6443   -1.3357 H   0  0  0  0  0  0  0  0  0  0  0  0
    2.3586   -2.5848    0.0357 H   0  0  0  0  0  0  0  0  0  0  0  0
    3.8005   -4.0201   -1.2845 H   0  0  0  0  0  0  0  0  0  0  0  0
    5.4695   -4.1905   -0.7971 H   0  0  0  0  0  0  0  0  0  0  0  0
    2.4727    2.1405    1.1963 N   0  0  0  0  0  0  0  0  0  0  0  0
    2.5717    3.3676    1.9533 C   0  0  2  0  0  0  0  0  0  0  0  0
    2.2352    3.0531    3.4050 C   0  0  0  0  0  0  0  0  0  0  0  0
    1.5707    2.0756    3.7429 O   0  0  0  0  0  0  0  0  0  0  0  0
    1.6423    4.4362    1.3992 C   0  0  0  0  0  0  0  0  0  0  0  0
    3.2389    1.8926    0.5772 H   0  0  0  0  0  0  0  0  0  0  0  0
    3.6133    3.6996    1.8829 H   0  0  0  0  0  0  0  0  0  0  0  0
    0.5941    4.1215    1.4613 H   0  0  0  0  0  0  0  0  0  0  0  0
    1.7393    5.3740    1.9560 H   0  0  0  0  0  0  0  0  0  0  0  0
    1.8663    4.6398    0.3465 H   0  0  0  0  0  0  0  0  0  0  0  0
    2.7276    4.0155    4.2752 N   0  0  0  0  0  0  0  0  0  0  0  0
    2.5290    3.9493    5.7043 C   0  0  0  0  0  0  0  0  0  0  0  0
    3.2842    4.7823    3.9091 H   0  0  0  0  0  0  0  0  0  0  0  0
    1.6222    4.5099    5.9753 H   0  0  0  0  0  0  0  0  0  0  0  0
    2.4156    2.8988    6.0103 H   0  0  0  0  0  0  0  0  0  0  0  0
    3.3981    4.3885    6.2159 H   0  0  0  0  0  0  0  0  0  0  0  0
  1  3  1  0  0  0  0
  1  7  1  0  0  0  0
  1  2  2  0  0  0  0
 22 23  1  0  0  0  0
 23 25  1  0  0  0  0
 23 24  2  0  0  0  0
 35 36  1  0  0  0  0
 36 44  1  0  0  0  0
 36 37  2  0  0  0  0
  8  9  1  0  0  0  0
  9 17  1  0  0  0  0
  9 10  2  0  0  0  0
 18 19  1  0  0  0  0
 19 34  1  0  0  0  0
 19 20  2  0  0  0  0
 35 38  1  0  0  0  0
  8 11  1  0  0  0  0
 44 45  1  0  0  0  0
 21 22  1  0  0  0  0
 18 21  1  0  0  0  0
 34 35  1  0  0  0  0
  7  8  1  0  0  0  0
 17 18  1  0  0  0  0
  3  4  1  0  0  0  0
  3  5  1  0  0  0  0
  3  6  1  0  0  0  0
 38 41  1  0  0  0  0
 38 42  1  0  0  0  0
 38 43  1  0  0  0  0
 11 14  1  0  0  0  0
 11 15  1  0  0  0  0
 11 16  1  0  0  0  0
 45 47  1  0  0  0  0
 45 48  1  0  0  0  0
 45 49  1  0  0  0  0
 22 30  1  0  0  0  0
 22 31  1  0  0  0  0
 21 28  1  0  0  0  0
 21 29  1  0  0  0  0
 35 40  1  0  0  0  0
  8 13  1  0  0  0  0
 18 27  1  0  0  0  0
 25 32  1  0  0  0  0
 25 33  1  0  0  0  0
 44 46  1  0  0  0  0
  7 12  1  0  0  0  0
 34 39  1  0  0  0  0
 17 26  1  0  0  0  0
M  END
$$$$

  -OEChem-05262214473D

 49 48  0     1  0  0  0  0  0999 V2000
   -1.9833   -0.0509   -3.3423 C   0  0  0  0  0  0  0  0  0  0  0  0
   -1.6199   -1.0613   -2.7518 O   0  0  0  0  0  0  0  0  0  0  0  0
   -3.3243   -0.0235   -3.9975 C   0  0  0  0  0  0  0  0  0  0  0  0
   -3.2886   -0.3689   -5.0432 H   0  0  0  0  0  0  0  0  0  0  0  0
   -4.0503   -0.6845   -3.4973 H   0  0  0  0  0  0  0  0  0  0  0  0
   -3.8104    0.9645   -4.0351 H   0  0  0  0  0  0  0  0  0  0  0  0
   -1.2607    1.1231   -3.4768 N   0  0  0  0  0  0  0  0  0  0  0  0
    0.0536    1.3115   -2.9213 C   0  0  2  0  0  0  0  0  0  0  0  0
    0.0266    0.8315   -1.4761 C   0  0  0  0  0  0  0  0  0  0  0  0
   -1.0065    0.7530   -0.8146 O   0  0  0  0  0  0  0  0  0  0  0  0
    0.4852    2.7674   -3.0025 C   0  0  0  0  0  0  0  0  0  0  0  0
   -1.6809    1.8924   -3.9952 H   0  0  0  0  0  0  0  0  0  0  0  0
    0.7360    0.6822   -3.5030 H   0  0  0  0  0  0  0  0  0  0  0  0
   -0.1867    3.4133   -2.4256 H   0  0  0  0  0  0  0  0  0  0  0  0
    1.4966    2.9042   -2.6056 H   0  0  0  0  0  0  0  0  0  0  0  0
    0.4754    3.1196   -4.0397 H   0  0  0  0  0  0  0  0  0  0  0  0
    1.2978    0.5411   -0.9947 N   0  0  0  0  0  0  0  0  0  0  0  0
    1.5371    0.0807    0.3489 C   0  0  2  0  0  0  0  0  0  0  0  0
    1.3834    1.2839    1.2727 C   0  0  0  0  0  0  0  0  0  0  0  0
    0.5258    1.3475    2.1510 O   0  0  0  0  0  0  0  0  0  0  0  0
    2.9308   -0.5399    0.5088 C   0  0  0  0  0  0  0  0  0  0  0  0
    3.1080   -1.8456   -0.2686 C   0  0  0  0  0  0  0  0  0  0  0  0
    4.4935   -2.4491   -0.1315 C   0  0  0  0  0  0  0  0  0  0  0  0
    5.4172   -1.9160    0.4763 O   0  0  0  0  0  0  0  0  0  0  0  0
    4.6074   -3.6549   -0.7897 N   0  0  0  0  0  0  0  0  0  0  0  0
    2.0949    0.6178   -1.6227 H   0  0  0  0  0  0  0  0  0  0  0  0
    0.7503   -0.6464    0.5765 H   0  0  0  0  0  0  0  0  0  0  0  0
    3.6866    0.1762    0.1593 H   0  0  0  0  0  0  0  0  0  0  0  0
    3.1449   -0.7147    1.5707 H   0  0  0  0  0  0  0  0  0  0  0  0
    2.9524   -1.6443   -1.3357 H   0  0  0  0  0  0  0  0  0  0  0  0
    2.3586   -2.5848    0.0357 H   0  0  0  0  0  0  0  0  0  0  0  0
    3.8005   -4.0201   -1.2845 H   0  0  0  0  0  0  0  0  0  0  0  0
    5.4695   -4.1905   -0.7971 H   0  0  0  0  0  0  0  0  0  0  0  0
    2.2839    2.2942    0.9648 N   0  0  0  0  0  0  0  0  0  0  0  0
    2.3368    3.5528    1.6731 C   0  0  2  0  0  0  0  0  0  0  0  0
    2.3553    3.2520    3.1659 C   0  0  0  0  0  0  0  0  0  0  0  0
    1.9375    2.1990    3.6432 O   0  0  0  0  0  0  0  0  0  0  0  0
    1.1562    4.4409    1.3122 C   0  0  0  0  0  0  0  0  0  0  0  0
    2.9386    2.1412    0.2034 H   0  0  0  0  0  0  0  0  0  0  0  0
    3.2761    4.0380    1.3860 H   0  0  0  0  0  0  0  0  0  0  0  0
    0.2062    3.9714    1.5923 H   0  0  0  0  0  0  0  0  0  0  0  0
    1.2129    5.4052    1.8277 H   0  0  0  0  0  0  0  0  0  0  0  0
    1.1274    4.6318    0.2340 H   0  0  0  0  0  0  0  0  0  0  0  0
    2.8535    4.3148    3.9064 N   0  0  0  0  0  0  0  0  0  0  0  0
    2.9610    4.2794    5.3462 C   0  0  0  0  0  0  0  0  0  0  0  0
    3.1950    5.1420    3.4258 H   0  0  0  0  0  0  0  0  0  0  0  0
    2.0502    4.7046    5.7930 H   0  0  0  0  0  0  0  0  0  0  0  0
    3.0809    3.2379    5.6793 H   0  0  0  0  0  0  0  0  0  0  0  0
    3.8342    4.8686    5.6632 H   0  0  0  0  0  0  0  0  0  0  0  0
  1  3  1  0  0  0  0
  1  7  1  0  0  0  0
  1  2  2  0  0  0  0
 22 23  1  0  0  0  0
 23 25  1  0  0  0  0
 23 24  2  0  0  0  0
 35 36  1  0  0  0  0
 36 44  1  0  0  0  0
 36 37  2  0  0  0  0
  8  9  1  0  0  0  0
  9 17  1  0  0  0  0
  9 10  2  0  0  0  0
 18 19  1  0  0  0  0
 19 34  1  0  0  0  0
 19 20  2  0  0  0  0
 35 38  1  0  0  0  0
  8 11  1  0  0  0  0
 44 45  1  0  0  0  0
 21 22  1  0  0  0  0
 18 21  1  0  0  0  0
 34 35  1  0  0  0  0
  7  8  1  0  0  0  0
 17 18  1  0  0  0  0
  3  4  1  0  0  0  0
  3  5  1  0  0  0  0
  3  6  1  0  0  0  0
 38 41  1  0  0  0  0
 38 42  1  0  0  0  0
 38 43  1  0  0  0  0
 11 14  1  0  0  0  0
 11 15  1  0  0  0  0
 11 16  1  0  0  0  0
 45 47  1  0  0  0  0
 45 48  1  0  0  0  0
 45 49  1  0  0  0  0
 22 30  1  0  0  0  0
 22 31  1  0  0  0  0
 21 28  1  0  0  0  0
 21 29  1  0  0  0  0
 35 40  1  0  0  0  0
  8 13  1  0  0  0  0
 18 27  1  0  0  0  0
 25 32  1  0  0  0  0
 25 33  1  0  0  0  0
 44 46  1  0  0  0  0
  7 12  1  0  0  0  0
 34 39  1  0  0  0  0
 17 26  1  0  0  0  0
M  END
$$$$

  -OEChem-05262214473D

 49 48  0     1  0  0  0  0  0999 V2000
   -1.9833   -0.0509   -3.3423 C   0  0  0  0  0  0  0  0  0  0  0  0
   -1.6199   -1.0613   -2.7518 O   0  0  0  0  0  0  0  0  0  0  0  0
   -3.3243   -0.0235   -3.9975 C   0  0  0  0  0  0  0  0  0  0  0  0
   -3.2886   -0.3689   -5.0432 H   0  0  0  0  0  0  0  0  0  0  0  0
   -4.0503   -0.6845   -3.4973 H   0  0  0  0  0  0  0  0  0  0  0  0
   -3.8104    0.9645   -4.0351 H   0  0  0  0  0  0  0  0  0  0  0  0
   -1.2607    1.1231   -3.4768 N   0  0  0  0  0  0  0  0  0  0  0  0
    0.0536    1.3115   -2.9213 C   0  0  2  0  0  0  0  0  0  0  0  0
    0.0266    0.8315   -1.4761 C   0  0  0  0  0  0  0  0  0  0  0  0
   -1.0065    0.7530   -0.8146 O   0  0  0  0  0  0  0  0  0  0  0  0
    0.4852    2.7674   -3.0025 C   0  0  0  0  0  0  0  0  0  0  0  0
   -1.6809    1.8924   -3.9952 H   0  0  0  0  0  0  0  0  0  0  0  0
    0.7360    0.6822   -3.5030 H   0  0  0  0  0  0  0  0  0  0  0  0
   -0.1867    3.4133   -2.4256 H   0  0  0  0  0  0  0  0  0  0  0  0
    1.4966    2.9042   -2.6056 H   0  0  0  0  0  0  0  0  0  0  0  0
    0.4754    3.1196   -4.0397 H   0  0  0  0  0  0  0  0  0  0  0  0
    1.2978    0.5411   -0.9947 N   0  0  0  0  0  0  0  0  0  0  0  0
    1.5371    0.0807    0.3489 C   0  0  2  0  0  0  0  0  0  0  0  0
    1.3834    1.2839    1.2727 C   0  0  0  0  0  0  0  0  0  0  0  0
    0.7222    1.2518    2.3084 O   0  0  0  0  0  0  0  0  0  0  0  0
    2.9308   -0.5399    0.5088 C   0  0  0  0  0  0  0  0  0  0  0  0
    3.1080   -1.8456   -0.2686 C   0  0  0  0  0  0  0  0  0  0  0  0
    4.4935   -2.4491   -0.1315 C   0  0  0  0  0  0  0  0  0  0  0  0
    5.4172   -1.9160    0.4763 O   0  0  0  0  0  0  0  0  0  0  0  0
    4.6074   -3.6549   -0.7897 N   0  0  0  0  0  0  0  0  0  0  0  0
    2.0949    0.6178   -1.6227 H   0  0  0  0  0  0  0  0  0  0  0  0
    0.7503   -0.6464    0.5765 H   0  0  0  0  0  0  0  0  0  0  0  0
    3.6866    0.1762    0.1593 H   0  0  0  0  0  0  0  0  0  0  0  0
    3.1449   -0.7147    1.5707 H   0  0  0  0  0  0  0  0  0  0  0  0
    2.9524   -1.6443   -1.3357 H   0  0  0  0  0  0  0  0  0  0  0  0
    2.3586   -2.5848    0.0357 H   0  0  0  0  0  0  0  0  0  0  0  0
    3.8005   -4.0201   -1.2845 H   0  0  0  0  0  0  0  0  0  0  0  0
    5.4695   -4.1905   -0.7971 H   0  0  0  0  0  0  0  0  0  0  0  0
    2.0301    2.4069    0.7757 N   0  0  0  0  0  0  0  0  0  0  0  0
    2.0236    3.6875    1.4455 C   0  0  2  0  0  0  0  0  0  0  0  0
    2.3913    3.4567    2.9053 C   0  0  0  0  0  0  0  0  0  0  0  0
    2.2520    2.3731    3.4688 O   0  0  0  0  0  0  0  0  0  0  0  0
    0.6682    4.3670    1.3272 C   0  0  0  0  0  0  0  0  0  0  0  0
    2.5332    2.3245   -0.1028 H   0  0  0  0  0  0  0  0  0  0  0  0
    2.7958    4.2991    0.9661 H   0  0  0  0  0  0  0  0  0  0  0  0
   -0.1182    3.7689    1.8019 H   0  0  0  0  0  0  0  0  0  0  0  0
    0.6734    5.3495    1.8105 H   0  0  0  0  0  0  0  0  0  0  0  0
    0.3920    4.5053    0.2764 H   0  0  0  0  0  0  0  0  0  0  0  0
    2.8529    4.6141    3.5165 N   0  0  0  0  0  0  0  0  0  0  0  0
    3.2535    4.6567    4.9035 C   0  0  0  0  0  0  0  0  0  0  0  0
    2.9537    5.4629    2.9678 H   0  0  0  0  0  0  0  0  0  0  0  0
    2.3958    4.9549    5.5244 H   0  0  0  0  0  0  0  0  0  0  0  0
    3.6028    3.6612    5.2149 H   0  0  0  0  0  0  0  0  0  0  0  0
    4.0673    5.3863    5.0277 H   0  0  0  0  0  0  0  0  0  0  0  0
  1  3  1  0  0  0  0
  1  7  1  0  0  0  0
  1  2  2  0  0  0  0
 22 23  1  0  0  0  0
 23 25  1  0  0  0  0
 23 24  2  0  0  0  0
 35 36  1  0  0  0  0
 36 44  1  0  0  0  0
 36 37  2  0  0  0  0
  8  9  1  0  0  0  0
  9 17  1  0  0  0  0
  9 10  2  0  0  0  0
 18 19  1  0  0  0  0
 19 34  1  0  0  0  0
 19 20  2  0  0  0  0
 35 38  1  0  0  0  0
  8 11  1  0  0  0  0
 44 45  1  0  0  0  0
 21 22  1  0  0  0  0
 18 21  1  0  0  0  0
 34 35  1  0  0  0  0
  7  8  1  0  0  0  0
 17 18  1  0  0  0  0
  3  4  1  0  0  0  0
  3  5  1  0  0  0  0
  3  6  1  0  0  0  0
 38 41  1  0  0  0  0
 38 42  1  0  0  0  0
 38 43  1  0  0  0  0
 11 14  1  0  0  0  0
 11 15  1  0  0  0  0
 11 16  1  0  0  0  0
 45 47  1  0  0  0  0
 45 48  1  0  0  0  0
 45 49  1  0  0  0  0
 22 30  1  0  0  0  0
 22 31  1  0  0  0  0
 21 28  1  0  0  0  0
 21 29  1  0  0  0  0
 35 40  1  0  0  0  0
  8 13  1  0  0  0  0
 18 27  1  0  0  0  0
 25 32  1  0  0  0  0
 25 33  1  0  0  0  0
 44 46  1  0  0  0  0
  7 12  1  0  0  0  0
 34 39  1  0  0  0  0
 17 26  1  0  0  0  0
M  END
$$$$

  -OEChem-05262214473D

 49 48  0     1  0  0  0  0  0999 V2000
   -1.9833   -0.0509   -3.3423 C   0  0  0  0  0  0  0  0  0  0  0  0
   -1.6199   -1.0613   -2.7518 O   0  0  0  0  0  0  0  0  0  0  0  0
   -3.3243   -0.0235   -3.9975 C   0  0  0  0  0  0  0  0  0  0  0  0
   -3.2886   -0.3689   -5.0432 H   0  0  0  0  0  0  0  0  0  0  0  0
   -4.0503   -0.6845   -3.4973 H   0  0  0  0  0  0  0  0  0  0  0  0
   -3.8104    0.9645   -4.0351 H   0  0  0  0  0  0  0  0  0  0  0  0
   -1.2607    1.1231   -3.4768 N   0  0  0  0  0  0  0  0  0  0  0  0
    0.0536    1.3115   -2.9213 C   0  0  2  0  0  0  0  0  0  0  0  0
    0.0266    0.8315   -1.4761 C   0  0  0  0  0  0  0  0  0  0  0  0
   -1.0065    0.7530   -0.8146 O   0  0  0  0  0  0  0  0  0  0  0  0
    0.4852    2.7674   -3.0025 C   0  0  0  0  0  0  0  0  0  0  0  0
   -1.6809    1.8924   -3.9952 H   0  0  0  0  0  0  0  0  0  0  0  0
    0.7360    0.6822   -3.5030 H   0  0  0  0  0  0  0  0  0  0  0  0
   -0.1867    3.4133   -2.4256 H   0  0  0  0  0  0  0  0  0  0  0  0
    1.4966    2.9042   -2.6056 H   0  0  0  0  0  0  0  0  0  0  0  0
    0.4754    3.1196   -4.0397 H   0  0  0  0  0  0  0  0  0  0  0  0
    1.2978    0.5411   -0.9947 N   0  0  0  0  0  0  0  0  0  0  0  0
    1.5371    0.0807    0.3489 C   0  0  2  0  0  0  0  0  0  0  0  0
    1.3834    1.2839    1.2727 C   0  0  0  0  0  0  0  0  0  0  0  0
    0.9590    1.1942    2.4228 O   0  0  0  0  0  0  0  0  0  0  0  0
    2.9308   -0.5399    0.5088 C   0  0  0  0  0  0  0  0  0  0  0  0
    3.1080   -1.8456   -0.2686 C   0  0  0  0  0  0  0  0  0  0  0  0
    4.4935   -2.4491   -0.1315 C   0  0  0  0  0  0  0  0  0  0  0  0
    5.4172   -1.9160    0.4763 O   0  0  0  0  0  0  0  0  0  0  0  0
    4.6074   -3.6549   -0.7897 N   0  0  0  0  0  0  0  0  0  0  0  0
    2.0949    0.6178   -1.6227 H   0  0  0  0  0  0  0  0  0  0  0  0
    0.7503   -0.6464    0.5765 H   0  0  0  0  0  0  0  0  0  0  0  0
    3.6866    0.1762    0.1593 H   0  0  0  0  0  0  0  0  0  0  0  0
    3.1449   -0.7147    1.5707 H   0  0  0  0  0  0  0  0  0  0  0  0
    2.9524   -1.6443   -1.3357 H   0  0  0  0  0  0  0  0  0  0  0  0
    2.3586   -2.5848    0.0357 H   0  0  0  0  0  0  0  0  0  0  0  0
    3.8005   -4.0201   -1.2845 H   0  0  0  0  0  0  0  0  0  0  0  0
    5.4695   -4.1905   -0.7971 H   0  0  0  0  0  0  0  0  0  0  0  0
    1.7287    2.4710    0.6420 N   0  0  0  0  0  0  0  0  0  0  0  0
    1.6535    3.7626    1.2861 C   0  0  2  0  0  0  0  0  0  0  0  0
    2.3408    3.6533    2.6408 C   0  0  0  0  0  0  0  0  0  0  0  0
    2.4929    2.5861    3.2316 O   0  0  0  0  0  0  0  0  0  0  0  0
    0.2116    4.2194    1.4434 C   0  0  0  0  0  0  0  0  0  0  0  0
    2.0503    2.4300   -0.3206 H   0  0  0  0  0  0  0  0  0  0  0  0
    2.2052    4.4650    0.6517 H   0  0  0  0  0  0  0  0  0  0  0  0
   -0.3570    3.5280    2.0760 H   0  0  0  0  0  0  0  0  0  0  0  0
    0.1575    5.2107    1.9056 H   0  0  0  0  0  0  0  0  0  0  0  0
   -0.2899    4.2689    0.4708 H   0  0  0  0  0  0  0  0  0  0  0  0
    2.7257    4.8928    3.1323 N   0  0  0  0  0  0  0  0  0  0  0  0
    3.3864    5.0554    4.4063 C   0  0  0  0  0  0  0  0  0  0  0  0
    2.5767    5.7230    2.5663 H   0  0  0  0  0  0  0  0  0  0  0  0
    2.6356    5.2440    5.1878 H   0  0  0  0  0  0  0  0  0  0  0  0
    3.9457    4.1397    4.6486 H   0  0  0  0  0  0  0  0  0  0  0  0
    4.0814    5.9063    4.3528 H   0  0  0  0  0  0  0  0  0  0  0  0
  1  3  1  0  0  0  0
  1  7  1  0  0  0  0
  1  2  2  0  0  0  0
 22 23  1  0  0  0  0
 23 25  1  0  0  0  0
 23 24  2  0  0  0  0
 35 36  1  0  0  0  0
 36 44  1  0  0  0  0
 36 37  2  0  0  0  0
  8  9  1  0  0  0  0
  9 17  1  0  0  0  0
  9 10  2  0  0  0  0
 18 19  1  0  0  0  0
 19 34  1  0  0  0  0
 19 20  2  0  0  0  0
 35 38  1  0  0  0  0
  8 11  1  0  0  0  0
 44 45  1  0  0  0  0
 21 22  1  0  0  0  0
 18 21  1  0  0  0  0
 34 35  1  0  0  0  0
  7  8  1  0  0  0  0
 17 18  1  0  0  0  0
  3  4  1  0  0  0  0
  3  5  1  0  0  0  0
  3  6  1  0  0  0  0
 38 41  1  0  0  0  0
 38 42  1  0  0  0  0
 38 43  1  0  0  0  0
 11 14  1  0  0  0  0
 11 15  1  0  0  0  0
 11 16  1  0  0  0  0
 45 47  1  0  0  0  0
 45 48  1  0  0  0  0
 45 49  1  0  0  0  0
 22 30  1  0  0  0  0
 22 31  1  0  0  0  0
 21 28  1  0  0  0  0
 21 29  1  0  0  0  0
 35 40  1  0  0  0  0
  8 13  1  0  0  0  0
 18 27  1  0  0  0  0
 25 32  1  0  0  0  0
 25 33  1  0  0  0  0
 44 46  1  0  0  0  0
  7 12  1  0  0  0  0
 34 39  1  0  0  0  0
 17 26  1  0  0  0  0
M  END
$$$$

  -OEChem-05262214473D

 49 48  0     1  0  0  0  0  0999 V2000
   -1.9833   -0.0509   -3.3423 C   0  0  0  0  0  0  0  0  0  0  0  0
   -1.6199   -1.0613   -2.7518 O   0  0  0  0  0  0  0  0  0  0  0  0
   -3.3243   -0.0235   -3.9975 C   0  0  0  0  0  0  0  0  0  0  0  0
   -3.2886   -0.3689   -5.0432 H   0  0  0  0  0  0  0  0  0  0  0  0
   -4.0503   -0.6845   -3.4973 H   0  0  0  0  0  0  0  0  0  0  0  0
   -3.8104    0.9645   -4.0351 H   0  0  0  0  0  0  0  0  0  0  0  0
   -1.2607    1.1231   -3.4768 N   0  0  0  0  0  0  0  0  0  0  0  0
    0.0536    1.3115   -2.9213 C   0  0  2  0  0  0  0  0  0  0  0  0
    0.0266    0.8315   -1.4761 C   0  0  0  0  0  0  0  0  0  0  0  0
   -1.0065    0.7530   -0.8146 O   0  0  0  0  0  0  0  0  0  0  0  0
    0.4852    2.7674   -3.0025 C   0  0  0  0  0  0  0  0  0  0  0  0
   -1.6809    1.8924   -3.9952 H   0  0  0  0  0  0  0  0  0  0  0  0
    0.7360    0.6822   -3.5030 H   0  0  0  0  0  0  0  0  0  0  0  0
   -0.1867    3.4133   -2.4256 H   0  0  0  0  0  0  0  0  0  0  0  0
    1.4966    2.9042   -2.6056 H   0  0  0  0  0  0  0  0  0  0  0  0
    0.4754    3.1196   -4.0397 H   0  0  0  0  0  0  0  0  0  0  0  0
    1.2978    0.5411   -0.9947 N   0  0  0  0  0  0  0  0  0  0  0  0
    1.5371    0.0807    0.3489 C   0  0  2  0  0  0  0  0  0  0  0  0
    1.3834    1.2839    1.2727 C   0  0  0  0  0  0  0  0  0  0  0  0
    1.2201    1.1787    2.4864 O   0  0  0  0  0  0  0  0  0  0  0  0
    2.9308   -0.5399    0.5088 C   0  0  0  0  0  0  0  0  0  0  0  0
    3.1080   -1.8456   -0.2686 C   0  0  0  0  0  0  0  0  0  0  0  0
    4.4935   -2.4491   -0.1315 C   0  0  0  0  0  0  0  0  0  0  0  0
    5.4172   -1.9160    0.4763 O   0  0  0  0  0  0  0  0  0  0  0  0
    4.6074   -3.6549   -0.7897 N   0  0  0  0  0  0  0  0  0  0  0  0
    2.0949    0.6178   -1.6227 H   0  0  0  0  0  0  0  0  0  0  0  0
    0.7503   -0.6464    0.5765 H   0  0  0  0  0  0  0  0  0  0  0  0
    3.6866    0.1762    0.1593 H   0  0  0  0  0  0  0  0  0  0  0  0
    3.1449   -0.7147    1.5707 H   0  0  0  0  0  0  0  0  0  0  0  0
    2.9524   -1.6443   -1.3357 H   0  0  0  0  0  0  0  0  0  0  0  0
    2.3586   -2.5848    0.0357 H   0  0  0  0  0  0  0  0  0  0  0  0
    3.8005   -4.0201   -1.2845 H   0  0  0  0  0  0  0  0  0  0  0  0
    5.4695   -4.1905   -0.7971 H   0  0  0  0  0  0  0  0  0  0  0  0
    1.4001    2.4823    0.5727 N   0  0  0  0  0  0  0  0  0  0  0  0
    1.2517    3.7730    1.2058 C   0  0  2  0  0  0  0  0  0  0  0  0
    2.2071    3.8283    2.3905 C   0  0  0  0  0  0  0  0  0  0  0  0
    2.6438    2.8234    2.9476 O   0  0  0  0  0  0  0  0  0  0  0  0
   -0.1827    4.0084    1.6527 C   0  0  0  0  0  0  0  0  0  0  0  0
    1.5229    2.4505   -0.4351 H   0  0  0  0  0  0  0  0  0  0  0  0
    1.5444    4.5244    0.4644 H   0  0  0  0  0  0  0  0  0  0  0  0
   -0.4939    3.2650    2.3957 H   0  0  0  0  0  0  0  0  0  0  0  0
   -0.2996    4.9981    2.1064 H   0  0  0  0  0  0  0  0  0  0  0  0
   -0.8718    3.9386    0.8041 H   0  0  0  0  0  0  0  0  0  0  0  0
    2.4806    5.1321    2.7799 N   0  0  0  0  0  0  0  0  0  0  0  0
    3.3506    5.4484    3.8885 C   0  0  0  0  0  0  0  0  0  0  0  0
    2.0899    5.9046    2.2486 H   0  0  0  0  0  0  0  0  0  0  0  0
    2.7531    5.5520    4.8062 H   0  0  0  0  0  0  0  0  0  0  0  0
    4.0862    4.6410    4.0192 H   0  0  0  0  0  0  0  0  0  0  0  0
    3.8757    6.3932    3.6844 H   0  0  0  0  0  0  0  0  0  0  0  0
  1  3  1  0  0  0  0
  1  7  1  0  0  0  0
  1  2  2  0  0  0  0
 22 23  1  0  0  0  0
 23 25  1  0  0  0  0
 23 24  2  0  0  0  0
 35 36  1  0  0  0  0
 36 44  1  0  0  0  0
 36 37  2  0  0  0  0
  8  9  1  0  0  0  0
  9 17  1  0  0  0  0
  9 10  2  0  0  0  0
 18 19  1  0  0  0  0
 19 34  1  0  0  0  0
 19 20  2  0  0  0  0
 35 38  1  0  0  0  0
  8 11  1  0  0  0  0
 44 45  1  0  0  0  0
 21 22  1  0  0  0  0
 18 21  1  0  0  0  0
 34 35  1  0  0  0  0
  7  8  1  0  0  0  0
 17 18  1  0  0  0  0
  3  4  1  0  0  0  0
  3  5  1  0  0  0  0
  3  6  1  0  0  0  0
 38 41  1  0  0  0  0
 38 42  1  0  0  0  0
 38 43  1  0  0  0  0
 11 14  1  0  0  0  0
 11 15  1  0  0  0  0
 11 16  1  0  0  0  0
 45 47  1  0  0  0  0
 45 48  1  0  0  0  0
 45 49  1  0  0  0  0
 22 30  1  0  0  0  0
 22 31  1  0  0  0  0
 21 28  1  0  0  0  0
 21 29  1  0  0  0  0
 35 40  1  0  0  0  0
  8 13  1  0  0  0  0
 18 27  1  0  0  0  0
 25 32  1  0  0  0  0
 25 33  1  0  0  0  0
 44 46  1  0  0  0  0
  7 12  1  0  0  0  0
 34 39  1  0  0  0  0
 17 26  1  0  0  0  0
M  END
$$$$

  -OEChem-05262214473D

 49 48  0     1  0  0  0  0  0999 V2000
   -1.9833   -0.0509   -3.3423 C   0  0  0  0  0  0  0  0  0  0  0  0
   -1.6199   -1.0613   -2.7518 O   0  0  0  0  0  0  0  0  0  0  0  0
   -3.3243   -0.0235   -3.9975 C   0  0  0  0  0  0  0  0  0  0  0  0
   -3.2886   -0.3689   -5.0432 H   0  0  0  0  0  0  0  0  0  0  0  0
   -4.0503   -0.6845   -3.4973 H   0  0  0  0  0  0  0  0  0  0  0  0
   -3.8104    0.9645   -4.0351 H   0  0  0  0  0  0  0  0  0  0  0  0
   -1.2607    1.1231   -3.4768 N   0  0  0  0  0  0  0  0  0  0  0  0
    0.0536    1.3115   -2.9213 C   0  0  2  0  0  0  0  0  0  0  0  0
    0.0266    0.8315   -1.4761 C   0  0  0  0  0  0  0  0  0  0  0  0
   -1.0065    0.7530   -0.8146 O   0  0  0  0  0  0  0  0  0  0  0  0
    0.4852    2.7674   -3.0025 C   0  0  0  0  0  0  0  0  0  0  0  0
   -1.6809    1.8924   -3.9952 H   0  0  0  0  0  0  0  0  0  0  0  0
    0.7360    0.6822   -3.5030 H   0  0  0  0  0  0  0  0  0  0  0  0
   -0.1867    3.4133   -2.4256 H   0  0  0  0  0  0  0  0  0  0  0  0
    1.4966    2.9042   -2.6056 H   0  0  0  0  0  0  0  0  0  0  0  0
    0.4754    3.1196   -4.0397 H   0  0  0  0  0  0  0  0  0  0  0  0
    1.2978    0.5411   -0.9947 N   0  0  0  0  0  0  0  0  0  0  0  0
    1.5371    0.0807    0.3489 C   0  0  2  0  0  0  0  0  0  0  0  0
    1.3834    1.2839    1.2727 C   0  0  0  0  0  0  0  0  0  0  0  0
    1.4878    1.2063    2.4950 O   0  0  0  0  0  0  0  0  0  0  0  0
    2.9308   -0.5399    0.5088 C   0  0  0  0  0  0  0  0  0  0  0  0
    3.1080   -1.8456   -0.2686 C   0  0  0  0  0  0  0  0  0  0  0  0
    4.4935   -2.4491   -0.1315 C   0  0  0  0  0  0  0  0  0  0  0  0
    5.4172   -1.9160    0.4763 O   0  0  0  0  0  0  0  0  0  0  0  0
    4.6074   -3.6549   -0.7897 N   0  0  0  0  0  0  0  0  0  0  0  0
    2.0949    0.6178   -1.6227 H   0  0  0  0  0  0  0  0  0  0  0  0
    0.7503   -0.6464    0.5765 H   0  0  0  0  0  0  0  0  0  0  0  0
    3.6866    0.1762    0.1593 H   0  0  0  0  0  0  0  0  0  0  0  0
    3.1449   -0.7147    1.5707 H   0  0  0  0  0  0  0  0  0  0  0  0
    2.9524   -1.6443   -1.3357 H   0  0  0  0  0  0  0  0  0  0  0  0
    2.3586   -2.5848    0.0357 H   0  0  0  0  0  0  0  0  0  0  0  0
    3.8005   -4.0201   -1.2845 H   0  0  0  0  0  0  0  0  0  0  0  0
    5.4695   -4.1905   -0.7971 H   0  0  0  0  0  0  0  0  0  0  0  0
    1.0669    2.4398    0.5726 N   0  0  0  0  0  0  0  0  0  0  0  0
    0.8455    3.7178    1.2100 C   0  0  2  0  0  0  0  0  0  0  0  0
    1.9994    3.9699    2.1715 C   0  0  0  0  0  0  0  0  0  0  0  0
    2.6943    3.0688    2.6364 O   0  0  0  0  0  0  0  0  0  0  0  0
   -0.4877    3.7481    1.9409 C   0  0  0  0  0  0  0  0  0  0  0  0
    0.9868    2.3847   -0.4384 H   0  0  0  0  0  0  0  0  0  0  0  0
    0.8587    4.4733    0.4168 H   0  0  0  0  0  0  0  0  0  0  0  0
   -0.5196    2.9979    2.7394 H   0  0  0  0  0  0  0  0  0  0  0  0
   -0.6668    4.7263    2.3992 H   0  0  0  0  0  0  0  0  0  0  0  0
   -1.3139    3.5371    1.2535 H   0  0  0  0  0  0  0  0  0  0  0  0
    2.1344    5.3156    2.4833 N   0  0  0  0  0  0  0  0  0  0  0  0
    3.1487    5.8089    3.3853 C   0  0  0  0  0  0  0  0  0  0  0  0
    1.5262    5.9955    2.0365 H   0  0  0  0  0  0  0  0  0  0  0  0
    2.7404    5.8580    4.4056 H   0  0  0  0  0  0  0  0  0  0  0  0
    4.0147    5.1307    3.3694 H   0  0  0  0  0  0  0  0  0  0  0  0
    3.4641    6.8138    3.0680 H   0  0  0  0  0  0  0  0  0  0  0  0
  1  3  1  0  0  0  0
  1  7  1  0  0  0  0
  1  2  2  0  0  0  0
 22 23  1  0  0  0  0
 23 25  1  0  0  0  0
 23 24  2  0  0  0  0
 35 36  1  0  0  0  0
 36 44  1  0  0  0  0
 36 37  2  0  0  0  0
  8  9  1  0  0  0  0
  9 17  1  0  0  0  0
  9 10  2  0  0  0  0
 18 19  1  0  0  0  0
 19 34  1  0  0  0  0
 19 20  2  0  0  0  0
 35 38  1  0  0  0  0
  8 11  1  0  0  0  0
 44 45  1  0  0  0  0
 21 22  1  0  0  0  0
 18 21  1  0  0  0  0
 34 35  1  0  0  0  0
  7  8  1  0  0  0  0
 17 18  1  0  0  0  0
  3  4  1  0  0  0  0
  3  5  1  0  0  0  0
  3  6  1  0  0  0  0
 38 41  1  0  0  0  0
 38 42  1  0  0  0  0
 38 43  1  0  0  0  0
 11 14  1  0  0  0  0
 11 15  1  0  0  0  0
 11 16  1  0  0  0  0
 45 47  1  0  0  0  0
 45 48  1  0  0  0  0
 45 49  1  0  0  0  0
 22 30  1  0  0  0  0
 22 31  1  0  0  0  0
 21 28  1  0  0  0  0
 21 29  1  0  0  0  0
 35 40  1  0  0  0  0
  8 13  1  0  0  0  0
 18 27  1  0  0  0  0
 25 32  1  0  0  0  0
 25 33  1  0  0  0  0
 44 46  1  0  0  0  0
  7 12  1  0  0  0  0
 34 39  1  0  0  0  0
 17 26  1  0  0  0  0
M  END
$$$$

  -OEChem-05262214473D

 49 48  0     1  0  0  0  0  0999 V2000
   -1.9833   -0.0509   -3.3423 C   0  0  0  0  0  0  0  0  0  0  0  0
   -1.6199   -1.0613   -2.7518 O   0  0  0  0  0  0  0  0  0  0  0  0
   -3.3243   -0.0235   -3.9975 C   0  0  0  0  0  0  0  0  0  0  0  0
   -3.2886   -0.3689   -5.0432 H   0  0  0  0  0  0  0  0  0  0  0  0
   -4.0503   -0.6845   -3.4973 H   0  0  0  0  0  0  0  0  0  0  0  0
   -3.8104    0.9645   -4.0351 H   0  0  0  0  0  0  0  0  0  0  0  0
   -1.2607    1.1231   -3.4768 N   0  0  0  0  0  0  0  0  0  0  0  0
    0.0536    1.3115   -2.9213 C   0  0  2  0  0  0  0  0  0  0  0  0
    0.0266    0.8315   -1.4761 C   0  0  0  0  0  0  0  0  0  0  0  0
   -1.0065    0.7530   -0.8146 O   0  0  0  0  0  0  0  0  0  0  0  0
    0.4852    2.7674   -3.0025 C   0  0  0  0  0  0  0  0  0  0  0  0
   -1.6809    1.8924   -3.9952 H   0  0  0  0  0  0  0  0  0  0  0  0
    0.7360    0.6822   -3.5030 H   0  0  0  0  0  0  0  0  0  0  0  0
   -0.1867    3.4133   -2.4256 H   0  0  0  0  0  0  0  0  0  0  0  0
    1.4966    2.9042   -2.6056 H   0  0  0  0  0  0  0  0  0  0  0  0
    0.4754    3.1196   -4.0397 H   0  0  0  0  0  0  0  0  0  0  0  0
    1.2978    0.5411   -0.9947 N   0  0  0  0  0  0  0  0  0  0  0  0
    1.5371    0.0807    0.3489 C   0  0  2  0  0  0  0  0  0  0  0  0
    1.3834    1.2839    1.2727 C   0  0  0  0  0  0  0  0  0  0  0  0
    1.7437    1.2752    2.4478 O   0  0  0  0  0  0  0  0  0  0  0  0
    2.9308   -0.5399    0.5088 C   0  0  0  0  0  0  0  0  0  0  0  0
    3.1080   -1.8456   -0.2686 C   0  0  0  0  0  0  0  0  0  0  0  0
    4.4935   -2.4491   -0.1315 C   0  0  0  0  0  0  0  0  0  0  0  0
    5.4172   -1.9160    0.4763 O   0  0  0  0  0  0  0  0  0  0  0  0
    4.6074   -3.6549   -0.7897 N   0  0  0  0  0  0  0  0  0  0  0  0
    2.0949    0.6178   -1.6227 H   0  0  0  0  0  0  0  0  0  0  0  0
    0.7503   -0.6464    0.5765 H   0  0  0  0  0  0  0  0  0  0  0  0
    3.6866    0.1762    0.1593 H   0  0  0  0  0  0  0  0  0  0  0  0
    3.1449   -0.7147    1.5707 H   0  0  0  0  0  0  0  0  0  0  0  0
    2.9524   -1.6443   -1.3357 H   0  0  0  0  0  0  0  0  0  0  0  0
    2.3586   -2.5848    0.0357 H   0  0  0  0  0  0  0  0  0  0  0  0
    3.8005   -4.0201   -1.2845 H   0  0  0  0  0  0  0  0  0  0  0  0
    5.4695   -4.1905   -0.7971 H   0  0  0  0  0  0  0  0  0  0  0  0
    0.7516    2.3464    0.6417 N   0  0  0  0  0  0  0  0  0  0  0  0
    0.4627    3.6010    1.2984 C   0  0  2  0  0  0  0  0  0  0  0  0
    1.7318    4.0684    1.9987 C   0  0  0  0  0  0  0  0  0  0  0  0
    2.6410    3.3057    2.3190 O   0  0  0  0  0  0  0  0  0  0  0  0
   -0.6826    3.4564    2.2884 C   0  0  0  0  0  0  0  0  0  0  0  0
    0.4787    2.2369   -0.3305 H   0  0  0  0  0  0  0  0  0  0  0  0
    0.1945    4.3151    0.5123 H   0  0  0  0  0  0  0  0  0  0  0  0
   -0.4323    2.7447    3.0836 H   0  0  0  0  0  0  0  0  0  0  0  0
   -0.9191    4.4139    2.7642 H   0  0  0  0  0  0  0  0  0  0  0  0
   -1.5863    3.0917    1.7883 H   0  0  0  0  0  0  0  0  0  0  0  0
    1.7107    5.4308    2.2627 N   0  0  0  0  0  0  0  0  0  0  0  0
    2.7944    6.1123    2.9312 C   0  0  0  0  0  0  0  0  0  0  0  0
    0.9242    5.9893    1.9444 H   0  0  0  0  0  0  0  0  0  0  0  0
    2.5983    6.1411    4.0132 H   0  0  0  0  0  0  0  0  0  0  0  0
    3.7361    5.5757    2.7435 H   0  0  0  0  0  0  0  0  0  0  0  0
    2.8747    7.1395    2.5458 H   0  0  0  0  0  0  0  0  0  0  0  0
  1  3  1  0  0  0  0
  1  7  1  0  0  0  0
  1  2  2  0  0  0  0
 22 23  1  0  0  0  0
 23 25  1  0  0  0  0
 23 24  2  0  0  0  0
 35 36  1  0  0  0  0
 36 44  1  0  0  0  0
 36 37  2  0  0  0  0
  8  9  1  0  0  0  0
  9 17  1  0  0  0  0
  9 10  2  0  0  0  0
 18 19  1  0  0  0  0
 19 34  1  0  0  0  0
 19 20  2  0  0  0  0
 35 38  1  0  0  0  0
  8 11  1  0  0  0  0
 44 45  1  0  0  0  0
 21 22  1  0  0  0  0
 18 21  1  0  0  0  0
 34 35  1  0  0  0  0
  7  8  1  0  0  0  0
 17 18  1  0  0  0  0
  3  4  1  0  0  0  0
  3  5  1  0  0  0  0
  3  6  1  0  0  0  0
 38 41  1  0  0  0  0
 38 42  1  0  0  0  0
 38 43  1  0  0  0  0
 11 14  1  0  0  0  0
 11 15  1  0  0  0  0
 11 16  1  0  0  0  0
 45 47  1  0  0  0  0
 45 48  1  0  0  0  0
 45 49  1  0  0  0  0
 22 30  1  0  0  0  0
 22 31  1  0  0  0  0
 21 28  1  0  0  0  0
 21 29  1  0  0  0  0
 35 40  1  0  0  0  0
  8 13  1  0  0  0  0
 18 27  1  0  0  0  0
 25 32  1  0  0  0  0
 25 33  1  0  0  0  0
 44 46  1  0  0  0  0
  7 12  1  0  0  0  0
 34 39  1  0  0  0  0
 17 26  1  0  0  0  0
M  END
$$$$

  -OEChem-05262214473D

 49 48  0     1  0  0  0  0  0999 V2000
   -1.9833   -0.0509   -3.3423 C   0  0  0  0  0  0  0  0  0  0  0  0
   -1.6199   -1.0613   -2.7518 O   0  0  0  0  0  0  0  0  0  0  0  0
   -3.3243   -0.0235   -3.9975 C   0  0  0  0  0  0  0  0  0  0  0  0
   -3.2886   -0.3689   -5.0432 H   0  0  0  0  0  0  0  0  0  0  0  0
   -4.0503   -0.6845   -3.4973 H   0  0  0  0  0  0  0  0  0  0  0  0
   -3.8104    0.9645   -4.0351 H   0  0  0  0  0  0  0  0  0  0  0  0
   -1.2607    1.1231   -3.4768 N   0  0  0  0  0  0  0  0  0  0  0  0
    0.0536    1.3115   -2.9213 C   0  0  2  0  0  0  0  0  0  0  0  0
    0.0266    0.8315   -1.4761 C   0  0  0  0  0  0  0  0  0  0  0  0
   -1.0065    0.7530   -0.8146 O   0  0  0  0  0  0  0  0  0  0  0  0
    0.4852    2.7674   -3.0025 C   0  0  0  0  0  0  0  0  0  0  0  0
   -1.6809    1.8924   -3.9952 H   0  0  0  0  0  0  0  0  0  0  0  0
    0.7360    0.6822   -3.5030 H   0  0  0  0  0  0  0  0  0  0  0  0
   -0.1867    3.4133   -2.4256 H   0  0  0  0  0  0  0  0  0  0  0  0
    1.4966    2.9042   -2.6056 H   0  0  0  0  0  0  0  0  0  0  0  0
    0.4754    3.1196   -4.0397 H   0  0  0  0  0  0  0  0  0  0  0  0
    1.2978    0.5411   -0.9947 N   0  0  0  0  0  0  0  0  0  0  0  0
    1.5371    0.0807    0.3489 C   0  0  2  0  0  0  0  0  0  0  0  0
    1.3834    1.2839    1.2727 C   0  0  0  0  0  0  0  0  0  0  0  0
    1.9705    1.3806    2.3482 O   0  0  0  0  0  0  0  0  0  0  0  0
    2.9308   -0.5399    0.5088 C   0  0  0  0  0  0  0  0  0  0  0  0
    3.1080   -1.8456   -0.2686 C   0  0  0  0  0  0  0  0  0  0  0  0
    4.4935   -2.4491   -0.1315 C   0  0  0  0  0  0  0  0  0  0  0  0
    5.4172   -1.9160    0.4763 O   0  0  0  0  0  0  0  0  0  0  0  0
    4.6074   -3.6549   -0.7897 N   0  0  0  0  0  0  0  0  0  0  0  0
    2.0949    0.6178   -1.6227 H   0  0  0  0  0  0  0  0  0  0  0  0
    0.7503   -0.6464    0.5765 H   0  0  0  0  0  0  0  0  0  0  0  0
    3.6866    0.1762    0.1593 H   0  0  0  0  0  0  0  0  0  0  0  0
    3.1449   -0.7147    1.5707 H   0  0  0  0  0  0  0  0  0  0  0  0
    2.9524   -1.6443   -1.3357 H   0  0  0  0  0  0  0  0  0  0  0  0
    2.3586   -2.5848    0.0357 H   0  0  0  0  0  0  0  0  0  0  0  0
    3.8005   -4.0201   -1.2845 H   0  0  0  0  0  0  0  0  0  0  0  0
    5.4695   -4.1905   -0.7971 H   0  0  0  0  0  0  0  0  0  0  0  0
    0.4759    2.2087    0.7752 N   0  0  0  0  0  0  0  0  0  0  0  0
    0.1293    3.4304    1.4651 C   0  0  2  0  0  0  0  0  0  0  0  0
    1.4226    4.1171    1.8839 C   0  0  0  0  0  0  0  0  0  0  0  0
    2.4876    3.5178    2.0171 O   0  0  0  0  0  0  0  0  0  0  0  0
   -0.7542    3.1531    2.6715 C   0  0  0  0  0  0  0  0  0  0  0  0
    0.0330    2.0172   -0.1186 H   0  0  0  0  0  0  0  0  0  0  0  0
   -0.4027    4.0607    0.7442 H   0  0  0  0  0  0  0  0  0  0  0  0
   -0.2380    2.5229    3.4049 H   0  0  0  0  0  0  0  0  0  0  0  0
   -1.0392    4.0820    3.1764 H   0  0  0  0  0  0  0  0  0  0  0  0
   -1.6703    2.6326    2.3722 H   0  0  0  0  0  0  0  0  0  0  0  0
    1.2382    5.4699    2.1332 N   0  0  0  0  0  0  0  0  0  0  0  0
    2.3119    6.3380    2.5570 C   0  0  0  0  0  0  0  0  0  0  0  0
    0.3248    5.8865    1.9785 H   0  0  0  0  0  0  0  0  0  0  0  0
    2.3365    6.3820    3.6558 H   0  0  0  0  0  0  0  0  0  0  0  0
    3.2695    5.9454    2.1843 H   0  0  0  0  0  0  0  0  0  0  0  0
    2.1477    7.3480    2.1533 H   0  0  0  0  0  0  0  0  0  0  0  0
  1  3  1  0  0  0  0
  1  7  1  0  0  0  0
  1  2  2  0  0  0  0
 22 23  1  0  0  0  0
 23 25  1  0  0  0  0
 23 24  2  0  0  0  0
 35 36  1  0  0  0  0
 36 44  1  0  0  0  0
 36 37  2  0  0  0  0
  8  9  1  0  0  0  0
  9 17  1  0  0  0  0
  9 10  2  0  0  0  0
 18 19  1  0  0  0  0
 19 34  1  0  0  0  0
 19 20  2  0  0  0  0
 35 38  1  0  0  0  0
  8 11  1  0  0  0  0
 44 45  1  0  0  0  0
 21 22  1  0  0  0  0
 18 21  1  0  0  0  0
 34 35  1  0  0  0  0
  7  8  1  0  0  0  0
 17 18  1  0  0  0  0
  3  4  1  0  0  0  0
  3  5  1  0  0  0  0
  3  6  1  0  0  0  0
 38 41  1  0  0  0  0
 38 42  1  0  0  0  0
 38 43  1  0  0  0  0
 11 14  1  0  0  0  0
 11 15  1  0  0  0  0
 11 16  1  0  0  0  0
 45 47  1  0  0  0  0
 45 48  1  0  0  0  0
 45 49  1  0  0  0  0
 22 30  1  0  0  0  0
 22 31  1  0  0  0  0
 21 28  1  0  0  0  0
 21 29  1  0  0  0  0
 35 40  1  0  0  0  0
  8 13  1  0  0  0  0
 18 27  1  0  0  0  0
 25 32  1  0  0  0  0
 25 33  1  0  0  0  0
 44 46  1  0  0  0  0
  7 12  1  0  0  0  0
 34 39  1  0  0  0  0
 17 26  1  0  0  0  0
M  END
$$$$

  -OEChem-05262214473D

 49 48  0     1  0  0  0  0  0999 V2000
   -1.9833   -0.0509   -3.3423 C   0  0  0  0  0  0  0  0  0  0  0  0
   -1.6199   -1.0613   -2.7518 O   0  0  0  0  0  0  0  0  0  0  0  0
   -3.3243   -0.0235   -3.9975 C   0  0  0  0  0  0  0  0  0  0  0  0
   -3.2886   -0.3689   -5.0432 H   0  0  0  0  0  0  0  0  0  0  0  0
   -4.0503   -0.6845   -3.4973 H   0  0  0  0  0  0  0  0  0  0  0  0
   -3.8104    0.9645   -4.0351 H   0  0  0  0  0  0  0  0  0  0  0  0
   -1.2607    1.1231   -3.4768 N   0  0  0  0  0  0  0  0  0  0  0  0
    0.0536    1.3115   -2.9213 C   0  0  2  0  0  0  0  0  0  0  0  0
    0.0266    0.8315   -1.4761 C   0  0  0  0  0  0  0  0  0  0  0  0
   -1.0065    0.7530   -0.8146 O   0  0  0  0  0  0  0  0  0  0  0  0
    0.4852    2.7674   -3.0025 C   0  0  0  0  0  0  0  0  0  0  0  0
   -1.6809    1.8924   -3.9952 H   0  0  0  0  0  0  0  0  0  0  0  0
    0.7360    0.6822   -3.5030 H   0  0  0  0  0  0  0  0  0  0  0  0
   -0.1867    3.4133   -2.4256 H   0  0  0  0  0  0  0  0  0  0  0  0
    1.4966    2.9042   -2.6056 H   0  0  0  0  0  0  0  0  0  0  0  0
    0.4754    3.1196   -4.0397 H   0  0  0  0  0  0  0  0  0  0  0  0
    1.2978    0.5411   -0.9947 N   0  0  0  0  0  0  0  0  0  0  0  0
    1.5371    0.0807    0.3489 C   0  0  2  0  0  0  0  0  0  0  0  0
    1.3834    1.2839    1.2727 C   0  0  0  0  0  0  0  0  0  0  0  0
    2.1527    1.5155    2.2030 O   0  0  0  0  0  0  0  0  0  0  0  0
    2.9308   -0.5399    0.5088 C   0  0  0  0  0  0  0  0  0  0  0  0
    3.1080   -1.8456   -0.2686 C   0  0  0  0  0  0  0  0  0  0  0  0
    4.4935   -2.4491   -0.1315 C   0  0  0  0  0  0  0  0  0  0  0  0
    5.4172   -1.9160    0.4763 O   0  0  0  0  0  0  0  0  0  0  0  0
    4.6074   -3.6549   -0.7897 N   0  0  0  0  0  0  0  0  0  0  0  0
    2.0949    0.6178   -1.6227 H   0  0  0  0  0  0  0  0  0  0  0  0
    0.7503   -0.6464    0.5765 H   0  0  0  0  0  0  0  0  0  0  0  0
    3.6866    0.1762    0.1593 H   0  0  0  0  0  0  0  0  0  0  0  0
    3.1449   -0.7147    1.5707 H   0  0  0  0  0  0  0  0  0  0  0  0
    2.9524   -1.6443   -1.3357 H   0  0  0  0  0  0  0  0  0  0  0  0
    2.3586   -2.5848    0.0357 H   0  0  0  0  0  0  0  0  0  0  0  0
    3.8005   -4.0201   -1.2845 H   0  0  0  0  0  0  0  0  0  0  0  0
    5.4695   -4.1905   -0.7971 H   0  0  0  0  0  0  0  0  0  0  0  0
    0.2584    2.0359    0.9641 N   0  0  0  0  0  0  0  0  0  0  0  0
   -0.1319    3.2177    1.6987 C   0  0  2  0  0  0  0  0  0  0  0  0
    1.0929    4.1126    1.8349 C   0  0  0  0  0  0  0  0  0  0  0  0
    2.2445    3.6908    1.7513 O   0  0  0  0  0  0  0  0  0  0  0  0
   -0.6975    2.8590    3.0640 C   0  0  0  0  0  0  0  0  0  0  0  0
   -0.3197    1.7407    0.1828 H   0  0  0  0  0  0  0  0  0  0  0  0
   -0.8923    3.7274    1.0969 H   0  0  0  0  0  0  0  0  0  0  0  0
    0.0500    2.3475    3.6813 H   0  0  0  0  0  0  0  0  0  0  0  0
   -1.0190    3.7534    3.6078 H   0  0  0  0  0  0  0  0  0  0  0  0
   -1.5602    2.1913    2.9653 H   0  0  0  0  0  0  0  0  0  0  0  0
    0.7493    5.4302    2.1035 N   0  0  0  0  0  0  0  0  0  0  0  0
    1.7339    6.4706    2.2882 C   0  0  0  0  0  0  0  0  0  0  0  0
   -0.2310    5.6941    2.1366 H   0  0  0  0  0  0  0  0  0  0  0  0
    1.9728    6.5644    3.3578 H   0  0  0  0  0  0  0  0  0  0  0  0
    2.6465    6.2148    1.7298 H   0  0  0  0  0  0  0  0  0  0  0  0
    1.3325    7.4251    1.9171 H   0  0  0  0  0  0  0  0  0  0  0  0
  1  3  1  0  0  0  0
  1  7  1  0  0  0  0
  1  2  2  0  0  0  0
 22 23  1  0  0  0  0
 23 25  1  0  0  0  0
 23 24  2  0  0  0  0
 35 36  1  0  0  0  0
 36 44  1  0  0  0  0
 36 37  2  0  0  0  0
  8  9  1  0  0  0  0
  9 17  1  0  0  0  0
  9 10  2  0  0  0  0
 18 19  1  0  0  0  0
 19 34  1  0  0  0  0
 19 20  2  0  0  0  0
 35 38  1  0  0  0  0
  8 11  1  0  0  0  0
 44 45  1  0  0  0  0
 21 22  1  0  0  0  0
 18 21  1  0  0  0  0
 34 35  1  0  0  0  0
  7  8  1  0  0  0  0
 17 18  1  0  0  0  0
  3  4  1  0  0  0  0
  3  5  1  0  0  0  0
  3  6  1  0  0  0  0
 38 41  1  0  0  0  0
 38 42  1  0  0  0  0
 38 43  1  0  0  0  0
 11 14  1  0  0  0  0
 11 15  1  0  0  0  0
 11 16  1  0  0  0  0
 45 47  1  0  0  0  0
 45 48  1  0  0  0  0
 45 49  1  0  0  0  0
 22 30  1  0  0  0  0
 22 31  1  0  0  0  0
 21 28  1  0  0  0  0
 21 29  1  0  0  0  0
 35 40  1  0  0  0  0
  8 13  1  0  0  0  0
 18 27  1  0  0  0  0
 25 32  1  0  0  0  0
 25 33  1  0  0  0  0
 44 46  1  0  0  0  0
  7 12  1  0  0  0  0
 34 39  1  0  0  0  0
 17 26  1  0  0  0  0
M  END
$$$$

  -OEChem-05262214473D

 49 48  0     1  0  0  0  0  0999 V2000
   -1.9833   -0.0509   -3.3423 C   0  0  0  0  0  0  0  0  0  0  0  0
   -1.6199   -1.0613   -2.7518 O   0  0  0  0  0  0  0  0  0  0  0  0
   -3.3243   -0.0235   -3.9975 C   0  0  0  0  0  0  0  0  0  0  0  0
   -3.2886   -0.3689   -5.0432 H   0  0  0  0  0  0  0  0  0  0  0  0
   -4.0503   -0.6845   -3.4973 H   0  0  0  0  0  0  0  0  0  0  0  0
   -3.8104    0.9645   -4.0351 H   0  0  0  0  0  0  0  0  0  0  0  0
   -1.2607    1.1231   -3.4768 N   0  0  0  0  0  0  0  0  0  0  0  0
    0.0536    1.3115   -2.9213 C   0  0  2  0  0  0  0  0  0  0  0  0
    0.0266    0.8315   -1.4761 C   0  0  0  0  0  0  0  0  0  0  0  0
   -1.0065    0.7530   -0.8146 O   0  0  0  0  0  0  0  0  0  0  0  0
    0.4852    2.7674   -3.0025 C   0  0  0  0  0  0  0  0  0  0  0  0
   -1.6809    1.8924   -3.9952 H   0  0  0  0  0  0  0  0  0  0  0  0
    0.7360    0.6822   -3.5030 H   0  0  0  0  0  0  0  0  0  0  0  0
   -0.1867    3.4133   -2.4256 H   0  0  0  0  0  0  0  0  0  0  0  0
    1.4966    2.9042   -2.6056 H   0  0  0  0  0  0  0  0  0  0  0  0
    0.4754    3.1196   -4.0397 H   0  0  0  0  0  0  0  0  0  0  0  0
    1.2978    0.5411   -0.9947 N   0  0  0  0  0  0  0  0  0  0  0  0
    1.5371    0.0807    0.3489 C   0  0  2  0  0  0  0  0  0  0  0  0
    1.3834    1.2839    1.2727 C   0  0  0  0  0  0  0  0  0  0  0  0
    2.2779    1.6705    2.0219 O   0  0  0  0  0  0  0  0  0  0  0  0
    2.9308   -0.5399    0.5088 C   0  0  0  0  0  0  0  0  0  0  0  0
    3.1080   -1.8456   -0.2686 C   0  0  0  0  0  0  0  0  0  0  0  0
    4.4935   -2.4491   -0.1315 C   0  0  0  0  0  0  0  0  0  0  0  0
    5.4172   -1.9160    0.4763 O   0  0  0  0  0  0  0  0  0  0  0  0
    4.6074   -3.6549   -0.7897 N   0  0  0  0  0  0  0  0  0  0  0  0
    2.0949    0.6178   -1.6227 H   0  0  0  0  0  0  0  0  0  0  0  0
    0.7503   -0.6464    0.5765 H   0  0  0  0  0  0  0  0  0  0  0  0
    3.6866    0.1762    0.1593 H   0  0  0  0  0  0  0  0  0  0  0  0
    3.1449   -0.7147    1.5707 H   0  0  0  0  0  0  0  0  0  0  0  0
    2.9524   -1.6443   -1.3357 H   0  0  0  0  0  0  0  0  0  0  0  0
    2.3586   -2.5848    0.0357 H   0  0  0  0  0  0  0  0  0  0  0  0
    3.8005   -4.0201   -1.2845 H   0  0  0  0  0  0  0  0  0  0  0  0
    5.4695   -4.1905   -0.7971 H   0  0  0  0  0  0  0  0  0  0  0  0
    0.1140    1.8397    1.1955 N   0  0  0  0  0  0  0  0  0  0  0  0
   -0.3032    2.9774    1.9832 C   0  0  2  0  0  0  0  0  0  0  0  0
    0.7651    4.0553    1.8549 C   0  0  0  0  0  0  0  0  0  0  0  0
    1.9282    3.8129    1.5398 O   0  0  0  0  0  0  0  0  0  0  0  0
   -0.5164    2.5940    3.4393 C   0  0  0  0  0  0  0  0  0  0  0  0
   -0.5554    1.4262    0.5532 H   0  0  0  0  0  0  0  0  0  0  0  0
   -1.2408    3.3379    1.5463 H   0  0  0  0  0  0  0  0  0  0  0  0
    0.4123    2.2304    3.8940 H   0  0  0  0  0  0  0  0  0  0  0  0
   -0.8599    3.4504    4.0289 H   0  0  0  0  0  0  0  0  0  0  0  0
   -1.2635    1.7978    3.5273 H   0  0  0  0  0  0  0  0  0  0  0  0
    0.2772    5.3144    2.1758 N   0  0  0  0  0  0  0  0  0  0  0  0
    1.1000    6.5009    2.1431 C   0  0  0  0  0  0  0  0  0  0  0  0
   -0.7055    5.4253    2.4078 H   0  0  0  0  0  0  0  0  0  0  0  0
    1.5321    6.6757    3.1394 H   0  0  0  0  0  0  0  0  0  0  0  0
    1.9097    6.3654    1.4110 H   0  0  0  0  0  0  0  0  0  0  0  0
    0.4848    7.3657    1.8535 H   0  0  0  0  0  0  0  0  0  0  0  0
  1  3  1  0  0  0  0
  1  7  1  0  0  0  0
  1  2  2  0  0  0  0
 22 23  1  0  0  0  0
 23 25  1  0  0  0  0
 23 24  2  0  0  0  0
 35 36  1  0  0  0  0
 36 44  1  0  0  0  0
 36 37  2  0  0  0  0
  8  9  1  0  0  0  0
  9 17  1  0  0  0  0
  9 10  2  0  0  0  0
 18 19  1  0  0  0  0
 19 34  1  0  0  0  0
 19 20  2  0  0  0  0
 35 38  1  0  0  0  0
  8 11  1  0  0  0  0
 44 45  1  0  0  0  0
 21 22  1  0  0  0  0
 18 21  1  0  0  0  0
 34 35  1  0  0  0  0
  7  8  1  0  0  0  0
 17 18  1  0  0  0  0
  3  4  1  0  0  0  0
  3  5  1  0  0  0  0
  3  6  1  0  0  0  0
 38 41  1  0  0  0  0
 38 42  1  0  0  0  0
 38 43  1  0  0  0  0
 11 14  1  0  0  0  0
 11 15  1  0  0  0  0
 11 16  1  0  0  0  0
 45 47  1  0  0  0  0
 45 48  1  0  0  0  0
 45 49  1  0  0  0  0
 22 30  1  0  0  0  0
 22 31  1  0  0  0  0
 21 28  1  0  0  0  0
 21 29  1  0  0  0  0
 35 40  1  0  0  0  0
  8 13  1  0  0  0  0
 18 27  1  0  0  0  0
 25 32  1  0  0  0  0
 25 33  1  0  0  0  0
 44 46  1  0  0  0  0
  7 12  1  0  0  0  0
 34 39  1  0  0  0  0
 17 26  1  0  0  0  0
M  END
$$$$

  -OEChem-05262214473D

 49 48  0     1  0  0  0  0  0999 V2000
   -1.9833   -0.0509   -3.3423 C   0  0  0  0  0  0  0  0  0  0  0  0
   -1.6199   -1.0613   -2.7518 O   0  0  0  0  0  0  0  0  0  0  0  0
   -3.3243   -0.0235   -3.9975 C   0  0  0  0  0  0  0  0  0  0  0  0
   -3.2886   -0.3689   -5.0432 H   0  0  0  0  0  0  0  0  0  0  0  0
   -4.0503   -0.6845   -3.4973 H   0  0  0  0  0  0  0  0  0  0  0  0
   -3.8104    0.9645   -4.0351 H   0  0  0  0  0  0  0  0  0  0  0  0
   -1.2607    1.1231   -3.4768 N   0  0  0  0  0  0  0  0  0  0  0  0
    0.0536    1.3115   -2.9213 C   0  0  2  0  0  0  0  0  0  0  0  0
    0.0266    0.8315   -1.4761 C   0  0  0  0  0  0  0  0  0  0  0  0
   -1.0065    0.7530   -0.8146 O   0  0  0  0  0  0  0  0  0  0  0  0
    0.4852    2.7674   -3.0025 C   0  0  0  0  0  0  0  0  0  0  0  0
   -1.6809    1.8924   -3.9952 H   0  0  0  0  0  0  0  0  0  0  0  0
    0.7360    0.6822   -3.5030 H   0  0  0  0  0  0  0  0  0  0  0  0
   -0.1867    3.4133   -2.4256 H   0  0  0  0  0  0  0  0  0  0  0  0
    1.4966    2.9042   -2.6056 H   0  0  0  0  0  0  0  0  0  0  0  0
    0.4754    3.1196   -4.0397 H   0  0  0  0  0  0  0  0  0  0  0  0
    1.2978    0.5411   -0.9947 N   0  0  0  0  0  0  0  0  0  0  0  0
    1.5371    0.0807    0.3489 C   0  0  2  0  0  0  0  0  0  0  0  0
    1.3834    1.2839    1.2727 C   0  0  0  0  0  0  0  0  0  0  0  0
    2.3375    1.8351    1.8174 O   0  0  0  0  0  0  0  0  0  0  0  0
    2.9308   -0.5399    0.5088 C   0  0  0  0  0  0  0  0  0  0  0  0
    3.1080   -1.8456   -0.2686 C   0  0  0  0  0  0  0  0  0  0  0  0
    4.4935   -2.4491   -0.1315 C   0  0  0  0  0  0  0  0  0  0  0  0
    5.4172   -1.9160    0.4763 O   0  0  0  0  0  0  0  0  0  0  0  0
    4.6074   -3.6549   -0.7897 N   0  0  0  0  0  0  0  0  0  0  0  0
    2.0949    0.6178   -1.6227 H   0  0  0  0  0  0  0  0  0  0  0  0
    0.7503   -0.6464    0.5765 H   0  0  0  0  0  0  0  0  0  0  0  0
    3.6866    0.1762    0.1593 H   0  0  0  0  0  0  0  0  0  0  0  0
    3.1449   -0.7147    1.5707 H   0  0  0  0  0  0  0  0  0  0  0  0
    2.9524   -1.6443   -1.3357 H   0  0  0  0  0  0  0  0  0  0  0  0
    2.3586   -2.5848    0.0357 H   0  0  0  0  0  0  0  0  0  0  0  0
    3.8005   -4.0201   -1.2845 H   0  0  0  0  0  0  0  0  0  0  0  0
    5.4695   -4.1905   -0.7971 H   0  0  0  0  0  0  0  0  0  0  0  0
    0.0525    1.6337    1.4537 N   0  0  0  0  0  0  0  0  0  0  0  0
   -0.3728    2.7258    2.2992 C   0  0  2  0  0  0  0  0  0  0  0  0
    0.4615    3.9491    1.9428 C   0  0  0  0  0  0  0  0  0  0  0  0
    1.5604    3.8756    1.3968 O   0  0  0  0  0  0  0  0  0  0  0  0
   -0.2233    2.3762    3.7717 C   0  0  0  0  0  0  0  0  0  0  0  0
   -0.6582    1.0951    0.9674 H   0  0  0  0  0  0  0  0  0  0  0  0
   -1.4247    2.9186    2.0617 H   0  0  0  0  0  0  0  0  0  0  0  0
    0.8240    2.1797    4.0286 H   0  0  0  0  0  0  0  0  0  0  0  0
   -0.5727    3.1937    4.4110 H   0  0  0  0  0  0  0  0  0  0  0  0
   -0.8004    1.4789    4.0197 H   0  0  0  0  0  0  0  0  0  0  0  0
   -0.1459    5.1304    2.3451 N   0  0  0  0  0  0  0  0  0  0  0  0
    0.4532    6.4271    2.1317 C   0  0  0  0  0  0  0  0  0  0  0  0
   -1.0662    5.0982    2.7738 H   0  0  0  0  0  0  0  0  0  0  0  0
    1.0443    6.7084    3.0157 H   0  0  0  0  0  0  0  0  0  0  0  0
    1.1093    6.3871    1.2496 H   0  0  0  0  0  0  0  0  0  0  0  0
   -0.3377    7.1736    1.9668 H   0  0  0  0  0  0  0  0  0  0  0  0
  1  3  1  0  0  0  0
  1  7  1  0  0  0  0
  1  2  2  0  0  0  0
 22 23  1  0  0  0  0
 23 25  1  0  0  0  0
 23 24  2  0  0  0  0
 35 36  1  0  0  0  0
 36 44  1  0  0  0  0
 36 37  2  0  0  0  0
  8  9  1  0  0  0  0
  9 17  1  0  0  0  0
  9 10  2  0  0  0  0
 18 19  1  0  0  0  0
 19 34  1  0  0  0  0
 19 20  2  0  0  0  0
 35 38  1  0  0  0  0
  8 11  1  0  0  0  0
 44 45  1  0  0  0  0
 21 22  1  0  0  0  0
 18 21  1  0  0  0  0
 34 35  1  0  0  0  0
  7  8  1  0  0  0  0
 17 18  1  0  0  0  0
  3  4  1  0  0  0  0
  3  5  1  0  0  0  0
  3  6  1  0  0  0  0
 38 41  1  0  0  0  0
 38 42  1  0  0  0  0
 38 43  1  0  0  0  0
 11 14  1  0  0  0  0
 11 15  1  0  0  0  0
 11 16  1  0  0  0  0
 45 47  1  0  0  0  0
 45 48  1  0  0  0  0
 45 49  1  0  0  0  0
 22 30  1  0  0  0  0
 22 31  1  0  0  0  0
 21 28  1  0  0  0  0
 21 29  1  0  0  0  0
 35 40  1  0  0  0  0
  8 13  1  0  0  0  0
 18 27  1  0  0  0  0
 25 32  1  0  0  0  0
 25 33  1  0  0  0  0
 44 46  1  0  0  0  0
  7 12  1  0  0  0  0
 34 39  1  0  0  0  0
 17 26  1  0  0  0  0
M  END
$$$$

  -OEChem-05262214473D

 49 48  0     1  0  0  0  0  0999 V2000
   -1.9833   -0.0509   -3.3423 C   0  0  0  0  0  0  0  0  0  0  0  0
   -1.6199   -1.0613   -2.7518 O   0  0  0  0  0  0  0  0  0  0  0  0
   -3.3243   -0.0235   -3.9975 C   0  0  0  0  0  0  0  0  0  0  0  0
   -3.2886   -0.3689   -5.0432 H   0  0  0  0  0  0  0  0  0  0  0  0
   -4.0503   -0.6845   -3.4973 H   0  0  0  0  0  0  0  0  0  0  0  0
   -3.8104    0.9645   -4.0351 H   0  0  0  0  0  0  0  0  0  0  0  0
   -1.2607    1.1231   -3.4768 N   0  0  0  0  0  0  0  0  0  0  0  0
    0.0536    1.3115   -2.9213 C   0  0  2  0  0  0  0  0  0  0  0  0
    0.0266    0.8315   -1.4761 C   0  0  0  0  0  0  0  0  0  0  0  0
   -1.0065    0.7530   -0.8146 O   0  0  0  0  0  0  0  0  0  0  0  0
    0.4852    2.7674   -3.0025 C   0  0  0  0  0  0  0  0  0  0  0  0
   -1.6809    1.8924   -3.9952 H   0  0  0  0  0  0  0  0  0  0  0  0
    0.7360    0.6822   -3.5030 H   0  0  0  0  0  0  0  0  0  0  0  0
   -0.1867    3.4133   -2.4256 H   0  0  0  0  0  0  0  0  0  0  0  0
    1.4966    2.9042   -2.6056 H   0  0  0  0  0  0  0  0  0  0  0  0
    0.4754    3.1196   -4.0397 H   0  0  0  0  0  0  0  0  0  0  0  0
    1.2978    0.5411   -0.9947 N   0  0  0  0  0  0  0  0  0  0  0  0
    1.5371    0.0807    0.3489 C   0  0  2  0  0  0  0  0  0  0  0  0
    1.3834    1.2839    1.2727 C   0  0  0  0  0  0  0  0  0  0  0  0
    2.3275    1.9981    1.6034 O   0  0  0  0  0  0  0  0  0  0  0  0
    2.9308   -0.5399    0.5088 C   0  0  0  0  0  0  0  0  0  0  0  0
    3.1080   -1.8456   -0.2686 C   0  0  0  0  0  0  0  0  0  0  0  0
    4.4935   -2.4491   -0.1315 C   0  0  0  0  0  0  0  0  0  0  0  0
    5.4172   -1.9160    0.4763 O   0  0  0  0  0  0  0  0  0  0  0  0
    4.6074   -3.6549   -0.7897 N   0  0  0  0  0  0  0  0  0  0  0  0
    2.0949    0.6178   -1.6227 H   0  0  0  0  0  0  0  0  0  0  0  0
    0.7503   -0.6464    0.5765 H   0  0  0  0  0  0  0  0  0  0  0  0
    3.6866    0.1762    0.1593 H   0  0  0  0  0  0  0  0  0  0  0  0
    3.1449   -0.7147    1.5707 H   0  0  0  0  0  0  0  0  0  0  0  0
    2.9524   -1.6443   -1.3357 H   0  0  0  0  0  0  0  0  0  0  0  0
    2.3586   -2.5848    0.0357 H   0  0  0  0  0  0  0  0  0  0  0  0
    3.8005   -4.0201   -1.2845 H   0  0  0  0  0  0  0  0  0  0  0  0
    5.4695   -4.1905   -0.7971 H   0  0  0  0  0  0  0  0  0  0  0  0
    0.0782    1.4318    1.7209 N   0  0  0  0  0  0  0  0  0  0  0  0
   -0.3361    2.4802    2.6253 C   0  0  2  0  0  0  0  0  0  0  0  0
    0.2029    3.8012    2.0924 C   0  0  0  0  0  0  0  0  0  0  0  0
    1.1661    3.8748    1.3322 O   0  0  0  0  0  0  0  0  0  0  0  0
    0.1618    2.2205    4.0386 C   0  0  0  0  0  0  0  0  0  0  0  0
   -0.6210    0.7700    1.3971 H   0  0  0  0  0  0  0  0  0  0  0  0
   -1.4313    2.4983    2.6080 H   0  0  0  0  0  0  0  0  0  0  0  0
    1.2571    2.1988    4.0758 H   0  0  0  0  0  0  0  0  0  0  0  0
   -0.1769    3.0007    4.7282 H   0  0  0  0  0  0  0  0  0  0  0  0
   -0.2025    1.2562    4.4092 H   0  0  0  0  0  0  0  0  0  0  0  0
   -0.4911    4.8907    2.5998 N   0  0  0  0  0  0  0  0  0  0  0  0
   -0.1622    6.2540    2.2546 C   0  0  0  0  0  0  0  0  0  0  0  0
   -1.2886    4.7353    3.2094 H   0  0  0  0  0  0  0  0  0  0  0  0
    0.5428    6.6603    2.9949 H   0  0  0  0  0  0  0  0  0  0  0  0
    0.2998    6.2782    1.2567 H   0  0  0  0  0  0  0  0  0  0  0  0
   -1.0789    6.8621    2.2492 H   0  0  0  0  0  0  0  0  0  0  0  0
  1  3  1  0  0  0  0
  1  7  1  0  0  0  0
  1  2  2  0  0  0  0
 22 23  1  0  0  0  0
 23 25  1  0  0  0  0
 23 24  2  0  0  0  0
 35 36  1  0  0  0  0
 36 44  1  0  0  0  0
 36 37  2  0  0  0  0
  8  9  1  0  0  0  0
  9 17  1  0  0  0  0
  9 10  2  0  0  0  0
 18 19  1  0  0  0  0
 19 34  1  0  0  0  0
 19 20  2  0  0  0  0
 35 38  1  0  0  0  0
  8 11  1  0  0  0  0
 44 45  1  0  0  0  0
 21 22  1  0  0  0  0
 18 21  1  0  0  0  0
 34 35  1  0  0  0  0
  7  8  1  0  0  0  0
 17 18  1  0  0  0  0
  3  4  1  0  0  0  0
  3  5  1  0  0  0  0
  3  6  1  0  0  0  0
 38 41  1  0  0  0  0
 38 42  1  0  0  0  0
 38 43  1  0  0  0  0
 11 14  1  0  0  0  0
 11 15  1  0  0  0  0
 11 16  1  0  0  0  0
 45 47  1  0  0  0  0
 45 48  1  0  0  0  0
 45 49  1  0  0  0  0
 22 30  1  0  0  0  0
 22 31  1  0  0  0  0
 21 28  1  0  0  0  0
 21 29  1  0  0  0  0
 35 40  1  0  0  0  0
  8 13  1  0  0  0  0
 18 27  1  0  0  0  0
 25 32  1  0  0  0  0
 25 33  1  0  0  0  0
 44 46  1  0  0  0  0
  7 12  1  0  0  0  0
 34 39  1  0  0  0  0
 17 26  1  0  0  0  0
M  END
$$$$

  -OEChem-05262214473D

 49 48  0     1  0  0  0  0  0999 V2000
   -1.9833   -0.0509   -3.3423 C   0  0  0  0  0  0  0  0  0  0  0  0
   -1.6199   -1.0613   -2.7518 O   0  0  0  0  0  0  0  0  0  0  0  0
   -3.3243   -0.0235   -3.9975 C   0  0  0  0  0  0  0  0  0  0  0  0
   -3.2886   -0.3689   -5.0432 H   0  0  0  0  0  0  0  0  0  0  0  0
   -4.0503   -0.6845   -3.4973 H   0  0  0  0  0  0  0  0  0  0  0  0
   -3.8104    0.9645   -4.0351 H   0  0  0  0  0  0  0  0  0  0  0  0
   -1.2607    1.1231   -3.4768 N   0  0  0  0  0  0  0  0  0  0  0  0
    0.0536    1.3115   -2.9213 C   0  0  2  0  0  0  0  0  0  0  0  0
    0.0266    0.8315   -1.4761 C   0  0  0  0  0  0  0  0  0  0  0  0
   -1.0065    0.7530   -0.8146 O   0  0  0  0  0  0  0  0  0  0  0  0
    0.4852    2.7674   -3.0025 C   0  0  0  0  0  0  0  0  0  0  0  0
   -1.6809    1.8924   -3.9952 H   0  0  0  0  0  0  0  0  0  0  0  0
    0.7360    0.6822   -3.5030 H   0  0  0  0  0  0  0  0  0  0  0  0
   -0.1867    3.4133   -2.4256 H   0  0  0  0  0  0  0  0  0  0  0  0
    1.4966    2.9042   -2.6056 H   0  0  0  0  0  0  0  0  0  0  0  0
    0.4754    3.1196   -4.0397 H   0  0  0  0  0  0  0  0  0  0  0  0
    1.2978    0.5411   -0.9947 N   0  0  0  0  0  0  0  0  0  0  0  0
    1.5371    0.0807    0.3489 C   0  0  2  0  0  0  0  0  0  0  0  0
    1.3834    1.2839    1.2727 C   0  0  0  0  0  0  0  0  0  0  0  0
    2.2486    2.1485    1.3945 O   0  0  0  0  0  0  0  0  0  0  0  0
    2.9308   -0.5399    0.5088 C   0  0  0  0  0  0  0  0  0  0  0  0
    3.1080   -1.8456   -0.2686 C   0  0  0  0  0  0  0  0  0  0  0  0
    4.4935   -2.4491   -0.1315 C   0  0  0  0  0  0  0  0  0  0  0  0
    5.4172   -1.9160    0.4763 O   0  0  0  0  0  0  0  0  0  0  0  0
    4.6074   -3.6549   -0.7897 N   0  0  0  0  0  0  0  0  0  0  0  0
    2.0949    0.6178   -1.6227 H   0  0  0  0  0  0  0  0  0  0  0  0
    0.7503   -0.6464    0.5765 H   0  0  0  0  0  0  0  0  0  0  0  0
    3.6866    0.1762    0.1593 H   0  0  0  0  0  0  0  0  0  0  0  0
    3.1449   -0.7147    1.5707 H   0  0  0  0  0  0  0  0  0  0  0  0
    2.9524   -1.6443   -1.3357 H   0  0  0  0  0  0  0  0  0  0  0  0
    2.3586   -2.5848    0.0357 H   0  0  0  0  0  0  0  0  0  0  0  0
    3.8005   -4.0201   -1.2845 H   0  0  0  0  0  0  0  0  0  0  0  0
    5.4695   -4.1905   -0.7971 H   0  0  0  0  0  0  0  0  0  0  0  0
    0.1892    1.2477    1.9791 N   0  0  0  0  0  0  0  0  0  0  0  0
   -0.1955    2.2572    2.9392 C   0  0  2  0  0  0  0  0  0  0  0  0
    0.0069    3.6216    2.2936 C   0  0  0  0  0  0  0  0  0  0  0  0
    0.7721    3.8106    1.3504 O   0  0  0  0  0  0  0  0  0  0  0  0
    0.6127    2.1375    4.2218 C   0  0  0  0  0  0  0  0  0  0  0  0
   -0.4462    0.4730    1.8130 H   0  0  0  0  0  0  0  0  0  0  0  0
   -1.2601    2.1056    3.1481 H   0  0  0  0  0  0  0  0  0  0  0  0
    1.6821    2.2864    4.0325 H   0  0  0  0  0  0  0  0  0  0  0  0
    0.3004    2.8847    4.9588 H   0  0  0  0  0  0  0  0  0  0  0  0
    0.4895    1.1452    4.6690 H   0  0  0  0  0  0  0  0  0  0  0  0
   -0.7350    4.6117    2.9225 N   0  0  0  0  0  0  0  0  0  0  0  0
   -0.7045    5.9936    2.5036 C   0  0  0  0  0  0  0  0  0  0  0  0
   -1.3576    4.3613    3.6851 H   0  0  0  0  0  0  0  0  0  0  0  0
    0.0616    6.5347    3.0785 H   0  0  0  0  0  0  0  0  0  0  0  0
   -0.4636    6.0464    1.4316 H   0  0  0  0  0  0  0  0  0  0  0  0
   -1.6883    6.4523    2.6815 H   0  0  0  0  0  0  0  0  0  0  0  0
  1  3  1  0  0  0  0
  1  7  1  0  0  0  0
  1  2  2  0  0  0  0
 22 23  1  0  0  0  0
 23 25  1  0  0  0  0
 23 24  2  0  0  0  0
 35 36  1  0  0  0  0
 36 44  1  0  0  0  0
 36 37  2  0  0  0  0
  8  9  1  0  0  0  0
  9 17  1  0  0  0  0
  9 10  2  0  0  0  0
 18 19  1  0  0  0  0
 19 34  1  0  0  0  0
 19 20  2  0  0  0  0
 35 38  1  0  0  0  0
  8 11  1  0  0  0  0
 44 45  1  0  0  0  0
 21 22  1  0  0  0  0
 18 21  1  0  0  0  0
 34 35  1  0  0  0  0
  7  8  1  0  0  0  0
 17 18  1  0  0  0  0
  3  4  1  0  0  0  0
  3  5  1  0  0  0  0
  3  6  1  0  0  0  0
 38 41  1  0  0  0  0
 38 42  1  0  0  0  0
 38 43  1  0  0  0  0
 11 14  1  0  0  0  0
 11 15  1  0  0  0  0
 11 16  1  0  0  0  0
 45 47  1  0  0  0  0
 45 48  1  0  0  0  0
 45 49  1  0  0  0  0
 22 30  1  0  0  0  0
 22 31  1  0  0  0  0
 21 28  1  0  0  0  0
 21 29  1  0  0  0  0
 35 40  1  0  0  0  0
  8 13  1  0  0  0  0
 18 27  1  0  0  0  0
 25 32  1  0  0  0  0
 25 33  1  0  0  0  0
 44 46  1  0  0  0  0
  7 12  1  0  0  0  0
 34 39  1  0  0  0  0
 17 26  1  0  0  0  0
M  END
$$$$

  -OEChem-05262214473D

 49 48  0     1  0  0  0  0  0999 V2000
   -1.9833   -0.0509   -3.3423 C   0  0  0  0  0  0  0  0  0  0  0  0
   -1.6199   -1.0613   -2.7518 O   0  0  0  0  0  0  0  0  0  0  0  0
   -3.3243   -0.0235   -3.9975 C   0  0  0  0  0  0  0  0  0  0  0  0
   -3.2886   -0.3689   -5.0432 H   0  0  0  0  0  0  0  0  0  0  0  0
   -4.0503   -0.6845   -3.4973 H   0  0  0  0  0  0  0  0  0  0  0  0
   -3.8104    0.9645   -4.0351 H   0  0  0  0  0  0  0  0  0  0  0  0
   -1.2607    1.1231   -3.4768 N   0  0  0  0  0  0  0  0  0  0  0  0
    0.0536    1.3115   -2.9213 C   0  0  2  0  0  0  0  0  0  0  0  0
    0.0266    0.8315   -1.4761 C   0  0  0  0  0  0  0  0  0  0  0  0
   -1.0065    0.7530   -0.8146 O   0  0  0  0  0  0  0  0  0  0  0  0
    0.4852    2.7674   -3.0025 C   0  0  0  0  0  0  0  0  0  0  0  0
   -1.6809    1.8924   -3.9952 H   0  0  0  0  0  0  0  0  0  0  0  0
    0.7360    0.6822   -3.5030 H   0  0  0  0  0  0  0  0  0  0  0  0
   -0.1867    3.4133   -2.4256 H   0  0  0  0  0  0  0  0  0  0  0  0
    1.4966    2.9042   -2.6056 H   0  0  0  0  0  0  0  0  0  0  0  0
    0.4754    3.1196   -4.0397 H   0  0  0  0  0  0  0  0  0  0  0  0
    1.2978    0.5411   -0.9947 N   0  0  0  0  0  0  0  0  0  0  0  0
    1.5371    0.0807    0.3489 C   0  0  2  0  0  0  0  0  0  0  0  0
    1.3834    1.2839    1.2727 C   0  0  0  0  0  0  0  0  0  0  0  0
    2.1061    2.2758    1.2049 O   0  0  0  0  0  0  0  0  0  0  0  0
    2.9308   -0.5399    0.5088 C   0  0  0  0  0  0  0  0  0  0  0  0
    3.1080   -1.8456   -0.2686 C   0  0  0  0  0  0  0  0  0  0  0  0
    4.4935   -2.4491   -0.1315 C   0  0  0  0  0  0  0  0  0  0  0  0
    5.4172   -1.9160    0.4763 O   0  0  0  0  0  0  0  0  0  0  0  0
    4.6074   -3.6549   -0.7897 N   0  0  0  0  0  0  0  0  0  0  0  0
    2.0949    0.6178   -1.6227 H   0  0  0  0  0  0  0  0  0  0  0  0
    0.7503   -0.6464    0.5765 H   0  0  0  0  0  0  0  0  0  0  0  0
    3.6866    0.1762    0.1593 H   0  0  0  0  0  0  0  0  0  0  0  0
    3.1449   -0.7147    1.5707 H   0  0  0  0  0  0  0  0  0  0  0  0
    2.9524   -1.6443   -1.3357 H   0  0  0  0  0  0  0  0  0  0  0  0
    2.3586   -2.5848    0.0357 H   0  0  0  0  0  0  0  0  0  0  0  0
    3.8005   -4.0201   -1.2845 H   0  0  0  0  0  0  0  0  0  0  0  0
    5.4695   -4.1905   -0.7971 H   0  0  0  0  0  0  0  0  0  0  0  0
    0.3781    1.0941    2.2106 N   0  0  0  0  0  0  0  0  0  0  0  0
    0.0394    2.0720    3.2195 C   0  0  2  0  0  0  0  0  0  0  0  0
   -0.1133    3.4227    2.5327 C   0  0  0  0  0  0  0  0  0  0  0  0
    0.4053    3.6872    1.4500 O   0  0  0  0  0  0  0  0  0  0  0  0
    1.0988    2.1327    4.3089 C   0  0  0  0  0  0  0  0  0  0  0  0
   -0.1459    0.2243    2.1868 H   0  0  0  0  0  0  0  0  0  0  0  0
   -0.9229    1.7671    3.6450 H   0  0  0  0  0  0  0  0  0  0  0  0
    2.0700    2.4365    3.9015 H   0  0  0  0  0  0  0  0  0  0  0  0
    0.8268    2.8534    5.0871 H   0  0  0  0  0  0  0  0  0  0  0  0
    1.2283    1.1531    4.7816 H   0  0  0  0  0  0  0  0  0  0  0  0
   -0.8609    4.3124    3.2914 N   0  0  0  0  0  0  0  0  0  0  0  0
   -1.1365    5.6635    2.8617 C   0  0  0  0  0  0  0  0  0  0  0  0
   -1.2683    4.0016    4.1684 H   0  0  0  0  0  0  0  0  0  0  0  0
   -0.3664    6.3400    3.2608 H   0  0  0  0  0  0  0  0  0  0  0  0
   -1.1290    5.7072    1.7626 H   0  0  0  0  0  0  0  0  0  0  0  0
   -2.1244    5.9723    3.2342 H   0  0  0  0  0  0  0  0  0  0  0  0
  1  3  1  0  0  0  0
  1  7  1  0  0  0  0
  1  2  2  0  0  0  0
 22 23  1  0  0  0  0
 23 25  1  0  0  0  0
 23 24  2  0  0  0  0
 35 36  1  0  0  0  0
 36 44  1  0  0  0  0
 36 37  2  0  0  0  0
  8  9  1  0  0  0  0
  9 17  1  0  0  0  0
  9 10  2  0  0  0  0
 18 19  1  0  0  0  0
 19 34  1  0  0  0  0
 19 20  2  0  0  0  0
 35 38  1  0  0  0  0
  8 11  1  0  0  0  0
 44 45  1  0  0  0  0
 21 22  1  0  0  0  0
 18 21  1  0  0  0  0
 34 35  1  0  0  0  0
  7  8  1  0  0  0  0
 17 18  1  0  0  0  0
  3  4  1  0  0  0  0
  3  5  1  0  0  0  0
  3  6  1  0  0  0  0
 38 41  1  0  0  0  0
 38 42  1  0  0  0  0
 38 43  1  0  0  0  0
 11 14  1  0  0  0  0
 11 15  1  0  0  0  0
 11 16  1  0  0  0  0
 45 47  1  0  0  0  0
 45 48  1  0  0  0  0
 45 49  1  0  0  0  0
 22 30  1  0  0  0  0
 22 31  1  0  0  0  0
 21 28  1  0  0  0  0
 21 29  1  0  0  0  0
 35 40  1  0  0  0  0
  8 13  1  0  0  0  0
 18 27  1  0  0  0  0
 25 32  1  0  0  0  0
 25 33  1  0  0  0  0
 44 46  1  0  0  0  0
  7 12  1  0  0  0  0
 34 39  1  0  0  0  0
 17 26  1  0  0  0  0
M  END
$$$$

  -OEChem-05262214473D

 49 48  0     1  0  0  0  0  0999 V2000
   -1.9833   -0.0509   -3.3423 C   0  0  0  0  0  0  0  0  0  0  0  0
   -1.6199   -1.0613   -2.7518 O   0  0  0  0  0  0  0  0  0  0  0  0
   -3.3243   -0.0235   -3.9975 C   0  0  0  0  0  0  0  0  0  0  0  0
   -3.2886   -0.3689   -5.0432 H   0  0  0  0  0  0  0  0  0  0  0  0
   -4.0503   -0.6845   -3.4973 H   0  0  0  0  0  0  0  0  0  0  0  0
   -3.8104    0.9645   -4.0351 H   0  0  0  0  0  0  0  0  0  0  0  0
   -1.2607    1.1231   -3.4768 N   0  0  0  0  0  0  0  0  0  0  0  0
    0.0536    1.3115   -2.9213 C   0  0  2  0  0  0  0  0  0  0  0  0
    0.0266    0.8315   -1.4761 C   0  0  0  0  0  0  0  0  0  0  0  0
   -1.0065    0.7530   -0.8146 O   0  0  0  0  0  0  0  0  0  0  0  0
    0.4852    2.7674   -3.0025 C   0  0  0  0  0  0  0  0  0  0  0  0
   -1.6809    1.8924   -3.9952 H   0  0  0  0  0  0  0  0  0  0  0  0
    0.7360    0.6822   -3.5030 H   0  0  0  0  0  0  0  0  0  0  0  0
   -0.1867    3.4133   -2.4256 H   0  0  0  0  0  0  0  0  0  0  0  0
    1.4966    2.9042   -2.6056 H   0  0  0  0  0  0  0  0  0  0  0  0
    0.4754    3.1196   -4.0397 H   0  0  0  0  0  0  0  0  0  0  0  0
    1.2978    0.5411   -0.9947 N   0  0  0  0  0  0  0  0  0  0  0  0
    1.5371    0.0807    0.3489 C   0  0  2  0  0  0  0  0  0  0  0  0
    1.3834    1.2839    1.2727 C   0  0  0  0  0  0  0  0  0  0  0  0
    1.9097    2.3716    1.0475 O   0  0  0  0  0  0  0  0  0  0  0  0
    2.9308   -0.5399    0.5088 C   0  0  0  0  0  0  0  0  0  0  0  0
    3.1080   -1.8456   -0.2686 C   0  0  0  0  0  0  0  0  0  0  0  0
    4.4935   -2.4491   -0.1315 C   0  0  0  0  0  0  0  0  0  0  0  0
    5.4172   -1.9160    0.4763 O   0  0  0  0  0  0  0  0  0  0  0  0
    4.6074   -3.6549   -0.7897 N   0  0  0  0  0  0  0  0  0  0  0  0
    2.0949    0.6178   -1.6227 H   0  0  0  0  0  0  0  0  0  0  0  0
    0.7503   -0.6464    0.5765 H   0  0  0  0  0  0  0  0  0  0  0  0
    3.6866    0.1762    0.1593 H   0  0  0  0  0  0  0  0  0  0  0  0
    3.1449   -0.7147    1.5707 H   0  0  0  0  0  0  0  0  0  0  0  0
    2.9524   -1.6443   -1.3357 H   0  0  0  0  0  0  0  0  0  0  0  0
    2.3586   -2.5848    0.0357 H   0  0  0  0  0  0  0  0  0  0  0  0
    3.8005   -4.0201   -1.2845 H   0  0  0  0  0  0  0  0  0  0  0  0
    5.4695   -4.1905   -0.7971 H   0  0  0  0  0  0  0  0  0  0  0  0
    0.6319    0.9814    2.3997 N   0  0  0  0  0  0  0  0  0  0  0  0
    0.3526    1.9372    3.4471 C   0  0  2  0  0  0  0  0  0  0  0  0
   -0.1492    3.2180    2.7934 C   0  0  0  0  0  0  0  0  0  0  0  0
    0.0908    3.5131    1.6245 O   0  0  0  0  0  0  0  0  0  0  0  0
    1.5868    2.2066    4.2938 C   0  0  0  0  0  0  0  0  0  0  0  0
    0.2595    0.0410    2.4930 H   0  0  0  0  0  0  0  0  0  0  0  0
   -0.4426    1.5061    4.0649 H   0  0  0  0  0  0  0  0  0  0  0  0
    2.3944    2.6389    3.6919 H   0  0  0  0  0  0  0  0  0  0  0  0
    1.3663    2.9092    5.1043 H   0  0  0  0  0  0  0  0  0  0  0  0
    1.9638    1.2796    4.7392 H   0  0  0  0  0  0  0  0  0  0  0  0
   -0.8602    4.0132    3.6813 N   0  0  0  0  0  0  0  0  0  0  0  0
   -1.4289    5.2862    3.3044 C   0  0  0  0  0  0  0  0  0  0  0  0
   -1.0270    3.6808    4.6265 H   0  0  0  0  0  0  0  0  0  0  0  0
   -0.7121    6.0896    3.5294 H   0  0  0  0  0  0  0  0  0  0  0  0
   -1.6508    5.2840    2.2270 H   0  0  0  0  0  0  0  0  0  0  0  0
   -2.3575    5.4546    3.8697 H   0  0  0  0  0  0  0  0  0  0  0  0
  1  3  1  0  0  0  0
  1  7  1  0  0  0  0
  1  2  2  0  0  0  0
 22 23  1  0  0  0  0
 23 25  1  0  0  0  0
 23 24  2  0  0  0  0
 35 36  1  0  0  0  0
 36 44  1  0  0  0  0
 36 37  2  0  0  0  0
  8  9  1  0  0  0  0
  9 17  1  0  0  0  0
  9 10  2  0  0  0  0
 18 19  1  0  0  0  0
 19 34  1  0  0  0  0
 19 20  2  0  0  0  0
 35 38  1  0  0  0  0
  8 11  1  0  0  0  0
 44 45  1  0  0  0  0
 21 22  1  0  0  0  0
 18 21  1  0  0  0  0
 34 35  1  0  0  0  0
  7  8  1  0  0  0  0
 17 18  1  0  0  0  0
  3  4  1  0  0  0  0
  3  5  1  0  0  0  0
  3  6  1  0  0  0  0
 38 41  1  0  0  0  0
 38 42  1  0  0  0  0
 38 43  1  0  0  0  0
 11 14  1  0  0  0  0
 11 15  1  0  0  0  0
 11 16  1  0  0  0  0
 45 47  1  0  0  0  0
 45 48  1  0  0  0  0
 45 49  1  0  0  0  0
 22 30  1  0  0  0  0
 22 31  1  0  0  0  0
 21 28  1  0  0  0  0
 21 29  1  0  0  0  0
 35 40  1  0  0  0  0
  8 13  1  0  0  0  0
 18 27  1  0  0  0  0
 25 32  1  0  0  0  0
 25 33  1  0  0  0  0
 44 46  1  0  0  0  0
  7 12  1  0  0  0  0
 34 39  1  0  0  0  0
 17 26  1  0  0  0  0
M  END
$$$$

  -OEChem-05262214473D

 49 48  0     1  0  0  0  0  0999 V2000
   -1.9833   -0.0509   -3.3423 C   0  0  0  0  0  0  0  0  0  0  0  0
   -1.6199   -1.0613   -2.7518 O   0  0  0  0  0  0  0  0  0  0  0  0
   -3.3243   -0.0235   -3.9975 C   0  0  0  0  0  0  0  0  0  0  0  0
   -3.2886   -0.3689   -5.0432 H   0  0  0  0  0  0  0  0  0  0  0  0
   -4.0503   -0.6845   -3.4973 H   0  0  0  0  0  0  0  0  0  0  0  0
   -3.8104    0.9645   -4.0351 H   0  0  0  0  0  0  0  0  0  0  0  0
   -1.2607    1.1231   -3.4768 N   0  0  0  0  0  0  0  0  0  0  0  0
    0.0536    1.3115   -2.9213 C   0  0  2  0  0  0  0  0  0  0  0  0
    0.0266    0.8315   -1.4761 C   0  0  0  0  0  0  0  0  0  0  0  0
   -1.0065    0.7530   -0.8146 O   0  0  0  0  0  0  0  0  0  0  0  0
    0.4852    2.7674   -3.0025 C   0  0  0  0  0  0  0  0  0  0  0  0
   -1.6809    1.8924   -3.9952 H   0  0  0  0  0  0  0  0  0  0  0  0
    0.7360    0.6822   -3.5030 H   0  0  0  0  0  0  0  0  0  0  0  0
   -0.1867    3.4133   -2.4256 H   0  0  0  0  0  0  0  0  0  0  0  0
    1.4966    2.9042   -2.6056 H   0  0  0  0  0  0  0  0  0  0  0  0
    0.4754    3.1196   -4.0397 H   0  0  0  0  0  0  0  0  0  0  0  0
    1.2978    0.5411   -0.9947 N   0  0  0  0  0  0  0  0  0  0  0  0
    1.5371    0.0807    0.3489 C   0  0  2  0  0  0  0  0  0  0  0  0
    1.3834    1.2839    1.2727 C   0  0  0  0  0  0  0  0  0  0  0  0
    1.6729    2.4292    0.9331 O   0  0  0  0  0  0  0  0  0  0  0  0
    2.9308   -0.5399    0.5088 C   0  0  0  0  0  0  0  0  0  0  0  0
    3.1080   -1.8456   -0.2686 C   0  0  0  0  0  0  0  0  0  0  0  0
    4.4935   -2.4491   -0.1315 C   0  0  0  0  0  0  0  0  0  0  0  0
    5.4172   -1.9160    0.4763 O   0  0  0  0  0  0  0  0  0  0  0  0
    4.6074   -3.6549   -0.7897 N   0  0  0  0  0  0  0  0  0  0  0  0
    2.0949    0.6178   -1.6227 H   0  0  0  0  0  0  0  0  0  0  0  0
    0.7503   -0.6464    0.5765 H   0  0  0  0  0  0  0  0  0  0  0  0
    3.6866    0.1762    0.1593 H   0  0  0  0  0  0  0  0  0  0  0  0
    3.1449   -0.7147    1.5707 H   0  0  0  0  0  0  0  0  0  0  0  0
    2.9524   -1.6443   -1.3357 H   0  0  0  0  0  0  0  0  0  0  0  0
    2.3586   -2.5848    0.0357 H   0  0  0  0  0  0  0  0  0  0  0  0
    3.8005   -4.0201   -1.2845 H   0  0  0  0  0  0  0  0  0  0  0  0
    5.4695   -4.1905   -0.7971 H   0  0  0  0  0  0  0  0  0  0  0  0
    0.9333    0.9172    2.5334 N   0  0  0  0  0  0  0  0  0  0  0  0
    0.7227    1.8622    3.6065 C   0  0  2  0  0  0  0  0  0  0  0  0
   -0.0987    3.0214    3.0578 C   0  0  0  0  0  0  0  0  0  0  0  0
   -0.1501    3.3001    1.8617 O   0  0  0  0  0  0  0  0  0  0  0  0
    2.0434    2.3542    4.1776 C   0  0  0  0  0  0  0  0  0  0  0  0
    0.7423   -0.0645    2.7107 H   0  0  0  0  0  0  0  0  0  0  0  0
    0.1480    1.3402    4.3793 H   0  0  0  0  0  0  0  0  0  0  0  0
    2.6332    2.8798    3.4178 H   0  0  0  0  0  0  0  0  0  0  0  0
    1.8822    3.0480    5.0092 H   0  0  0  0  0  0  0  0  0  0  0  0
    2.6457    1.5161    4.5447 H   0  0  0  0  0  0  0  0  0  0  0  0
   -0.7330    3.7344    4.0655 N   0  0  0  0  0  0  0  0  0  0  0  0
   -1.5618    4.8875    3.8016 C   0  0  0  0  0  0  0  0  0  0  0  0
   -0.6501    3.4206    5.0280 H   0  0  0  0  0  0  0  0  0  0  0  0
   -0.9518    5.8006    3.8659 H   0  0  0  0  0  0  0  0  0  0  0  0
   -1.9937    4.8054    2.7933 H   0  0  0  0  0  0  0  0  0  0  0  0
   -2.3716    4.9346    4.5446 H   0  0  0  0  0  0  0  0  0  0  0  0
  1  3  1  0  0  0  0
  1  7  1  0  0  0  0
  1  2  2  0  0  0  0
 22 23  1  0  0  0  0
 23 25  1  0  0  0  0
 23 24  2  0  0  0  0
 35 36  1  0  0  0  0
 36 44  1  0  0  0  0
 36 37  2  0  0  0  0
  8  9  1  0  0  0  0
  9 17  1  0  0  0  0
  9 10  2  0  0  0  0
 18 19  1  0  0  0  0
 19 34  1  0  0  0  0
 19 20  2  0  0  0  0
 35 38  1  0  0  0  0
  8 11  1  0  0  0  0
 44 45  1  0  0  0  0
 21 22  1  0  0  0  0
 18 21  1  0  0  0  0
 34 35  1  0  0  0  0
  7  8  1  0  0  0  0
 17 18  1  0  0  0  0
  3  4  1  0  0  0  0
  3  5  1  0  0  0  0
  3  6  1  0  0  0  0
 38 41  1  0  0  0  0
 38 42  1  0  0  0  0
 38 43  1  0  0  0  0
 11 14  1  0  0  0  0
 11 15  1  0  0  0  0
 11 16  1  0  0  0  0
 45 47  1  0  0  0  0
 45 48  1  0  0  0  0
 45 49  1  0  0  0  0
 22 30  1  0  0  0  0
 22 31  1  0  0  0  0
 21 28  1  0  0  0  0
 21 29  1  0  0  0  0
 35 40  1  0  0  0  0
  8 13  1  0  0  0  0
 18 27  1  0  0  0  0
 25 32  1  0  0  0  0
 25 33  1  0  0  0  0
 44 46  1  0  0  0  0
  7 12  1  0  0  0  0
 34 39  1  0  0  0  0
 17 26  1  0  0  0  0
M  END
$$$$

  -OEChem-05262214473D

 49 48  0     1  0  0  0  0  0999 V2000
   -1.9833   -0.0509   -3.3423 C   0  0  0  0  0  0  0  0  0  0  0  0
   -1.6199   -1.0613   -2.7518 O   0  0  0  0  0  0  0  0  0  0  0  0
   -3.3243   -0.0235   -3.9975 C   0  0  0  0  0  0  0  0  0  0  0  0
   -3.2886   -0.3689   -5.0432 H   0  0  0  0  0  0  0  0  0  0  0  0
   -4.0503   -0.6845   -3.4973 H   0  0  0  0  0  0  0  0  0  0  0  0
   -3.8104    0.9645   -4.0351 H   0  0  0  0  0  0  0  0  0  0  0  0
   -1.2607    1.1231   -3.4768 N   0  0  0  0  0  0  0  0  0  0  0  0
    0.0536    1.3115   -2.9213 C   0  0  2  0  0  0  0  0  0  0  0  0
    0.0266    0.8315   -1.4761 C   0  0  0  0  0  0  0  0  0  0  0  0
   -1.0065    0.7530   -0.8146 O   0  0  0  0  0  0  0  0  0  0  0  0
    0.4852    2.7674   -3.0025 C   0  0  0  0  0  0  0  0  0  0  0  0
   -1.6809    1.8924   -3.9952 H   0  0  0  0  0  0  0  0  0  0  0  0
    0.7360    0.6822   -3.5030 H   0  0  0  0  0  0  0  0  0  0  0  0
   -0.1867    3.4133   -2.4256 H   0  0  0  0  0  0  0  0  0  0  0  0
    1.4966    2.9042   -2.6056 H   0  0  0  0  0  0  0  0  0  0  0  0
    0.4754    3.1196   -4.0397 H   0  0  0  0  0  0  0  0  0  0  0  0
    1.2978    0.5411   -0.9947 N   0  0  0  0  0  0  0  0  0  0  0  0
    1.5371    0.0807    0.3489 C   0  0  2  0  0  0  0  0  0  0  0  0
    1.3834    1.2839    1.2727 C   0  0  0  0  0  0  0  0  0  0  0  0
    1.4118    2.4447    0.8694 O   0  0  0  0  0  0  0  0  0  0  0  0
    2.9308   -0.5399    0.5088 C   0  0  0  0  0  0  0  0  0  0  0  0
    3.1080   -1.8456   -0.2686 C   0  0  0  0  0  0  0  0  0  0  0  0
    4.4935   -2.4491   -0.1315 C   0  0  0  0  0  0  0  0  0  0  0  0
    5.4172   -1.9160    0.4763 O   0  0  0  0  0  0  0  0  0  0  0  0
    4.6074   -3.6549   -0.7897 N   0  0  0  0  0  0  0  0  0  0  0  0
    2.0949    0.6178   -1.6227 H   0  0  0  0  0  0  0  0  0  0  0  0
    0.7503   -0.6464    0.5765 H   0  0  0  0  0  0  0  0  0  0  0  0
    3.6866    0.1762    0.1593 H   0  0  0  0  0  0  0  0  0  0  0  0
    3.1449   -0.7147    1.5707 H   0  0  0  0  0  0  0  0  0  0  0  0
    2.9524   -1.6443   -1.3357 H   0  0  0  0  0  0  0  0  0  0  0  0
    2.3586   -2.5848    0.0357 H   0  0  0  0  0  0  0  0  0  0  0  0
    3.8005   -4.0201   -1.2845 H   0  0  0  0  0  0  0  0  0  0  0  0
    5.4695   -4.1905   -0.7971 H   0  0  0  0  0  0  0  0  0  0  0  0
    1.2618    0.9060    2.6027 N   0  0  0  0  0  0  0  0  0  0  0  0
    1.1245    1.8518    3.6868 C   0  0  2  0  0  0  0  0  0  0  0  0
    0.0350    2.8463    3.3081 C   0  0  0  0  0  0  0  0  0  0  0  0
   -0.3010    3.0629    2.1456 O   0  0  0  0  0  0  0  0  0  0  0  0
    2.4377    2.5653    3.9683 C   0  0  0  0  0  0  0  0  0  0  0  0
    1.2698   -0.0850    2.8252 H   0  0  0  0  0  0  0  0  0  0  0  0
    0.8087    1.2807    4.5666 H   0  0  0  0  0  0  0  0  0  0  0  0
    2.7701    3.1428    3.0980 H   0  0  0  0  0  0  0  0  0  0  0  0
    2.3393    3.2606    4.8085 H   0  0  0  0  0  0  0  0  0  0  0  0
    3.2275    1.8463    4.2114 H   0  0  0  0  0  0  0  0  0  0  0  0
   -0.4880    3.4952    4.4179 N   0  0  0  0  0  0  0  0  0  0  0  0
   -1.5261    4.4945    4.3194 C   0  0  0  0  0  0  0  0  0  0  0  0
   -0.1632    3.2390    5.3456 H   0  0  0  0  0  0  0  0  0  0  0  0
   -1.0693    5.4926    4.2475 H   0  0  0  0  0  0  0  0  0  0  0  0
   -2.1342    4.3042    3.4227 H   0  0  0  0  0  0  0  0  0  0  0  0
   -2.1659    4.4476    5.2130 H   0  0  0  0  0  0  0  0  0  0  0  0
  1  3  1  0  0  0  0
  1  7  1  0  0  0  0
  1  2  2  0  0  0  0
 22 23  1  0  0  0  0
 23 25  1  0  0  0  0
 23 24  2  0  0  0  0
 35 36  1  0  0  0  0
 36 44  1  0  0  0  0
 36 37  2  0  0  0  0
  8  9  1  0  0  0  0
  9 17  1  0  0  0  0
  9 10  2  0  0  0  0
 18 19  1  0  0  0  0
 19 34  1  0  0  0  0
 19 20  2  0  0  0  0
 35 38  1  0  0  0  0
  8 11  1  0  0  0  0
 44 45  1  0  0  0  0
 21 22  1  0  0  0  0
 18 21  1  0  0  0  0
 34 35  1  0  0  0  0
  7  8  1  0  0  0  0
 17 18  1  0  0  0  0
  3  4  1  0  0  0  0
  3  5  1  0  0  0  0
  3  6  1  0  0  0  0
 38 41  1  0  0  0  0
 38 42  1  0  0  0  0
 38 43  1  0  0  0  0
 11 14  1  0  0  0  0
 11 15  1  0  0  0  0
 11 16  1  0  0  0  0
 45 47  1  0  0  0  0
 45 48  1  0  0  0  0
 45 49  1  0  0  0  0
 22 30  1  0  0  0  0
 22 31  1  0  0  0  0
 21 28  1  0  0  0  0
 21 29  1  0  0  0  0
 35 40  1  0  0  0  0
  8 13  1  0  0  0  0
 18 27  1  0  0  0  0
 25 32  1  0  0  0  0
 25 33  1  0  0  0  0
 44 46  1  0  0  0  0
  7 12  1  0  0  0  0
 34 39  1  0  0  0  0
 17 26  1  0  0  0  0
M  END
$$$$

  -OEChem-05262214473D

 49 48  0     1  0  0  0  0  0999 V2000
   -1.9833   -0.0509   -3.3423 C   0  0  0  0  0  0  0  0  0  0  0  0
   -1.6199   -1.0613   -2.7518 O   0  0  0  0  0  0  0  0  0  0  0  0
   -3.3243   -0.0235   -3.9975 C   0  0  0  0  0  0  0  0  0  0  0  0
   -3.2886   -0.3689   -5.0432 H   0  0  0  0  0  0  0  0  0  0  0  0
   -4.0503   -0.6845   -3.4973 H   0  0  0  0  0  0  0  0  0  0  0  0
   -3.8104    0.9645   -4.0351 H   0  0  0  0  0  0  0  0  0  0  0  0
   -1.2607    1.1231   -3.4768 N   0  0  0  0  0  0  0  0  0  0  0  0
    0.0536    1.3115   -2.9213 C   0  0  2  0  0  0  0  0  0  0  0  0
    0.0266    0.8315   -1.4761 C   0  0  0  0  0  0  0  0  0  0  0  0
   -1.0065    0.7530   -0.8146 O   0  0  0  0  0  0  0  0  0  0  0  0
    0.4852    2.7674   -3.0025 C   0  0  0  0  0  0  0  0  0  0  0  0
   -1.6809    1.8924   -3.9952 H   0  0  0  0  0  0  0  0  0  0  0  0
    0.7360    0.6822   -3.5030 H   0  0  0  0  0  0  0  0  0  0  0  0
   -0.1867    3.4133   -2.4256 H   0  0  0  0  0  0  0  0  0  0  0  0
    1.4966    2.9042   -2.6056 H   0  0  0  0  0  0  0  0  0  0  0  0
    0.4754    3.1196   -4.0397 H   0  0  0  0  0  0  0  0  0  0  0  0
    1.2978    0.5411   -0.9947 N   0  0  0  0  0  0  0  0  0  0  0  0
    1.5371    0.0807    0.3489 C   0  0  2  0  0  0  0  0  0  0  0  0
    1.0243    1.1611    1.2946 C   0  0  0  0  0  0  0  0  0  0  0  0
    0.5492    2.2242    0.9008 O   0  0  0  0  0  0  0  0  0  0  0  0
    3.0232   -0.1954    0.6103 C   0  0  0  0  0  0  0  0  0  0  0  0
    3.5724   -1.3774   -0.1908 C   0  0  0  0  0  0  0  0  0  0  0  0
    5.0481   -1.6377    0.0478 C   0  0  0  0  0  0  0  0  0  0  0  0
    5.7645   -0.9319    0.7517 O   0  0  0  0  0  0  0  0  0  0  0  0
    5.5025   -2.7443   -0.6371 N   0  0  0  0  0  0  0  0  0  0  0  0
    2.0949    0.6178   -1.6227 H   0  0  0  0  0  0  0  0  0  0  0  0
    0.9356   -0.8248    0.4824 H   0  0  0  0  0  0  0  0  0  0  0  0
    3.6068    0.6984    0.3525 H   0  0  0  0  0  0  0  0  0  0  0  0
    3.1905   -0.3700    1.6807 H   0  0  0  0  0  0  0  0  0  0  0  0
    3.4556   -1.1628   -1.2603 H   0  0  0  0  0  0  0  0  0  0  0  0
    3.0040   -2.2898    0.0219 H   0  0  0  0  0  0  0  0  0  0  0  0
    4.8495   -3.2654   -1.2128 H   0  0  0  0  0  0  0  0  0  0  0  0
    6.4669   -3.0566   -0.5862 H   0  0  0  0  0  0  0  0  0  0  0  0
    1.2075    0.8160    2.6264 N   0  0  0  0  0  0  0  0  0  0  0  0
    0.8285    1.6723    3.7272 C   0  0  2  0  0  0  0  0  0  0  0  0
   -0.5988    2.1453    3.4853 C   0  0  0  0  0  0  0  0  0  0  0  0
   -1.1179    2.1691    2.3712 O   0  0  0  0  0  0  0  0  0  0  0  0
    1.7771    2.8533    3.8616 C   0  0  0  0  0  0  0  0  0  0  0  0
    1.6291   -0.0835    2.8380 H   0  0  0  0  0  0  0  0  0  0  0  0
    0.8613    1.0566    4.6327 H   0  0  0  0  0  0  0  0  0  0  0  0
    1.7579    3.4819    2.9638 H   0  0  0  0  0  0  0  0  0  0  0  0
    1.5054    3.4855    4.7135 H   0  0  0  0  0  0  0  0  0  0  0  0
    2.8076    2.5111    4.0058 H   0  0  0  0  0  0  0  0  0  0  0  0
   -1.2102    2.5784    4.6536 N   0  0  0  0  0  0  0  0  0  0  0  0
   -2.5618    3.0865    4.6841 C   0  0  0  0  0  0  0  0  0  0  0  0
   -0.7115    2.5050    5.5354 H   0  0  0  0  0  0  0  0  0  0  0  0
   -2.5457    4.1803    4.5686 H   0  0  0  0  0  0  0  0  0  0  0  0
   -3.1400    2.6396    3.8618 H   0  0  0  0  0  0  0  0  0  0  0  0
   -3.0296    2.8262    5.6450 H   0  0  0  0  0  0  0  0  0  0  0  0
  1  3  1  0  0  0  0
  1  7  1  0  0  0  0
  1  2  2  0  0  0  0
 22 23  1  0  0  0  0
 23 25  1  0  0  0  0
 23 24  2  0  0  0  0
 35 36  1  0  0  0  0
 36 44  1  0  0  0  0
 36 37  2  0  0  0  0
  8  9  1  0  0  0  0
  9 17  1  0  0  0  0
  9 10  2  0  0  0  0
 18 19  1  0  0  0  0
 19 34  1  0  0  0  0
 19 20  2  0  0  0  0
 35 38  1  0  0  0  0
  8 11  1  0  0  0  0
 44 45  1  0  0  0  0
 21 22  1  0  0  0  0
 18 21  1  0  0  0  0
 34 35  1  0  0  0  0
  7  8  1  0  0  0  0
 17 18  1  0  0  0  0
  3  4  1  0  0  0  0
  3  5  1  0  0  0  0
  3  6  1  0  0  0  0
 38 41  1  0  0  0  0
 38 42  1  0  0  0  0
 38 43  1  0  0  0  0
 11 14  1  0  0  0  0
 11 15  1  0  0  0  0
 11 16  1  0  0  0  0
 45 47  1  0  0  0  0
 45 48  1  0  0  0  0
 45 49  1  0  0  0  0
 22 30  1  0  0  0  0
 22 31  1  0  0  0  0
 21 28  1  0  0  0  0
 21 29  1  0  0  0  0
 35 40  1  0  0  0  0
  8 13  1  0  0  0  0
 18 27  1  0  0  0  0
 25 32  1  0  0  0  0
 25 33  1  0  0  0  0
 44 46  1  0  0  0  0
  7 12  1  0  0  0  0
 34 39  1  0  0  0  0
 17 26  1  0  0  0  0
M  END
$$$$

  -OEChem-05262214473D

 49 48  0     1  0  0  0  0  0999 V2000
   -1.9833   -0.0509   -3.3423 C   0  0  0  0  0  0  0  0  0  0  0  0
   -1.6199   -1.0613   -2.7518 O   0  0  0  0  0  0  0  0  0  0  0  0
   -3.3243   -0.0235   -3.9975 C   0  0  0  0  0  0  0  0  0  0  0  0
   -3.2886   -0.3689   -5.0432 H   0  0  0  0  0  0  0  0  0  0  0  0
   -4.0503   -0.6845   -3.4973 H   0  0  0  0  0  0  0  0  0  0  0  0
   -3.8104    0.9645   -4.0351 H   0  0  0  0  0  0  0  0  0  0  0  0
   -1.2607    1.1231   -3.4768 N   0  0  0  0  0  0  0  0  0  0  0  0
    0.0536    1.3115   -2.9213 C   0  0  2  0  0  0  0  0  0  0  0  0
    0.0266    0.8315   -1.4761 C   0  0  0  0  0  0  0  0  0  0  0  0
   -1.0065    0.7530   -0.8146 O   0  0  0  0  0  0  0  0  0  0  0  0
    0.4852    2.7674   -3.0025 C   0  0  0  0  0  0  0  0  0  0  0  0
   -1.6809    1.8924   -3.9952 H   0  0  0  0  0  0  0  0  0  0  0  0
    0.7360    0.6822   -3.5030 H   0  0  0  0  0  0  0  0  0  0  0  0
   -0.1867    3.4133   -2.4256 H   0  0  0  0  0  0  0  0  0  0  0  0
    1.4966    2.9042   -2.6056 H   0  0  0  0  0  0  0  0  0  0  0  0
    0.4754    3.1196   -4.0397 H   0  0  0  0  0  0  0  0  0  0  0  0
    1.2978    0.5411   -0.9947 N   0  0  0  0  0  0  0  0  0  0  0  0
    1.5371    0.0807    0.3489 C   0  0  2  0  0  0  0  0  0  0  0  0
    1.0243    1.1611    1.2946 C   0  0  0  0  0  0  0  0  0  0  0  0
    0.3148    2.0936    0.9229 O   0  0  0  0  0  0  0  0  0  0  0  0
    3.0232   -0.1954    0.6103 C   0  0  0  0  0  0  0  0  0  0  0  0
    3.5724   -1.3774   -0.1908 C   0  0  0  0  0  0  0  0  0  0  0  0
    5.0481   -1.6377    0.0478 C   0  0  0  0  0  0  0  0  0  0  0  0
    5.7645   -0.9319    0.7517 O   0  0  0  0  0  0  0  0  0  0  0  0
    5.5025   -2.7443   -0.6371 N   0  0  0  0  0  0  0  0  0  0  0  0
    2.0949    0.6178   -1.6227 H   0  0  0  0  0  0  0  0  0  0  0  0
    0.9356   -0.8248    0.4824 H   0  0  0  0  0  0  0  0  0  0  0  0
    3.6068    0.6984    0.3525 H   0  0  0  0  0  0  0  0  0  0  0  0
    3.1905   -0.3700    1.6807 H   0  0  0  0  0  0  0  0  0  0  0  0
    3.4556   -1.1628   -1.2603 H   0  0  0  0  0  0  0  0  0  0  0  0
    3.0040   -2.2898    0.0219 H   0  0  0  0  0  0  0  0  0  0  0  0
    4.8495   -3.2654   -1.2128 H   0  0  0  0  0  0  0  0  0  0  0  0
    6.4669   -3.0566   -0.5862 H   0  0  0  0  0  0  0  0  0  0  0  0
    1.4950    0.9857    2.5885 N   0  0  0  0  0  0  0  0  0  0  0  0
    1.1770    1.8820    3.6767 C   0  0  2  0  0  0  0  0  0  0  0  0
   -0.3296    2.1048    3.6777 C   0  0  0  0  0  0  0  0  0  0  0  0
   -1.0333    1.9353    2.6841 O   0  0  0  0  0  0  0  0  0  0  0  0
    1.9215    3.2013    3.5424 C   0  0  0  0  0  0  0  0  0  0  0  0
    2.0929    0.1873    2.7801 H   0  0  0  0  0  0  0  0  0  0  0  0
    1.4723    1.3741    4.6013 H   0  0  0  0  0  0  0  0  0  0  0  0
    1.6386    3.7247    2.6218 H   0  0  0  0  0  0  0  0  0  0  0  0
    1.7016    3.8682    4.3826 H   0  0  0  0  0  0  0  0  0  0  0  0
    3.0040    3.0366    3.5119 H   0  0  0  0  0  0  0  0  0  0  0  0
   -0.7895    2.5565    4.9067 N   0  0  0  0  0  0  0  0  0  0  0  0
   -2.1806    2.8531    5.1574 C   0  0  0  0  0  0  0  0  0  0  0  0
   -0.1380    2.6504    5.6803 H   0  0  0  0  0  0  0  0  0  0  0  0
   -2.3698    3.9190    4.9625 H   0  0  0  0  0  0  0  0  0  0  0  0
   -2.8109    2.2418    4.4948 H   0  0  0  0  0  0  0  0  0  0  0  0
   -2.4210    2.6240    6.2061 H   0  0  0  0  0  0  0  0  0  0  0  0
  1  3  1  0  0  0  0
  1  7  1  0  0  0  0
  1  2  2  0  0  0  0
 22 23  1  0  0  0  0
 23 25  1  0  0  0  0
 23 24  2  0  0  0  0
 35 36  1  0  0  0  0
 36 44  1  0  0  0  0
 36 37  2  0  0  0  0
  8  9  1  0  0  0  0
  9 17  1  0  0  0  0
  9 10  2  0  0  0  0
 18 19  1  0  0  0  0
 19 34  1  0  0  0  0
 19 20  2  0  0  0  0
 35 38  1  0  0  0  0
  8 11  1  0  0  0  0
 44 45  1  0  0  0  0
 21 22  1  0  0  0  0
 18 21  1  0  0  0  0
 34 35  1  0  0  0  0
  7  8  1  0  0  0  0
 17 18  1  0  0  0  0
  3  4  1  0  0  0  0
  3  5  1  0  0  0  0
  3  6  1  0  0  0  0
 38 41  1  0  0  0  0
 38 42  1  0  0  0  0
 38 43  1  0  0  0  0
 11 14  1  0  0  0  0
 11 15  1  0  0  0  0
 11 16  1  0  0  0  0
 45 47  1  0  0  0  0
 45 48  1  0  0  0  0
 45 49  1  0  0  0  0
 22 30  1  0  0  0  0
 22 31  1  0  0  0  0
 21 28  1  0  0  0  0
 21 29  1  0  0  0  0
 35 40  1  0  0  0  0
  8 13  1  0  0  0  0
 18 27  1  0  0  0  0
 25 32  1  0  0  0  0
 25 33  1  0  0  0  0
 44 46  1  0  0  0  0
  7 12  1  0  0  0  0
 34 39  1  0  0  0  0
 17 26  1  0  0  0  0
M  END
$$$$

  -OEChem-05262214473D

 49 48  0     1  0  0  0  0  0999 V2000
   -1.9833   -0.0509   -3.3423 C   0  0  0  0  0  0  0  0  0  0  0  0
   -1.6199   -1.0613   -2.7518 O   0  0  0  0  0  0  0  0  0  0  0  0
   -3.3243   -0.0235   -3.9975 C   0  0  0  0  0  0  0  0  0  0  0  0
   -3.2886   -0.3689   -5.0432 H   0  0  0  0  0  0  0  0  0  0  0  0
   -4.0503   -0.6845   -3.4973 H   0  0  0  0  0  0  0  0  0  0  0  0
   -3.8104    0.9645   -4.0351 H   0  0  0  0  0  0  0  0  0  0  0  0
   -1.2607    1.1231   -3.4768 N   0  0  0  0  0  0  0  0  0  0  0  0
    0.0536    1.3115   -2.9213 C   0  0  2  0  0  0  0  0  0  0  0  0
    0.0266    0.8315   -1.4761 C   0  0  0  0  0  0  0  0  0  0  0  0
   -1.0065    0.7530   -0.8146 O   0  0  0  0  0  0  0  0  0  0  0  0
    0.4852    2.7674   -3.0025 C   0  0  0  0  0  0  0  0  0  0  0  0
   -1.6809    1.8924   -3.9952 H   0  0  0  0  0  0  0  0  0  0  0  0
    0.7360    0.6822   -3.5030 H   0  0  0  0  0  0  0  0  0  0  0  0
   -0.1867    3.4133   -2.4256 H   0  0  0  0  0  0  0  0  0  0  0  0
    1.4966    2.9042   -2.6056 H   0  0  0  0  0  0  0  0  0  0  0  0
    0.4754    3.1196   -4.0397 H   0  0  0  0  0  0  0  0  0  0  0  0
    1.2978    0.5411   -0.9947 N   0  0  0  0  0  0  0  0  0  0  0  0
    1.5371    0.0807    0.3489 C   0  0  2  0  0  0  0  0  0  0  0  0
    1.0243    1.1611    1.2946 C   0  0  0  0  0  0  0  0  0  0  0  0
    0.1135    1.9317    0.9986 O   0  0  0  0  0  0  0  0  0  0  0  0
    3.0232   -0.1954    0.6103 C   0  0  0  0  0  0  0  0  0  0  0  0
    3.5724   -1.3774   -0.1908 C   0  0  0  0  0  0  0  0  0  0  0  0
    5.0481   -1.6377    0.0478 C   0  0  0  0  0  0  0  0  0  0  0  0
    5.7645   -0.9319    0.7517 O   0  0  0  0  0  0  0  0  0  0  0  0
    5.5025   -2.7443   -0.6371 N   0  0  0  0  0  0  0  0  0  0  0  0
    2.0949    0.6178   -1.6227 H   0  0  0  0  0  0  0  0  0  0  0  0
    0.9356   -0.8248    0.4824 H   0  0  0  0  0  0  0  0  0  0  0  0
    3.6068    0.6984    0.3525 H   0  0  0  0  0  0  0  0  0  0  0  0
    3.1905   -0.3700    1.6807 H   0  0  0  0  0  0  0  0  0  0  0  0
    3.4556   -1.1628   -1.2603 H   0  0  0  0  0  0  0  0  0  0  0  0
    3.0040   -2.2898    0.0219 H   0  0  0  0  0  0  0  0  0  0  0  0
    4.8495   -3.2654   -1.2128 H   0  0  0  0  0  0  0  0  0  0  0  0
    6.4669   -3.0566   -0.5862 H   0  0  0  0  0  0  0  0  0  0  0  0
    1.7384    1.1924    2.4843 N   0  0  0  0  0  0  0  0  0  0  0  0
    1.4708    2.1361    3.5457 C   0  0  2  0  0  0  0  0  0  0  0  0
   -0.0277    2.1256    3.8176 C   0  0  0  0  0  0  0  0  0  0  0  0
   -0.8568    1.7504    2.9912 O   0  0  0  0  0  0  0  0  0  0  0  0
    1.9466    3.5328    3.1773 C   0  0  0  0  0  0  0  0  0  0  0  0
    2.4867    0.5183    2.6156 H   0  0  0  0  0  0  0  0  0  0  0  0
    2.0058    1.7762    4.4313 H   0  0  0  0  0  0  0  0  0  0  0  0
    1.4217    3.9102    2.2921 H   0  0  0  0  0  0  0  0  0  0  0  0
    1.7690    4.2406    3.9936 H   0  0  0  0  0  0  0  0  0  0  0  0
    3.0187    3.5328    2.9531 H   0  0  0  0  0  0  0  0  0  0  0  0
   -0.3333    2.6250    5.0759 N   0  0  0  0  0  0  0  0  0  0  0  0
   -1.6882    2.7301    5.5651 C   0  0  0  0  0  0  0  0  0  0  0  0
    0.4191    2.8955    5.7024 H   0  0  0  0  0  0  0  0  0  0  0  0
   -2.0857    3.7292    5.3334 H   0  0  0  0  0  0  0  0  0  0  0  0
   -2.3131    1.9655    5.0805 H   0  0  0  0  0  0  0  0  0  0  0  0
   -1.6977    2.5752    6.6541 H   0  0  0  0  0  0  0  0  0  0  0  0
  1  3  1  0  0  0  0
  1  7  1  0  0  0  0
  1  2  2  0  0  0  0
 22 23  1  0  0  0  0
 23 25  1  0  0  0  0
 23 24  2  0  0  0  0
 35 36  1  0  0  0  0
 36 44  1  0  0  0  0
 36 37  2  0  0  0  0
  8  9  1  0  0  0  0
  9 17  1  0  0  0  0
  9 10  2  0  0  0  0
 18 19  1  0  0  0  0
 19 34  1  0  0  0  0
 19 20  2  0  0  0  0
 35 38  1  0  0  0  0
  8 11  1  0  0  0  0
 44 45  1  0  0  0  0
 21 22  1  0  0  0  0
 18 21  1  0  0  0  0
 34 35  1  0  0  0  0
  7  8  1  0  0  0  0
 17 18  1  0  0  0  0
  3  4  1  0  0  0  0
  3  5  1  0  0  0  0
  3  6  1  0  0  0  0
 38 41  1  0  0  0  0
 38 42  1  0  0  0  0
 38 43  1  0  0  0  0
 11 14  1  0  0  0  0
 11 15  1  0  0  0  0
 11 16  1  0  0  0  0
 45 47  1  0  0  0  0
 45 48  1  0  0  0  0
 45 49  1  0  0  0  0
 22 30  1  0  0  0  0
 22 31  1  0  0  0  0
 21 28  1  0  0  0  0
 21 29  1  0  0  0  0
 35 40  1  0  0  0  0
  8 13  1  0  0  0  0
 18 27  1  0  0  0  0
 25 32  1  0  0  0  0
 25 33  1  0  0  0  0
 44 46  1  0  0  0  0
  7 12  1  0  0  0  0
 34 39  1  0  0  0  0
 17 26  1  0  0  0  0
M  END
$$$$

  -OEChem-05262214473D

 49 48  0     1  0  0  0  0  0999 V2000
   -1.9833   -0.0509   -3.3423 C   0  0  0  0  0  0  0  0  0  0  0  0
   -1.6199   -1.0613   -2.7518 O   0  0  0  0  0  0  0  0  0  0  0  0
   -3.3243   -0.0235   -3.9975 C   0  0  0  0  0  0  0  0  0  0  0  0
   -3.2886   -0.3689   -5.0432 H   0  0  0  0  0  0  0  0  0  0  0  0
   -4.0503   -0.6845   -3.4973 H   0  0  0  0  0  0  0  0  0  0  0  0
   -3.8104    0.9645   -4.0351 H   0  0  0  0  0  0  0  0  0  0  0  0
   -1.2607    1.1231   -3.4768 N   0  0  0  0  0  0  0  0  0  0  0  0
    0.0536    1.3115   -2.9213 C   0  0  2  0  0  0  0  0  0  0  0  0
    0.0266    0.8315   -1.4761 C   0  0  0  0  0  0  0  0  0  0  0  0
   -1.0065    0.7530   -0.8146 O   0  0  0  0  0  0  0  0  0  0  0  0
    0.4852    2.7674   -3.0025 C   0  0  0  0  0  0  0  0  0  0  0  0
   -1.6809    1.8924   -3.9952 H   0  0  0  0  0  0  0  0  0  0  0  0
    0.7360    0.6822   -3.5030 H   0  0  0  0  0  0  0  0  0  0  0  0
   -0.1867    3.4133   -2.4256 H   0  0  0  0  0  0  0  0  0  0  0  0
    1.4966    2.9042   -2.6056 H   0  0  0  0  0  0  0  0  0  0  0  0
    0.4754    3.1196   -4.0397 H   0  0  0  0  0  0  0  0  0  0  0  0
    1.2978    0.5411   -0.9947 N   0  0  0  0  0  0  0  0  0  0  0  0
    1.5371    0.0807    0.3489 C   0  0  2  0  0  0  0  0  0  0  0  0
    1.0243    1.1611    1.2946 C   0  0  0  0  0  0  0  0  0  0  0  0
   -0.0411    1.7496    1.1228 O   0  0  0  0  0  0  0  0  0  0  0  0
    3.0232   -0.1954    0.6103 C   0  0  0  0  0  0  0  0  0  0  0  0
    3.5724   -1.3774   -0.1908 C   0  0  0  0  0  0  0  0  0  0  0  0
    5.0481   -1.6377    0.0478 C   0  0  0  0  0  0  0  0  0  0  0  0
    5.7645   -0.9319    0.7517 O   0  0  0  0  0  0  0  0  0  0  0  0
    5.5025   -2.7443   -0.6371 N   0  0  0  0  0  0  0  0  0  0  0  0
    2.0949    0.6178   -1.6227 H   0  0  0  0  0  0  0  0  0  0  0  0
    0.9356   -0.8248    0.4824 H   0  0  0  0  0  0  0  0  0  0  0  0
    3.6068    0.6984    0.3525 H   0  0  0  0  0  0  0  0  0  0  0  0
    3.1905   -0.3700    1.6807 H   0  0  0  0  0  0  0  0  0  0  0  0
    3.4556   -1.1628   -1.2603 H   0  0  0  0  0  0  0  0  0  0  0  0
    3.0040   -2.2898    0.0219 H   0  0  0  0  0  0  0  0  0  0  0  0
    4.8495   -3.2654   -1.2128 H   0  0  0  0  0  0  0  0  0  0  0  0
    6.4669   -3.0566   -0.5862 H   0  0  0  0  0  0  0  0  0  0  0  0
    1.9213    1.4221    2.3210 N   0  0  0  0  0  0  0  0  0  0  0  0
    1.6897    2.4173    3.3431 C   0  0  2  0  0  0  0  0  0  0  0  0
    0.2862    2.2063    3.8956 C   0  0  0  0  0  0  0  0  0  0  0  0
   -0.6002    1.6268    3.2715 O   0  0  0  0  0  0  0  0  0  0  0  0
    1.8506    3.8252    2.7911 C   0  0  0  0  0  0  0  0  0  0  0  0
    2.7838    0.8869    2.3556 H   0  0  0  0  0  0  0  0  0  0  0  0
    2.4254    2.2354    4.1342 H   0  0  0  0  0  0  0  0  0  0  0  0
    1.1219    4.0259    1.9973 H   0  0  0  0  0  0  0  0  0  0  0  0
    1.7029    4.5773    3.5732 H   0  0  0  0  0  0  0  0  0  0  0  0
    2.8508    3.9657    2.3674 H   0  0  0  0  0  0  0  0  0  0  0  0
    0.1275    2.7791    5.1498 N   0  0  0  0  0  0  0  0  0  0  0  0
   -1.1179    2.7258    5.8792 C   0  0  0  0  0  0  0  0  0  0  0  0
    0.9220    3.2236    5.6003 H   0  0  0  0  0  0  0  0  0  0  0  0
   -1.7128    3.6237    5.6561 H   0  0  0  0  0  0  0  0  0  0  0  0
   -1.6805    1.8295    5.5790 H   0  0  0  0  0  0  0  0  0  0  0  0
   -0.9091    2.6832    6.9584 H   0  0  0  0  0  0  0  0  0  0  0  0
  1  3  1  0  0  0  0
  1  7  1  0  0  0  0
  1  2  2  0  0  0  0
 22 23  1  0  0  0  0
 23 25  1  0  0  0  0
 23 24  2  0  0  0  0
 35 36  1  0  0  0  0
 36 44  1  0  0  0  0
 36 37  2  0  0  0  0
  8  9  1  0  0  0  0
  9 17  1  0  0  0  0
  9 10  2  0  0  0  0
 18 19  1  0  0  0  0
 19 34  1  0  0  0  0
 19 20  2  0  0  0  0
 35 38  1  0  0  0  0
  8 11  1  0  0  0  0
 44 45  1  0  0  0  0
 21 22  1  0  0  0  0
 18 21  1  0  0  0  0
 34 35  1  0  0  0  0
  7  8  1  0  0  0  0
 17 18  1  0  0  0  0
  3  4  1  0  0  0  0
  3  5  1  0  0  0  0
  3  6  1  0  0  0  0
 38 41  1  0  0  0  0
 38 42  1  0  0  0  0
 38 43  1  0  0  0  0
 11 14  1  0  0  0  0
 11 15  1  0  0  0  0
 11 16  1  0  0  0  0
 45 47  1  0  0  0  0
 45 48  1  0  0  0  0
 45 49  1  0  0  0  0
 22 30  1  0  0  0  0
 22 31  1  0  0  0  0
 21 28  1  0  0  0  0
 21 29  1  0  0  0  0
 35 40  1  0  0  0  0
  8 13  1  0  0  0  0
 18 27  1  0  0  0  0
 25 32  1  0  0  0  0
 25 33  1  0  0  0  0
 44 46  1  0  0  0  0
  7 12  1  0  0  0  0
 34 39  1  0  0  0  0
 17 26  1  0  0  0  0
M  END
$$$$

  -OEChem-05262214473D

 49 48  0     1  0  0  0  0  0999 V2000
   -1.9833   -0.0509   -3.3423 C   0  0  0  0  0  0  0  0  0  0  0  0
   -1.6199   -1.0613   -2.7518 O   0  0  0  0  0  0  0  0  0  0  0  0
   -3.3243   -0.0235   -3.9975 C   0  0  0  0  0  0  0  0  0  0  0  0
   -3.2886   -0.3689   -5.0432 H   0  0  0  0  0  0  0  0  0  0  0  0
   -4.0503   -0.6845   -3.4973 H   0  0  0  0  0  0  0  0  0  0  0  0
   -3.8104    0.9645   -4.0351 H   0  0  0  0  0  0  0  0  0  0  0  0
   -1.2607    1.1231   -3.4768 N   0  0  0  0  0  0  0  0  0  0  0  0
    0.0536    1.3115   -2.9213 C   0  0  2  0  0  0  0  0  0  0  0  0
    0.0266    0.8315   -1.4761 C   0  0  0  0  0  0  0  0  0  0  0  0
   -1.0065    0.7530   -0.8146 O   0  0  0  0  0  0  0  0  0  0  0  0
    0.4852    2.7674   -3.0025 C   0  0  0  0  0  0  0  0  0  0  0  0
   -1.6809    1.8924   -3.9952 H   0  0  0  0  0  0  0  0  0  0  0  0
    0.7360    0.6822   -3.5030 H   0  0  0  0  0  0  0  0  0  0  0  0
   -0.1867    3.4133   -2.4256 H   0  0  0  0  0  0  0  0  0  0  0  0
    1.4966    2.9042   -2.6056 H   0  0  0  0  0  0  0  0  0  0  0  0
    0.4754    3.1196   -4.0397 H   0  0  0  0  0  0  0  0  0  0  0  0
    1.2978    0.5411   -0.9947 N   0  0  0  0  0  0  0  0  0  0  0  0
    1.5371    0.0807    0.3489 C   0  0  2  0  0  0  0  0  0  0  0  0
    1.0243    1.1611    1.2946 C   0  0  0  0  0  0  0  0  0  0  0  0
   -0.1385    1.5597    1.2870 O   0  0  0  0  0  0  0  0  0  0  0  0
    3.0232   -0.1954    0.6103 C   0  0  0  0  0  0  0  0  0  0  0  0
    3.5724   -1.3774   -0.1908 C   0  0  0  0  0  0  0  0  0  0  0  0
    5.0481   -1.6377    0.0478 C   0  0  0  0  0  0  0  0  0  0  0  0
    5.7645   -0.9319    0.7517 O   0  0  0  0  0  0  0  0  0  0  0  0
    5.5025   -2.7443   -0.6371 N   0  0  0  0  0  0  0  0  0  0  0  0
    2.0949    0.6178   -1.6227 H   0  0  0  0  0  0  0  0  0  0  0  0
    0.9356   -0.8248    0.4824 H   0  0  0  0  0  0  0  0  0  0  0  0
    3.6068    0.6984    0.3525 H   0  0  0  0  0  0  0  0  0  0  0  0
    3.1905   -0.3700    1.6807 H   0  0  0  0  0  0  0  0  0  0  0  0
    3.4556   -1.1628   -1.2603 H   0  0  0  0  0  0  0  0  0  0  0  0
    3.0040   -2.2898    0.0219 H   0  0  0  0  0  0  0  0  0  0  0  0
    4.8495   -3.2654   -1.2128 H   0  0  0  0  0  0  0  0  0  0  0  0
    6.4669   -3.0566   -0.5862 H   0  0  0  0  0  0  0  0  0  0  0  0
    2.0311    1.6592    2.1098 N   0  0  0  0  0  0  0  0  0  0  0  0
    1.8189    2.7065    3.0829 C   0  0  2  0  0  0  0  0  0  0  0  0
    0.5908    2.3415    3.9063 C   0  0  0  0  0  0  0  0  0  0  0  0
   -0.2811    1.5730    3.5060 O   0  0  0  0  0  0  0  0  0  0  0  0
    1.6402    4.0587    2.4103 C   0  0  0  0  0  0  0  0  0  0  0  0
    2.9640    1.2679    2.0179 H   0  0  0  0  0  0  0  0  0  0  0  0
    2.7025    2.7205    3.7303 H   0  0  0  0  0  0  0  0  0  0  0  0
    0.7597    4.0639    1.7575 H   0  0  0  0  0  0  0  0  0  0  0  0
    1.5080    4.8553    3.1499 H   0  0  0  0  0  0  0  0  0  0  0  0
    2.5118    4.3060    1.7947 H   0  0  0  0  0  0  0  0  0  0  0  0
    0.5614    3.0083    5.1232 N   0  0  0  0  0  0  0  0  0  0  0  0
   -0.5088    2.8405    6.0784 C   0  0  0  0  0  0  0  0  0  0  0  0
    1.3363    3.6123    5.3808 H   0  0  0  0  0  0  0  0  0  0  0  0
   -1.2765    3.6098    5.9086 H   0  0  0  0  0  0  0  0  0  0  0  0
   -0.9562    1.8430    5.9563 H   0  0  0  0  0  0  0  0  0  0  0  0
   -0.1089    2.9406    7.0982 H   0  0  0  0  0  0  0  0  0  0  0  0
  1  3  1  0  0  0  0
  1  7  1  0  0  0  0
  1  2  2  0  0  0  0
 22 23  1  0  0  0  0
 23 25  1  0  0  0  0
 23 24  2  0  0  0  0
 35 36  1  0  0  0  0
 36 44  1  0  0  0  0
 36 37  2  0  0  0  0
  8  9  1  0  0  0  0
  9 17  1  0  0  0  0
  9 10  2  0  0  0  0
 18 19  1  0  0  0  0
 19 34  1  0  0  0  0
 19 20  2  0  0  0  0
 35 38  1  0  0  0  0
  8 11  1  0  0  0  0
 44 45  1  0  0  0  0
 21 22  1  0  0  0  0
 18 21  1  0  0  0  0
 34 35  1  0  0  0  0
  7  8  1  0  0  0  0
 17 18  1  0  0  0  0
  3  4  1  0  0  0  0
  3  5  1  0  0  0  0
  3  6  1  0  0  0  0
 38 41  1  0  0  0  0
 38 42  1  0  0  0  0
 38 43  1  0  0  0  0
 11 14  1  0  0  0  0
 11 15  1  0  0  0  0
 11 16  1  0  0  0  0
 45 47  1  0  0  0  0
 45 48  1  0  0  0  0
 45 49  1  0  0  0  0
 22 30  1  0  0  0  0
 22 31  1  0  0  0  0
 21 28  1  0  0  0  0
 21 29  1  0  0  0  0
 35 40  1  0  0  0  0
  8 13  1  0  0  0  0
 18 27  1  0  0  0  0
 25 32  1  0  0  0  0
 25 33  1  0  0  0  0
 44 46  1  0  0  0  0
  7 12  1  0  0  0  0
 34 39  1  0  0  0  0
 17 26  1  0  0  0  0
M  END
$$$$

  -OEChem-05262214473D

 49 48  0     1  0  0  0  0  0999 V2000
   -1.9833   -0.0509   -3.3423 C   0  0  0  0  0  0  0  0  0  0  0  0
   -1.6199   -1.0613   -2.7518 O   0  0  0  0  0  0  0  0  0  0  0  0
   -3.3243   -0.0235   -3.9975 C   0  0  0  0  0  0  0  0  0  0  0  0
   -3.2886   -0.3689   -5.0432 H   0  0  0  0  0  0  0  0  0  0  0  0
   -4.0503   -0.6845   -3.4973 H   0  0  0  0  0  0  0  0  0  0  0  0
   -3.8104    0.9645   -4.0351 H   0  0  0  0  0  0  0  0  0  0  0  0
   -1.2607    1.1231   -3.4768 N   0  0  0  0  0  0  0  0  0  0  0  0
    0.0536    1.3115   -2.9213 C   0  0  2  0  0  0  0  0  0  0  0  0
    0.0266    0.8315   -1.4761 C   0  0  0  0  0  0  0  0  0  0  0  0
   -1.0065    0.7530   -0.8146 O   0  0  0  0  0  0  0  0  0  0  0  0
    0.4852    2.7674   -3.0025 C   0  0  0  0  0  0  0  0  0  0  0  0
   -1.6809    1.8924   -3.9952 H   0  0  0  0  0  0  0  0  0  0  0  0
    0.7360    0.6822   -3.5030 H   0  0  0  0  0  0  0  0  0  0  0  0
   -0.1867    3.4133   -2.4256 H   0  0  0  0  0  0  0  0  0  0  0  0
    1.4966    2.9042   -2.6056 H   0  0  0  0  0  0  0  0  0  0  0  0
    0.4754    3.1196   -4.0397 H   0  0  0  0  0  0  0  0  0  0  0  0
    1.2978    0.5411   -0.9947 N   0  0  0  0  0  0  0  0  0  0  0  0
    1.5371    0.0807    0.3489 C   0  0  2  0  0  0  0  0  0  0  0  0
    1.0243    1.1611    1.2946 C   0  0  0  0  0  0  0  0  0  0  0  0
   -0.1719    1.3750    1.4799 O   0  0  0  0  0  0  0  0  0  0  0  0
    3.0232   -0.1954    0.6103 C   0  0  0  0  0  0  0  0  0  0  0  0
    3.5724   -1.3774   -0.1908 C   0  0  0  0  0  0  0  0  0  0  0  0
    5.0481   -1.6377    0.0478 C   0  0  0  0  0  0  0  0  0  0  0  0
    5.7645   -0.9319    0.7517 O   0  0  0  0  0  0  0  0  0  0  0  0
    5.5025   -2.7443   -0.6371 N   0  0  0  0  0  0  0  0  0  0  0  0
    2.0949    0.6178   -1.6227 H   0  0  0  0  0  0  0  0  0  0  0  0
    0.9356   -0.8248    0.4824 H   0  0  0  0  0  0  0  0  0  0  0  0
    3.6068    0.6984    0.3525 H   0  0  0  0  0  0  0  0  0  0  0  0
    3.1905   -0.3700    1.6807 H   0  0  0  0  0  0  0  0  0  0  0  0
    3.4556   -1.1628   -1.2603 H   0  0  0  0  0  0  0  0  0  0  0  0
    3.0040   -2.2898    0.0219 H   0  0  0  0  0  0  0  0  0  0  0  0
    4.8495   -3.2654   -1.2128 H   0  0  0  0  0  0  0  0  0  0  0  0
    6.4669   -3.0566   -0.5862 H   0  0  0  0  0  0  0  0  0  0  0  0
    2.0604    1.8873    1.8650 N   0  0  0  0  0  0  0  0  0  0  0  0
    1.8495    2.9838    2.7826 C   0  0  2  0  0  0  0  0  0  0  0  0
    0.8653    2.5219    3.8491 C   0  0  0  0  0  0  0  0  0  0  0  0
    0.0787    1.5927    3.6786 O   0  0  0  0  0  0  0  0  0  0  0  0
    1.3296    4.2172    2.0607 C   0  0  0  0  0  0  0  0  0  0  0  0
    3.0148    1.6356    1.6255 H   0  0  0  0  0  0  0  0  0  0  0  0
    2.8182    3.1983    3.2471 H   0  0  0  0  0  0  0  0  0  0  0  0
    0.3597    4.0216    1.5890 H   0  0  0  0  0  0  0  0  0  0  0  0
    1.1974    5.0556    2.7526 H   0  0  0  0  0  0  0  0  0  0  0  0
    2.0246    4.5304    1.2742 H   0  0  0  0  0  0  0  0  0  0  0  0
    0.9388    3.2971    4.9979 N   0  0  0  0  0  0  0  0  0  0  0  0
    0.0976    3.0665    6.1491 C   0  0  0  0  0  0  0  0  0  0  0  0
    1.6339    4.0352    5.0590 H   0  0  0  0  0  0  0  0  0  0  0  0
   -0.8066    3.6884    6.0737 H   0  0  0  0  0  0  0  0  0  0  0  0
   -0.1895    2.0053    6.1867 H   0  0  0  0  0  0  0  0  0  0  0  0
    0.6484    3.3299    7.0642 H   0  0  0  0  0  0  0  0  0  0  0  0
  1  3  1  0  0  0  0
  1  7  1  0  0  0  0
  1  2  2  0  0  0  0
 22 23  1  0  0  0  0
 23 25  1  0  0  0  0
 23 24  2  0  0  0  0
 35 36  1  0  0  0  0
 36 44  1  0  0  0  0
 36 37  2  0  0  0  0
  8  9  1  0  0  0  0
  9 17  1  0  0  0  0
  9 10  2  0  0  0  0
 18 19  1  0  0  0  0
 19 34  1  0  0  0  0
 19 20  2  0  0  0  0
 35 38  1  0  0  0  0
  8 11  1  0  0  0  0
 44 45  1  0  0  0  0
 21 22  1  0  0  0  0
 18 21  1  0  0  0  0
 34 35  1  0  0  0  0
  7  8  1  0  0  0  0
 17 18  1  0  0  0  0
  3  4  1  0  0  0  0
  3  5  1  0  0  0  0
  3  6  1  0  0  0  0
 38 41  1  0  0  0  0
 38 42  1  0  0  0  0
 38 43  1  0  0  0  0
 11 14  1  0  0  0  0
 11 15  1  0  0  0  0
 11 16  1  0  0  0  0
 45 47  1  0  0  0  0
 45 48  1  0  0  0  0
 45 49  1  0  0  0  0
 22 30  1  0  0  0  0
 22 31  1  0  0  0  0
 21 28  1  0  0  0  0
 21 29  1  0  0  0  0
 35 40  1  0  0  0  0
  8 13  1  0  0  0  0
 18 27  1  0  0  0  0
 25 32  1  0  0  0  0
 25 33  1  0  0  0  0
 44 46  1  0  0  0  0
  7 12  1  0  0  0  0
 34 39  1  0  0  0  0
 17 26  1  0  0  0  0
M  END
$$$$

  -OEChem-05262214473D

 49 48  0     1  0  0  0  0  0999 V2000
   -1.9833   -0.0509   -3.3423 C   0  0  0  0  0  0  0  0  0  0  0  0
   -1.6199   -1.0613   -2.7518 O   0  0  0  0  0  0  0  0  0  0  0  0
   -3.3243   -0.0235   -3.9975 C   0  0  0  0  0  0  0  0  0  0  0  0
   -3.2886   -0.3689   -5.0432 H   0  0  0  0  0  0  0  0  0  0  0  0
   -4.0503   -0.6845   -3.4973 H   0  0  0  0  0  0  0  0  0  0  0  0
   -3.8104    0.9645   -4.0351 H   0  0  0  0  0  0  0  0  0  0  0  0
   -1.2607    1.1231   -3.4768 N   0  0  0  0  0  0  0  0  0  0  0  0
    0.0536    1.3115   -2.9213 C   0  0  2  0  0  0  0  0  0  0  0  0
    0.0266    0.8315   -1.4761 C   0  0  0  0  0  0  0  0  0  0  0  0
   -1.0065    0.7530   -0.8146 O   0  0  0  0  0  0  0  0  0  0  0  0
    0.4852    2.7674   -3.0025 C   0  0  0  0  0  0  0  0  0  0  0  0
   -1.6809    1.8924   -3.9952 H   0  0  0  0  0  0  0  0  0  0  0  0
    0.7360    0.6822   -3.5030 H   0  0  0  0  0  0  0  0  0  0  0  0
   -0.1867    3.4133   -2.4256 H   0  0  0  0  0  0  0  0  0  0  0  0
    1.4966    2.9042   -2.6056 H   0  0  0  0  0  0  0  0  0  0  0  0
    0.4754    3.1196   -4.0397 H   0  0  0  0  0  0  0  0  0  0  0  0
    1.2978    0.5411   -0.9947 N   0  0  0  0  0  0  0  0  0  0  0  0
    1.5371    0.0807    0.3489 C   0  0  2  0  0  0  0  0  0  0  0  0
    1.0243    1.1611    1.2946 C   0  0  0  0  0  0  0  0  0  0  0  0
   -0.1391    1.2079    1.6885 O   0  0  0  0  0  0  0  0  0  0  0  0
    3.0232   -0.1954    0.6103 C   0  0  0  0  0  0  0  0  0  0  0  0
    3.5724   -1.3774   -0.1908 C   0  0  0  0  0  0  0  0  0  0  0  0
    5.0481   -1.6377    0.0478 C   0  0  0  0  0  0  0  0  0  0  0  0
    5.7645   -0.9319    0.7517 O   0  0  0  0  0  0  0  0  0  0  0  0
    5.5025   -2.7443   -0.6371 N   0  0  0  0  0  0  0  0  0  0  0  0
    2.0949    0.6178   -1.6227 H   0  0  0  0  0  0  0  0  0  0  0  0
    0.9356   -0.8248    0.4824 H   0  0  0  0  0  0  0  0  0  0  0  0
    3.6068    0.6984    0.3525 H   0  0  0  0  0  0  0  0  0  0  0  0
    3.1905   -0.3700    1.6807 H   0  0  0  0  0  0  0  0  0  0  0  0
    3.4556   -1.1628   -1.2603 H   0  0  0  0  0  0  0  0  0  0  0  0
    3.0040   -2.2898    0.0219 H   0  0  0  0  0  0  0  0  0  0  0  0
    4.8495   -3.2654   -1.2128 H   0  0  0  0  0  0  0  0  0  0  0  0
    6.4669   -3.0566   -0.5862 H   0  0  0  0  0  0  0  0  0  0  0  0
    2.0072    2.0911    1.6033 N   0  0  0  0  0  0  0  0  0  0  0  0
    1.7795    3.2305    2.4628 C   0  0  2  0  0  0  0  0  0  0  0  0
    1.0909    2.7352    3.7277 C   0  0  0  0  0  0  0  0  0  0  0  0
    0.4548    1.6846    3.7777 O   0  0  0  0  0  0  0  0  0  0  0  0
    0.9400    4.2901    1.7662 C   0  0  0  0  0  0  0  0  0  0  0  0
    2.9330    1.9647    1.2052 H   0  0  0  0  0  0  0  0  0  0  0  0
    2.7646    3.6364    2.7175 H   0  0  0  0  0  0  0  0  0  0  0  0
   -0.0508    3.9018    1.5032 H   0  0  0  0  0  0  0  0  0  0  0  0
    0.7924    5.1647    2.4083 H   0  0  0  0  0  0  0  0  0  0  0  0
    1.4225    4.6236    0.8412 H   0  0  0  0  0  0  0  0  0  0  0  0
    1.2340    3.6257    4.7826 N   0  0  0  0  0  0  0  0  0  0  0  0
    0.6601    3.3883    6.0866 C   0  0  0  0  0  0  0  0  0  0  0  0
    1.7944    4.4635    4.6568 H   0  0  0  0  0  0  0  0  0  0  0  0
   -0.3349    3.8541    6.1401 H   0  0  0  0  0  0  0  0  0  0  0  0
    0.5673    2.3051    6.2545 H   0  0  0  0  0  0  0  0  0  0  0  0
    1.3111    3.8245    6.8585 H   0  0  0  0  0  0  0  0  0  0  0  0
  1  3  1  0  0  0  0
  1  7  1  0  0  0  0
  1  2  2  0  0  0  0
 22 23  1  0  0  0  0
 23 25  1  0  0  0  0
 23 24  2  0  0  0  0
 35 36  1  0  0  0  0
 36 44  1  0  0  0  0
 36 37  2  0  0  0  0
  8  9  1  0  0  0  0
  9 17  1  0  0  0  0
  9 10  2  0  0  0  0
 18 19  1  0  0  0  0
 19 34  1  0  0  0  0
 19 20  2  0  0  0  0
 35 38  1  0  0  0  0
  8 11  1  0  0  0  0
 44 45  1  0  0  0  0
 21 22  1  0  0  0  0
 18 21  1  0  0  0  0
 34 35  1  0  0  0  0
  7  8  1  0  0  0  0
 17 18  1  0  0  0  0
  3  4  1  0  0  0  0
  3  5  1  0  0  0  0
  3  6  1  0  0  0  0
 38 41  1  0  0  0  0
 38 42  1  0  0  0  0
 38 43  1  0  0  0  0
 11 14  1  0  0  0  0
 11 15  1  0  0  0  0
 11 16  1  0  0  0  0
 45 47  1  0  0  0  0
 45 48  1  0  0  0  0
 45 49  1  0  0  0  0
 22 30  1  0  0  0  0
 22 31  1  0  0  0  0
 21 28  1  0  0  0  0
 21 29  1  0  0  0  0
 35 40  1  0  0  0  0
  8 13  1  0  0  0  0
 18 27  1  0  0  0  0
 25 32  1  0  0  0  0
 25 33  1  0  0  0  0
 44 46  1  0  0  0  0
  7 12  1  0  0  0  0
 34 39  1  0  0  0  0
 17 26  1  0  0  0  0
M  END
$$$$

  -OEChem-05262214473D

 49 48  0     1  0  0  0  0  0999 V2000
   -1.9833   -0.0509   -3.3423 C   0  0  0  0  0  0  0  0  0  0  0  0
   -1.6199   -1.0613   -2.7518 O   0  0  0  0  0  0  0  0  0  0  0  0
   -3.3243   -0.0235   -3.9975 C   0  0  0  0  0  0  0  0  0  0  0  0
   -3.2886   -0.3689   -5.0432 H   0  0  0  0  0  0  0  0  0  0  0  0
   -4.0503   -0.6845   -3.4973 H   0  0  0  0  0  0  0  0  0  0  0  0
   -3.8104    0.9645   -4.0351 H   0  0  0  0  0  0  0  0  0  0  0  0
   -1.2607    1.1231   -3.4768 N   0  0  0  0  0  0  0  0  0  0  0  0
    0.0536    1.3115   -2.9213 C   0  0  2  0  0  0  0  0  0  0  0  0
    0.0266    0.8315   -1.4761 C   0  0  0  0  0  0  0  0  0  0  0  0
   -1.0065    0.7530   -0.8146 O   0  0  0  0  0  0  0  0  0  0  0  0
    0.4852    2.7674   -3.0025 C   0  0  0  0  0  0  0  0  0  0  0  0
   -1.6809    1.8924   -3.9952 H   0  0  0  0  0  0  0  0  0  0  0  0
    0.7360    0.6822   -3.5030 H   0  0  0  0  0  0  0  0  0  0  0  0
   -0.1867    3.4133   -2.4256 H   0  0  0  0  0  0  0  0  0  0  0  0
    1.4966    2.9042   -2.6056 H   0  0  0  0  0  0  0  0  0  0  0  0
    0.4754    3.1196   -4.0397 H   0  0  0  0  0  0  0  0  0  0  0  0
    1.2978    0.5411   -0.9947 N   0  0  0  0  0  0  0  0  0  0  0  0
    1.5371    0.0807    0.3489 C   0  0  2  0  0  0  0  0  0  0  0  0
    1.0243    1.1611    1.2946 C   0  0  0  0  0  0  0  0  0  0  0  0
   -0.0424    1.0700    1.8985 O   0  0  0  0  0  0  0  0  0  0  0  0
    3.0232   -0.1954    0.6103 C   0  0  0  0  0  0  0  0  0  0  0  0
    3.5724   -1.3774   -0.1908 C   0  0  0  0  0  0  0  0  0  0  0  0
    5.0481   -1.6377    0.0478 C   0  0  0  0  0  0  0  0  0  0  0  0
    5.7645   -0.9319    0.7517 O   0  0  0  0  0  0  0  0  0  0  0  0
    5.5025   -2.7443   -0.6371 N   0  0  0  0  0  0  0  0  0  0  0  0
    2.0949    0.6178   -1.6227 H   0  0  0  0  0  0  0  0  0  0  0  0
    0.9356   -0.8248    0.4824 H   0  0  0  0  0  0  0  0  0  0  0  0
    3.6068    0.6984    0.3525 H   0  0  0  0  0  0  0  0  0  0  0  0
    3.1905   -0.3700    1.6807 H   0  0  0  0  0  0  0  0  0  0  0  0
    3.4556   -1.1628   -1.2603 H   0  0  0  0  0  0  0  0  0  0  0  0
    3.0040   -2.2898    0.0219 H   0  0  0  0  0  0  0  0  0  0  0  0
    4.8495   -3.2654   -1.2128 H   0  0  0  0  0  0  0  0  0  0  0  0
    6.4669   -3.0566   -0.5862 H   0  0  0  0  0  0  0  0  0  0  0  0
    1.8751    2.2567    1.3425 N   0  0  0  0  0  0  0  0  0  0  0  0
    1.6136    3.4297    2.1452 C   0  0  2  0  0  0  0  0  0  0  0  0
    1.2524    2.9669    3.5505 C   0  0  0  0  0  0  0  0  0  0  0  0
    0.8215    1.8422    3.7964 O   0  0  0  0  0  0  0  0  0  0  0  0
    0.4980    4.2723    1.5468 C   0  0  0  0  0  0  0  0  0  0  0  0
    2.7240    2.2328    0.7855 H   0  0  0  0  0  0  0  0  0  0  0  0
    2.5454    4.0048    2.1777 H   0  0  0  0  0  0  0  0  0  0  0  0
   -0.4437    3.7127    1.5061 H   0  0  0  0  0  0  0  0  0  0  0  0
    0.3205    5.1751    2.1405 H   0  0  0  0  0  0  0  0  0  0  0  0
    0.7466    4.5793    0.5252 H   0  0  0  0  0  0  0  0  0  0  0  0
    1.4270    3.9717    4.4919 N   0  0  0  0  0  0  0  0  0  0  0  0
    1.1403    3.7839    5.8949 C   0  0  0  0  0  0  0  0  0  0  0  0
    1.8069    4.8679    4.2016 H   0  0  0  0  0  0  0  0  0  0  0  0
    0.1062    4.0957    6.1034 H   0  0  0  0  0  0  0  0  0  0  0  0
    1.2626    2.7222    6.1551 H   0  0  0  0  0  0  0  0  0  0  0  0
    1.8342    4.3908    6.4952 H   0  0  0  0  0  0  0  0  0  0  0  0
  1  3  1  0  0  0  0
  1  7  1  0  0  0  0
  1  2  2  0  0  0  0
 22 23  1  0  0  0  0
 23 25  1  0  0  0  0
 23 24  2  0  0  0  0
 35 36  1  0  0  0  0
 36 44  1  0  0  0  0
 36 37  2  0  0  0  0
  8  9  1  0  0  0  0
  9 17  1  0  0  0  0
  9 10  2  0  0  0  0
 18 19  1  0  0  0  0
 19 34  1  0  0  0  0
 19 20  2  0  0  0  0
 35 38  1  0  0  0  0
  8 11  1  0  0  0  0
 44 45  1  0  0  0  0
 21 22  1  0  0  0  0
 18 21  1  0  0  0  0
 34 35  1  0  0  0  0
  7  8  1  0  0  0  0
 17 18  1  0  0  0  0
  3  4  1  0  0  0  0
  3  5  1  0  0  0  0
  3  6  1  0  0  0  0
 38 41  1  0  0  0  0
 38 42  1  0  0  0  0
 38 43  1  0  0  0  0
 11 14  1  0  0  0  0
 11 15  1  0  0  0  0
 11 16  1  0  0  0  0
 45 47  1  0  0  0  0
 45 48  1  0  0  0  0
 45 49  1  0  0  0  0
 22 30  1  0  0  0  0
 22 31  1  0  0  0  0
 21 28  1  0  0  0  0
 21 29  1  0  0  0  0
 35 40  1  0  0  0  0
  8 13  1  0  0  0  0
 18 27  1  0  0  0  0
 25 32  1  0  0  0  0
 25 33  1  0  0  0  0
 44 46  1  0  0  0  0
  7 12  1  0  0  0  0
 34 39  1  0  0  0  0
 17 26  1  0  0  0  0
M  END
$$$$

  -OEChem-05262214473D

 49 48  0     1  0  0  0  0  0999 V2000
   -1.9833   -0.0509   -3.3423 C   0  0  0  0  0  0  0  0  0  0  0  0
   -1.6199   -1.0613   -2.7518 O   0  0  0  0  0  0  0  0  0  0  0  0
   -3.3243   -0.0235   -3.9975 C   0  0  0  0  0  0  0  0  0  0  0  0
   -3.2886   -0.3689   -5.0432 H   0  0  0  0  0  0  0  0  0  0  0  0
   -4.0503   -0.6845   -3.4973 H   0  0  0  0  0  0  0  0  0  0  0  0
   -3.8104    0.9645   -4.0351 H   0  0  0  0  0  0  0  0  0  0  0  0
   -1.2607    1.1231   -3.4768 N   0  0  0  0  0  0  0  0  0  0  0  0
    0.0536    1.3115   -2.9213 C   0  0  2  0  0  0  0  0  0  0  0  0
    0.0266    0.8315   -1.4761 C   0  0  0  0  0  0  0  0  0  0  0  0
   -1.0065    0.7530   -0.8146 O   0  0  0  0  0  0  0  0  0  0  0  0
    0.4852    2.7674   -3.0025 C   0  0  0  0  0  0  0  0  0  0  0  0
   -1.6809    1.8924   -3.9952 H   0  0  0  0  0  0  0  0  0  0  0  0
    0.7360    0.6822   -3.5030 H   0  0  0  0  0  0  0  0  0  0  0  0
   -0.1867    3.4133   -2.4256 H   0  0  0  0  0  0  0  0  0  0  0  0
    1.4966    2.9042   -2.6056 H   0  0  0  0  0  0  0  0  0  0  0  0
    0.4754    3.1196   -4.0397 H   0  0  0  0  0  0  0  0  0  0  0  0
    1.2978    0.5411   -0.9947 N   0  0  0  0  0  0  0  0  0  0  0  0
    1.5371    0.0807    0.3489 C   0  0  2  0  0  0  0  0  0  0  0  0
    1.0243    1.1611    1.2946 C   0  0  0  0  0  0  0  0  0  0  0  0
    0.1116    0.9706    2.0956 O   0  0  0  0  0  0  0  0  0  0  0  0
    3.0232   -0.1954    0.6103 C   0  0  0  0  0  0  0  0  0  0  0  0
    3.5724   -1.3774   -0.1908 C   0  0  0  0  0  0  0  0  0  0  0  0
    5.0481   -1.6377    0.0478 C   0  0  0  0  0  0  0  0  0  0  0  0
    5.7645   -0.9319    0.7517 O   0  0  0  0  0  0  0  0  0  0  0  0
    5.5025   -2.7443   -0.6371 N   0  0  0  0  0  0  0  0  0  0  0  0
    2.0949    0.6178   -1.6227 H   0  0  0  0  0  0  0  0  0  0  0  0
    0.9356   -0.8248    0.4824 H   0  0  0  0  0  0  0  0  0  0  0  0
    3.6068    0.6984    0.3525 H   0  0  0  0  0  0  0  0  0  0  0  0
    3.1905   -0.3700    1.6807 H   0  0  0  0  0  0  0  0  0  0  0  0
    3.4556   -1.1628   -1.2603 H   0  0  0  0  0  0  0  0  0  0  0  0
    3.0040   -2.2898    0.0219 H   0  0  0  0  0  0  0  0  0  0  0  0
    4.8495   -3.2654   -1.2128 H   0  0  0  0  0  0  0  0  0  0  0  0
    6.4669   -3.0566   -0.5862 H   0  0  0  0  0  0  0  0  0  0  0  0
    1.6730    2.3726    1.1005 N   0  0  0  0  0  0  0  0  0  0  0  0
    1.3632    3.5678    1.8516 C   0  0  2  0  0  0  0  0  0  0  0  0
    1.3386    3.2013    3.3296 C   0  0  0  0  0  0  0  0  0  0  0  0
    1.1538    2.0550    3.7335 O   0  0  0  0  0  0  0  0  0  0  0  0
    0.0336    4.1650    1.4176 C   0  0  0  0  0  0  0  0  0  0  0  0
    2.4022    2.4218    0.3951 H   0  0  0  0  0  0  0  0  0  0  0  0
    2.1755    4.2785    1.6644 H   0  0  0  0  0  0  0  0  0  0  0  0
   -0.7924    3.4673    1.5974 H   0  0  0  0  0  0  0  0  0  0  0  0
   -0.1861    5.0861    1.9675 H   0  0  0  0  0  0  0  0  0  0  0  0
    0.0428    4.4005    0.3479 H   0  0  0  0  0  0  0  0  0  0  0  0
    1.5044    4.3116    4.1455 N   0  0  0  0  0  0  0  0  0  0  0  0
    1.5055    4.2265    5.5873 C   0  0  0  0  0  0  0  0  0  0  0  0
    1.6706    5.2209    3.7243 H   0  0  0  0  0  0  0  0  0  0  0  0
    0.4868    4.3966    5.9659 H   0  0  0  0  0  0  0  0  0  0  0  0
    1.8490    3.2279    5.8953 H   0  0  0  0  0  0  0  0  0  0  0  0
    2.1818    4.9901    5.9991 H   0  0  0  0  0  0  0  0  0  0  0  0
  1  3  1  0  0  0  0
  1  7  1  0  0  0  0
  1  2  2  0  0  0  0
 22 23  1  0  0  0  0
 23 25  1  0  0  0  0
 23 24  2  0  0  0  0
 35 36  1  0  0  0  0
 36 44  1  0  0  0  0
 36 37  2  0  0  0  0
  8  9  1  0  0  0  0
  9 17  1  0  0  0  0
  9 10  2  0  0  0  0
 18 19  1  0  0  0  0
 19 34  1  0  0  0  0
 19 20  2  0  0  0  0
 35 38  1  0  0  0  0
  8 11  1  0  0  0  0
 44 45  1  0  0  0  0
 21 22  1  0  0  0  0
 18 21  1  0  0  0  0
 34 35  1  0  0  0  0
  7  8  1  0  0  0  0
 17 18  1  0  0  0  0
  3  4  1  0  0  0  0
  3  5  1  0  0  0  0
  3  6  1  0  0  0  0
 38 41  1  0  0  0  0
 38 42  1  0  0  0  0
 38 43  1  0  0  0  0
 11 14  1  0  0  0  0
 11 15  1  0  0  0  0
 11 16  1  0  0  0  0
 45 47  1  0  0  0  0
 45 48  1  0  0  0  0
 45 49  1  0  0  0  0
 22 30  1  0  0  0  0
 22 31  1  0  0  0  0
 21 28  1  0  0  0  0
 21 29  1  0  0  0  0
 35 40  1  0  0  0  0
  8 13  1  0  0  0  0
 18 27  1  0  0  0  0
 25 32  1  0  0  0  0
 25 33  1  0  0  0  0
 44 46  1  0  0  0  0
  7 12  1  0  0  0  0
 34 39  1  0  0  0  0
 17 26  1  0  0  0  0
M  END
$$$$

  -OEChem-05262214473D

 49 48  0     1  0  0  0  0  0999 V2000
   -1.9833   -0.0509   -3.3423 C   0  0  0  0  0  0  0  0  0  0  0  0
   -1.6199   -1.0613   -2.7518 O   0  0  0  0  0  0  0  0  0  0  0  0
   -3.3243   -0.0235   -3.9975 C   0  0  0  0  0  0  0  0  0  0  0  0
   -3.2886   -0.3689   -5.0432 H   0  0  0  0  0  0  0  0  0  0  0  0
   -4.0503   -0.6845   -3.4973 H   0  0  0  0  0  0  0  0  0  0  0  0
   -3.8104    0.9645   -4.0351 H   0  0  0  0  0  0  0  0  0  0  0  0
   -1.2607    1.1231   -3.4768 N   0  0  0  0  0  0  0  0  0  0  0  0
    0.0536    1.3115   -2.9213 C   0  0  2  0  0  0  0  0  0  0  0  0
    0.0266    0.8315   -1.4761 C   0  0  0  0  0  0  0  0  0  0  0  0
   -1.0065    0.7530   -0.8146 O   0  0  0  0  0  0  0  0  0  0  0  0
    0.4852    2.7674   -3.0025 C   0  0  0  0  0  0  0  0  0  0  0  0
   -1.6809    1.8924   -3.9952 H   0  0  0  0  0  0  0  0  0  0  0  0
    0.7360    0.6822   -3.5030 H   0  0  0  0  0  0  0  0  0  0  0  0
   -0.1867    3.4133   -2.4256 H   0  0  0  0  0  0  0  0  0  0  0  0
    1.4966    2.9042   -2.6056 H   0  0  0  0  0  0  0  0  0  0  0  0
    0.4754    3.1196   -4.0397 H   0  0  0  0  0  0  0  0  0  0  0  0
    1.2978    0.5411   -0.9947 N   0  0  0  0  0  0  0  0  0  0  0  0
    1.5371    0.0807    0.3489 C   0  0  2  0  0  0  0  0  0  0  0  0
    1.0243    1.1611    1.2946 C   0  0  0  0  0  0  0  0  0  0  0  0
    0.3126    0.9165    2.2665 O   0  0  0  0  0  0  0  0  0  0  0  0
    3.0232   -0.1954    0.6103 C   0  0  0  0  0  0  0  0  0  0  0  0
    3.5724   -1.3774   -0.1908 C   0  0  0  0  0  0  0  0  0  0  0  0
    5.0481   -1.6377    0.0478 C   0  0  0  0  0  0  0  0  0  0  0  0
    5.7645   -0.9319    0.7517 O   0  0  0  0  0  0  0  0  0  0  0  0
    5.5025   -2.7443   -0.6371 N   0  0  0  0  0  0  0  0  0  0  0  0
    2.0949    0.6178   -1.6227 H   0  0  0  0  0  0  0  0  0  0  0  0
    0.9356   -0.8248    0.4824 H   0  0  0  0  0  0  0  0  0  0  0  0
    3.6068    0.6984    0.3525 H   0  0  0  0  0  0  0  0  0  0  0  0
    3.1905   -0.3700    1.6807 H   0  0  0  0  0  0  0  0  0  0  0  0
    3.4556   -1.1628   -1.2603 H   0  0  0  0  0  0  0  0  0  0  0  0
    3.0040   -2.2898    0.0219 H   0  0  0  0  0  0  0  0  0  0  0  0
    4.8495   -3.2654   -1.2128 H   0  0  0  0  0  0  0  0  0  0  0  0
    6.4669   -3.0566   -0.5862 H   0  0  0  0  0  0  0  0  0  0  0  0
    1.4149    2.4312    0.8936 N   0  0  0  0  0  0  0  0  0  0  0  0
    1.0452    3.6355    1.6019 C   0  0  2  0  0  0  0  0  0  0  0  0
    1.3438    3.4222    3.0800 C   0  0  0  0  0  0  0  0  0  0  0  0
    1.4291    2.3085    3.5932 O   0  0  0  0  0  0  0  0  0  0  0  0
   -0.4214    3.9756    1.3872 C   0  0  0  0  0  0  0  0  0  0  0  0
    1.9893    2.5186    0.0605 H   0  0  0  0  0  0  0  0  0  0  0  0
    1.6802    4.4388    1.2126 H   0  0  0  0  0  0  0  0  0  0  0  0
   -1.0731    3.1822    1.7709 H   0  0  0  0  0  0  0  0  0  0  0  0
   -0.6928    4.9037    1.9011 H   0  0  0  0  0  0  0  0  0  0  0  0
   -0.6408    4.0994    0.3212 H   0  0  0  0  0  0  0  0  0  0  0  0
    1.4612    4.6223    3.7672 N   0  0  0  0  0  0  0  0  0  0  0  0
    1.7307    4.6859    5.1847 C   0  0  0  0  0  0  0  0  0  0  0  0
    1.3947    5.4984    3.2576 H   0  0  0  0  0  0  0  0  0  0  0  0
    0.7809    4.7365    5.7372 H   0  0  0  0  0  0  0  0  0  0  0  0
    2.2866    3.7880    5.4927 H   0  0  0  0  0  0  0  0  0  0  0  0
    2.3305    5.5815    5.4039 H   0  0  0  0  0  0  0  0  0  0  0  0
  1  3  1  0  0  0  0
  1  7  1  0  0  0  0
  1  2  2  0  0  0  0
 22 23  1  0  0  0  0
 23 25  1  0  0  0  0
 23 24  2  0  0  0  0
 35 36  1  0  0  0  0
 36 44  1  0  0  0  0
 36 37  2  0  0  0  0
  8  9  1  0  0  0  0
  9 17  1  0  0  0  0
  9 10  2  0  0  0  0
 18 19  1  0  0  0  0
 19 34  1  0  0  0  0
 19 20  2  0  0  0  0
 35 38  1  0  0  0  0
  8 11  1  0  0  0  0
 44 45  1  0  0  0  0
 21 22  1  0  0  0  0
 18 21  1  0  0  0  0
 34 35  1  0  0  0  0
  7  8  1  0  0  0  0
 17 18  1  0  0  0  0
  3  4  1  0  0  0  0
  3  5  1  0  0  0  0
  3  6  1  0  0  0  0
 38 41  1  0  0  0  0
 38 42  1  0  0  0  0
 38 43  1  0  0  0  0
 11 14  1  0  0  0  0
 11 15  1  0  0  0  0
 11 16  1  0  0  0  0
 45 47  1  0  0  0  0
 45 48  1  0  0  0  0
 45 49  1  0  0  0  0
 22 30  1  0  0  0  0
 22 31  1  0  0  0  0
 21 28  1  0  0  0  0
 21 29  1  0  0  0  0
 35 40  1  0  0  0  0
  8 13  1  0  0  0  0
 18 27  1  0  0  0  0
 25 32  1  0  0  0  0
 25 33  1  0  0  0  0
 44 46  1  0  0  0  0
  7 12  1  0  0  0  0
 34 39  1  0  0  0  0
 17 26  1  0  0  0  0
M  END
$$$$

  -OEChem-05262214473D

 49 48  0     1  0  0  0  0  0999 V2000
   -1.9833   -0.0509   -3.3423 C   0  0  0  0  0  0  0  0  0  0  0  0
   -1.6199   -1.0613   -2.7518 O   0  0  0  0  0  0  0  0  0  0  0  0
   -3.3243   -0.0235   -3.9975 C   0  0  0  0  0  0  0  0  0  0  0  0
   -3.2886   -0.3689   -5.0432 H   0  0  0  0  0  0  0  0  0  0  0  0
   -4.0503   -0.6845   -3.4973 H   0  0  0  0  0  0  0  0  0  0  0  0
   -3.8104    0.9645   -4.0351 H   0  0  0  0  0  0  0  0  0  0  0  0
   -1.2607    1.1231   -3.4768 N   0  0  0  0  0  0  0  0  0  0  0  0
    0.0536    1.3115   -2.9213 C   0  0  2  0  0  0  0  0  0  0  0  0
    0.0266    0.8315   -1.4761 C   0  0  0  0  0  0  0  0  0  0  0  0
   -1.0065    0.7530   -0.8146 O   0  0  0  0  0  0  0  0  0  0  0  0
    0.4852    2.7674   -3.0025 C   0  0  0  0  0  0  0  0  0  0  0  0
   -1.6809    1.8924   -3.9952 H   0  0  0  0  0  0  0  0  0  0  0  0
    0.7360    0.6822   -3.5030 H   0  0  0  0  0  0  0  0  0  0  0  0
   -0.1867    3.4133   -2.4256 H   0  0  0  0  0  0  0  0  0  0  0  0
    1.4966    2.9042   -2.6056 H   0  0  0  0  0  0  0  0  0  0  0  0
    0.4754    3.1196   -4.0397 H   0  0  0  0  0  0  0  0  0  0  0  0
    1.2978    0.5411   -0.9947 N   0  0  0  0  0  0  0  0  0  0  0  0
    1.5371    0.0807    0.3489 C   0  0  2  0  0  0  0  0  0  0  0  0
    1.0243    1.1611    1.2946 C   0  0  0  0  0  0  0  0  0  0  0  0
    0.5467    0.9113    2.3993 O   0  0  0  0  0  0  0  0  0  0  0  0
    3.0232   -0.1954    0.6103 C   0  0  0  0  0  0  0  0  0  0  0  0
    3.5724   -1.3774   -0.1908 C   0  0  0  0  0  0  0  0  0  0  0  0
    5.0481   -1.6377    0.0478 C   0  0  0  0  0  0  0  0  0  0  0  0
    5.7645   -0.9319    0.7517 O   0  0  0  0  0  0  0  0  0  0  0  0
    5.5025   -2.7443   -0.6371 N   0  0  0  0  0  0  0  0  0  0  0  0
    2.0949    0.6178   -1.6227 H   0  0  0  0  0  0  0  0  0  0  0  0
    0.9356   -0.8248    0.4824 H   0  0  0  0  0  0  0  0  0  0  0  0
    3.6068    0.6984    0.3525 H   0  0  0  0  0  0  0  0  0  0  0  0
    3.1905   -0.3700    1.6807 H   0  0  0  0  0  0  0  0  0  0  0  0
    3.4556   -1.1628   -1.2603 H   0  0  0  0  0  0  0  0  0  0  0  0
    3.0040   -2.2898    0.0219 H   0  0  0  0  0  0  0  0  0  0  0  0
    4.8495   -3.2654   -1.2128 H   0  0  0  0  0  0  0  0  0  0  0  0
    6.4669   -3.0566   -0.5862 H   0  0  0  0  0  0  0  0  0  0  0  0
    1.1182    2.4282    0.7360 N   0  0  0  0  0  0  0  0  0  0  0  0
    0.6814    3.6281    1.4131 C   0  0  2  0  0  0  0  0  0  0  0  0
    1.2676    3.6147    2.8187 C   0  0  0  0  0  0  0  0  0  0  0  0
    1.6286    2.5852    3.3852 O   0  0  0  0  0  0  0  0  0  0  0  0
   -0.8360    3.7170    1.4578 C   0  0  0  0  0  0  0  0  0  0  0  0
    1.5137    2.5167   -0.1953 H   0  0  0  0  0  0  0  0  0  0  0  0
    1.0931    4.4748    0.8531 H   0  0  0  0  0  0  0  0  0  0  0  0
   -1.2666    2.8769    2.0148 H   0  0  0  0  0  0  0  0  0  0  0  0
   -1.1652    4.6404    1.9457 H   0  0  0  0  0  0  0  0  0  0  0  0
   -1.2576    3.6964    0.4470 H   0  0  0  0  0  0  0  0  0  0  0  0
    1.3002    4.8824    3.3826 N   0  0  0  0  0  0  0  0  0  0  0  0
    1.8007    5.1307    4.7145 C   0  0  0  0  0  0  0  0  0  0  0  0
    0.9981    5.6816    2.8333 H   0  0  0  0  0  0  0  0  0  0  0  0
    0.9685    5.0920    5.4327 H   0  0  0  0  0  0  0  0  0  0  0  0
    2.5455    4.3642    4.9749 H   0  0  0  0  0  0  0  0  0  0  0  0
    2.2699    6.1249    4.7503 H   0  0  0  0  0  0  0  0  0  0  0  0
  1  3  1  0  0  0  0
  1  7  1  0  0  0  0
  1  2  2  0  0  0  0
 22 23  1  0  0  0  0
 23 25  1  0  0  0  0
 23 24  2  0  0  0  0
 35 36  1  0  0  0  0
 36 44  1  0  0  0  0
 36 37  2  0  0  0  0
  8  9  1  0  0  0  0
  9 17  1  0  0  0  0
  9 10  2  0  0  0  0
 18 19  1  0  0  0  0
 19 34  1  0  0  0  0
 19 20  2  0  0  0  0
 35 38  1  0  0  0  0
  8 11  1  0  0  0  0
 44 45  1  0  0  0  0
 21 22  1  0  0  0  0
 18 21  1  0  0  0  0
 34 35  1  0  0  0  0
  7  8  1  0  0  0  0
 17 18  1  0  0  0  0
  3  4  1  0  0  0  0
  3  5  1  0  0  0  0
  3  6  1  0  0  0  0
 38 41  1  0  0  0  0
 38 42  1  0  0  0  0
 38 43  1  0  0  0  0
 11 14  1  0  0  0  0
 11 15  1  0  0  0  0
 11 16  1  0  0  0  0
 45 47  1  0  0  0  0
 45 48  1  0  0  0  0
 45 49  1  0  0  0  0
 22 30  1  0  0  0  0
 22 31  1  0  0  0  0
 21 28  1  0  0  0  0
 21 29  1  0  0  0  0
 35 40  1  0  0  0  0
  8 13  1  0  0  0  0
 18 27  1  0  0  0  0
 25 32  1  0  0  0  0
 25 33  1  0  0  0  0
 44 46  1  0  0  0  0
  7 12  1  0  0  0  0
 34 39  1  0  0  0  0
 17 26  1  0  0  0  0
M  END
$$$$

  -OEChem-05262214473D

 49 48  0     1  0  0  0  0  0999 V2000
   -1.9833   -0.0509   -3.3423 C   0  0  0  0  0  0  0  0  0  0  0  0
   -1.6199   -1.0613   -2.7518 O   0  0  0  0  0  0  0  0  0  0  0  0
   -3.3243   -0.0235   -3.9975 C   0  0  0  0  0  0  0  0  0  0  0  0
   -3.2886   -0.3689   -5.0432 H   0  0  0  0  0  0  0  0  0  0  0  0
   -4.0503   -0.6845   -3.4973 H   0  0  0  0  0  0  0  0  0  0  0  0
   -3.8104    0.9645   -4.0351 H   0  0  0  0  0  0  0  0  0  0  0  0
   -1.2607    1.1231   -3.4768 N   0  0  0  0  0  0  0  0  0  0  0  0
    0.0536    1.3115   -2.9213 C   0  0  2  0  0  0  0  0  0  0  0  0
    0.0266    0.8315   -1.4761 C   0  0  0  0  0  0  0  0  0  0  0  0
   -1.0065    0.7530   -0.8146 O   0  0  0  0  0  0  0  0  0  0  0  0
    0.4852    2.7674   -3.0025 C   0  0  0  0  0  0  0  0  0  0  0  0
   -1.6809    1.8924   -3.9952 H   0  0  0  0  0  0  0  0  0  0  0  0
    0.7360    0.6822   -3.5030 H   0  0  0  0  0  0  0  0  0  0  0  0
   -0.1867    3.4133   -2.4256 H   0  0  0  0  0  0  0  0  0  0  0  0
    1.4966    2.9042   -2.6056 H   0  0  0  0  0  0  0  0  0  0  0  0
    0.4754    3.1196   -4.0397 H   0  0  0  0  0  0  0  0  0  0  0  0
    1.2978    0.5411   -0.9947 N   0  0  0  0  0  0  0  0  0  0  0  0
    1.5371    0.0807    0.3489 C   0  0  2  0  0  0  0  0  0  0  0  0
    1.0243    1.1611    1.2946 C   0  0  0  0  0  0  0  0  0  0  0  0
    0.7980    0.9555    2.4851 O   0  0  0  0  0  0  0  0  0  0  0  0
    3.0232   -0.1954    0.6103 C   0  0  0  0  0  0  0  0  0  0  0  0
    3.5724   -1.3774   -0.1908 C   0  0  0  0  0  0  0  0  0  0  0  0
    5.0481   -1.6377    0.0478 C   0  0  0  0  0  0  0  0  0  0  0  0
    5.7645   -0.9319    0.7517 O   0  0  0  0  0  0  0  0  0  0  0  0
    5.5025   -2.7443   -0.6371 N   0  0  0  0  0  0  0  0  0  0  0  0
    2.0949    0.6178   -1.6227 H   0  0  0  0  0  0  0  0  0  0  0  0
    0.9356   -0.8248    0.4824 H   0  0  0  0  0  0  0  0  0  0  0  0
    3.6068    0.6984    0.3525 H   0  0  0  0  0  0  0  0  0  0  0  0
    3.1905   -0.3700    1.6807 H   0  0  0  0  0  0  0  0  0  0  0  0
    3.4556   -1.1628   -1.2603 H   0  0  0  0  0  0  0  0  0  0  0  0
    3.0040   -2.2898    0.0219 H   0  0  0  0  0  0  0  0  0  0  0  0
    4.8495   -3.2654   -1.2128 H   0  0  0  0  0  0  0  0  0  0  0  0
    6.4669   -3.0566   -0.5862 H   0  0  0  0  0  0  0  0  0  0  0  0
    0.8032    2.3641    0.6385 N   0  0  0  0  0  0  0  0  0  0  0  0
    0.2966    3.5461    1.2981 C   0  0  2  0  0  0  0  0  0  0  0  0
    1.1151    3.7657    2.5635 C   0  0  0  0  0  0  0  0  0  0  0  0
    1.7387    2.8665    3.1236 O   0  0  0  0  0  0  0  0  0  0  0  0
   -1.1821    3.4068    1.6246 C   0  0  0  0  0  0  0  0  0  0  0  0
    1.0076    2.4163   -0.3550 H   0  0  0  0  0  0  0  0  0  0  0  0
    0.4543    4.3841    0.6104 H   0  0  0  0  0  0  0  0  0  0  0  0
   -1.3597    2.5721    2.3125 H   0  0  0  0  0  0  0  0  0  0  0  0
   -1.5710    4.3141    2.0984 H   0  0  0  0  0  0  0  0  0  0  0  0
   -1.7657    3.2192    0.7168 H   0  0  0  0  0  0  0  0  0  0  0  0
    1.0323    5.0744    3.0181 N   0  0  0  0  0  0  0  0  0  0  0  0
    1.7107    5.5306    4.2087 C   0  0  0  0  0  0  0  0  0  0  0  0
    0.5077    5.7579    2.4801 H   0  0  0  0  0  0  0  0  0  0  0  0
    1.0367    5.4391    5.0732 H   0  0  0  0  0  0  0  0  0  0  0  0
    2.6081    4.9172    4.3770 H   0  0  0  0  0  0  0  0  0  0  0  0
    2.0044    6.5832    4.0827 H   0  0  0  0  0  0  0  0  0  0  0  0
  1  3  1  0  0  0  0
  1  7  1  0  0  0  0
  1  2  2  0  0  0  0
 22 23  1  0  0  0  0
 23 25  1  0  0  0  0
 23 24  2  0  0  0  0
 35 36  1  0  0  0  0
 36 44  1  0  0  0  0
 36 37  2  0  0  0  0
  8  9  1  0  0  0  0
  9 17  1  0  0  0  0
  9 10  2  0  0  0  0
 18 19  1  0  0  0  0
 19 34  1  0  0  0  0
 19 20  2  0  0  0  0
 35 38  1  0  0  0  0
  8 11  1  0  0  0  0
 44 45  1  0  0  0  0
 21 22  1  0  0  0  0
 18 21  1  0  0  0  0
 34 35  1  0  0  0  0
  7  8  1  0  0  0  0
 17 18  1  0  0  0  0
  3  4  1  0  0  0  0
  3  5  1  0  0  0  0
  3  6  1  0  0  0  0
 38 41  1  0  0  0  0
 38 42  1  0  0  0  0
 38 43  1  0  0  0  0
 11 14  1  0  0  0  0
 11 15  1  0  0  0  0
 11 16  1  0  0  0  0
 45 47  1  0  0  0  0
 45 48  1  0  0  0  0
 45 49  1  0  0  0  0
 22 30  1  0  0  0  0
 22 31  1  0  0  0  0
 21 28  1  0  0  0  0
 21 29  1  0  0  0  0
 35 40  1  0  0  0  0
  8 13  1  0  0  0  0
 18 27  1  0  0  0  0
 25 32  1  0  0  0  0
 25 33  1  0  0  0  0
 44 46  1  0  0  0  0
  7 12  1  0  0  0  0
 34 39  1  0  0  0  0
 17 26  1  0  0  0  0
M  END
$$$$

  -OEChem-05262214473D

 49 48  0     1  0  0  0  0  0999 V2000
   -1.9833   -0.0509   -3.3423 C   0  0  0  0  0  0  0  0  0  0  0  0
   -1.6199   -1.0613   -2.7518 O   0  0  0  0  0  0  0  0  0  0  0  0
   -3.3243   -0.0235   -3.9975 C   0  0  0  0  0  0  0  0  0  0  0  0
   -3.2886   -0.3689   -5.0432 H   0  0  0  0  0  0  0  0  0  0  0  0
   -4.0503   -0.6845   -3.4973 H   0  0  0  0  0  0  0  0  0  0  0  0
   -3.8104    0.9645   -4.0351 H   0  0  0  0  0  0  0  0  0  0  0  0
   -1.2607    1.1231   -3.4768 N   0  0  0  0  0  0  0  0  0  0  0  0
    0.0536    1.3115   -2.9213 C   0  0  2  0  0  0  0  0  0  0  0  0
    0.0266    0.8315   -1.4761 C   0  0  0  0  0  0  0  0  0  0  0  0
   -1.0065    0.7530   -0.8146 O   0  0  0  0  0  0  0  0  0  0  0  0
    0.4852    2.7674   -3.0025 C   0  0  0  0  0  0  0  0  0  0  0  0
   -1.6809    1.8924   -3.9952 H   0  0  0  0  0  0  0  0  0  0  0  0
    0.7360    0.6822   -3.5030 H   0  0  0  0  0  0  0  0  0  0  0  0
   -0.1867    3.4133   -2.4256 H   0  0  0  0  0  0  0  0  0  0  0  0
    1.4966    2.9042   -2.6056 H   0  0  0  0  0  0  0  0  0  0  0  0
    0.4754    3.1196   -4.0397 H   0  0  0  0  0  0  0  0  0  0  0  0
    1.2978    0.5411   -0.9947 N   0  0  0  0  0  0  0  0  0  0  0  0
    1.5371    0.0807    0.3489 C   0  0  2  0  0  0  0  0  0  0  0  0
    1.0243    1.1611    1.2946 C   0  0  0  0  0  0  0  0  0  0  0  0
    1.0494    1.0460    2.5181 O   0  0  0  0  0  0  0  0  0  0  0  0
    3.0232   -0.1954    0.6103 C   0  0  0  0  0  0  0  0  0  0  0  0
    3.5724   -1.3774   -0.1908 C   0  0  0  0  0  0  0  0  0  0  0  0
    5.0481   -1.6377    0.0478 C   0  0  0  0  0  0  0  0  0  0  0  0
    5.7645   -0.9319    0.7517 O   0  0  0  0  0  0  0  0  0  0  0  0
    5.5025   -2.7443   -0.6371 N   0  0  0  0  0  0  0  0  0  0  0  0
    2.0949    0.6178   -1.6227 H   0  0  0  0  0  0  0  0  0  0  0  0
    0.9356   -0.8248    0.4824 H   0  0  0  0  0  0  0  0  0  0  0  0
    3.6068    0.6984    0.3525 H   0  0  0  0  0  0  0  0  0  0  0  0
    3.1905   -0.3700    1.6807 H   0  0  0  0  0  0  0  0  0  0  0  0
    3.4556   -1.1628   -1.2603 H   0  0  0  0  0  0  0  0  0  0  0  0
    3.0040   -2.2898    0.0219 H   0  0  0  0  0  0  0  0  0  0  0  0
    4.8495   -3.2654   -1.2128 H   0  0  0  0  0  0  0  0  0  0  0  0
    6.4669   -3.0566   -0.5862 H   0  0  0  0  0  0  0  0  0  0  0  0
    0.4913    2.2430    0.6077 N   0  0  0  0  0  0  0  0  0  0  0  0
   -0.0830    3.3951    1.2648 C   0  0  2  0  0  0  0  0  0  0  0  0
    0.8968    3.8648    2.3319 C   0  0  0  0  0  0  0  0  0  0  0  0
    1.7519    3.1331    2.8262 O   0  0  0  0  0  0  0  0  0  0  0  0
   -1.4360    3.0661    1.8761 C   0  0  0  0  0  0  0  0  0  0  0  0
    0.5056    2.2242   -0.4077 H   0  0  0  0  0  0  0  0  0  0  0  0
   -0.1926    4.1727    0.5010 H   0  0  0  0  0  0  0  0  0  0  0  0
   -1.3462    2.2887    2.6437 H   0  0  0  0  0  0  0  0  0  0  0  0
   -1.8826    3.9471    2.3487 H   0  0  0  0  0  0  0  0  0  0  0  0
   -2.1303    2.7001    1.1121 H   0  0  0  0  0  0  0  0  0  0  0  0
    0.6759    5.1851    2.6983 N   0  0  0  0  0  0  0  0  0  0  0  0
    1.4668    5.8584    3.7019 C   0  0  0  0  0  0  0  0  0  0  0  0
   -0.0429    5.7222    2.2224 H   0  0  0  0  0  0  0  0  0  0  0  0
    0.9810    5.7539    4.6833 H   0  0  0  0  0  0  0  0  0  0  0  0
    2.4702    5.4094    3.7399 H   0  0  0  0  0  0  0  0  0  0  0  0
    1.5518    6.9251    3.4467 H   0  0  0  0  0  0  0  0  0  0  0  0
  1  3  1  0  0  0  0
  1  7  1  0  0  0  0
  1  2  2  0  0  0  0
 22 23  1  0  0  0  0
 23 25  1  0  0  0  0
 23 24  2  0  0  0  0
 35 36  1  0  0  0  0
 36 44  1  0  0  0  0
 36 37  2  0  0  0  0
  8  9  1  0  0  0  0
  9 17  1  0  0  0  0
  9 10  2  0  0  0  0
 18 19  1  0  0  0  0
 19 34  1  0  0  0  0
 19 20  2  0  0  0  0
 35 38  1  0  0  0  0
  8 11  1  0  0  0  0
 44 45  1  0  0  0  0
 21 22  1  0  0  0  0
 18 21  1  0  0  0  0
 34 35  1  0  0  0  0
  7  8  1  0  0  0  0
 17 18  1  0  0  0  0
  3  4  1  0  0  0  0
  3  5  1  0  0  0  0
  3  6  1  0  0  0  0
 38 41  1  0  0  0  0
 38 42  1  0  0  0  0
 38 43  1  0  0  0  0
 11 14  1  0  0  0  0
 11 15  1  0  0  0  0
 11 16  1  0  0  0  0
 45 47  1  0  0  0  0
 45 48  1  0  0  0  0
 45 49  1  0  0  0  0
 22 30  1  0  0  0  0
 22 31  1  0  0  0  0
 21 28  1  0  0  0  0
 21 29  1  0  0  0  0
 35 40  1  0  0  0  0
  8 13  1  0  0  0  0
 18 27  1  0  0  0  0
 25 32  1  0  0  0  0
 25 33  1  0  0  0  0
 44 46  1  0  0  0  0
  7 12  1  0  0  0  0
 34 39  1  0  0  0  0
 17 26  1  0  0  0  0
M  END
$$$$

  -OEChem-05262214473D

 49 48  0     1  0  0  0  0  0999 V2000
   -1.9833   -0.0509   -3.3423 C   0  0  0  0  0  0  0  0  0  0  0  0
   -1.6199   -1.0613   -2.7518 O   0  0  0  0  0  0  0  0  0  0  0  0
   -3.3243   -0.0235   -3.9975 C   0  0  0  0  0  0  0  0  0  0  0  0
   -3.2886   -0.3689   -5.0432 H   0  0  0  0  0  0  0  0  0  0  0  0
   -4.0503   -0.6845   -3.4973 H   0  0  0  0  0  0  0  0  0  0  0  0
   -3.8104    0.9645   -4.0351 H   0  0  0  0  0  0  0  0  0  0  0  0
   -1.2607    1.1231   -3.4768 N   0  0  0  0  0  0  0  0  0  0  0  0
    0.0536    1.3115   -2.9213 C   0  0  2  0  0  0  0  0  0  0  0  0
    0.0266    0.8315   -1.4761 C   0  0  0  0  0  0  0  0  0  0  0  0
   -1.0065    0.7530   -0.8146 O   0  0  0  0  0  0  0  0  0  0  0  0
    0.4852    2.7674   -3.0025 C   0  0  0  0  0  0  0  0  0  0  0  0
   -1.6809    1.8924   -3.9952 H   0  0  0  0  0  0  0  0  0  0  0  0
    0.7360    0.6822   -3.5030 H   0  0  0  0  0  0  0  0  0  0  0  0
   -0.1867    3.4133   -2.4256 H   0  0  0  0  0  0  0  0  0  0  0  0
    1.4966    2.9042   -2.6056 H   0  0  0  0  0  0  0  0  0  0  0  0
    0.4754    3.1196   -4.0397 H   0  0  0  0  0  0  0  0  0  0  0  0
    1.2978    0.5411   -0.9947 N   0  0  0  0  0  0  0  0  0  0  0  0
    1.5371    0.0807    0.3489 C   0  0  2  0  0  0  0  0  0  0  0  0
    1.0243    1.1611    1.2946 C   0  0  0  0  0  0  0  0  0  0  0  0
    1.2838    1.1766    2.4960 O   0  0  0  0  0  0  0  0  0  0  0  0
    3.0232   -0.1954    0.6103 C   0  0  0  0  0  0  0  0  0  0  0  0
    3.5724   -1.3774   -0.1908 C   0  0  0  0  0  0  0  0  0  0  0  0
    5.0481   -1.6377    0.0478 C   0  0  0  0  0  0  0  0  0  0  0  0
    5.7645   -0.9319    0.7517 O   0  0  0  0  0  0  0  0  0  0  0  0
    5.5025   -2.7443   -0.6371 N   0  0  0  0  0  0  0  0  0  0  0  0
    2.0949    0.6178   -1.6227 H   0  0  0  0  0  0  0  0  0  0  0  0
    0.9356   -0.8248    0.4824 H   0  0  0  0  0  0  0  0  0  0  0  0
    3.6068    0.6984    0.3525 H   0  0  0  0  0  0  0  0  0  0  0  0
    3.1905   -0.3700    1.6807 H   0  0  0  0  0  0  0  0  0  0  0  0
    3.4556   -1.1628   -1.2603 H   0  0  0  0  0  0  0  0  0  0  0  0
    3.0040   -2.2898    0.0219 H   0  0  0  0  0  0  0  0  0  0  0  0
    4.8495   -3.2654   -1.2128 H   0  0  0  0  0  0  0  0  0  0  0  0
    6.4669   -3.0566   -0.5862 H   0  0  0  0  0  0  0  0  0  0  0  0
    0.2038    2.0733    0.6457 N   0  0  0  0  0  0  0  0  0  0  0  0
   -0.4315    3.1854    1.3153 C   0  0  2  0  0  0  0  0  0  0  0  0
    0.6275    3.9054    2.1395 C   0  0  0  0  0  0  0  0  0  0  0  0
    1.6674    3.3668    2.5133 O   0  0  0  0  0  0  0  0  0  0  0  0
   -1.5804    2.7181    2.1954 C   0  0  0  0  0  0  0  0  0  0  0  0
    0.0418    1.9534   -0.3498 H   0  0  0  0  0  0  0  0  0  0  0  0
   -0.8037    3.8552    0.5324 H   0  0  0  0  0  0  0  0  0  0  0  0
   -1.2269    2.0459    2.9857 H   0  0  0  0  0  0  0  0  0  0  0  0
   -2.0788    3.5643    2.6796 H   0  0  0  0  0  0  0  0  0  0  0  0
   -2.3267    2.1746    1.6060 H   0  0  0  0  0  0  0  0  0  0  0  0
    0.2553    5.2070    2.4452 N   0  0  0  0  0  0  0  0  0  0  0  0
    1.0856    6.0918    3.2285 C   0  0  0  0  0  0  0  0  0  0  0  0
   -0.6164    5.5768    2.0775 H   0  0  0  0  0  0  0  0  0  0  0  0
    0.8051    6.0152    4.2894 H   0  0  0  0  0  0  0  0  0  0  0  0
    2.1411    5.8072    3.1070 H   0  0  0  0  0  0  0  0  0  0  0  0
    0.9432    7.1273    2.8856 H   0  0  0  0  0  0  0  0  0  0  0  0
  1  3  1  0  0  0  0
  1  7  1  0  0  0  0
  1  2  2  0  0  0  0
 22 23  1  0  0  0  0
 23 25  1  0  0  0  0
 23 24  2  0  0  0  0
 35 36  1  0  0  0  0
 36 44  1  0  0  0  0
 36 37  2  0  0  0  0
  8  9  1  0  0  0  0
  9 17  1  0  0  0  0
  9 10  2  0  0  0  0
 18 19  1  0  0  0  0
 19 34  1  0  0  0  0
 19 20  2  0  0  0  0
 35 38  1  0  0  0  0
  8 11  1  0  0  0  0
 44 45  1  0  0  0  0
 21 22  1  0  0  0  0
 18 21  1  0  0  0  0
 34 35  1  0  0  0  0
  7  8  1  0  0  0  0
 17 18  1  0  0  0  0
  3  4  1  0  0  0  0
  3  5  1  0  0  0  0
  3  6  1  0  0  0  0
 38 41  1  0  0  0  0
 38 42  1  0  0  0  0
 38 43  1  0  0  0  0
 11 14  1  0  0  0  0
 11 15  1  0  0  0  0
 11 16  1  0  0  0  0
 45 47  1  0  0  0  0
 45 48  1  0  0  0  0
 45 49  1  0  0  0  0
 22 30  1  0  0  0  0
 22 31  1  0  0  0  0
 21 28  1  0  0  0  0
 21 29  1  0  0  0  0
 35 40  1  0  0  0  0
  8 13  1  0  0  0  0
 18 27  1  0  0  0  0
 25 32  1  0  0  0  0
 25 33  1  0  0  0  0
 44 46  1  0  0  0  0
  7 12  1  0  0  0  0
 34 39  1  0  0  0  0
 17 26  1  0  0  0  0
M  END
$$$$

  -OEChem-05262214473D

 49 48  0     1  0  0  0  0  0999 V2000
   -1.9833   -0.0509   -3.3423 C   0  0  0  0  0  0  0  0  0  0  0  0
   -1.6199   -1.0613   -2.7518 O   0  0  0  0  0  0  0  0  0  0  0  0
   -3.3243   -0.0235   -3.9975 C   0  0  0  0  0  0  0  0  0  0  0  0
   -3.2886   -0.3689   -5.0432 H   0  0  0  0  0  0  0  0  0  0  0  0
   -4.0503   -0.6845   -3.4973 H   0  0  0  0  0  0  0  0  0  0  0  0
   -3.8104    0.9645   -4.0351 H   0  0  0  0  0  0  0  0  0  0  0  0
   -1.2607    1.1231   -3.4768 N   0  0  0  0  0  0  0  0  0  0  0  0
    0.0536    1.3115   -2.9213 C   0  0  2  0  0  0  0  0  0  0  0  0
    0.0266    0.8315   -1.4761 C   0  0  0  0  0  0  0  0  0  0  0  0
   -1.0065    0.7530   -0.8146 O   0  0  0  0  0  0  0  0  0  0  0  0
    0.4852    2.7674   -3.0025 C   0  0  0  0  0  0  0  0  0  0  0  0
   -1.6809    1.8924   -3.9952 H   0  0  0  0  0  0  0  0  0  0  0  0
    0.7360    0.6822   -3.5030 H   0  0  0  0  0  0  0  0  0  0  0  0
   -0.1867    3.4133   -2.4256 H   0  0  0  0  0  0  0  0  0  0  0  0
    1.4966    2.9042   -2.6056 H   0  0  0  0  0  0  0  0  0  0  0  0
    0.4754    3.1196   -4.0397 H   0  0  0  0  0  0  0  0  0  0  0  0
    1.2978    0.5411   -0.9947 N   0  0  0  0  0  0  0  0  0  0  0  0
    1.5371    0.0807    0.3489 C   0  0  2  0  0  0  0  0  0  0  0  0
    1.0243    1.1611    1.2946 C   0  0  0  0  0  0  0  0  0  0  0  0
    1.4851    1.3384    2.4202 O   0  0  0  0  0  0  0  0  0  0  0  0
    3.0232   -0.1954    0.6103 C   0  0  0  0  0  0  0  0  0  0  0  0
    3.5724   -1.3774   -0.1908 C   0  0  0  0  0  0  0  0  0  0  0  0
    5.0481   -1.6377    0.0478 C   0  0  0  0  0  0  0  0  0  0  0  0
    5.7645   -0.9319    0.7517 O   0  0  0  0  0  0  0  0  0  0  0  0
    5.5025   -2.7443   -0.6371 N   0  0  0  0  0  0  0  0  0  0  0  0
    2.0949    0.6178   -1.6227 H   0  0  0  0  0  0  0  0  0  0  0  0
    0.9356   -0.8248    0.4824 H   0  0  0  0  0  0  0  0  0  0  0  0
    3.6068    0.6984    0.3525 H   0  0  0  0  0  0  0  0  0  0  0  0
    3.1905   -0.3700    1.6807 H   0  0  0  0  0  0  0  0  0  0  0  0
    3.4556   -1.1628   -1.2603 H   0  0  0  0  0  0  0  0  0  0  0  0
    3.0040   -2.2898    0.0219 H   0  0  0  0  0  0  0  0  0  0  0  0
    4.8495   -3.2654   -1.2128 H   0  0  0  0  0  0  0  0  0  0  0  0
    6.4669   -3.0566   -0.5862 H   0  0  0  0  0  0  0  0  0  0  0  0
   -0.0396    1.8666    0.7498 N   0  0  0  0  0  0  0  0  0  0  0  0
   -0.7253    2.9312    1.4463 C   0  0  2  0  0  0  0  0  0  0  0  0
    0.3257    3.8846    1.9996 C   0  0  0  0  0  0  0  0  0  0  0  0
    1.4908    3.5517    2.2063 O   0  0  0  0  0  0  0  0  0  0  0  0
   -1.6055    2.3866    2.5605 C   0  0  0  0  0  0  0  0  0  0  0  0
   -0.3520    1.6224   -0.1853 H   0  0  0  0  0  0  0  0  0  0  0  0
   -1.3372    3.4531    0.7025 H   0  0  0  0  0  0  0  0  0  0  0  0
   -1.0100    1.8603    3.3154 H   0  0  0  0  0  0  0  0  0  0  0  0
   -2.1462    3.1919    3.0686 H   0  0  0  0  0  0  0  0  0  0  0  0
   -2.3415    1.6784    2.1648 H   0  0  0  0  0  0  0  0  0  0  0  0
   -0.2010    5.1385    2.2760 N   0  0  0  0  0  0  0  0  0  0  0  0
    0.5931    6.2148    2.8209 C   0  0  0  0  0  0  0  0  0  0  0  0
   -1.1735    5.3317    2.0553 H   0  0  0  0  0  0  0  0  0  0  0  0
    0.5211    6.2050    3.9185 H   0  0  0  0  0  0  0  0  0  0  0  0
    1.6433    6.0835    2.5213 H   0  0  0  0  0  0  0  0  0  0  0  0
    0.2199    7.1760    2.4377 H   0  0  0  0  0  0  0  0  0  0  0  0
  1  3  1  0  0  0  0
  1  7  1  0  0  0  0
  1  2  2  0  0  0  0
 22 23  1  0  0  0  0
 23 25  1  0  0  0  0
 23 24  2  0  0  0  0
 35 36  1  0  0  0  0
 36 44  1  0  0  0  0
 36 37  2  0  0  0  0
  8  9  1  0  0  0  0
  9 17  1  0  0  0  0
  9 10  2  0  0  0  0
 18 19  1  0  0  0  0
 19 34  1  0  0  0  0
 19 20  2  0  0  0  0
 35 38  1  0  0  0  0
  8 11  1  0  0  0  0
 44 45  1  0  0  0  0
 21 22  1  0  0  0  0
 18 21  1  0  0  0  0
 34 35  1  0  0  0  0
  7  8  1  0  0  0  0
 17 18  1  0  0  0  0
  3  4  1  0  0  0  0
  3  5  1  0  0  0  0
  3  6  1  0  0  0  0
 38 41  1  0  0  0  0
 38 42  1  0  0  0  0
 38 43  1  0  0  0  0
 11 14  1  0  0  0  0
 11 15  1  0  0  0  0
 11 16  1  0  0  0  0
 45 47  1  0  0  0  0
 45 48  1  0  0  0  0
 45 49  1  0  0  0  0
 22 30  1  0  0  0  0
 22 31  1  0  0  0  0
 21 28  1  0  0  0  0
 21 29  1  0  0  0  0
 35 40  1  0  0  0  0
  8 13  1  0  0  0  0
 18 27  1  0  0  0  0
 25 32  1  0  0  0  0
 25 33  1  0  0  0  0
 44 46  1  0  0  0  0
  7 12  1  0  0  0  0
 34 39  1  0  0  0  0
 17 26  1  0  0  0  0
M  END
$$$$

  -OEChem-05262214473D

 49 48  0     1  0  0  0  0  0999 V2000
   -1.9833   -0.0509   -3.3423 C   0  0  0  0  0  0  0  0  0  0  0  0
   -1.6199   -1.0613   -2.7518 O   0  0  0  0  0  0  0  0  0  0  0  0
   -3.3243   -0.0235   -3.9975 C   0  0  0  0  0  0  0  0  0  0  0  0
   -3.2886   -0.3689   -5.0432 H   0  0  0  0  0  0  0  0  0  0  0  0
   -4.0503   -0.6845   -3.4973 H   0  0  0  0  0  0  0  0  0  0  0  0
   -3.8104    0.9645   -4.0351 H   0  0  0  0  0  0  0  0  0  0  0  0
   -1.2607    1.1231   -3.4768 N   0  0  0  0  0  0  0  0  0  0  0  0
    0.0536    1.3115   -2.9213 C   0  0  2  0  0  0  0  0  0  0  0  0
    0.0266    0.8315   -1.4761 C   0  0  0  0  0  0  0  0  0  0  0  0
   -1.0065    0.7530   -0.8146 O   0  0  0  0  0  0  0  0  0  0  0  0
    0.4852    2.7674   -3.0025 C   0  0  0  0  0  0  0  0  0  0  0  0
   -1.6809    1.8924   -3.9952 H   0  0  0  0  0  0  0  0  0  0  0  0
    0.7360    0.6822   -3.5030 H   0  0  0  0  0  0  0  0  0  0  0  0
   -0.1867    3.4133   -2.4256 H   0  0  0  0  0  0  0  0  0  0  0  0
    1.4966    2.9042   -2.6056 H   0  0  0  0  0  0  0  0  0  0  0  0
    0.4754    3.1196   -4.0397 H   0  0  0  0  0  0  0  0  0  0  0  0
    1.2978    0.5411   -0.9947 N   0  0  0  0  0  0  0  0  0  0  0  0
    1.5371    0.0807    0.3489 C   0  0  2  0  0  0  0  0  0  0  0  0
    1.0243    1.1611    1.2946 C   0  0  0  0  0  0  0  0  0  0  0  0
    1.6397    1.5205    2.2961 O   0  0  0  0  0  0  0  0  0  0  0  0
    3.0232   -0.1954    0.6103 C   0  0  0  0  0  0  0  0  0  0  0  0
    3.5724   -1.3774   -0.1908 C   0  0  0  0  0  0  0  0  0  0  0  0
    5.0481   -1.6377    0.0478 C   0  0  0  0  0  0  0  0  0  0  0  0
    5.7645   -0.9319    0.7517 O   0  0  0  0  0  0  0  0  0  0  0  0
    5.5025   -2.7443   -0.6371 N   0  0  0  0  0  0  0  0  0  0  0  0
    2.0949    0.6178   -1.6227 H   0  0  0  0  0  0  0  0  0  0  0  0
    0.9356   -0.8248    0.4824 H   0  0  0  0  0  0  0  0  0  0  0  0
    3.6068    0.6984    0.3525 H   0  0  0  0  0  0  0  0  0  0  0  0
    3.1905   -0.3700    1.6807 H   0  0  0  0  0  0  0  0  0  0  0  0
    3.4556   -1.1628   -1.2603 H   0  0  0  0  0  0  0  0  0  0  0  0
    3.0040   -2.2898    0.0219 H   0  0  0  0  0  0  0  0  0  0  0  0
    4.8495   -3.2654   -1.2128 H   0  0  0  0  0  0  0  0  0  0  0  0
    6.4669   -3.0566   -0.5862 H   0  0  0  0  0  0  0  0  0  0  0  0
   -0.2225    1.6369    0.9131 N   0  0  0  0  0  0  0  0  0  0  0  0
   -0.9442    2.6500    1.6489 C   0  0  2  0  0  0  0  0  0  0  0  0
    0.0117    3.8038    1.9216 C   0  0  0  0  0  0  0  0  0  0  0  0
    1.2343    3.6753    1.9260 O   0  0  0  0  0  0  0  0  0  0  0  0
   -1.5095    2.0942    2.9466 C   0  0  0  0  0  0  0  0  0  0  0  0
   -0.6491    1.2538    0.0747 H   0  0  0  0  0  0  0  0  0  0  0  0
   -1.7568    2.9939    0.9996 H   0  0  0  0  0  0  0  0  0  0  0  0
   -0.7102    1.7446    3.6101 H   0  0  0  0  0  0  0  0  0  0  0  0
   -2.0801    2.8553    3.4890 H   0  0  0  0  0  0  0  0  0  0  0  0
   -2.1736    1.2454    2.7505 H   0  0  0  0  0  0  0  0  0  0  0  0
   -0.6618    4.9844    2.2021 N   0  0  0  0  0  0  0  0  0  0  0  0
    0.0229    6.2191    2.5067 C   0  0  0  0  0  0  0  0  0  0  0  0
   -1.6764    5.0037    2.1575 H   0  0  0  0  0  0  0  0  0  0  0  0
    0.1482    6.3105    3.5958 H   0  0  0  0  0  0  0  0  0  0  0  0
    1.0107    6.2195    2.0228 H   0  0  0  0  0  0  0  0  0  0  0  0
   -0.5687    7.0680    2.1334 H   0  0  0  0  0  0  0  0  0  0  0  0
  1  3  1  0  0  0  0
  1  7  1  0  0  0  0
  1  2  2  0  0  0  0
 22 23  1  0  0  0  0
 23 25  1  0  0  0  0
 23 24  2  0  0  0  0
 35 36  1  0  0  0  0
 36 44  1  0  0  0  0
 36 37  2  0  0  0  0
  8  9  1  0  0  0  0
  9 17  1  0  0  0  0
  9 10  2  0  0  0  0
 18 19  1  0  0  0  0
 19 34  1  0  0  0  0
 19 20  2  0  0  0  0
 35 38  1  0  0  0  0
  8 11  1  0  0  0  0
 44 45  1  0  0  0  0
 21 22  1  0  0  0  0
 18 21  1  0  0  0  0
 34 35  1  0  0  0  0
  7  8  1  0  0  0  0
 17 18  1  0  0  0  0
  3  4  1  0  0  0  0
  3  5  1  0  0  0  0
  3  6  1  0  0  0  0
 38 41  1  0  0  0  0
 38 42  1  0  0  0  0
 38 43  1  0  0  0  0
 11 14  1  0  0  0  0
 11 15  1  0  0  0  0
 11 16  1  0  0  0  0
 45 47  1  0  0  0  0
 45 48  1  0  0  0  0
 45 49  1  0  0  0  0
 22 30  1  0  0  0  0
 22 31  1  0  0  0  0
 21 28  1  0  0  0  0
 21 29  1  0  0  0  0
 35 40  1  0  0  0  0
  8 13  1  0  0  0  0
 18 27  1  0  0  0  0
 25 32  1  0  0  0  0
 25 33  1  0  0  0  0
 44 46  1  0  0  0  0
  7 12  1  0  0  0  0
 34 39  1  0  0  0  0
 17 26  1  0  0  0  0
M  END
$$$$

  -OEChem-05262214473D

 49 48  0     1  0  0  0  0  0999 V2000
   -1.9833   -0.0509   -3.3423 C   0  0  0  0  0  0  0  0  0  0  0  0
   -1.6199   -1.0613   -2.7518 O   0  0  0  0  0  0  0  0  0  0  0  0
   -3.3243   -0.0235   -3.9975 C   0  0  0  0  0  0  0  0  0  0  0  0
   -3.2886   -0.3689   -5.0432 H   0  0  0  0  0  0  0  0  0  0  0  0
   -4.0503   -0.6845   -3.4973 H   0  0  0  0  0  0  0  0  0  0  0  0
   -3.8104    0.9645   -4.0351 H   0  0  0  0  0  0  0  0  0  0  0  0
   -1.2607    1.1231   -3.4768 N   0  0  0  0  0  0  0  0  0  0  0  0
    0.0536    1.3115   -2.9213 C   0  0  2  0  0  0  0  0  0  0  0  0
    0.0266    0.8315   -1.4761 C   0  0  0  0  0  0  0  0  0  0  0  0
   -1.0065    0.7530   -0.8146 O   0  0  0  0  0  0  0  0  0  0  0  0
    0.4852    2.7674   -3.0025 C   0  0  0  0  0  0  0  0  0  0  0  0
   -1.6809    1.8924   -3.9952 H   0  0  0  0  0  0  0  0  0  0  0  0
    0.7360    0.6822   -3.5030 H   0  0  0  0  0  0  0  0  0  0  0  0
   -0.1867    3.4133   -2.4256 H   0  0  0  0  0  0  0  0  0  0  0  0
    1.4966    2.9042   -2.6056 H   0  0  0  0  0  0  0  0  0  0  0  0
    0.4754    3.1196   -4.0397 H   0  0  0  0  0  0  0  0  0  0  0  0
    1.2978    0.5411   -0.9947 N   0  0  0  0  0  0  0  0  0  0  0  0
    1.5371    0.0807    0.3489 C   0  0  2  0  0  0  0  0  0  0  0  0
    1.0243    1.1611    1.2946 C   0  0  0  0  0  0  0  0  0  0  0  0
    1.7371    1.7104    2.1319 O   0  0  0  0  0  0  0  0  0  0  0  0
    3.0232   -0.1954    0.6103 C   0  0  0  0  0  0  0  0  0  0  0  0
    3.5724   -1.3774   -0.1908 C   0  0  0  0  0  0  0  0  0  0  0  0
    5.0481   -1.6377    0.0478 C   0  0  0  0  0  0  0  0  0  0  0  0
    5.7645   -0.9319    0.7517 O   0  0  0  0  0  0  0  0  0  0  0  0
    5.5025   -2.7443   -0.6371 N   0  0  0  0  0  0  0  0  0  0  0  0
    2.0949    0.6178   -1.6227 H   0  0  0  0  0  0  0  0  0  0  0  0
    0.9356   -0.8248    0.4824 H   0  0  0  0  0  0  0  0  0  0  0  0
    3.6068    0.6984    0.3525 H   0  0  0  0  0  0  0  0  0  0  0  0
    3.1905   -0.3700    1.6807 H   0  0  0  0  0  0  0  0  0  0  0  0
    3.4556   -1.1628   -1.2603 H   0  0  0  0  0  0  0  0  0  0  0  0
    3.0040   -2.2898    0.0219 H   0  0  0  0  0  0  0  0  0  0  0  0
    4.8495   -3.2654   -1.2128 H   0  0  0  0  0  0  0  0  0  0  0  0
    6.4669   -3.0566   -0.5862 H   0  0  0  0  0  0  0  0  0  0  0  0
   -0.3323    1.3999    1.1243 N   0  0  0  0  0  0  0  0  0  0  0  0
   -1.0734    2.3609    1.9091 C   0  0  2  0  0  0  0  0  0  0  0  0
   -0.2928    3.6687    1.9109 C   0  0  0  0  0  0  0  0  0  0  0  0
    0.9152    3.7291    1.6915 O   0  0  0  0  0  0  0  0  0  0  0  0
   -1.2991    1.8607    3.3274 C   0  0  0  0  0  0  0  0  0  0  0  0
   -0.8292    0.8727    0.4124 H   0  0  0  0  0  0  0  0  0  0  0  0
   -2.0338    2.5089    1.4035 H   0  0  0  0  0  0  0  0  0  0  0  0
   -0.3479    1.7066    3.8500 H   0  0  0  0  0  0  0  0  0  0  0  0
   -1.8852    2.5773    3.9123 H   0  0  0  0  0  0  0  0  0  0  0  0
   -1.8345    0.9052    3.3231 H   0  0  0  0  0  0  0  0  0  0  0  0
   -1.0957    4.7552    2.2287 N   0  0  0  0  0  0  0  0  0  0  0  0
   -0.5862    6.1044    2.3075 C   0  0  0  0  0  0  0  0  0  0  0  0
   -2.0907    4.6149    2.3769 H   0  0  0  0  0  0  0  0  0  0  0  0
   -0.2881    6.3244    3.3433 H   0  0  0  0  0  0  0  0  0  0  0  0
    0.2864    6.2060    1.6455 H   0  0  0  0  0  0  0  0  0  0  0  0
   -1.3689    6.8106    1.9935 H   0  0  0  0  0  0  0  0  0  0  0  0
  1  3  1  0  0  0  0
  1  7  1  0  0  0  0
  1  2  2  0  0  0  0
 22 23  1  0  0  0  0
 23 25  1  0  0  0  0
 23 24  2  0  0  0  0
 35 36  1  0  0  0  0
 36 44  1  0  0  0  0
 36 37  2  0  0  0  0
  8  9  1  0  0  0  0
  9 17  1  0  0  0  0
  9 10  2  0  0  0  0
 18 19  1  0  0  0  0
 19 34  1  0  0  0  0
 19 20  2  0  0  0  0
 35 38  1  0  0  0  0
  8 11  1  0  0  0  0
 44 45  1  0  0  0  0
 21 22  1  0  0  0  0
 18 21  1  0  0  0  0
 34 35  1  0  0  0  0
  7  8  1  0  0  0  0
 17 18  1  0  0  0  0
  3  4  1  0  0  0  0
  3  5  1  0  0  0  0
  3  6  1  0  0  0  0
 38 41  1  0  0  0  0
 38 42  1  0  0  0  0
 38 43  1  0  0  0  0
 11 14  1  0  0  0  0
 11 15  1  0  0  0  0
 11 16  1  0  0  0  0
 45 47  1  0  0  0  0
 45 48  1  0  0  0  0
 45 49  1  0  0  0  0
 22 30  1  0  0  0  0
 22 31  1  0  0  0  0
 21 28  1  0  0  0  0
 21 29  1  0  0  0  0
 35 40  1  0  0  0  0
  8 13  1  0  0  0  0
 18 27  1  0  0  0  0
 25 32  1  0  0  0  0
 25 33  1  0  0  0  0
 44 46  1  0  0  0  0
  7 12  1  0  0  0  0
 34 39  1  0  0  0  0
 17 26  1  0  0  0  0
M  END
$$$$

  -OEChem-05262214473D

 49 48  0     1  0  0  0  0  0999 V2000
   -1.9833   -0.0509   -3.3423 C   0  0  0  0  0  0  0  0  0  0  0  0
   -1.6199   -1.0613   -2.7518 O   0  0  0  0  0  0  0  0  0  0  0  0
   -3.3243   -0.0235   -3.9975 C   0  0  0  0  0  0  0  0  0  0  0  0
   -3.2886   -0.3689   -5.0432 H   0  0  0  0  0  0  0  0  0  0  0  0
   -4.0503   -0.6845   -3.4973 H   0  0  0  0  0  0  0  0  0  0  0  0
   -3.8104    0.9645   -4.0351 H   0  0  0  0  0  0  0  0  0  0  0  0
   -1.2607    1.1231   -3.4768 N   0  0  0  0  0  0  0  0  0  0  0  0
    0.0536    1.3115   -2.9213 C   0  0  2  0  0  0  0  0  0  0  0  0
    0.0266    0.8315   -1.4761 C   0  0  0  0  0  0  0  0  0  0  0  0
   -1.0065    0.7530   -0.8146 O   0  0  0  0  0  0  0  0  0  0  0  0
    0.4852    2.7674   -3.0025 C   0  0  0  0  0  0  0  0  0  0  0  0
   -1.6809    1.8924   -3.9952 H   0  0  0  0  0  0  0  0  0  0  0  0
    0.7360    0.6822   -3.5030 H   0  0  0  0  0  0  0  0  0  0  0  0
   -0.1867    3.4133   -2.4256 H   0  0  0  0  0  0  0  0  0  0  0  0
    1.4966    2.9042   -2.6056 H   0  0  0  0  0  0  0  0  0  0  0  0
    0.4754    3.1196   -4.0397 H   0  0  0  0  0  0  0  0  0  0  0  0
    1.2978    0.5411   -0.9947 N   0  0  0  0  0  0  0  0  0  0  0  0
    1.5371    0.0807    0.3489 C   0  0  2  0  0  0  0  0  0  0  0  0
    1.0243    1.1611    1.2946 C   0  0  0  0  0  0  0  0  0  0  0  0
    1.7705    1.8952    1.9390 O   0  0  0  0  0  0  0  0  0  0  0  0
    3.0232   -0.1954    0.6103 C   0  0  0  0  0  0  0  0  0  0  0  0
    3.5724   -1.3774   -0.1908 C   0  0  0  0  0  0  0  0  0  0  0  0
    5.0481   -1.6377    0.0478 C   0  0  0  0  0  0  0  0  0  0  0  0
    5.7645   -0.9319    0.7517 O   0  0  0  0  0  0  0  0  0  0  0  0
    5.5025   -2.7443   -0.6371 N   0  0  0  0  0  0  0  0  0  0  0  0
    2.0949    0.6178   -1.6227 H   0  0  0  0  0  0  0  0  0  0  0  0
    0.9356   -0.8248    0.4824 H   0  0  0  0  0  0  0  0  0  0  0  0
    3.6068    0.6984    0.3525 H   0  0  0  0  0  0  0  0  0  0  0  0
    3.1905   -0.3700    1.6807 H   0  0  0  0  0  0  0  0  0  0  0  0
    3.4556   -1.1628   -1.2603 H   0  0  0  0  0  0  0  0  0  0  0  0
    3.0040   -2.2898    0.0219 H   0  0  0  0  0  0  0  0  0  0  0  0
    4.8495   -3.2654   -1.2128 H   0  0  0  0  0  0  0  0  0  0  0  0
    6.4669   -3.0566   -0.5862 H   0  0  0  0  0  0  0  0  0  0  0  0
   -0.3616    1.1717    1.3691 N   0  0  0  0  0  0  0  0  0  0  0  0
   -1.1040    2.0836    2.2094 C   0  0  2  0  0  0  0  0  0  0  0  0
   -0.5673    3.4883    1.9681 C   0  0  0  0  0  0  0  0  0  0  0  0
    0.5554    3.7094    1.5189 O   0  0  0  0  0  0  0  0  0  0  0  0
   -0.9885    1.7022    3.6770 C   0  0  0  0  0  0  0  0  0  0  0  0
   -0.8801    0.5051    0.8048 H   0  0  0  0  0  0  0  0  0  0  0  0
   -2.1495    2.0310    1.8867 H   0  0  0  0  0  0  0  0  0  0  0  0
    0.0520    1.7490    4.0185 H   0  0  0  0  0  0  0  0  0  0  0  0
   -1.5746    2.3769    4.3096 H   0  0  0  0  0  0  0  0  0  0  0  0
   -1.3474    0.6808    3.8437 H   0  0  0  0  0  0  0  0  0  0  0  0
   -1.4731    4.4665    2.3539 N   0  0  0  0  0  0  0  0  0  0  0  0
   -1.1927    5.8784    2.2368 C   0  0  0  0  0  0  0  0  0  0  0  0
   -2.3883    4.1920    2.6987 H   0  0  0  0  0  0  0  0  0  0  0  0
   -0.7581    6.2458    3.1782 H   0  0  0  0  0  0  0  0  0  0  0  0
   -0.4803    6.0437    1.4151 H   0  0  0  0  0  0  0  0  0  0  0  0
   -2.1262    6.4214    2.0276 H   0  0  0  0  0  0  0  0  0  0  0  0
  1  3  1  0  0  0  0
  1  7  1  0  0  0  0
  1  2  2  0  0  0  0
 22 23  1  0  0  0  0
 23 25  1  0  0  0  0
 23 24  2  0  0  0  0
 35 36  1  0  0  0  0
 36 44  1  0  0  0  0
 36 37  2  0  0  0  0
  8  9  1  0  0  0  0
  9 17  1  0  0  0  0
  9 10  2  0  0  0  0
 18 19  1  0  0  0  0
 19 34  1  0  0  0  0
 19 20  2  0  0  0  0
 35 38  1  0  0  0  0
  8 11  1  0  0  0  0
 44 45  1  0  0  0  0
 21 22  1  0  0  0  0
 18 21  1  0  0  0  0
 34 35  1  0  0  0  0
  7  8  1  0  0  0  0
 17 18  1  0  0  0  0
  3  4  1  0  0  0  0
  3  5  1  0  0  0  0
  3  6  1  0  0  0  0
 38 41  1  0  0  0  0
 38 42  1  0  0  0  0
 38 43  1  0  0  0  0
 11 14  1  0  0  0  0
 11 15  1  0  0  0  0
 11 16  1  0  0  0  0
 45 47  1  0  0  0  0
 45 48  1  0  0  0  0
 45 49  1  0  0  0  0
 22 30  1  0  0  0  0
 22 31  1  0  0  0  0
 21 28  1  0  0  0  0
 21 29  1  0  0  0  0
 35 40  1  0  0  0  0
  8 13  1  0  0  0  0
 18 27  1  0  0  0  0
 25 32  1  0  0  0  0
 25 33  1  0  0  0  0
 44 46  1  0  0  0  0
  7 12  1  0  0  0  0
 34 39  1  0  0  0  0
 17 26  1  0  0  0  0
M  END
$$$$

  -OEChem-05262214473D

 49 48  0     1  0  0  0  0  0999 V2000
   -1.9833   -0.0509   -3.3423 C   0  0  0  0  0  0  0  0  0  0  0  0
   -1.6199   -1.0613   -2.7518 O   0  0  0  0  0  0  0  0  0  0  0  0
   -3.3243   -0.0235   -3.9975 C   0  0  0  0  0  0  0  0  0  0  0  0
   -3.2886   -0.3689   -5.0432 H   0  0  0  0  0  0  0  0  0  0  0  0
   -4.0503   -0.6845   -3.4973 H   0  0  0  0  0  0  0  0  0  0  0  0
   -3.8104    0.9645   -4.0351 H   0  0  0  0  0  0  0  0  0  0  0  0
   -1.2607    1.1231   -3.4768 N   0  0  0  0  0  0  0  0  0  0  0  0
    0.0536    1.3115   -2.9213 C   0  0  2  0  0  0  0  0  0  0  0  0
    0.0266    0.8315   -1.4761 C   0  0  0  0  0  0  0  0  0  0  0  0
   -1.0065    0.7530   -0.8146 O   0  0  0  0  0  0  0  0  0  0  0  0
    0.4852    2.7674   -3.0025 C   0  0  0  0  0  0  0  0  0  0  0  0
   -1.6809    1.8924   -3.9952 H   0  0  0  0  0  0  0  0  0  0  0  0
    0.7360    0.6822   -3.5030 H   0  0  0  0  0  0  0  0  0  0  0  0
   -0.1867    3.4133   -2.4256 H   0  0  0  0  0  0  0  0  0  0  0  0
    1.4966    2.9042   -2.6056 H   0  0  0  0  0  0  0  0  0  0  0  0
    0.4754    3.1196   -4.0397 H   0  0  0  0  0  0  0  0  0  0  0  0
    1.2978    0.5411   -0.9947 N   0  0  0  0  0  0  0  0  0  0  0  0
    1.5371    0.0807    0.3489 C   0  0  2  0  0  0  0  0  0  0  0  0
    1.0243    1.1611    1.2946 C   0  0  0  0  0  0  0  0  0  0  0  0
    1.7377    2.0622    1.7304 O   0  0  0  0  0  0  0  0  0  0  0  0
    3.0232   -0.1954    0.6103 C   0  0  0  0  0  0  0  0  0  0  0  0
    3.5724   -1.3774   -0.1908 C   0  0  0  0  0  0  0  0  0  0  0  0
    5.0481   -1.6377    0.0478 C   0  0  0  0  0  0  0  0  0  0  0  0
    5.7645   -0.9319    0.7517 O   0  0  0  0  0  0  0  0  0  0  0  0
    5.5025   -2.7443   -0.6371 N   0  0  0  0  0  0  0  0  0  0  0  0
    2.0949    0.6178   -1.6227 H   0  0  0  0  0  0  0  0  0  0  0  0
    0.9356   -0.8248    0.4824 H   0  0  0  0  0  0  0  0  0  0  0  0
    3.6068    0.6984    0.3525 H   0  0  0  0  0  0  0  0  0  0  0  0
    3.1905   -0.3700    1.6807 H   0  0  0  0  0  0  0  0  0  0  0  0
    3.4556   -1.1628   -1.2603 H   0  0  0  0  0  0  0  0  0  0  0  0
    3.0040   -2.2898    0.0219 H   0  0  0  0  0  0  0  0  0  0  0  0
    4.8495   -3.2654   -1.2128 H   0  0  0  0  0  0  0  0  0  0  0  0
    6.4669   -3.0566   -0.5862 H   0  0  0  0  0  0  0  0  0  0  0  0
   -0.3084    0.9679    1.6308 N   0  0  0  0  0  0  0  0  0  0  0  0
   -1.0340    1.8369    2.5292 C   0  0  2  0  0  0  0  0  0  0  0  0
   -0.7929    3.2749    2.0895 C   0  0  0  0  0  0  0  0  0  0  0  0
    0.1793    3.6176    1.4198 O   0  0  0  0  0  0  0  0  0  0  0  0
   -0.5989    1.6293    3.9715 C   0  0  0  0  0  0  0  0  0  0  0  0
   -0.7983    0.1760    1.2251 H   0  0  0  0  0  0  0  0  0  0  0  0
   -2.0960    1.5930    2.4162 H   0  0  0  0  0  0  0  0  0  0  0  0
    0.4625    1.8688    4.1042 H   0  0  0  0  0  0  0  0  0  0  0  0
   -1.1696    2.2679    4.6539 H   0  0  0  0  0  0  0  0  0  0  0  0
   -0.7453    0.5876    4.2767 H   0  0  0  0  0  0  0  0  0  0  0  0
   -1.7683    4.1379    2.5693 N   0  0  0  0  0  0  0  0  0  0  0  0
   -1.7552    5.5566    2.2994 C   0  0  0  0  0  0  0  0  0  0  0  0
   -2.5488    3.7637    3.1009 H   0  0  0  0  0  0  0  0  0  0  0  0
   -1.2297    6.0801    3.1117 H   0  0  0  0  0  0  0  0  0  0  0  0
   -1.2371    5.7439    1.3473 H   0  0  0  0  0  0  0  0  0  0  0  0
   -2.7889    5.9268    2.2332 H   0  0  0  0  0  0  0  0  0  0  0  0
  1  3  1  0  0  0  0
  1  7  1  0  0  0  0
  1  2  2  0  0  0  0
 22 23  1  0  0  0  0
 23 25  1  0  0  0  0
 23 24  2  0  0  0  0
 35 36  1  0  0  0  0
 36 44  1  0  0  0  0
 36 37  2  0  0  0  0
  8  9  1  0  0  0  0
  9 17  1  0  0  0  0
  9 10  2  0  0  0  0
 18 19  1  0  0  0  0
 19 34  1  0  0  0  0
 19 20  2  0  0  0  0
 35 38  1  0  0  0  0
  8 11  1  0  0  0  0
 44 45  1  0  0  0  0
 21 22  1  0  0  0  0
 18 21  1  0  0  0  0
 34 35  1  0  0  0  0
  7  8  1  0  0  0  0
 17 18  1  0  0  0  0
  3  4  1  0  0  0  0
  3  5  1  0  0  0  0
  3  6  1  0  0  0  0
 38 41  1  0  0  0  0
 38 42  1  0  0  0  0
 38 43  1  0  0  0  0
 11 14  1  0  0  0  0
 11 15  1  0  0  0  0
 11 16  1  0  0  0  0
 45 47  1  0  0  0  0
 45 48  1  0  0  0  0
 45 49  1  0  0  0  0
 22 30  1  0  0  0  0
 22 31  1  0  0  0  0
 21 28  1  0  0  0  0
 21 29  1  0  0  0  0
 35 40  1  0  0  0  0
  8 13  1  0  0  0  0
 18 27  1  0  0  0  0
 25 32  1  0  0  0  0
 25 33  1  0  0  0  0
 44 46  1  0  0  0  0
  7 12  1  0  0  0  0
 34 39  1  0  0  0  0
 17 26  1  0  0  0  0
M  END
$$$$

  -OEChem-05262214473D

 49 48  0     1  0  0  0  0  0999 V2000
   -1.9833   -0.0509   -3.3423 C   0  0  0  0  0  0  0  0  0  0  0  0
   -1.6199   -1.0613   -2.7518 O   0  0  0  0  0  0  0  0  0  0  0  0
   -3.3243   -0.0235   -3.9975 C   0  0  0  0  0  0  0  0  0  0  0  0
   -3.2886   -0.3689   -5.0432 H   0  0  0  0  0  0  0  0  0  0  0  0
   -4.0503   -0.6845   -3.4973 H   0  0  0  0  0  0  0  0  0  0  0  0
   -3.8104    0.9645   -4.0351 H   0  0  0  0  0  0  0  0  0  0  0  0
   -1.2607    1.1231   -3.4768 N   0  0  0  0  0  0  0  0  0  0  0  0
    0.0536    1.3115   -2.9213 C   0  0  2  0  0  0  0  0  0  0  0  0
    0.0266    0.8315   -1.4761 C   0  0  0  0  0  0  0  0  0  0  0  0
   -1.0065    0.7530   -0.8146 O   0  0  0  0  0  0  0  0  0  0  0  0
    0.4852    2.7674   -3.0025 C   0  0  0  0  0  0  0  0  0  0  0  0
   -1.6809    1.8924   -3.9952 H   0  0  0  0  0  0  0  0  0  0  0  0
    0.7360    0.6822   -3.5030 H   0  0  0  0  0  0  0  0  0  0  0  0
   -0.1867    3.4133   -2.4256 H   0  0  0  0  0  0  0  0  0  0  0  0
    1.4966    2.9042   -2.6056 H   0  0  0  0  0  0  0  0  0  0  0  0
    0.4754    3.1196   -4.0397 H   0  0  0  0  0  0  0  0  0  0  0  0
    1.2978    0.5411   -0.9947 N   0  0  0  0  0  0  0  0  0  0  0  0
    1.5371    0.0807    0.3489 C   0  0  2  0  0  0  0  0  0  0  0  0
    1.0243    1.1611    1.2946 C   0  0  0  0  0  0  0  0  0  0  0  0
    1.6410    2.2001    1.5204 O   0  0  0  0  0  0  0  0  0  0  0  0
    3.0232   -0.1954    0.6103 C   0  0  0  0  0  0  0  0  0  0  0  0
    3.5724   -1.3774   -0.1908 C   0  0  0  0  0  0  0  0  0  0  0  0
    5.0481   -1.6377    0.0478 C   0  0  0  0  0  0  0  0  0  0  0  0
    5.7645   -0.9319    0.7517 O   0  0  0  0  0  0  0  0  0  0  0  0
    5.5025   -2.7443   -0.6371 N   0  0  0  0  0  0  0  0  0  0  0  0
    2.0949    0.6178   -1.6227 H   0  0  0  0  0  0  0  0  0  0  0  0
    0.9356   -0.8248    0.4824 H   0  0  0  0  0  0  0  0  0  0  0  0
    3.6068    0.6984    0.3525 H   0  0  0  0  0  0  0  0  0  0  0  0
    3.1905   -0.3700    1.6807 H   0  0  0  0  0  0  0  0  0  0  0  0
    3.4556   -1.1628   -1.2603 H   0  0  0  0  0  0  0  0  0  0  0  0
    3.0040   -2.2898    0.0219 H   0  0  0  0  0  0  0  0  0  0  0  0
    4.8495   -3.2654   -1.2128 H   0  0  0  0  0  0  0  0  0  0  0  0
    6.4669   -3.0566   -0.5862 H   0  0  0  0  0  0  0  0  0  0  0  0
   -0.1763    0.8024    1.8916 N   0  0  0  0  0  0  0  0  0  0  0  0
   -0.8681    1.6377    2.8467 C   0  0  2  0  0  0  0  0  0  0  0  0
   -0.9544    3.0432    2.2667 C   0  0  0  0  0  0  0  0  0  0  0  0
   -0.1874    3.4599    1.4011 O   0  0  0  0  0  0  0  0  0  0  0  0
   -0.1569    1.6471    4.1909 C   0  0  0  0  0  0  0  0  0  0  0  0
   -0.5893   -0.0921    1.6448 H   0  0  0  0  0  0  0  0  0  0  0  0
   -1.8768    1.2245    2.9560 H   0  0  0  0  0  0  0  0  0  0  0  0
    0.8554    2.0578    4.1014 H   0  0  0  0  0  0  0  0  0  0  0  0
   -0.6977    2.2575    4.9217 H   0  0  0  0  0  0  0  0  0  0  0  0
   -0.0693    0.6319    4.5926 H   0  0  0  0  0  0  0  0  0  0  0  0
   -1.9612    3.7918    2.8600 N   0  0  0  0  0  0  0  0  0  0  0  0
   -2.2354    5.1610    2.4910 C   0  0  0  0  0  0  0  0  0  0  0  0
   -2.5613    3.3593    3.5562 H   0  0  0  0  0  0  0  0  0  0  0  0
   -1.6709    5.8385    3.1485 H   0  0  0  0  0  0  0  0  0  0  0  0
   -1.9324    5.3269    1.4467 H   0  0  0  0  0  0  0  0  0  0  0  0
   -3.3120    5.3605    2.5965 H   0  0  0  0  0  0  0  0  0  0  0  0
  1  3  1  0  0  0  0
  1  7  1  0  0  0  0
  1  2  2  0  0  0  0
 22 23  1  0  0  0  0
 23 25  1  0  0  0  0
 23 24  2  0  0  0  0
 35 36  1  0  0  0  0
 36 44  1  0  0  0  0
 36 37  2  0  0  0  0
  8  9  1  0  0  0  0
  9 17  1  0  0  0  0
  9 10  2  0  0  0  0
 18 19  1  0  0  0  0
 19 34  1  0  0  0  0
 19 20  2  0  0  0  0
 35 38  1  0  0  0  0
  8 11  1  0  0  0  0
 44 45  1  0  0  0  0
 21 22  1  0  0  0  0
 18 21  1  0  0  0  0
 34 35  1  0  0  0  0
  7  8  1  0  0  0  0
 17 18  1  0  0  0  0
  3  4  1  0  0  0  0
  3  5  1  0  0  0  0
  3  6  1  0  0  0  0
 38 41  1  0  0  0  0
 38 42  1  0  0  0  0
 38 43  1  0  0  0  0
 11 14  1  0  0  0  0
 11 15  1  0  0  0  0
 11 16  1  0  0  0  0
 45 47  1  0  0  0  0
 45 48  1  0  0  0  0
 45 49  1  0  0  0  0
 22 30  1  0  0  0  0
 22 31  1  0  0  0  0
 21 28  1  0  0  0  0
 21 29  1  0  0  0  0
 35 40  1  0  0  0  0
  8 13  1  0  0  0  0
 18 27  1  0  0  0  0
 25 32  1  0  0  0  0
 25 33  1  0  0  0  0
 44 46  1  0  0  0  0
  7 12  1  0  0  0  0
 34 39  1  0  0  0  0
 17 26  1  0  0  0  0
M  END
$$$$

  -OEChem-05262214473D

 49 48  0     1  0  0  0  0  0999 V2000
   -1.9833   -0.0509   -3.3423 C   0  0  0  0  0  0  0  0  0  0  0  0
   -1.6199   -1.0613   -2.7518 O   0  0  0  0  0  0  0  0  0  0  0  0
   -3.3243   -0.0235   -3.9975 C   0  0  0  0  0  0  0  0  0  0  0  0
   -3.2886   -0.3689   -5.0432 H   0  0  0  0  0  0  0  0  0  0  0  0
   -4.0503   -0.6845   -3.4973 H   0  0  0  0  0  0  0  0  0  0  0  0
   -3.8104    0.9645   -4.0351 H   0  0  0  0  0  0  0  0  0  0  0  0
   -1.2607    1.1231   -3.4768 N   0  0  0  0  0  0  0  0  0  0  0  0
    0.0536    1.3115   -2.9213 C   0  0  2  0  0  0  0  0  0  0  0  0
    0.0266    0.8315   -1.4761 C   0  0  0  0  0  0  0  0  0  0  0  0
   -1.0065    0.7530   -0.8146 O   0  0  0  0  0  0  0  0  0  0  0  0
    0.4852    2.7674   -3.0025 C   0  0  0  0  0  0  0  0  0  0  0  0
   -1.6809    1.8924   -3.9952 H   0  0  0  0  0  0  0  0  0  0  0  0
    0.7360    0.6822   -3.5030 H   0  0  0  0  0  0  0  0  0  0  0  0
   -0.1867    3.4133   -2.4256 H   0  0  0  0  0  0  0  0  0  0  0  0
    1.4966    2.9042   -2.6056 H   0  0  0  0  0  0  0  0  0  0  0  0
    0.4754    3.1196   -4.0397 H   0  0  0  0  0  0  0  0  0  0  0  0
    1.2978    0.5411   -0.9947 N   0  0  0  0  0  0  0  0  0  0  0  0
    1.5371    0.0807    0.3489 C   0  0  2  0  0  0  0  0  0  0  0  0
    1.0243    1.1611    1.2946 C   0  0  0  0  0  0  0  0  0  0  0  0
    1.4870    2.2995    1.3232 O   0  0  0  0  0  0  0  0  0  0  0  0
    3.0232   -0.1954    0.6103 C   0  0  0  0  0  0  0  0  0  0  0  0
    3.5724   -1.3774   -0.1908 C   0  0  0  0  0  0  0  0  0  0  0  0
    5.0481   -1.6377    0.0478 C   0  0  0  0  0  0  0  0  0  0  0  0
    5.7645   -0.9319    0.7517 O   0  0  0  0  0  0  0  0  0  0  0  0
    5.5025   -2.7443   -0.6371 N   0  0  0  0  0  0  0  0  0  0  0  0
    2.0949    0.6178   -1.6227 H   0  0  0  0  0  0  0  0  0  0  0  0
    0.9356   -0.8248    0.4824 H   0  0  0  0  0  0  0  0  0  0  0  0
    3.6068    0.6984    0.3525 H   0  0  0  0  0  0  0  0  0  0  0  0
    3.1905   -0.3700    1.6807 H   0  0  0  0  0  0  0  0  0  0  0  0
    3.4556   -1.1628   -1.2603 H   0  0  0  0  0  0  0  0  0  0  0  0
    3.0040   -2.2898    0.0219 H   0  0  0  0  0  0  0  0  0  0  0  0
    4.8495   -3.2654   -1.2128 H   0  0  0  0  0  0  0  0  0  0  0  0
    6.4669   -3.0566   -0.5862 H   0  0  0  0  0  0  0  0  0  0  0  0
    0.0258    0.6864    2.1337 N   0  0  0  0  0  0  0  0  0  0  0  0
   -0.6177    1.4995    3.1404 C   0  0  2  0  0  0  0  0  0  0  0  0
   -1.0407    2.8089    2.4876 C   0  0  0  0  0  0  0  0  0  0  0  0
   -0.5197    3.2471    1.4640 O   0  0  0  0  0  0  0  0  0  0  0  0
    0.3074    1.7544    4.3202 C   0  0  0  0  0  0  0  0  0  0  0  0
   -0.2675   -0.2811    2.0352 H   0  0  0  0  0  0  0  0  0  0  0  0
   -1.5069    0.9508    3.4693 H   0  0  0  0  0  0  0  0  0  0  0  0
    1.2041    2.3033    4.0101 H   0  0  0  0  0  0  0  0  0  0  0  0
   -0.1911    2.3465    5.0947 H   0  0  0  0  0  0  0  0  0  0  0  0
    0.6344    0.8107    4.7700 H   0  0  0  0  0  0  0  0  0  0  0  0
   -2.0387    3.4519    3.2063 N   0  0  0  0  0  0  0  0  0  0  0  0
   -2.6005    4.7184    2.7986 C   0  0  0  0  0  0  0  0  0  0  0  0
   -2.4250    3.0063    4.0334 H   0  0  0  0  0  0  0  0  0  0  0  0
   -2.0515    5.5376    3.2859 H   0  0  0  0  0  0  0  0  0  0  0  0
   -2.5188    4.8211    1.7065 H   0  0  0  0  0  0  0  0  0  0  0  0
   -3.6597    4.7612    3.0926 H   0  0  0  0  0  0  0  0  0  0  0  0
  1  3  1  0  0  0  0
  1  7  1  0  0  0  0
  1  2  2  0  0  0  0
 22 23  1  0  0  0  0
 23 25  1  0  0  0  0
 23 24  2  0  0  0  0
 35 36  1  0  0  0  0
 36 44  1  0  0  0  0
 36 37  2  0  0  0  0
  8  9  1  0  0  0  0
  9 17  1  0  0  0  0
  9 10  2  0  0  0  0
 18 19  1  0  0  0  0
 19 34  1  0  0  0  0
 19 20  2  0  0  0  0
 35 38  1  0  0  0  0
  8 11  1  0  0  0  0
 44 45  1  0  0  0  0
 21 22  1  0  0  0  0
 18 21  1  0  0  0  0
 34 35  1  0  0  0  0
  7  8  1  0  0  0  0
 17 18  1  0  0  0  0
  3  4  1  0  0  0  0
  3  5  1  0  0  0  0
  3  6  1  0  0  0  0
 38 41  1  0  0  0  0
 38 42  1  0  0  0  0
 38 43  1  0  0  0  0
 11 14  1  0  0  0  0
 11 15  1  0  0  0  0
 11 16  1  0  0  0  0
 45 47  1  0  0  0  0
 45 48  1  0  0  0  0
 45 49  1  0  0  0  0
 22 30  1  0  0  0  0
 22 31  1  0  0  0  0
 21 28  1  0  0  0  0
 21 29  1  0  0  0  0
 35 40  1  0  0  0  0
  8 13  1  0  0  0  0
 18 27  1  0  0  0  0
 25 32  1  0  0  0  0
 25 33  1  0  0  0  0
 44 46  1  0  0  0  0
  7 12  1  0  0  0  0
 34 39  1  0  0  0  0
 17 26  1  0  0  0  0
M  END
$$$$

  -OEChem-05262214473D

 49 48  0     1  0  0  0  0  0999 V2000
   -1.9833   -0.0509   -3.3423 C   0  0  0  0  0  0  0  0  0  0  0  0
   -1.6199   -1.0613   -2.7518 O   0  0  0  0  0  0  0  0  0  0  0  0
   -3.3243   -0.0235   -3.9975 C   0  0  0  0  0  0  0  0  0  0  0  0
   -3.2886   -0.3689   -5.0432 H   0  0  0  0  0  0  0  0  0  0  0  0
   -4.0503   -0.6845   -3.4973 H   0  0  0  0  0  0  0  0  0  0  0  0
   -3.8104    0.9645   -4.0351 H   0  0  0  0  0  0  0  0  0  0  0  0
   -1.2607    1.1231   -3.4768 N   0  0  0  0  0  0  0  0  0  0  0  0
    0.0536    1.3115   -2.9213 C   0  0  2  0  0  0  0  0  0  0  0  0
    0.0266    0.8315   -1.4761 C   0  0  0  0  0  0  0  0  0  0  0  0
   -1.0065    0.7530   -0.8146 O   0  0  0  0  0  0  0  0  0  0  0  0
    0.4852    2.7674   -3.0025 C   0  0  0  0  0  0  0  0  0  0  0  0
   -1.6809    1.8924   -3.9952 H   0  0  0  0  0  0  0  0  0  0  0  0
    0.7360    0.6822   -3.5030 H   0  0  0  0  0  0  0  0  0  0  0  0
   -0.1867    3.4133   -2.4256 H   0  0  0  0  0  0  0  0  0  0  0  0
    1.4966    2.9042   -2.6056 H   0  0  0  0  0  0  0  0  0  0  0  0
    0.4754    3.1196   -4.0397 H   0  0  0  0  0  0  0  0  0  0  0  0
    1.2978    0.5411   -0.9947 N   0  0  0  0  0  0  0  0  0  0  0  0
    1.5371    0.0807    0.3489 C   0  0  2  0  0  0  0  0  0  0  0  0
    1.0243    1.1611    1.2946 C   0  0  0  0  0  0  0  0  0  0  0  0
    1.2860    2.3537    1.1524 O   0  0  0  0  0  0  0  0  0  0  0  0
    3.0232   -0.1954    0.6103 C   0  0  0  0  0  0  0  0  0  0  0  0
    3.5724   -1.3774   -0.1908 C   0  0  0  0  0  0  0  0  0  0  0  0
    5.0481   -1.6377    0.0478 C   0  0  0  0  0  0  0  0  0  0  0  0
    5.7645   -0.9319    0.7517 O   0  0  0  0  0  0  0  0  0  0  0  0
    5.5025   -2.7443   -0.6371 N   0  0  0  0  0  0  0  0  0  0  0  0
    2.0949    0.6178   -1.6227 H   0  0  0  0  0  0  0  0  0  0  0  0
    0.9356   -0.8248    0.4824 H   0  0  0  0  0  0  0  0  0  0  0  0
    3.6068    0.6984    0.3525 H   0  0  0  0  0  0  0  0  0  0  0  0
    3.1905   -0.3700    1.6807 H   0  0  0  0  0  0  0  0  0  0  0  0
    3.4556   -1.1628   -1.2603 H   0  0  0  0  0  0  0  0  0  0  0  0
    3.0040   -2.2898    0.0219 H   0  0  0  0  0  0  0  0  0  0  0  0
    4.8495   -3.2654   -1.2128 H   0  0  0  0  0  0  0  0  0  0  0  0
    6.4669   -3.0566   -0.5862 H   0  0  0  0  0  0  0  0  0  0  0  0
    0.2839    0.6279    2.3405 N   0  0  0  0  0  0  0  0  0  0  0  0
   -0.2997    1.4319    3.3901 C   0  0  2  0  0  0  0  0  0  0  0  0
   -1.0458    2.5880    2.7372 C   0  0  0  0  0  0  0  0  0  0  0  0
   -0.7950    2.9937    1.6042 O   0  0  0  0  0  0  0  0  0  0  0  0
    0.7624    1.9438    4.3505 C   0  0  0  0  0  0  0  0  0  0  0  0
    0.1454   -0.3779    2.3698 H   0  0  0  0  0  0  0  0  0  0  0  0
   -1.0115    0.7905    3.9211 H   0  0  0  0  0  0  0  0  0  0  0  0
    1.4848    2.5884    3.8365 H   0  0  0  0  0  0  0  0  0  0  0  0
    0.3156    2.5289    5.1611 H   0  0  0  0  0  0  0  0  0  0  0  0
    1.3180    1.1118    4.7967 H   0  0  0  0  0  0  0  0  0  0  0  0
   -1.9955    3.1412    3.5847 N   0  0  0  0  0  0  0  0  0  0  0  0
   -2.8258    4.2591    3.2013 C   0  0  0  0  0  0  0  0  0  0  0  0
   -2.1491    2.7288    4.5001 H   0  0  0  0  0  0  0  0  0  0  0  0
   -2.3456    5.1977    3.5147 H   0  0  0  0  0  0  0  0  0  0  0  0
   -2.9564    4.2610    2.1090 H   0  0  0  0  0  0  0  0  0  0  0  0
   -3.8083    4.1697    3.6878 H   0  0  0  0  0  0  0  0  0  0  0  0
  1  3  1  0  0  0  0
  1  7  1  0  0  0  0
  1  2  2  0  0  0  0
 22 23  1  0  0  0  0
 23 25  1  0  0  0  0
 23 24  2  0  0  0  0
 35 36  1  0  0  0  0
 36 44  1  0  0  0  0
 36 37  2  0  0  0  0
  8  9  1  0  0  0  0
  9 17  1  0  0  0  0
  9 10  2  0  0  0  0
 18 19  1  0  0  0  0
 19 34  1  0  0  0  0
 19 20  2  0  0  0  0
 35 38  1  0  0  0  0
  8 11  1  0  0  0  0
 44 45  1  0  0  0  0
 21 22  1  0  0  0  0
 18 21  1  0  0  0  0
 34 35  1  0  0  0  0
  7  8  1  0  0  0  0
 17 18  1  0  0  0  0
  3  4  1  0  0  0  0
  3  5  1  0  0  0  0
  3  6  1  0  0  0  0
 38 41  1  0  0  0  0
 38 42  1  0  0  0  0
 38 43  1  0  0  0  0
 11 14  1  0  0  0  0
 11 15  1  0  0  0  0
 11 16  1  0  0  0  0
 45 47  1  0  0  0  0
 45 48  1  0  0  0  0
 45 49  1  0  0  0  0
 22 30  1  0  0  0  0
 22 31  1  0  0  0  0
 21 28  1  0  0  0  0
 21 29  1  0  0  0  0
 35 40  1  0  0  0  0
  8 13  1  0  0  0  0
 18 27  1  0  0  0  0
 25 32  1  0  0  0  0
 25 33  1  0  0  0  0
 44 46  1  0  0  0  0
  7 12  1  0  0  0  0
 34 39  1  0  0  0  0
 17 26  1  0  0  0  0
M  END
$$$$

  -OEChem-05262214473D

 49 48  0     1  0  0  0  0  0999 V2000
   -1.9833   -0.0509   -3.3423 C   0  0  0  0  0  0  0  0  0  0  0  0
   -1.6199   -1.0613   -2.7518 O   0  0  0  0  0  0  0  0  0  0  0  0
   -3.3243   -0.0235   -3.9975 C   0  0  0  0  0  0  0  0  0  0  0  0
   -3.2886   -0.3689   -5.0432 H   0  0  0  0  0  0  0  0  0  0  0  0
   -4.0503   -0.6845   -3.4973 H   0  0  0  0  0  0  0  0  0  0  0  0
   -3.8104    0.9645   -4.0351 H   0  0  0  0  0  0  0  0  0  0  0  0
   -1.2607    1.1231   -3.4768 N   0  0  0  0  0  0  0  0  0  0  0  0
    0.0536    1.3115   -2.9213 C   0  0  2  0  0  0  0  0  0  0  0  0
    0.0266    0.8315   -1.4761 C   0  0  0  0  0  0  0  0  0  0  0  0
   -1.0065    0.7530   -0.8146 O   0  0  0  0  0  0  0  0  0  0  0  0
    0.4852    2.7674   -3.0025 C   0  0  0  0  0  0  0  0  0  0  0  0
   -1.6809    1.8924   -3.9952 H   0  0  0  0  0  0  0  0  0  0  0  0
    0.7360    0.6822   -3.5030 H   0  0  0  0  0  0  0  0  0  0  0  0
   -0.1867    3.4133   -2.4256 H   0  0  0  0  0  0  0  0  0  0  0  0
    1.4966    2.9042   -2.6056 H   0  0  0  0  0  0  0  0  0  0  0  0
    0.4754    3.1196   -4.0397 H   0  0  0  0  0  0  0  0  0  0  0  0
    1.2978    0.5411   -0.9947 N   0  0  0  0  0  0  0  0  0  0  0  0
    1.5371    0.0807    0.3489 C   0  0  2  0  0  0  0  0  0  0  0  0
    1.0243    1.1611    1.2946 C   0  0  0  0  0  0  0  0  0  0  0  0
    1.0519    2.3588    1.0196 O   0  0  0  0  0  0  0  0  0  0  0  0
    3.0232   -0.1954    0.6103 C   0  0  0  0  0  0  0  0  0  0  0  0
    3.5724   -1.3774   -0.1908 C   0  0  0  0  0  0  0  0  0  0  0  0
    5.0481   -1.6377    0.0478 C   0  0  0  0  0  0  0  0  0  0  0  0
    5.7645   -0.9319    0.7517 O   0  0  0  0  0  0  0  0  0  0  0  0
    5.5025   -2.7443   -0.6371 N   0  0  0  0  0  0  0  0  0  0  0  0
    2.0949    0.6178   -1.6227 H   0  0  0  0  0  0  0  0  0  0  0  0
    0.9356   -0.8248    0.4824 H   0  0  0  0  0  0  0  0  0  0  0  0
    3.6068    0.6984    0.3525 H   0  0  0  0  0  0  0  0  0  0  0  0
    3.1905   -0.3700    1.6807 H   0  0  0  0  0  0  0  0  0  0  0  0
    3.4556   -1.1628   -1.2603 H   0  0  0  0  0  0  0  0  0  0  0  0
    3.0040   -2.2898    0.0219 H   0  0  0  0  0  0  0  0  0  0  0  0
    4.8495   -3.2654   -1.2128 H   0  0  0  0  0  0  0  0  0  0  0  0
    6.4669   -3.0566   -0.5862 H   0  0  0  0  0  0  0  0  0  0  0  0
    0.5806    0.6308    2.4981 N   0  0  0  0  0  0  0  0  0  0  0  0
    0.0640    1.4393    3.5789 C   0  0  2  0  0  0  0  0  0  0  0  0
   -0.9696    2.3954    2.9985 C   0  0  0  0  0  0  0  0  0  0  0  0
   -0.9945    2.7169    1.8123 O   0  0  0  0  0  0  0  0  0  0  0  0
    1.1771    2.2024    4.2799 C   0  0  0  0  0  0  0  0  0  0  0  0
    0.6210   -0.3761    2.6256 H   0  0  0  0  0  0  0  0  0  0  0  0
   -0.4245    0.7545    4.2806 H   0  0  0  0  0  0  0  0  0  0  0  0
    1.6783    2.8937    3.5926 H   0  0  0  0  0  0  0  0  0  0  0  0
    0.7880    2.7922    5.1165 H   0  0  0  0  0  0  0  0  0  0  0  0
    1.9348    1.5148    4.6708 H   0  0  0  0  0  0  0  0  0  0  0  0
   -1.8344    2.8811    3.9692 N   0  0  0  0  0  0  0  0  0  0  0  0
   -2.8958    3.8143    3.6715 C   0  0  0  0  0  0  0  0  0  0  0  0
   -1.7525    2.5456    4.9245 H   0  0  0  0  0  0  0  0  0  0  0  0
   -2.5331    4.8422    3.8192 H   0  0  0  0  0  0  0  0  0  0  0  0
   -3.2153    3.6849    2.6269 H   0  0  0  0  0  0  0  0  0  0  0  0
   -3.7478    3.6264    4.3414 H   0  0  0  0  0  0  0  0  0  0  0  0
  1  3  1  0  0  0  0
  1  7  1  0  0  0  0
  1  2  2  0  0  0  0
 22 23  1  0  0  0  0
 23 25  1  0  0  0  0
 23 24  2  0  0  0  0
 35 36  1  0  0  0  0
 36 44  1  0  0  0  0
 36 37  2  0  0  0  0
  8  9  1  0  0  0  0
  9 17  1  0  0  0  0
  9 10  2  0  0  0  0
 18 19  1  0  0  0  0
 19 34  1  0  0  0  0
 19 20  2  0  0  0  0
 35 38  1  0  0  0  0
  8 11  1  0  0  0  0
 44 45  1  0  0  0  0
 21 22  1  0  0  0  0
 18 21  1  0  0  0  0
 34 35  1  0  0  0  0
  7  8  1  0  0  0  0
 17 18  1  0  0  0  0
  3  4  1  0  0  0  0
  3  5  1  0  0  0  0
  3  6  1  0  0  0  0
 38 41  1  0  0  0  0
 38 42  1  0  0  0  0
 38 43  1  0  0  0  0
 11 14  1  0  0  0  0
 11 15  1  0  0  0  0
 11 16  1  0  0  0  0
 45 47  1  0  0  0  0
 45 48  1  0  0  0  0
 45 49  1  0  0  0  0
 22 30  1  0  0  0  0
 22 31  1  0  0  0  0
 21 28  1  0  0  0  0
 21 29  1  0  0  0  0
 35 40  1  0  0  0  0
  8 13  1  0  0  0  0
 18 27  1  0  0  0  0
 25 32  1  0  0  0  0
 25 33  1  0  0  0  0
 44 46  1  0  0  0  0
  7 12  1  0  0  0  0
 34 39  1  0  0  0  0
 17 26  1  0  0  0  0
M  END
$$$$

  -OEChem-05262214473D

 49 48  0     1  0  0  0  0  0999 V2000
   -1.9833   -0.0509   -3.3423 C   0  0  0  0  0  0  0  0  0  0  0  0
   -1.6199   -1.0613   -2.7518 O   0  0  0  0  0  0  0  0  0  0  0  0
   -3.3243   -0.0235   -3.9975 C   0  0  0  0  0  0  0  0  0  0  0  0
   -3.2886   -0.3689   -5.0432 H   0  0  0  0  0  0  0  0  0  0  0  0
   -4.0503   -0.6845   -3.4973 H   0  0  0  0  0  0  0  0  0  0  0  0
   -3.8104    0.9645   -4.0351 H   0  0  0  0  0  0  0  0  0  0  0  0
   -1.2607    1.1231   -3.4768 N   0  0  0  0  0  0  0  0  0  0  0  0
    0.0536    1.3115   -2.9213 C   0  0  2  0  0  0  0  0  0  0  0  0
    0.0266    0.8315   -1.4761 C   0  0  0  0  0  0  0  0  0  0  0  0
   -1.0065    0.7530   -0.8146 O   0  0  0  0  0  0  0  0  0  0  0  0
    0.4852    2.7674   -3.0025 C   0  0  0  0  0  0  0  0  0  0  0  0
   -1.6809    1.8924   -3.9952 H   0  0  0  0  0  0  0  0  0  0  0  0
    0.7360    0.6822   -3.5030 H   0  0  0  0  0  0  0  0  0  0  0  0
   -0.1867    3.4133   -2.4256 H   0  0  0  0  0  0  0  0  0  0  0  0
    1.4966    2.9042   -2.6056 H   0  0  0  0  0  0  0  0  0  0  0  0
    0.4754    3.1196   -4.0397 H   0  0  0  0  0  0  0  0  0  0  0  0
    1.2978    0.5411   -0.9947 N   0  0  0  0  0  0  0  0  0  0  0  0
    1.5371    0.0807    0.3489 C   0  0  2  0  0  0  0  0  0  0  0  0
    1.0243    1.1611    1.2946 C   0  0  0  0  0  0  0  0  0  0  0  0
    0.8006    2.3147    0.9337 O   0  0  0  0  0  0  0  0  0  0  0  0
    3.0232   -0.1954    0.6103 C   0  0  0  0  0  0  0  0  0  0  0  0
    3.5724   -1.3774   -0.1908 C   0  0  0  0  0  0  0  0  0  0  0  0
    5.0481   -1.6377    0.0478 C   0  0  0  0  0  0  0  0  0  0  0  0
    5.7645   -0.9319    0.7517 O   0  0  0  0  0  0  0  0  0  0  0  0
    5.5025   -2.7443   -0.6371 N   0  0  0  0  0  0  0  0  0  0  0  0
    2.0949    0.6178   -1.6227 H   0  0  0  0  0  0  0  0  0  0  0  0
    0.9356   -0.8248    0.4824 H   0  0  0  0  0  0  0  0  0  0  0  0
    3.6068    0.6984    0.3525 H   0  0  0  0  0  0  0  0  0  0  0  0
    3.1905   -0.3700    1.6807 H   0  0  0  0  0  0  0  0  0  0  0  0
    3.4556   -1.1628   -1.2603 H   0  0  0  0  0  0  0  0  0  0  0  0
    3.0040   -2.2898    0.0219 H   0  0  0  0  0  0  0  0  0  0  0  0
    4.8495   -3.2654   -1.2128 H   0  0  0  0  0  0  0  0  0  0  0  0
    6.4669   -3.0566   -0.5862 H   0  0  0  0  0  0  0  0  0  0  0  0
    0.8956    0.6950    2.5956 N   0  0  0  0  0  0  0  0  0  0  0  0
    0.4489    1.5213    3.6939 C   0  0  2  0  0  0  0  0  0  0  0  0
   -0.8171    2.2445    3.2536 C   0  0  0  0  0  0  0  0  0  0  0  0
   -1.1046    2.4357    2.0739 O   0  0  0  0  0  0  0  0  0  0  0  0
    1.5232    2.5126    4.1132 C   0  0  0  0  0  0  0  0  0  0  0  0
    1.1271   -0.2756    2.7853 H   0  0  0  0  0  0  0  0  0  0  0  0
    0.2143    0.8453    4.5233 H   0  0  0  0  0  0  0  0  0  0  0  0
    1.7715    3.1985    3.2950 H   0  0  0  0  0  0  0  0  0  0  0  0
    1.1938    3.1185    4.9638 H   0  0  0  0  0  0  0  0  0  0  0  0
    2.4429    1.9920    4.4011 H   0  0  0  0  0  0  0  0  0  0  0  0
   -1.5666    2.6891    4.3338 N   0  0  0  0  0  0  0  0  0  0  0  0
   -2.8058    3.4143    4.1772 C   0  0  0  0  0  0  0  0  0  0  0  0
   -1.2621    2.4693    5.2776 H   0  0  0  0  0  0  0  0  0  0  0  0
   -2.6014    4.4952    4.1786 H   0  0  0  0  0  0  0  0  0  0  0  0
   -3.2779    3.1318    3.2247 H   0  0  0  0  0  0  0  0  0  0  0  0
   -3.4822    3.1681    5.0090 H   0  0  0  0  0  0  0  0  0  0  0  0
  1  3  1  0  0  0  0
  1  7  1  0  0  0  0
  1  2  2  0  0  0  0
 22 23  1  0  0  0  0
 23 25  1  0  0  0  0
 23 24  2  0  0  0  0
 35 36  1  0  0  0  0
 36 44  1  0  0  0  0
 36 37  2  0  0  0  0
  8  9  1  0  0  0  0
  9 17  1  0  0  0  0
  9 10  2  0  0  0  0
 18 19  1  0  0  0  0
 19 34  1  0  0  0  0
 19 20  2  0  0  0  0
 35 38  1  0  0  0  0
  8 11  1  0  0  0  0
 44 45  1  0  0  0  0
 21 22  1  0  0  0  0
 18 21  1  0  0  0  0
 34 35  1  0  0  0  0
  7  8  1  0  0  0  0
 17 18  1  0  0  0  0
  3  4  1  0  0  0  0
  3  5  1  0  0  0  0
  3  6  1  0  0  0  0
 38 41  1  0  0  0  0
 38 42  1  0  0  0  0
 38 43  1  0  0  0  0
 11 14  1  0  0  0  0
 11 15  1  0  0  0  0
 11 16  1  0  0  0  0
 45 47  1  0  0  0  0
 45 48  1  0  0  0  0
 45 49  1  0  0  0  0
 22 30  1  0  0  0  0
 22 31  1  0  0  0  0
 21 28  1  0  0  0  0
 21 29  1  0  0  0  0
 35 40  1  0  0  0  0
  8 13  1  0  0  0  0
 18 27  1  0  0  0  0
 25 32  1  0  0  0  0
 25 33  1  0  0  0  0
 44 46  1  0  0  0  0
  7 12  1  0  0  0  0
 34 39  1  0  0  0  0
 17 26  1  0  0  0  0
M  END
$$$$

  -OEChem-05262214473D

 49 48  0     1  0  0  0  0  0999 V2000
   -1.9833   -0.0509   -3.3423 C   0  0  0  0  0  0  0  0  0  0  0  0
   -1.6199   -1.0613   -2.7518 O   0  0  0  0  0  0  0  0  0  0  0  0
   -3.3243   -0.0235   -3.9975 C   0  0  0  0  0  0  0  0  0  0  0  0
   -3.2886   -0.3689   -5.0432 H   0  0  0  0  0  0  0  0  0  0  0  0
   -4.0503   -0.6845   -3.4973 H   0  0  0  0  0  0  0  0  0  0  0  0
   -3.8104    0.9645   -4.0351 H   0  0  0  0  0  0  0  0  0  0  0  0
   -1.2607    1.1231   -3.4768 N   0  0  0  0  0  0  0  0  0  0  0  0
    0.0536    1.3115   -2.9213 C   0  0  2  0  0  0  0  0  0  0  0  0
    0.0266    0.8315   -1.4761 C   0  0  0  0  0  0  0  0  0  0  0  0
   -1.0065    0.7530   -0.8146 O   0  0  0  0  0  0  0  0  0  0  0  0
    0.4852    2.7674   -3.0025 C   0  0  0  0  0  0  0  0  0  0  0  0
   -1.6809    1.8924   -3.9952 H   0  0  0  0  0  0  0  0  0  0  0  0
    0.7360    0.6822   -3.5030 H   0  0  0  0  0  0  0  0  0  0  0  0
   -0.1867    3.4133   -2.4256 H   0  0  0  0  0  0  0  0  0  0  0  0
    1.4966    2.9042   -2.6056 H   0  0  0  0  0  0  0  0  0  0  0  0
    0.4754    3.1196   -4.0397 H   0  0  0  0  0  0  0  0  0  0  0  0
    1.2978    0.5411   -0.9947 N   0  0  0  0  0  0  0  0  0  0  0  0
    1.5371    0.0807    0.3489 C   0  0  2  0  0  0  0  0  0  0  0  0
    0.7052    0.9549    1.2808 C   0  0  0  0  0  0  0  0  0  0  0  0
    0.0178    1.8925    0.8818 O   0  0  0  0  0  0  0  0  0  0  0  0
    3.0209    0.1552    0.7309 C   0  0  0  0  0  0  0  0  0  0  0  0
    3.9014   -0.8164   -0.0572 C   0  0  0  0  0  0  0  0  0  0  0  0
    5.3731   -0.7278    0.3017 C   0  0  0  0  0  0  0  0  0  0  0  0
    5.8395    0.0906    1.0887 O   0  0  0  0  0  0  0  0  0  0  0  0
    6.1347   -1.6552   -0.3765 N   0  0  0  0  0  0  0  0  0  0  0  0
    2.0949    0.6178   -1.6227 H   0  0  0  0  0  0  0  0  0  0  0  0
    1.1655   -0.9483    0.3991 H   0  0  0  0  0  0  0  0  0  0  0  0
    3.3877    1.1753    0.5549 H   0  0  0  0  0  0  0  0  0  0  0  0
    3.1422   -0.0308    1.8055 H   0  0  0  0  0  0  0  0  0  0  0  0
    3.8191   -0.5795   -1.1252 H   0  0  0  0  0  0  0  0  0  0  0  0
    3.5573   -1.8483    0.0746 H   0  0  0  0  0  0  0  0  0  0  0  0
    5.6746   -2.2863   -1.0242 H   0  0  0  0  0  0  0  0  0  0  0  0
    7.1391   -1.7295   -0.2512 H   0  0  0  0  0  0  0  0  0  0  0  0
    0.8632    0.5935    2.6115 N   0  0  0  0  0  0  0  0  0  0  0  0
    0.2031    1.2742    3.7022 C   0  0  2  0  0  0  0  0  0  0  0  0
   -1.2732    1.4036    3.3513 C   0  0  0  0  0  0  0  0  0  0  0  0
   -1.6945    1.3615    2.1972 O   0  0  0  0  0  0  0  0  0  0  0  0
    0.8226    2.6393    3.9583 C   0  0  0  0  0  0  0  0  0  0  0  0
    1.4733   -0.1887    2.8297 H   0  0  0  0  0  0  0  0  0  0  0  0
    0.3145    0.6371    4.5863 H   0  0  0  0  0  0  0  0  0  0  0  0
    0.7208    3.2917    3.0834 H   0  0  0  0  0  0  0  0  0  0  0  0
    0.3403    3.1417    4.8032 H   0  0  0  0  0  0  0  0  0  0  0  0
    1.8910    2.5468    4.1813 H   0  0  0  0  0  0  0  0  0  0  0  0
   -2.0601    1.6148    4.4748 N   0  0  0  0  0  0  0  0  0  0  0  0
   -3.4929    1.7818    4.4029 C   0  0  0  0  0  0  0  0  0  0  0  0
   -1.6284    1.6163    5.3942 H   0  0  0  0  0  0  0  0  0  0  0  0
   -3.7344    2.8522    4.3252 H   0  0  0  0  0  0  0  0  0  0  0  0
   -3.8796    1.2538    3.5187 H   0  0  0  0  0  0  0  0  0  0  0  0
   -3.9564    1.3663    5.3098 H   0  0  0  0  0  0  0  0  0  0  0  0
  1  3  1  0  0  0  0
  1  7  1  0  0  0  0
  1  2  2  0  0  0  0
 22 23  1  0  0  0  0
 23 25  1  0  0  0  0
 23 24  2  0  0  0  0
 35 36  1  0  0  0  0
 36 44  1  0  0  0  0
 36 37  2  0  0  0  0
  8  9  1  0  0  0  0
  9 17  1  0  0  0  0
  9 10  2  0  0  0  0
 18 19  1  0  0  0  0
 19 34  1  0  0  0  0
 19 20  2  0  0  0  0
 35 38  1  0  0  0  0
  8 11  1  0  0  0  0
 44 45  1  0  0  0  0
 21 22  1  0  0  0  0
 18 21  1  0  0  0  0
 34 35  1  0  0  0  0
  7  8  1  0  0  0  0
 17 18  1  0  0  0  0
  3  4  1  0  0  0  0
  3  5  1  0  0  0  0
  3  6  1  0  0  0  0
 38 41  1  0  0  0  0
 38 42  1  0  0  0  0
 38 43  1  0  0  0  0
 11 14  1  0  0  0  0
 11 15  1  0  0  0  0
 11 16  1  0  0  0  0
 45 47  1  0  0  0  0
 45 48  1  0  0  0  0
 45 49  1  0  0  0  0
 22 30  1  0  0  0  0
 22 31  1  0  0  0  0
 21 28  1  0  0  0  0
 21 29  1  0  0  0  0
 35 40  1  0  0  0  0
  8 13  1  0  0  0  0
 18 27  1  0  0  0  0
 25 32  1  0  0  0  0
 25 33  1  0  0  0  0
 44 46  1  0  0  0  0
  7 12  1  0  0  0  0
 34 39  1  0  0  0  0
 17 26  1  0  0  0  0
M  END
$$$$

  -OEChem-05262214473D

 49 48  0     1  0  0  0  0  0999 V2000
   -1.9833   -0.0509   -3.3423 C   0  0  0  0  0  0  0  0  0  0  0  0
   -1.6199   -1.0613   -2.7518 O   0  0  0  0  0  0  0  0  0  0  0  0
   -3.3243   -0.0235   -3.9975 C   0  0  0  0  0  0  0  0  0  0  0  0
   -3.2886   -0.3689   -5.0432 H   0  0  0  0  0  0  0  0  0  0  0  0
   -4.0503   -0.6845   -3.4973 H   0  0  0  0  0  0  0  0  0  0  0  0
   -3.8104    0.9645   -4.0351 H   0  0  0  0  0  0  0  0  0  0  0  0
   -1.2607    1.1231   -3.4768 N   0  0  0  0  0  0  0  0  0  0  0  0
    0.0536    1.3115   -2.9213 C   0  0  2  0  0  0  0  0  0  0  0  0
    0.0266    0.8315   -1.4761 C   0  0  0  0  0  0  0  0  0  0  0  0
   -1.0065    0.7530   -0.8146 O   0  0  0  0  0  0  0  0  0  0  0  0
    0.4852    2.7674   -3.0025 C   0  0  0  0  0  0  0  0  0  0  0  0
   -1.6809    1.8924   -3.9952 H   0  0  0  0  0  0  0  0  0  0  0  0
    0.7360    0.6822   -3.5030 H   0  0  0  0  0  0  0  0  0  0  0  0
   -0.1867    3.4133   -2.4256 H   0  0  0  0  0  0  0  0  0  0  0  0
    1.4966    2.9042   -2.6056 H   0  0  0  0  0  0  0  0  0  0  0  0
    0.4754    3.1196   -4.0397 H   0  0  0  0  0  0  0  0  0  0  0  0
    1.2978    0.5411   -0.9947 N   0  0  0  0  0  0  0  0  0  0  0  0
    1.5371    0.0807    0.3489 C   0  0  2  0  0  0  0  0  0  0  0  0
    0.7052    0.9549    1.2808 C   0  0  0  0  0  0  0  0  0  0  0  0
   -0.1787    1.7086    0.8789 O   0  0  0  0  0  0  0  0  0  0  0  0
    3.0209    0.1552    0.7309 C   0  0  0  0  0  0  0  0  0  0  0  0
    3.9014   -0.8164   -0.0572 C   0  0  0  0  0  0  0  0  0  0  0  0
    5.3731   -0.7278    0.3017 C   0  0  0  0  0  0  0  0  0  0  0  0
    5.8395    0.0906    1.0887 O   0  0  0  0  0  0  0  0  0  0  0  0
    6.1347   -1.6552   -0.3765 N   0  0  0  0  0  0  0  0  0  0  0  0
    2.0949    0.6178   -1.6227 H   0  0  0  0  0  0  0  0  0  0  0  0
    1.1655   -0.9483    0.3991 H   0  0  0  0  0  0  0  0  0  0  0  0
    3.3877    1.1753    0.5549 H   0  0  0  0  0  0  0  0  0  0  0  0
    3.1422   -0.0308    1.8055 H   0  0  0  0  0  0  0  0  0  0  0  0
    3.8191   -0.5795   -1.1252 H   0  0  0  0  0  0  0  0  0  0  0  0
    3.5573   -1.8483    0.0746 H   0  0  0  0  0  0  0  0  0  0  0  0
    5.6746   -2.2863   -1.0242 H   0  0  0  0  0  0  0  0  0  0  0  0
    7.1391   -1.7295   -0.2512 H   0  0  0  0  0  0  0  0  0  0  0  0
    1.1028    0.8289    2.6046 N   0  0  0  0  0  0  0  0  0  0  0  0
    0.4931    1.5637    3.6894 C   0  0  2  0  0  0  0  0  0  0  0  0
   -1.0179    1.4186    3.5651 C   0  0  0  0  0  0  0  0  0  0  0  0
   -1.5802    1.1385    2.5085 O   0  0  0  0  0  0  0  0  0  0  0  0
    0.9023    3.0282    3.6646 C   0  0  0  0  0  0  0  0  0  0  0  0
    1.8602    0.1880    2.8218 H   0  0  0  0  0  0  0  0  0  0  0  0
    0.8305    1.0930    4.6193 H   0  0  0  0  0  0  0  0  0  0  0  0
    0.5728    3.5167    2.7403 H   0  0  0  0  0  0  0  0  0  0  0  0
    0.4624    3.5774    4.5036 H   0  0  0  0  0  0  0  0  0  0  0  0
    1.9914    3.1296    3.7241 H   0  0  0  0  0  0  0  0  0  0  0  0
   -1.6677    1.6810    4.7631 N   0  0  0  0  0  0  0  0  0  0  0  0
   -3.1043    1.6218    4.9000 C   0  0  0  0  0  0  0  0  0  0  0  0
   -1.1205    1.8869    5.5937 H   0  0  0  0  0  0  0  0  0  0  0  0
   -3.5313    2.6201    4.7243 H   0  0  0  0  0  0  0  0  0  0  0  0
   -3.5137    0.9134    4.1648 H   0  0  0  0  0  0  0  0  0  0  0  0
   -3.3621    1.2863    5.9154 H   0  0  0  0  0  0  0  0  0  0  0  0
  1  3  1  0  0  0  0
  1  7  1  0  0  0  0
  1  2  2  0  0  0  0
 22 23  1  0  0  0  0
 23 25  1  0  0  0  0
 23 24  2  0  0  0  0
 35 36  1  0  0  0  0
 36 44  1  0  0  0  0
 36 37  2  0  0  0  0
  8  9  1  0  0  0  0
  9 17  1  0  0  0  0
  9 10  2  0  0  0  0
 18 19  1  0  0  0  0
 19 34  1  0  0  0  0
 19 20  2  0  0  0  0
 35 38  1  0  0  0  0
  8 11  1  0  0  0  0
 44 45  1  0  0  0  0
 21 22  1  0  0  0  0
 18 21  1  0  0  0  0
 34 35  1  0  0  0  0
  7  8  1  0  0  0  0
 17 18  1  0  0  0  0
  3  4  1  0  0  0  0
  3  5  1  0  0  0  0
  3  6  1  0  0  0  0
 38 41  1  0  0  0  0
 38 42  1  0  0  0  0
 38 43  1  0  0  0  0
 11 14  1  0  0  0  0
 11 15  1  0  0  0  0
 11 16  1  0  0  0  0
 45 47  1  0  0  0  0
 45 48  1  0  0  0  0
 45 49  1  0  0  0  0
 22 30  1  0  0  0  0
 22 31  1  0  0  0  0
 21 28  1  0  0  0  0
 21 29  1  0  0  0  0
 35 40  1  0  0  0  0
  8 13  1  0  0  0  0
 18 27  1  0  0  0  0
 25 32  1  0  0  0  0
 25 33  1  0  0  0  0
 44 46  1  0  0  0  0
  7 12  1  0  0  0  0
 34 39  1  0  0  0  0
 17 26  1  0  0  0  0
M  END
$$$$

  -OEChem-05262214473D

 49 48  0     1  0  0  0  0  0999 V2000
   -1.9833   -0.0509   -3.3423 C   0  0  0  0  0  0  0  0  0  0  0  0
   -1.6199   -1.0613   -2.7518 O   0  0  0  0  0  0  0  0  0  0  0  0
   -3.3243   -0.0235   -3.9975 C   0  0  0  0  0  0  0  0  0  0  0  0
   -3.2886   -0.3689   -5.0432 H   0  0  0  0  0  0  0  0  0  0  0  0
   -4.0503   -0.6845   -3.4973 H   0  0  0  0  0  0  0  0  0  0  0  0
   -3.8104    0.9645   -4.0351 H   0  0  0  0  0  0  0  0  0  0  0  0
   -1.2607    1.1231   -3.4768 N   0  0  0  0  0  0  0  0  0  0  0  0
    0.0536    1.3115   -2.9213 C   0  0  2  0  0  0  0  0  0  0  0  0
    0.0266    0.8315   -1.4761 C   0  0  0  0  0  0  0  0  0  0  0  0
   -1.0065    0.7530   -0.8146 O   0  0  0  0  0  0  0  0  0  0  0  0
    0.4852    2.7674   -3.0025 C   0  0  0  0  0  0  0  0  0  0  0  0
   -1.6809    1.8924   -3.9952 H   0  0  0  0  0  0  0  0  0  0  0  0
    0.7360    0.6822   -3.5030 H   0  0  0  0  0  0  0  0  0  0  0  0
   -0.1867    3.4133   -2.4256 H   0  0  0  0  0  0  0  0  0  0  0  0
    1.4966    2.9042   -2.6056 H   0  0  0  0  0  0  0  0  0  0  0  0
    0.4754    3.1196   -4.0397 H   0  0  0  0  0  0  0  0  0  0  0  0
    1.2978    0.5411   -0.9947 N   0  0  0  0  0  0  0  0  0  0  0  0
    1.5371    0.0807    0.3489 C   0  0  2  0  0  0  0  0  0  0  0  0
    0.7052    0.9549    1.2808 C   0  0  0  0  0  0  0  0  0  0  0  0
   -0.3399    1.4994    0.9313 O   0  0  0  0  0  0  0  0  0  0  0  0
    3.0209    0.1552    0.7309 C   0  0  0  0  0  0  0  0  0  0  0  0
    3.9014   -0.8164   -0.0572 C   0  0  0  0  0  0  0  0  0  0  0  0
    5.3731   -0.7278    0.3017 C   0  0  0  0  0  0  0  0  0  0  0  0
    5.8395    0.0906    1.0887 O   0  0  0  0  0  0  0  0  0  0  0  0
    6.1347   -1.6552   -0.3765 N   0  0  0  0  0  0  0  0  0  0  0  0
    2.0949    0.6178   -1.6227 H   0  0  0  0  0  0  0  0  0  0  0  0
    1.1655   -0.9483    0.3991 H   0  0  0  0  0  0  0  0  0  0  0  0
    3.3877    1.1753    0.5549 H   0  0  0  0  0  0  0  0  0  0  0  0
    3.1422   -0.0308    1.8055 H   0  0  0  0  0  0  0  0  0  0  0  0
    3.8191   -0.5795   -1.1252 H   0  0  0  0  0  0  0  0  0  0  0  0
    3.5573   -1.8483    0.0746 H   0  0  0  0  0  0  0  0  0  0  0  0
    5.6746   -2.2863   -1.0242 H   0  0  0  0  0  0  0  0  0  0  0  0
    7.1391   -1.7295   -0.2512 H   0  0  0  0  0  0  0  0  0  0  0  0
    1.2959    1.0931    2.5291 N   0  0  0  0  0  0  0  0  0  0  0  0
    0.7254    1.8874    3.5932 C   0  0  2  0  0  0  0  0  0  0  0  0
   -0.7419    1.5037    3.7317 C   0  0  0  0  0  0  0  0  0  0  0  0
   -1.3882    0.9852    2.8237 O   0  0  0  0  0  0  0  0  0  0  0  0
    0.8742    3.3749    3.3142 C   0  0  0  0  0  0  0  0  0  0  0  0
    2.1733    0.6119    2.7035 H   0  0  0  0  0  0  0  0  0  0  0  0
    1.2617    1.6196    4.5101 H   0  0  0  0  0  0  0  0  0  0  0  0
    0.3435    3.6621    2.3991 H   0  0  0  0  0  0  0  0  0  0  0  0
    0.4671    3.9752    4.1345 H   0  0  0  0  0  0  0  0  0  0  0  0
    1.9282    3.6438    3.1853 H   0  0  0  0  0  0  0  0  0  0  0  0
   -1.2563    1.8476    4.9740 N   0  0  0  0  0  0  0  0  0  0  0  0
   -2.6297    1.5988    5.3451 C   0  0  0  0  0  0  0  0  0  0  0  0
   -0.6432    2.2568    5.6728 H   0  0  0  0  0  0  0  0  0  0  0  0
   -3.2392    2.4845    5.1123 H   0  0  0  0  0  0  0  0  0  0  0  0
   -3.0105    0.7336    4.7826 H   0  0  0  0  0  0  0  0  0  0  0  0
   -2.6857    1.3886    6.4234 H   0  0  0  0  0  0  0  0  0  0  0  0
  1  3  1  0  0  0  0
  1  7  1  0  0  0  0
  1  2  2  0  0  0  0
 22 23  1  0  0  0  0
 23 25  1  0  0  0  0
 23 24  2  0  0  0  0
 35 36  1  0  0  0  0
 36 44  1  0  0  0  0
 36 37  2  0  0  0  0
  8  9  1  0  0  0  0
  9 17  1  0  0  0  0
  9 10  2  0  0  0  0
 18 19  1  0  0  0  0
 19 34  1  0  0  0  0
 19 20  2  0  0  0  0
 35 38  1  0  0  0  0
  8 11  1  0  0  0  0
 44 45  1  0  0  0  0
 21 22  1  0  0  0  0
 18 21  1  0  0  0  0
 34 35  1  0  0  0  0
  7  8  1  0  0  0  0
 17 18  1  0  0  0  0
  3  4  1  0  0  0  0
  3  5  1  0  0  0  0
  3  6  1  0  0  0  0
 38 41  1  0  0  0  0
 38 42  1  0  0  0  0
 38 43  1  0  0  0  0
 11 14  1  0  0  0  0
 11 15  1  0  0  0  0
 11 16  1  0  0  0  0
 45 47  1  0  0  0  0
 45 48  1  0  0  0  0
 45 49  1  0  0  0  0
 22 30  1  0  0  0  0
 22 31  1  0  0  0  0
 21 28  1  0  0  0  0
 21 29  1  0  0  0  0
 35 40  1  0  0  0  0
  8 13  1  0  0  0  0
 18 27  1  0  0  0  0
 25 32  1  0  0  0  0
 25 33  1  0  0  0  0
 44 46  1  0  0  0  0
  7 12  1  0  0  0  0
 34 39  1  0  0  0  0
 17 26  1  0  0  0  0
M  END
$$$$

  -OEChem-05262214473D

 49 48  0     1  0  0  0  0  0999 V2000
   -1.9833   -0.0509   -3.3423 C   0  0  0  0  0  0  0  0  0  0  0  0
   -1.6199   -1.0613   -2.7518 O   0  0  0  0  0  0  0  0  0  0  0  0
   -3.3243   -0.0235   -3.9975 C   0  0  0  0  0  0  0  0  0  0  0  0
   -3.2886   -0.3689   -5.0432 H   0  0  0  0  0  0  0  0  0  0  0  0
   -4.0503   -0.6845   -3.4973 H   0  0  0  0  0  0  0  0  0  0  0  0
   -3.8104    0.9645   -4.0351 H   0  0  0  0  0  0  0  0  0  0  0  0
   -1.2607    1.1231   -3.4768 N   0  0  0  0  0  0  0  0  0  0  0  0
    0.0536    1.3115   -2.9213 C   0  0  2  0  0  0  0  0  0  0  0  0
    0.0266    0.8315   -1.4761 C   0  0  0  0  0  0  0  0  0  0  0  0
   -1.0065    0.7530   -0.8146 O   0  0  0  0  0  0  0  0  0  0  0  0
    0.4852    2.7674   -3.0025 C   0  0  0  0  0  0  0  0  0  0  0  0
   -1.6809    1.8924   -3.9952 H   0  0  0  0  0  0  0  0  0  0  0  0
    0.7360    0.6822   -3.5030 H   0  0  0  0  0  0  0  0  0  0  0  0
   -0.1867    3.4133   -2.4256 H   0  0  0  0  0  0  0  0  0  0  0  0
    1.4966    2.9042   -2.6056 H   0  0  0  0  0  0  0  0  0  0  0  0
    0.4754    3.1196   -4.0397 H   0  0  0  0  0  0  0  0  0  0  0  0
    1.2978    0.5411   -0.9947 N   0  0  0  0  0  0  0  0  0  0  0  0
    1.5371    0.0807    0.3489 C   0  0  2  0  0  0  0  0  0  0  0  0
    0.7052    0.9549    1.2808 C   0  0  0  0  0  0  0  0  0  0  0  0
   -0.4547    1.2792    1.0353 O   0  0  0  0  0  0  0  0  0  0  0  0
    3.0209    0.1552    0.7309 C   0  0  0  0  0  0  0  0  0  0  0  0
    3.9014   -0.8164   -0.0572 C   0  0  0  0  0  0  0  0  0  0  0  0
    5.3731   -0.7278    0.3017 C   0  0  0  0  0  0  0  0  0  0  0  0
    5.8395    0.0906    1.0887 O   0  0  0  0  0  0  0  0  0  0  0  0
    6.1347   -1.6552   -0.3765 N   0  0  0  0  0  0  0  0  0  0  0  0
    2.0949    0.6178   -1.6227 H   0  0  0  0  0  0  0  0  0  0  0  0
    1.1655   -0.9483    0.3991 H   0  0  0  0  0  0  0  0  0  0  0  0
    3.3877    1.1753    0.5549 H   0  0  0  0  0  0  0  0  0  0  0  0
    3.1422   -0.0308    1.8055 H   0  0  0  0  0  0  0  0  0  0  0  0
    3.8191   -0.5795   -1.1252 H   0  0  0  0  0  0  0  0  0  0  0  0
    3.5573   -1.8483    0.0746 H   0  0  0  0  0  0  0  0  0  0  0  0
    5.6746   -2.2863   -1.0242 H   0  0  0  0  0  0  0  0  0  0  0  0
    7.1391   -1.7295   -0.2512 H   0  0  0  0  0  0  0  0  0  0  0  0
    1.4295    1.3683    2.3902 N   0  0  0  0  0  0  0  0  0  0  0  0
    0.8844    2.2232    3.4201 C   0  0  2  0  0  0  0  0  0  0  0  0
   -0.4641    1.6530    3.8396 C   0  0  0  0  0  0  0  0  0  0  0  0
   -1.1318    0.9120    3.1213 O   0  0  0  0  0  0  0  0  0  0  0  0
    0.7402    3.6560    2.9309 C   0  0  0  0  0  0  0  0  0  0  0  0
    2.3910    1.0543    2.4829 H   0  0  0  0  0  0  0  0  0  0  0  0
    1.5787    2.1811    4.2664 H   0  0  0  0  0  0  0  0  0  0  0  0
    0.0483    3.7181    2.0831 H   0  0  0  0  0  0  0  0  0  0  0  0
    0.3539    4.3081    3.7212 H   0  0  0  0  0  0  0  0  0  0  0  0
    1.7059    4.0544    2.6017 H   0  0  0  0  0  0  0  0  0  0  0  0
   -0.8540    2.1035    5.0931 N   0  0  0  0  0  0  0  0  0  0  0  0
   -2.1017    1.7146    5.7079 C   0  0  0  0  0  0  0  0  0  0  0  0
   -0.2289    2.7008    5.6261 H   0  0  0  0  0  0  0  0  0  0  0  0
   -2.8780    2.4544    5.4630 H   0  0  0  0  0  0  0  0  0  0  0  0
   -2.4043    0.7269    5.3301 H   0  0  0  0  0  0  0  0  0  0  0  0
   -1.9730    1.6661    6.7993 H   0  0  0  0  0  0  0  0  0  0  0  0
  1  3  1  0  0  0  0
  1  7  1  0  0  0  0
  1  2  2  0  0  0  0
 22 23  1  0  0  0  0
 23 25  1  0  0  0  0
 23 24  2  0  0  0  0
 35 36  1  0  0  0  0
 36 44  1  0  0  0  0
 36 37  2  0  0  0  0
  8  9  1  0  0  0  0
  9 17  1  0  0  0  0
  9 10  2  0  0  0  0
 18 19  1  0  0  0  0
 19 34  1  0  0  0  0
 19 20  2  0  0  0  0
 35 38  1  0  0  0  0
  8 11  1  0  0  0  0
 44 45  1  0  0  0  0
 21 22  1  0  0  0  0
 18 21  1  0  0  0  0
 34 35  1  0  0  0  0
  7  8  1  0  0  0  0
 17 18  1  0  0  0  0
  3  4  1  0  0  0  0
  3  5  1  0  0  0  0
  3  6  1  0  0  0  0
 38 41  1  0  0  0  0
 38 42  1  0  0  0  0
 38 43  1  0  0  0  0
 11 14  1  0  0  0  0
 11 15  1  0  0  0  0
 11 16  1  0  0  0  0
 45 47  1  0  0  0  0
 45 48  1  0  0  0  0
 45 49  1  0  0  0  0
 22 30  1  0  0  0  0
 22 31  1  0  0  0  0
 21 28  1  0  0  0  0
 21 29  1  0  0  0  0
 35 40  1  0  0  0  0
  8 13  1  0  0  0  0
 18 27  1  0  0  0  0
 25 32  1  0  0  0  0
 25 33  1  0  0  0  0
 44 46  1  0  0  0  0
  7 12  1  0  0  0  0
 34 39  1  0  0  0  0
 17 26  1  0  0  0  0
M  END
$$$$

  -OEChem-05262214473D

 49 48  0     1  0  0  0  0  0999 V2000
   -1.9833   -0.0509   -3.3423 C   0  0  0  0  0  0  0  0  0  0  0  0
   -1.6199   -1.0613   -2.7518 O   0  0  0  0  0  0  0  0  0  0  0  0
   -3.3243   -0.0235   -3.9975 C   0  0  0  0  0  0  0  0  0  0  0  0
   -3.2886   -0.3689   -5.0432 H   0  0  0  0  0  0  0  0  0  0  0  0
   -4.0503   -0.6845   -3.4973 H   0  0  0  0  0  0  0  0  0  0  0  0
   -3.8104    0.9645   -4.0351 H   0  0  0  0  0  0  0  0  0  0  0  0
   -1.2607    1.1231   -3.4768 N   0  0  0  0  0  0  0  0  0  0  0  0
    0.0536    1.3115   -2.9213 C   0  0  2  0  0  0  0  0  0  0  0  0
    0.0266    0.8315   -1.4761 C   0  0  0  0  0  0  0  0  0  0  0  0
   -1.0065    0.7530   -0.8146 O   0  0  0  0  0  0  0  0  0  0  0  0
    0.4852    2.7674   -3.0025 C   0  0  0  0  0  0  0  0  0  0  0  0
   -1.6809    1.8924   -3.9952 H   0  0  0  0  0  0  0  0  0  0  0  0
    0.7360    0.6822   -3.5030 H   0  0  0  0  0  0  0  0  0  0  0  0
   -0.1867    3.4133   -2.4256 H   0  0  0  0  0  0  0  0  0  0  0  0
    1.4966    2.9042   -2.6056 H   0  0  0  0  0  0  0  0  0  0  0  0
    0.4754    3.1196   -4.0397 H   0  0  0  0  0  0  0  0  0  0  0  0
    1.2978    0.5411   -0.9947 N   0  0  0  0  0  0  0  0  0  0  0  0
    1.5371    0.0807    0.3489 C   0  0  2  0  0  0  0  0  0  0  0  0
    0.7052    0.9549    1.2808 C   0  0  0  0  0  0  0  0  0  0  0  0
   -0.5154    1.0631    1.1839 O   0  0  0  0  0  0  0  0  0  0  0  0
    3.0209    0.1552    0.7309 C   0  0  0  0  0  0  0  0  0  0  0  0
    3.9014   -0.8164   -0.0572 C   0  0  0  0  0  0  0  0  0  0  0  0
    5.3731   -0.7278    0.3017 C   0  0  0  0  0  0  0  0  0  0  0  0
    5.8395    0.0906    1.0887 O   0  0  0  0  0  0  0  0  0  0  0  0
    6.1347   -1.6552   -0.3765 N   0  0  0  0  0  0  0  0  0  0  0  0
    2.0949    0.6178   -1.6227 H   0  0  0  0  0  0  0  0  0  0  0  0
    1.1655   -0.9483    0.3991 H   0  0  0  0  0  0  0  0  0  0  0  0
    3.3877    1.1753    0.5549 H   0  0  0  0  0  0  0  0  0  0  0  0
    3.1422   -0.0308    1.8055 H   0  0  0  0  0  0  0  0  0  0  0  0
    3.8191   -0.5795   -1.1252 H   0  0  0  0  0  0  0  0  0  0  0  0
    3.5573   -1.8483    0.0746 H   0  0  0  0  0  0  0  0  0  0  0  0
    5.6746   -2.2863   -1.0242 H   0  0  0  0  0  0  0  0  0  0  0  0
    7.1391   -1.7295   -0.2512 H   0  0  0  0  0  0  0  0  0  0  0  0
    1.4944    1.6356    2.1973 N   0  0  0  0  0  0  0  0  0  0  0  0
    0.9591    2.5483    3.1818 C   0  0  2  0  0  0  0  0  0  0  0  0
   -0.2033    1.8565    3.8816 C   0  0  0  0  0  0  0  0  0  0  0  0
   -0.8284    0.9238    3.3810 O   0  0  0  0  0  0  0  0  0  0  0  0
    0.5094    3.8521    2.5409 C   0  0  0  0  0  0  0  0  0  0  0  0
    2.4986    1.4848    2.1751 H   0  0  0  0  0  0  0  0  0  0  0  0
    1.7599    2.7392    3.9046 H   0  0  0  0  0  0  0  0  0  0  0  0
   -0.2926    3.6809    1.8137 H   0  0  0  0  0  0  0  0  0  0  0  0
    0.1306    4.5533    3.2917 H   0  0  0  0  0  0  0  0  0  0  0  0
    1.3397    4.3335    2.0129 H   0  0  0  0  0  0  0  0  0  0  0  0
   -0.4882    2.4311    5.1123 N   0  0  0  0  0  0  0  0  0  0  0  0
   -1.5561    1.9612    5.9636 C   0  0  0  0  0  0  0  0  0  0  0  0
    0.0942    3.1886    5.4569 H   0  0  0  0  0  0  0  0  0  0  0  0
   -2.4724    2.5320    5.7523 H   0  0  0  0  0  0  0  0  0  0  0  0
   -1.7365    0.8936    5.7699 H   0  0  0  0  0  0  0  0  0  0  0  0
   -1.2728    2.0999    7.0174 H   0  0  0  0  0  0  0  0  0  0  0  0
  1  3  1  0  0  0  0
  1  7  1  0  0  0  0
  1  2  2  0  0  0  0
 22 23  1  0  0  0  0
 23 25  1  0  0  0  0
 23 24  2  0  0  0  0
 35 36  1  0  0  0  0
 36 44  1  0  0  0  0
 36 37  2  0  0  0  0
  8  9  1  0  0  0  0
  9 17  1  0  0  0  0
  9 10  2  0  0  0  0
 18 19  1  0  0  0  0
 19 34  1  0  0  0  0
 19 20  2  0  0  0  0
 35 38  1  0  0  0  0
  8 11  1  0  0  0  0
 44 45  1  0  0  0  0
 21 22  1  0  0  0  0
 18 21  1  0  0  0  0
 34 35  1  0  0  0  0
  7  8  1  0  0  0  0
 17 18  1  0  0  0  0
  3  4  1  0  0  0  0
  3  5  1  0  0  0  0
  3  6  1  0  0  0  0
 38 41  1  0  0  0  0
 38 42  1  0  0  0  0
 38 43  1  0  0  0  0
 11 14  1  0  0  0  0
 11 15  1  0  0  0  0
 11 16  1  0  0  0  0
 45 47  1  0  0  0  0
 45 48  1  0  0  0  0
 45 49  1  0  0  0  0
 22 30  1  0  0  0  0
 22 31  1  0  0  0  0
 21 28  1  0  0  0  0
 21 29  1  0  0  0  0
 35 40  1  0  0  0  0
  8 13  1  0  0  0  0
 18 27  1  0  0  0  0
 25 32  1  0  0  0  0
 25 33  1  0  0  0  0
 44 46  1  0  0  0  0
  7 12  1  0  0  0  0
 34 39  1  0  0  0  0
 17 26  1  0  0  0  0
M  END
$$$$

  -OEChem-05262214473D

 49 48  0     1  0  0  0  0  0999 V2000
   -1.9833   -0.0509   -3.3423 C   0  0  0  0  0  0  0  0  0  0  0  0
   -1.6199   -1.0613   -2.7518 O   0  0  0  0  0  0  0  0  0  0  0  0
   -3.3243   -0.0235   -3.9975 C   0  0  0  0  0  0  0  0  0  0  0  0
   -3.2886   -0.3689   -5.0432 H   0  0  0  0  0  0  0  0  0  0  0  0
   -4.0503   -0.6845   -3.4973 H   0  0  0  0  0  0  0  0  0  0  0  0
   -3.8104    0.9645   -4.0351 H   0  0  0  0  0  0  0  0  0  0  0  0
   -1.2607    1.1231   -3.4768 N   0  0  0  0  0  0  0  0  0  0  0  0
    0.0536    1.3115   -2.9213 C   0  0  2  0  0  0  0  0  0  0  0  0
    0.0266    0.8315   -1.4761 C   0  0  0  0  0  0  0  0  0  0  0  0
   -1.0065    0.7530   -0.8146 O   0  0  0  0  0  0  0  0  0  0  0  0
    0.4852    2.7674   -3.0025 C   0  0  0  0  0  0  0  0  0  0  0  0
   -1.6809    1.8924   -3.9952 H   0  0  0  0  0  0  0  0  0  0  0  0
    0.7360    0.6822   -3.5030 H   0  0  0  0  0  0  0  0  0  0  0  0
   -0.1867    3.4133   -2.4256 H   0  0  0  0  0  0  0  0  0  0  0  0
    1.4966    2.9042   -2.6056 H   0  0  0  0  0  0  0  0  0  0  0  0
    0.4754    3.1196   -4.0397 H   0  0  0  0  0  0  0  0  0  0  0  0
    1.2978    0.5411   -0.9947 N   0  0  0  0  0  0  0  0  0  0  0  0
    1.5371    0.0807    0.3489 C   0  0  2  0  0  0  0  0  0  0  0  0
    0.7052    0.9549    1.2808 C   0  0  0  0  0  0  0  0  0  0  0  0
   -0.5177    0.8657    1.3670 O   0  0  0  0  0  0  0  0  0  0  0  0
    3.0209    0.1552    0.7309 C   0  0  0  0  0  0  0  0  0  0  0  0
    3.9014   -0.8164   -0.0572 C   0  0  0  0  0  0  0  0  0  0  0  0
    5.3731   -0.7278    0.3017 C   0  0  0  0  0  0  0  0  0  0  0  0
    5.8395    0.0906    1.0887 O   0  0  0  0  0  0  0  0  0  0  0  0
    6.1347   -1.6552   -0.3765 N   0  0  0  0  0  0  0  0  0  0  0  0
    2.0949    0.6178   -1.6227 H   0  0  0  0  0  0  0  0  0  0  0  0
    1.1655   -0.9483    0.3991 H   0  0  0  0  0  0  0  0  0  0  0  0
    3.3877    1.1753    0.5549 H   0  0  0  0  0  0  0  0  0  0  0  0
    3.1422   -0.0308    1.8055 H   0  0  0  0  0  0  0  0  0  0  0  0
    3.8191   -0.5795   -1.1252 H   0  0  0  0  0  0  0  0  0  0  0  0
    3.5573   -1.8483    0.0746 H   0  0  0  0  0  0  0  0  0  0  0  0
    5.6746   -2.2863   -1.0242 H   0  0  0  0  0  0  0  0  0  0  0  0
    7.1391   -1.7295   -0.2512 H   0  0  0  0  0  0  0  0  0  0  0  0
    1.4862    1.8769    1.9637 N   0  0  0  0  0  0  0  0  0  0  0  0
    0.9445    2.8405    2.8947 C   0  0  2  0  0  0  0  0  0  0  0  0
    0.0226    2.1001    3.8546 C   0  0  0  0  0  0  0  0  0  0  0  0
   -0.4987    1.0200    3.5852 O   0  0  0  0  0  0  0  0  0  0  0  0
    0.1976    3.9499    2.1707 C   0  0  0  0  0  0  0  0  0  0  0  0
    2.4888    1.8742    1.8010 H   0  0  0  0  0  0  0  0  0  0  0  0
    1.7929    3.2558    3.4494 H   0  0  0  0  0  0  0  0  0  0  0  0
   -0.6560    3.5529    1.6093 H   0  0  0  0  0  0  0  0  0  0  0  0
   -0.1876    4.6942    2.8754 H   0  0  0  0  0  0  0  0  0  0  0  0
    0.8544    4.4619    1.4591 H   0  0  0  0  0  0  0  0  0  0  0  0
   -0.1838    2.8081    5.0303 N   0  0  0  0  0  0  0  0  0  0  0  0
   -1.0302    2.3219    6.0949 C   0  0  0  0  0  0  0  0  0  0  0  0
    0.3039    3.6870    5.1766 H   0  0  0  0  0  0  0  0  0  0  0  0
   -2.0498    2.7121    5.9606 H   0  0  0  0  0  0  0  0  0  0  0  0
   -1.0526    1.2223    6.0721 H   0  0  0  0  0  0  0  0  0  0  0  0
   -0.6326    2.6605    7.0630 H   0  0  0  0  0  0  0  0  0  0  0  0
  1  3  1  0  0  0  0
  1  7  1  0  0  0  0
  1  2  2  0  0  0  0
 22 23  1  0  0  0  0
 23 25  1  0  0  0  0
 23 24  2  0  0  0  0
 35 36  1  0  0  0  0
 36 44  1  0  0  0  0
 36 37  2  0  0  0  0
  8  9  1  0  0  0  0
  9 17  1  0  0  0  0
  9 10  2  0  0  0  0
 18 19  1  0  0  0  0
 19 34  1  0  0  0  0
 19 20  2  0  0  0  0
 35 38  1  0  0  0  0
  8 11  1  0  0  0  0
 44 45  1  0  0  0  0
 21 22  1  0  0  0  0
 18 21  1  0  0  0  0
 34 35  1  0  0  0  0
  7  8  1  0  0  0  0
 17 18  1  0  0  0  0
  3  4  1  0  0  0  0
  3  5  1  0  0  0  0
  3  6  1  0  0  0  0
 38 41  1  0  0  0  0
 38 42  1  0  0  0  0
 38 43  1  0  0  0  0
 11 14  1  0  0  0  0
 11 15  1  0  0  0  0
 11 16  1  0  0  0  0
 45 47  1  0  0  0  0
 45 48  1  0  0  0  0
 45 49  1  0  0  0  0
 22 30  1  0  0  0  0
 22 31  1  0  0  0  0
 21 28  1  0  0  0  0
 21 29  1  0  0  0  0
 35 40  1  0  0  0  0
  8 13  1  0  0  0  0
 18 27  1  0  0  0  0
 25 32  1  0  0  0  0
 25 33  1  0  0  0  0
 44 46  1  0  0  0  0
  7 12  1  0  0  0  0
 34 39  1  0  0  0  0
 17 26  1  0  0  0  0
M  END
$$$$

  -OEChem-05262214473D

 49 48  0     1  0  0  0  0  0999 V2000
   -1.9833   -0.0509   -3.3423 C   0  0  0  0  0  0  0  0  0  0  0  0
   -1.6199   -1.0613   -2.7518 O   0  0  0  0  0  0  0  0  0  0  0  0
   -3.3243   -0.0235   -3.9975 C   0  0  0  0  0  0  0  0  0  0  0  0
   -3.2886   -0.3689   -5.0432 H   0  0  0  0  0  0  0  0  0  0  0  0
   -4.0503   -0.6845   -3.4973 H   0  0  0  0  0  0  0  0  0  0  0  0
   -3.8104    0.9645   -4.0351 H   0  0  0  0  0  0  0  0  0  0  0  0
   -1.2607    1.1231   -3.4768 N   0  0  0  0  0  0  0  0  0  0  0  0
    0.0536    1.3115   -2.9213 C   0  0  2  0  0  0  0  0  0  0  0  0
    0.0266    0.8315   -1.4761 C   0  0  0  0  0  0  0  0  0  0  0  0
   -1.0065    0.7530   -0.8146 O   0  0  0  0  0  0  0  0  0  0  0  0
    0.4852    2.7674   -3.0025 C   0  0  0  0  0  0  0  0  0  0  0  0
   -1.6809    1.8924   -3.9952 H   0  0  0  0  0  0  0  0  0  0  0  0
    0.7360    0.6822   -3.5030 H   0  0  0  0  0  0  0  0  0  0  0  0
   -0.1867    3.4133   -2.4256 H   0  0  0  0  0  0  0  0  0  0  0  0
    1.4966    2.9042   -2.6056 H   0  0  0  0  0  0  0  0  0  0  0  0
    0.4754    3.1196   -4.0397 H   0  0  0  0  0  0  0  0  0  0  0  0
    1.2978    0.5411   -0.9947 N   0  0  0  0  0  0  0  0  0  0  0  0
    1.5371    0.0807    0.3489 C   0  0  2  0  0  0  0  0  0  0  0  0
    0.7052    0.9549    1.2808 C   0  0  0  0  0  0  0  0  0  0  0  0
   -0.4616    0.7006    1.5721 O   0  0  0  0  0  0  0  0  0  0  0  0
    3.0209    0.1552    0.7309 C   0  0  0  0  0  0  0  0  0  0  0  0
    3.9014   -0.8164   -0.0572 C   0  0  0  0  0  0  0  0  0  0  0  0
    5.3731   -0.7278    0.3017 C   0  0  0  0  0  0  0  0  0  0  0  0
    5.8395    0.0906    1.0887 O   0  0  0  0  0  0  0  0  0  0  0  0
    6.1347   -1.6552   -0.3765 N   0  0  0  0  0  0  0  0  0  0  0  0
    2.0949    0.6178   -1.6227 H   0  0  0  0  0  0  0  0  0  0  0  0
    1.1655   -0.9483    0.3991 H   0  0  0  0  0  0  0  0  0  0  0  0
    3.3877    1.1753    0.5549 H   0  0  0  0  0  0  0  0  0  0  0  0
    3.1422   -0.0308    1.8055 H   0  0  0  0  0  0  0  0  0  0  0  0
    3.8191   -0.5795   -1.1252 H   0  0  0  0  0  0  0  0  0  0  0  0
    3.5573   -1.8483    0.0746 H   0  0  0  0  0  0  0  0  0  0  0  0
    5.6746   -2.2863   -1.0242 H   0  0  0  0  0  0  0  0  0  0  0  0
    7.1391   -1.7295   -0.2512 H   0  0  0  0  0  0  0  0  0  0  0  0
    1.4054    2.0756    1.7051 N   0  0  0  0  0  0  0  0  0  0  0  0
    0.8416    3.0798    2.5782 C   0  0  2  0  0  0  0  0  0  0  0  0
    0.1983    2.3675    3.7607 C   0  0  0  0  0  0  0  0  0  0  0  0
   -0.1650    1.1938    3.7199 O   0  0  0  0  0  0  0  0  0  0  0  0
   -0.1739    3.9429    1.8456 C   0  0  0  0  0  0  0  0  0  0  0  0
    2.3622    2.1960    1.3861 H   0  0  0  0  0  0  0  0  0  0  0  0
    1.6756    3.6958    2.9319 H   0  0  0  0  0  0  0  0  0  0  0  0
   -1.0170    3.3430    1.4839 H   0  0  0  0  0  0  0  0  0  0  0  0
   -0.5791    4.7212    2.5006 H   0  0  0  0  0  0  0  0  0  0  0  0
    0.2831    4.4310    0.9781 H   0  0  0  0  0  0  0  0  0  0  0  0
    0.0384    3.2089    4.8528 N   0  0  0  0  0  0  0  0  0  0  0  0
   -0.5598    2.7719    6.0926 C   0  0  0  0  0  0  0  0  0  0  0  0
    0.3861    4.1620    4.8043 H   0  0  0  0  0  0  0  0  0  0  0  0
   -1.6393    2.9822    6.0737 H   0  0  0  0  0  0  0  0  0  0  0  0
   -0.3991    1.6907    6.2161 H   0  0  0  0  0  0  0  0  0  0  0  0
   -0.0962    3.3098    6.9328 H   0  0  0  0  0  0  0  0  0  0  0  0
  1  3  1  0  0  0  0
  1  7  1  0  0  0  0
  1  2  2  0  0  0  0
 22 23  1  0  0  0  0
 23 25  1  0  0  0  0
 23 24  2  0  0  0  0
 35 36  1  0  0  0  0
 36 44  1  0  0  0  0
 36 37  2  0  0  0  0
  8  9  1  0  0  0  0
  9 17  1  0  0  0  0
  9 10  2  0  0  0  0
 18 19  1  0  0  0  0
 19 34  1  0  0  0  0
 19 20  2  0  0  0  0
 35 38  1  0  0  0  0
  8 11  1  0  0  0  0
 44 45  1  0  0  0  0
 21 22  1  0  0  0  0
 18 21  1  0  0  0  0
 34 35  1  0  0  0  0
  7  8  1  0  0  0  0
 17 18  1  0  0  0  0
  3  4  1  0  0  0  0
  3  5  1  0  0  0  0
  3  6  1  0  0  0  0
 38 41  1  0  0  0  0
 38 42  1  0  0  0  0
 38 43  1  0  0  0  0
 11 14  1  0  0  0  0
 11 15  1  0  0  0  0
 11 16  1  0  0  0  0
 45 47  1  0  0  0  0
 45 48  1  0  0  0  0
 45 49  1  0  0  0  0
 22 30  1  0  0  0  0
 22 31  1  0  0  0  0
 21 28  1  0  0  0  0
 21 29  1  0  0  0  0
 35 40  1  0  0  0  0
  8 13  1  0  0  0  0
 18 27  1  0  0  0  0
 25 32  1  0  0  0  0
 25 33  1  0  0  0  0
 44 46  1  0  0  0  0
  7 12  1  0  0  0  0
 34 39  1  0  0  0  0
 17 26  1  0  0  0  0
M  END
$$$$

  -OEChem-05262214473D

 49 48  0     1  0  0  0  0  0999 V2000
   -1.9833   -0.0509   -3.3423 C   0  0  0  0  0  0  0  0  0  0  0  0
   -1.6199   -1.0613   -2.7518 O   0  0  0  0  0  0  0  0  0  0  0  0
   -3.3243   -0.0235   -3.9975 C   0  0  0  0  0  0  0  0  0  0  0  0
   -3.2886   -0.3689   -5.0432 H   0  0  0  0  0  0  0  0  0  0  0  0
   -4.0503   -0.6845   -3.4973 H   0  0  0  0  0  0  0  0  0  0  0  0
   -3.8104    0.9645   -4.0351 H   0  0  0  0  0  0  0  0  0  0  0  0
   -1.2607    1.1231   -3.4768 N   0  0  0  0  0  0  0  0  0  0  0  0
    0.0536    1.3115   -2.9213 C   0  0  2  0  0  0  0  0  0  0  0  0
    0.0266    0.8315   -1.4761 C   0  0  0  0  0  0  0  0  0  0  0  0
   -1.0065    0.7530   -0.8146 O   0  0  0  0  0  0  0  0  0  0  0  0
    0.4852    2.7674   -3.0025 C   0  0  0  0  0  0  0  0  0  0  0  0
   -1.6809    1.8924   -3.9952 H   0  0  0  0  0  0  0  0  0  0  0  0
    0.7360    0.6822   -3.5030 H   0  0  0  0  0  0  0  0  0  0  0  0
   -0.1867    3.4133   -2.4256 H   0  0  0  0  0  0  0  0  0  0  0  0
    1.4966    2.9042   -2.6056 H   0  0  0  0  0  0  0  0  0  0  0  0
    0.4754    3.1196   -4.0397 H   0  0  0  0  0  0  0  0  0  0  0  0
    1.2978    0.5411   -0.9947 N   0  0  0  0  0  0  0  0  0  0  0  0
    1.5371    0.0807    0.3489 C   0  0  2  0  0  0  0  0  0  0  0  0
    0.7052    0.9549    1.2808 C   0  0  0  0  0  0  0  0  0  0  0  0
   -0.3508    0.5789    1.7851 O   0  0  0  0  0  0  0  0  0  0  0  0
    3.0209    0.1552    0.7309 C   0  0  0  0  0  0  0  0  0  0  0  0
    3.9014   -0.8164   -0.0572 C   0  0  0  0  0  0  0  0  0  0  0  0
    5.3731   -0.7278    0.3017 C   0  0  0  0  0  0  0  0  0  0  0  0
    5.8395    0.0906    1.0887 O   0  0  0  0  0  0  0  0  0  0  0  0
    6.1347   -1.6552   -0.3765 N   0  0  0  0  0  0  0  0  0  0  0  0
    2.0949    0.6178   -1.6227 H   0  0  0  0  0  0  0  0  0  0  0  0
    1.1655   -0.9483    0.3991 H   0  0  0  0  0  0  0  0  0  0  0  0
    3.3877    1.1753    0.5549 H   0  0  0  0  0  0  0  0  0  0  0  0
    3.1422   -0.0308    1.8055 H   0  0  0  0  0  0  0  0  0  0  0  0
    3.8191   -0.5795   -1.1252 H   0  0  0  0  0  0  0  0  0  0  0  0
    3.5573   -1.8483    0.0746 H   0  0  0  0  0  0  0  0  0  0  0  0
    5.6746   -2.2863   -1.0242 H   0  0  0  0  0  0  0  0  0  0  0  0
    7.1391   -1.7295   -0.2512 H   0  0  0  0  0  0  0  0  0  0  0  0
    1.2576    2.2183    1.4393 N   0  0  0  0  0  0  0  0  0  0  0  0
    0.6573    3.2501    2.2540 C   0  0  2  0  0  0  0  0  0  0  0  0
    0.3118    2.6402    3.6061 C   0  0  0  0  0  0  0  0  0  0  0  0
    0.1497    1.4336    3.7760 O   0  0  0  0  0  0  0  0  0  0  0  0
   -0.5800    3.8313    1.5877 C   0  0  0  0  0  0  0  0  0  0  0  0
    2.1274    2.4282    0.9587 H   0  0  0  0  0  0  0  0  0  0  0  0
    1.4158    4.0292    2.3872 H   0  0  0  0  0  0  0  0  0  0  0  0
   -1.3512    3.0654    1.4459 H   0  0  0  0  0  0  0  0  0  0  0  0
   -1.0171    4.6325    2.1928 H   0  0  0  0  0  0  0  0  0  0  0  0
   -0.3352    4.2429    0.6026 H   0  0  0  0  0  0  0  0  0  0  0  0
    0.1632    3.6060    4.5916 N   0  0  0  0  0  0  0  0  0  0  0  0
   -0.1769    3.2807    5.9571 C   0  0  0  0  0  0  0  0  0  0  0  0
    0.3351    4.5813    4.3655 H   0  0  0  0  0  0  0  0  0  0  0  0
   -1.2687    3.3240    6.0839 H   0  0  0  0  0  0  0  0  0  0  0  0
    0.1794    2.2669    6.1920 H   0  0  0  0  0  0  0  0  0  0  0  0
    0.2999    4.0033    6.6357 H   0  0  0  0  0  0  0  0  0  0  0  0
  1  3  1  0  0  0  0
  1  7  1  0  0  0  0
  1  2  2  0  0  0  0
 22 23  1  0  0  0  0
 23 25  1  0  0  0  0
 23 24  2  0  0  0  0
 35 36  1  0  0  0  0
 36 44  1  0  0  0  0
 36 37  2  0  0  0  0
  8  9  1  0  0  0  0
  9 17  1  0  0  0  0
  9 10  2  0  0  0  0
 18 19  1  0  0  0  0
 19 34  1  0  0  0  0
 19 20  2  0  0  0  0
 35 38  1  0  0  0  0
  8 11  1  0  0  0  0
 44 45  1  0  0  0  0
 21 22  1  0  0  0  0
 18 21  1  0  0  0  0
 34 35  1  0  0  0  0
  7  8  1  0  0  0  0
 17 18  1  0  0  0  0
  3  4  1  0  0  0  0
  3  5  1  0  0  0  0
  3  6  1  0  0  0  0
 38 41  1  0  0  0  0
 38 42  1  0  0  0  0
 38 43  1  0  0  0  0
 11 14  1  0  0  0  0
 11 15  1  0  0  0  0
 11 16  1  0  0  0  0
 45 47  1  0  0  0  0
 45 48  1  0  0  0  0
 45 49  1  0  0  0  0
 22 30  1  0  0  0  0
 22 31  1  0  0  0  0
 21 28  1  0  0  0  0
 21 29  1  0  0  0  0
 35 40  1  0  0  0  0
  8 13  1  0  0  0  0
 18 27  1  0  0  0  0
 25 32  1  0  0  0  0
 25 33  1  0  0  0  0
 44 46  1  0  0  0  0
  7 12  1  0  0  0  0
 34 39  1  0  0  0  0
 17 26  1  0  0  0  0
M  END
$$$$

  -OEChem-05262214473D

 49 48  0     1  0  0  0  0  0999 V2000
   -1.9833   -0.0509   -3.3423 C   0  0  0  0  0  0  0  0  0  0  0  0
   -1.6199   -1.0613   -2.7518 O   0  0  0  0  0  0  0  0  0  0  0  0
   -3.3243   -0.0235   -3.9975 C   0  0  0  0  0  0  0  0  0  0  0  0
   -3.2886   -0.3689   -5.0432 H   0  0  0  0  0  0  0  0  0  0  0  0
   -4.0503   -0.6845   -3.4973 H   0  0  0  0  0  0  0  0  0  0  0  0
   -3.8104    0.9645   -4.0351 H   0  0  0  0  0  0  0  0  0  0  0  0
   -1.2607    1.1231   -3.4768 N   0  0  0  0  0  0  0  0  0  0  0  0
    0.0536    1.3115   -2.9213 C   0  0  2  0  0  0  0  0  0  0  0  0
    0.0266    0.8315   -1.4761 C   0  0  0  0  0  0  0  0  0  0  0  0
   -1.0065    0.7530   -0.8146 O   0  0  0  0  0  0  0  0  0  0  0  0
    0.4852    2.7674   -3.0025 C   0  0  0  0  0  0  0  0  0  0  0  0
   -1.6809    1.8924   -3.9952 H   0  0  0  0  0  0  0  0  0  0  0  0
    0.7360    0.6822   -3.5030 H   0  0  0  0  0  0  0  0  0  0  0  0
   -0.1867    3.4133   -2.4256 H   0  0  0  0  0  0  0  0  0  0  0  0
    1.4966    2.9042   -2.6056 H   0  0  0  0  0  0  0  0  0  0  0  0
    0.4754    3.1196   -4.0397 H   0  0  0  0  0  0  0  0  0  0  0  0
    1.2978    0.5411   -0.9947 N   0  0  0  0  0  0  0  0  0  0  0  0
    1.5371    0.0807    0.3489 C   0  0  2  0  0  0  0  0  0  0  0  0
    0.7052    0.9549    1.2808 C   0  0  0  0  0  0  0  0  0  0  0  0
   -0.1929    0.5089    1.9917 O   0  0  0  0  0  0  0  0  0  0  0  0
    3.0209    0.1552    0.7309 C   0  0  0  0  0  0  0  0  0  0  0  0
    3.9014   -0.8164   -0.0572 C   0  0  0  0  0  0  0  0  0  0  0  0
    5.3731   -0.7278    0.3017 C   0  0  0  0  0  0  0  0  0  0  0  0
    5.8395    0.0906    1.0887 O   0  0  0  0  0  0  0  0  0  0  0  0
    6.1347   -1.6552   -0.3765 N   0  0  0  0  0  0  0  0  0  0  0  0
    2.0949    0.6178   -1.6227 H   0  0  0  0  0  0  0  0  0  0  0  0
    1.1655   -0.9483    0.3991 H   0  0  0  0  0  0  0  0  0  0  0  0
    3.3877    1.1753    0.5549 H   0  0  0  0  0  0  0  0  0  0  0  0
    3.1422   -0.0308    1.8055 H   0  0  0  0  0  0  0  0  0  0  0  0
    3.8191   -0.5795   -1.1252 H   0  0  0  0  0  0  0  0  0  0  0  0
    3.5573   -1.8483    0.0746 H   0  0  0  0  0  0  0  0  0  0  0  0
    5.6746   -2.2863   -1.0242 H   0  0  0  0  0  0  0  0  0  0  0  0
    7.1391   -1.7295   -0.2512 H   0  0  0  0  0  0  0  0  0  0  0  0
    1.0528    2.2951    1.1844 N   0  0  0  0  0  0  0  0  0  0  0  0
    0.4043    3.3396    1.9442 C   0  0  2  0  0  0  0  0  0  0  0  0
    0.3553    2.8998    3.4015 C   0  0  0  0  0  0  0  0  0  0  0  0
    0.4241    1.7229    3.7496 O   0  0  0  0  0  0  0  0  0  0  0  0
   -0.9928    3.6230    1.4147 C   0  0  0  0  0  0  0  0  0  0  0  0
    1.8005    2.5550    0.5479 H   0  0  0  0  0  0  0  0  0  0  0  0
    1.0314    4.2331    1.8527 H   0  0  0  0  0  0  0  0  0  0  0  0
   -1.6357    2.7391    1.4981 H   0  0  0  0  0  0  0  0  0  0  0  0
   -1.4719    4.4340    1.9731 H   0  0  0  0  0  0  0  0  0  0  0  0
   -0.9584    3.9103    0.3582 H   0  0  0  0  0  0  0  0  0  0  0  0
    0.1823    3.9725    4.2648 N   0  0  0  0  0  0  0  0  0  0  0  0
    0.0924    3.8136    5.6975 C   0  0  0  0  0  0  0  0  0  0  0  0
    0.1544    4.9162    3.8900 H   0  0  0  0  0  0  0  0  0  0  0  0
   -0.9633    3.7143    5.9904 H   0  0  0  0  0  0  0  0  0  0  0  0
    0.6435    2.9115    6.0016 H   0  0  0  0  0  0  0  0  0  0  0  0
    0.5287    4.6940    6.1921 H   0  0  0  0  0  0  0  0  0  0  0  0
  1  3  1  0  0  0  0
  1  7  1  0  0  0  0
  1  2  2  0  0  0  0
 22 23  1  0  0  0  0
 23 25  1  0  0  0  0
 23 24  2  0  0  0  0
 35 36  1  0  0  0  0
 36 44  1  0  0  0  0
 36 37  2  0  0  0  0
  8  9  1  0  0  0  0
  9 17  1  0  0  0  0
  9 10  2  0  0  0  0
 18 19  1  0  0  0  0
 19 34  1  0  0  0  0
 19 20  2  0  0  0  0
 35 38  1  0  0  0  0
  8 11  1  0  0  0  0
 44 45  1  0  0  0  0
 21 22  1  0  0  0  0
 18 21  1  0  0  0  0
 34 35  1  0  0  0  0
  7  8  1  0  0  0  0
 17 18  1  0  0  0  0
  3  4  1  0  0  0  0
  3  5  1  0  0  0  0
  3  6  1  0  0  0  0
 38 41  1  0  0  0  0
 38 42  1  0  0  0  0
 38 43  1  0  0  0  0
 11 14  1  0  0  0  0
 11 15  1  0  0  0  0
 11 16  1  0  0  0  0
 45 47  1  0  0  0  0
 45 48  1  0  0  0  0
 45 49  1  0  0  0  0
 22 30  1  0  0  0  0
 22 31  1  0  0  0  0
 21 28  1  0  0  0  0
 21 29  1  0  0  0  0
 35 40  1  0  0  0  0
  8 13  1  0  0  0  0
 18 27  1  0  0  0  0
 25 32  1  0  0  0  0
 25 33  1  0  0  0  0
 44 46  1  0  0  0  0
  7 12  1  0  0  0  0
 34 39  1  0  0  0  0
 17 26  1  0  0  0  0
M  END
$$$$

  -OEChem-05262214473D

 49 48  0     1  0  0  0  0  0999 V2000
   -1.9833   -0.0509   -3.3423 C   0  0  0  0  0  0  0  0  0  0  0  0
   -1.6199   -1.0613   -2.7518 O   0  0  0  0  0  0  0  0  0  0  0  0
   -3.3243   -0.0235   -3.9975 C   0  0  0  0  0  0  0  0  0  0  0  0
   -3.2886   -0.3689   -5.0432 H   0  0  0  0  0  0  0  0  0  0  0  0
   -4.0503   -0.6845   -3.4973 H   0  0  0  0  0  0  0  0  0  0  0  0
   -3.8104    0.9645   -4.0351 H   0  0  0  0  0  0  0  0  0  0  0  0
   -1.2607    1.1231   -3.4768 N   0  0  0  0  0  0  0  0  0  0  0  0
    0.0536    1.3115   -2.9213 C   0  0  2  0  0  0  0  0  0  0  0  0
    0.0266    0.8315   -1.4761 C   0  0  0  0  0  0  0  0  0  0  0  0
   -1.0065    0.7530   -0.8146 O   0  0  0  0  0  0  0  0  0  0  0  0
    0.4852    2.7674   -3.0025 C   0  0  0  0  0  0  0  0  0  0  0  0
   -1.6809    1.8924   -3.9952 H   0  0  0  0  0  0  0  0  0  0  0  0
    0.7360    0.6822   -3.5030 H   0  0  0  0  0  0  0  0  0  0  0  0
   -0.1867    3.4133   -2.4256 H   0  0  0  0  0  0  0  0  0  0  0  0
    1.4966    2.9042   -2.6056 H   0  0  0  0  0  0  0  0  0  0  0  0
    0.4754    3.1196   -4.0397 H   0  0  0  0  0  0  0  0  0  0  0  0
    1.2978    0.5411   -0.9947 N   0  0  0  0  0  0  0  0  0  0  0  0
    1.5371    0.0807    0.3489 C   0  0  2  0  0  0  0  0  0  0  0  0
    0.7052    0.9549    1.2808 C   0  0  0  0  0  0  0  0  0  0  0  0
    0.0013    0.4955    2.1777 O   0  0  0  0  0  0  0  0  0  0  0  0
    3.0209    0.1552    0.7309 C   0  0  0  0  0  0  0  0  0  0  0  0
    3.9014   -0.8164   -0.0572 C   0  0  0  0  0  0  0  0  0  0  0  0
    5.3731   -0.7278    0.3017 C   0  0  0  0  0  0  0  0  0  0  0  0
    5.8395    0.0906    1.0887 O   0  0  0  0  0  0  0  0  0  0  0  0
    6.1347   -1.6552   -0.3765 N   0  0  0  0  0  0  0  0  0  0  0  0
    2.0949    0.6178   -1.6227 H   0  0  0  0  0  0  0  0  0  0  0  0
    1.1655   -0.9483    0.3991 H   0  0  0  0  0  0  0  0  0  0  0  0
    3.3877    1.1753    0.5549 H   0  0  0  0  0  0  0  0  0  0  0  0
    3.1422   -0.0308    1.8055 H   0  0  0  0  0  0  0  0  0  0  0  0
    3.8191   -0.5795   -1.1252 H   0  0  0  0  0  0  0  0  0  0  0  0
    3.5573   -1.8483    0.0746 H   0  0  0  0  0  0  0  0  0  0  0  0
    5.6746   -2.2863   -1.0242 H   0  0  0  0  0  0  0  0  0  0  0  0
    7.1391   -1.7295   -0.2512 H   0  0  0  0  0  0  0  0  0  0  0  0
    0.8050    2.3010    0.9576 N   0  0  0  0  0  0  0  0  0  0  0  0
    0.0998    3.3423    1.6698 C   0  0  2  0  0  0  0  0  0  0  0  0
    0.3259    3.1285    3.1607 C   0  0  0  0  0  0  0  0  0  0  0  0
    0.6395    2.0419    3.6425 O   0  0  0  0  0  0  0  0  0  0  0  0
   -1.3843    3.3319    1.3382 C   0  0  0  0  0  0  0  0  0  0  0  0
    1.4037    2.5677    0.1817 H   0  0  0  0  0  0  0  0  0  0  0  0
    0.5484    4.2939    1.3645 H   0  0  0  0  0  0  0  0  0  0  0  0
   -1.8512    2.3862    1.6368 H   0  0  0  0  0  0  0  0  0  0  0  0
   -1.9123    4.1392    1.8564 H   0  0  0  0  0  0  0  0  0  0  0  0
   -1.5440    3.4560    0.2616 H   0  0  0  0  0  0  0  0  0  0  0  0
    0.0942    4.2834    3.8945 N   0  0  0  0  0  0  0  0  0  0  0  0
    0.2296    4.3343    5.3316 C   0  0  0  0  0  0  0  0  0  0  0  0
   -0.1437    5.1439    3.4102 H   0  0  0  0  0  0  0  0  0  0  0  0
   -0.7439    4.1264    5.7997 H   0  0  0  0  0  0  0  0  0  0  0  0
    0.9615    3.5807    5.6577 H   0  0  0  0  0  0  0  0  0  0  0  0
    0.5746    5.3346    5.6321 H   0  0  0  0  0  0  0  0  0  0  0  0
  1  3  1  0  0  0  0
  1  7  1  0  0  0  0
  1  2  2  0  0  0  0
 22 23  1  0  0  0  0
 23 25  1  0  0  0  0
 23 24  2  0  0  0  0
 35 36  1  0  0  0  0
 36 44  1  0  0  0  0
 36 37  2  0  0  0  0
  8  9  1  0  0  0  0
  9 17  1  0  0  0  0
  9 10  2  0  0  0  0
 18 19  1  0  0  0  0
 19 34  1  0  0  0  0
 19 20  2  0  0  0  0
 35 38  1  0  0  0  0
  8 11  1  0  0  0  0
 44 45  1  0  0  0  0
 21 22  1  0  0  0  0
 18 21  1  0  0  0  0
 34 35  1  0  0  0  0
  7  8  1  0  0  0  0
 17 18  1  0  0  0  0
  3  4  1  0  0  0  0
  3  5  1  0  0  0  0
  3  6  1  0  0  0  0
 38 41  1  0  0  0  0
 38 42  1  0  0  0  0
 38 43  1  0  0  0  0
 11 14  1  0  0  0  0
 11 15  1  0  0  0  0
 11 16  1  0  0  0  0
 45 47  1  0  0  0  0
 45 48  1  0  0  0  0
 45 49  1  0  0  0  0
 22 30  1  0  0  0  0
 22 31  1  0  0  0  0
 21 28  1  0  0  0  0
 21 29  1  0  0  0  0
 35 40  1  0  0  0  0
  8 13  1  0  0  0  0
 18 27  1  0  0  0  0
 25 32  1  0  0  0  0
 25 33  1  0  0  0  0
 44 46  1  0  0  0  0
  7 12  1  0  0  0  0
 34 39  1  0  0  0  0
 17 26  1  0  0  0  0
M  END
$$$$

  -OEChem-05262214473D

 49 48  0     1  0  0  0  0  0999 V2000
   -1.9833   -0.0509   -3.3423 C   0  0  0  0  0  0  0  0  0  0  0  0
   -1.6199   -1.0613   -2.7518 O   0  0  0  0  0  0  0  0  0  0  0  0
   -3.3243   -0.0235   -3.9975 C   0  0  0  0  0  0  0  0  0  0  0  0
   -3.2886   -0.3689   -5.0432 H   0  0  0  0  0  0  0  0  0  0  0  0
   -4.0503   -0.6845   -3.4973 H   0  0  0  0  0  0  0  0  0  0  0  0
   -3.8104    0.9645   -4.0351 H   0  0  0  0  0  0  0  0  0  0  0  0
   -1.2607    1.1231   -3.4768 N   0  0  0  0  0  0  0  0  0  0  0  0
    0.0536    1.3115   -2.9213 C   0  0  2  0  0  0  0  0  0  0  0  0
    0.0266    0.8315   -1.4761 C   0  0  0  0  0  0  0  0  0  0  0  0
   -1.0065    0.7530   -0.8146 O   0  0  0  0  0  0  0  0  0  0  0  0
    0.4852    2.7674   -3.0025 C   0  0  0  0  0  0  0  0  0  0  0  0
   -1.6809    1.8924   -3.9952 H   0  0  0  0  0  0  0  0  0  0  0  0
    0.7360    0.6822   -3.5030 H   0  0  0  0  0  0  0  0  0  0  0  0
   -0.1867    3.4133   -2.4256 H   0  0  0  0  0  0  0  0  0  0  0  0
    1.4966    2.9042   -2.6056 H   0  0  0  0  0  0  0  0  0  0  0  0
    0.4754    3.1196   -4.0397 H   0  0  0  0  0  0  0  0  0  0  0  0
    1.2978    0.5411   -0.9947 N   0  0  0  0  0  0  0  0  0  0  0  0
    1.5371    0.0807    0.3489 C   0  0  2  0  0  0  0  0  0  0  0  0
    0.7052    0.9549    1.2808 C   0  0  0  0  0  0  0  0  0  0  0  0
    0.2186    0.5396    2.3303 O   0  0  0  0  0  0  0  0  0  0  0  0
    3.0209    0.1552    0.7309 C   0  0  0  0  0  0  0  0  0  0  0  0
    3.9014   -0.8164   -0.0572 C   0  0  0  0  0  0  0  0  0  0  0  0
    5.3731   -0.7278    0.3017 C   0  0  0  0  0  0  0  0  0  0  0  0
    5.8395    0.0906    1.0887 O   0  0  0  0  0  0  0  0  0  0  0  0
    6.1347   -1.6552   -0.3765 N   0  0  0  0  0  0  0  0  0  0  0  0
    2.0949    0.6178   -1.6227 H   0  0  0  0  0  0  0  0  0  0  0  0
    1.1655   -0.9483    0.3991 H   0  0  0  0  0  0  0  0  0  0  0  0
    3.3877    1.1753    0.5549 H   0  0  0  0  0  0  0  0  0  0  0  0
    3.1422   -0.0308    1.8055 H   0  0  0  0  0  0  0  0  0  0  0  0
    3.8191   -0.5795   -1.1252 H   0  0  0  0  0  0  0  0  0  0  0  0
    3.5573   -1.8483    0.0746 H   0  0  0  0  0  0  0  0  0  0  0  0
    5.6746   -2.2863   -1.0242 H   0  0  0  0  0  0  0  0  0  0  0  0
    7.1391   -1.7295   -0.2512 H   0  0  0  0  0  0  0  0  0  0  0  0
    0.5310    2.2354    0.7746 N   0  0  0  0  0  0  0  0  0  0  0  0
   -0.2355    3.2579    1.4496 C   0  0  2  0  0  0  0  0  0  0  0  0
    0.2256    3.3107    2.9001 C   0  0  0  0  0  0  0  0  0  0  0  0
    0.7812    2.3691    3.4621 O   0  0  0  0  0  0  0  0  0  0  0  0
   -1.7278    2.9781    1.3635 C   0  0  0  0  0  0  0  0  0  0  0  0
    0.9640    2.4655   -0.1150 H   0  0  0  0  0  0  0  0  0  0  0  0
   -0.0001    4.2072    0.9561 H   0  0  0  0  0  0  0  0  0  0  0  0
   -1.9829    2.0309    1.8525 H   0  0  0  0  0  0  0  0  0  0  0  0
   -2.3085    3.7684    1.8506 H   0  0  0  0  0  0  0  0  0  0  0  0
   -2.0521    2.9109    0.3194 H   0  0  0  0  0  0  0  0  0  0  0  0
   -0.0950    4.5175    3.5061 N   0  0  0  0  0  0  0  0  0  0  0  0
    0.2255    4.8073    4.8842 C   0  0  0  0  0  0  0  0  0  0  0  0
   -0.5389    5.2490    2.9588 H   0  0  0  0  0  0  0  0  0  0  0  0
   -0.6254    4.5322    5.5247 H   0  0  0  0  0  0  0  0  0  0  0  0
    1.1119    4.2288    5.1839 H   0  0  0  0  0  0  0  0  0  0  0  0
    0.4345    5.8816    4.9938 H   0  0  0  0  0  0  0  0  0  0  0  0
  1  3  1  0  0  0  0
  1  7  1  0  0  0  0
  1  2  2  0  0  0  0
 22 23  1  0  0  0  0
 23 25  1  0  0  0  0
 23 24  2  0  0  0  0
 35 36  1  0  0  0  0
 36 44  1  0  0  0  0
 36 37  2  0  0  0  0
  8  9  1  0  0  0  0
  9 17  1  0  0  0  0
  9 10  2  0  0  0  0
 18 19  1  0  0  0  0
 19 34  1  0  0  0  0
 19 20  2  0  0  0  0
 35 38  1  0  0  0  0
  8 11  1  0  0  0  0
 44 45  1  0  0  0  0
 21 22  1  0  0  0  0
 18 21  1  0  0  0  0
 34 35  1  0  0  0  0
  7  8  1  0  0  0  0
 17 18  1  0  0  0  0
  3  4  1  0  0  0  0
  3  5  1  0  0  0  0
  3  6  1  0  0  0  0
 38 41  1  0  0  0  0
 38 42  1  0  0  0  0
 38 43  1  0  0  0  0
 11 14  1  0  0  0  0
 11 15  1  0  0  0  0
 11 16  1  0  0  0  0
 45 47  1  0  0  0  0
 45 48  1  0  0  0  0
 45 49  1  0  0  0  0
 22 30  1  0  0  0  0
 22 31  1  0  0  0  0
 21 28  1  0  0  0  0
 21 29  1  0  0  0  0
 35 40  1  0  0  0  0
  8 13  1  0  0  0  0
 18 27  1  0  0  0  0
 25 32  1  0  0  0  0
 25 33  1  0  0  0  0
 44 46  1  0  0  0  0
  7 12  1  0  0  0  0
 34 39  1  0  0  0  0
 17 26  1  0  0  0  0
M  END
$$$$

  -OEChem-05262214473D

 49 48  0     1  0  0  0  0  0999 V2000
   -1.9833   -0.0509   -3.3423 C   0  0  0  0  0  0  0  0  0  0  0  0
   -1.6199   -1.0613   -2.7518 O   0  0  0  0  0  0  0  0  0  0  0  0
   -3.3243   -0.0235   -3.9975 C   0  0  0  0  0  0  0  0  0  0  0  0
   -3.2886   -0.3689   -5.0432 H   0  0  0  0  0  0  0  0  0  0  0  0
   -4.0503   -0.6845   -3.4973 H   0  0  0  0  0  0  0  0  0  0  0  0
   -3.8104    0.9645   -4.0351 H   0  0  0  0  0  0  0  0  0  0  0  0
   -1.2607    1.1231   -3.4768 N   0  0  0  0  0  0  0  0  0  0  0  0
    0.0536    1.3115   -2.9213 C   0  0  2  0  0  0  0  0  0  0  0  0
    0.0266    0.8315   -1.4761 C   0  0  0  0  0  0  0  0  0  0  0  0
   -1.0065    0.7530   -0.8146 O   0  0  0  0  0  0  0  0  0  0  0  0
    0.4852    2.7674   -3.0025 C   0  0  0  0  0  0  0  0  0  0  0  0
   -1.6809    1.8924   -3.9952 H   0  0  0  0  0  0  0  0  0  0  0  0
    0.7360    0.6822   -3.5030 H   0  0  0  0  0  0  0  0  0  0  0  0
   -0.1867    3.4133   -2.4256 H   0  0  0  0  0  0  0  0  0  0  0  0
    1.4966    2.9042   -2.6056 H   0  0  0  0  0  0  0  0  0  0  0  0
    0.4754    3.1196   -4.0397 H   0  0  0  0  0  0  0  0  0  0  0  0
    1.2978    0.5411   -0.9947 N   0  0  0  0  0  0  0  0  0  0  0  0
    1.5371    0.0807    0.3489 C   0  0  2  0  0  0  0  0  0  0  0  0
    0.7052    0.9549    1.2808 C   0  0  0  0  0  0  0  0  0  0  0  0
    0.4442    0.6380    2.4394 O   0  0  0  0  0  0  0  0  0  0  0  0
    3.0209    0.1552    0.7309 C   0  0  0  0  0  0  0  0  0  0  0  0
    3.9014   -0.8164   -0.0572 C   0  0  0  0  0  0  0  0  0  0  0  0
    5.3731   -0.7278    0.3017 C   0  0  0  0  0  0  0  0  0  0  0  0
    5.8395    0.0906    1.0887 O   0  0  0  0  0  0  0  0  0  0  0  0
    6.1347   -1.6552   -0.3765 N   0  0  0  0  0  0  0  0  0  0  0  0
    2.0949    0.6178   -1.6227 H   0  0  0  0  0  0  0  0  0  0  0  0
    1.1655   -0.9483    0.3991 H   0  0  0  0  0  0  0  0  0  0  0  0
    3.3877    1.1753    0.5549 H   0  0  0  0  0  0  0  0  0  0  0  0
    3.1422   -0.0308    1.8055 H   0  0  0  0  0  0  0  0  0  0  0  0
    3.8191   -0.5795   -1.1252 H   0  0  0  0  0  0  0  0  0  0  0  0
    3.5573   -1.8483    0.0746 H   0  0  0  0  0  0  0  0  0  0  0  0
    5.6746   -2.2863   -1.0242 H   0  0  0  0  0  0  0  0  0  0  0  0
    7.1391   -1.7295   -0.2512 H   0  0  0  0  0  0  0  0  0  0  0  0
    0.2496    2.1029    0.6476 N   0  0  0  0  0  0  0  0  0  0  0  0
   -0.5787    3.0923    1.2985 C   0  0  2  0  0  0  0  0  0  0  0  0
    0.0612    3.4341    2.6376 C   0  0  0  0  0  0  0  0  0  0  0  0
    0.8395    2.6821    3.2206 O   0  0  0  0  0  0  0  0  0  0  0  0
   -1.9999    2.5856    1.4888 C   0  0  0  0  0  0  0  0  0  0  0  0
    0.5115    2.2554   -0.3218 H   0  0  0  0  0  0  0  0  0  0  0  0
   -0.5769    3.9790    0.6553 H   0  0  0  0  0  0  0  0  0  0  0  0
   -2.0219    1.6973    2.1307 H   0  0  0  0  0  0  0  0  0  0  0  0
   -2.6333    3.3468    1.9562 H   0  0  0  0  0  0  0  0  0  0  0  0
   -2.4482    2.3122    0.5275 H   0  0  0  0  0  0  0  0  0  0  0  0
   -0.3724    4.6588    3.1258 N   0  0  0  0  0  0  0  0  0  0  0  0
    0.0803    5.2003    4.3859 C   0  0  0  0  0  0  0  0  0  0  0  0
   -1.0042    5.2243    2.5666 H   0  0  0  0  0  0  0  0  0  0  0  0
   -0.6160    4.9041    5.1843 H   0  0  0  0  0  0  0  0  0  0  0  0
    1.0842    4.8117    4.6123 H   0  0  0  0  0  0  0  0  0  0  0  0
    0.1180    6.2977    4.3209 H   0  0  0  0  0  0  0  0  0  0  0  0
  1  3  1  0  0  0  0
  1  7  1  0  0  0  0
  1  2  2  0  0  0  0
 22 23  1  0  0  0  0
 23 25  1  0  0  0  0
 23 24  2  0  0  0  0
 35 36  1  0  0  0  0
 36 44  1  0  0  0  0
 36 37  2  0  0  0  0
  8  9  1  0  0  0  0
  9 17  1  0  0  0  0
  9 10  2  0  0  0  0
 18 19  1  0  0  0  0
 19 34  1  0  0  0  0
 19 20  2  0  0  0  0
 35 38  1  0  0  0  0
  8 11  1  0  0  0  0
 44 45  1  0  0  0  0
 21 22  1  0  0  0  0
 18 21  1  0  0  0  0
 34 35  1  0  0  0  0
  7  8  1  0  0  0  0
 17 18  1  0  0  0  0
  3  4  1  0  0  0  0
  3  5  1  0  0  0  0
  3  6  1  0  0  0  0
 38 41  1  0  0  0  0
 38 42  1  0  0  0  0
 38 43  1  0  0  0  0
 11 14  1  0  0  0  0
 11 15  1  0  0  0  0
 11 16  1  0  0  0  0
 45 47  1  0  0  0  0
 45 48  1  0  0  0  0
 45 49  1  0  0  0  0
 22 30  1  0  0  0  0
 22 31  1  0  0  0  0
 21 28  1  0  0  0  0
 21 29  1  0  0  0  0
 35 40  1  0  0  0  0
  8 13  1  0  0  0  0
 18 27  1  0  0  0  0
 25 32  1  0  0  0  0
 25 33  1  0  0  0  0
 44 46  1  0  0  0  0
  7 12  1  0  0  0  0
 34 39  1  0  0  0  0
 17 26  1  0  0  0  0
M  END
$$$$

  -OEChem-05262214473D

 49 48  0     1  0  0  0  0  0999 V2000
   -1.9833   -0.0509   -3.3423 C   0  0  0  0  0  0  0  0  0  0  0  0
   -1.6199   -1.0613   -2.7518 O   0  0  0  0  0  0  0  0  0  0  0  0
   -3.3243   -0.0235   -3.9975 C   0  0  0  0  0  0  0  0  0  0  0  0
   -3.2886   -0.3689   -5.0432 H   0  0  0  0  0  0  0  0  0  0  0  0
   -4.0503   -0.6845   -3.4973 H   0  0  0  0  0  0  0  0  0  0  0  0
   -3.8104    0.9645   -4.0351 H   0  0  0  0  0  0  0  0  0  0  0  0
   -1.2607    1.1231   -3.4768 N   0  0  0  0  0  0  0  0  0  0  0  0
    0.0536    1.3115   -2.9213 C   0  0  2  0  0  0  0  0  0  0  0  0
    0.0266    0.8315   -1.4761 C   0  0  0  0  0  0  0  0  0  0  0  0
   -1.0065    0.7530   -0.8146 O   0  0  0  0  0  0  0  0  0  0  0  0
    0.4852    2.7674   -3.0025 C   0  0  0  0  0  0  0  0  0  0  0  0
   -1.6809    1.8924   -3.9952 H   0  0  0  0  0  0  0  0  0  0  0  0
    0.7360    0.6822   -3.5030 H   0  0  0  0  0  0  0  0  0  0  0  0
   -0.1867    3.4133   -2.4256 H   0  0  0  0  0  0  0  0  0  0  0  0
    1.4966    2.9042   -2.6056 H   0  0  0  0  0  0  0  0  0  0  0  0
    0.4754    3.1196   -4.0397 H   0  0  0  0  0  0  0  0  0  0  0  0
    1.2978    0.5411   -0.9947 N   0  0  0  0  0  0  0  0  0  0  0  0
    1.5371    0.0807    0.3489 C   0  0  2  0  0  0  0  0  0  0  0  0
    0.7052    0.9549    1.2808 C   0  0  0  0  0  0  0  0  0  0  0  0
    0.6628    0.7842    2.4973 O   0  0  0  0  0  0  0  0  0  0  0  0
    3.0209    0.1552    0.7309 C   0  0  0  0  0  0  0  0  0  0  0  0
    3.9014   -0.8164   -0.0572 C   0  0  0  0  0  0  0  0  0  0  0  0
    5.3731   -0.7278    0.3017 C   0  0  0  0  0  0  0  0  0  0  0  0
    5.8395    0.0906    1.0887 O   0  0  0  0  0  0  0  0  0  0  0  0
    6.1347   -1.6552   -0.3765 N   0  0  0  0  0  0  0  0  0  0  0  0
    2.0949    0.6178   -1.6227 H   0  0  0  0  0  0  0  0  0  0  0  0
    1.1655   -0.9483    0.3991 H   0  0  0  0  0  0  0  0  0  0  0  0
    3.3877    1.1753    0.5549 H   0  0  0  0  0  0  0  0  0  0  0  0
    3.1422   -0.0308    1.8055 H   0  0  0  0  0  0  0  0  0  0  0  0
    3.8191   -0.5795   -1.1252 H   0  0  0  0  0  0  0  0  0  0  0  0
    3.5573   -1.8483    0.0746 H   0  0  0  0  0  0  0  0  0  0  0  0
    5.6746   -2.2863   -1.0242 H   0  0  0  0  0  0  0  0  0  0  0  0
    7.1391   -1.7295   -0.2512 H   0  0  0  0  0  0  0  0  0  0  0  0
   -0.0201    1.9125    0.5855 N   0  0  0  0  0  0  0  0  0  0  0  0
   -0.9065    2.8567    1.2270 C   0  0  2  0  0  0  0  0  0  0  0  0
   -0.1560    3.4902    2.3910 C   0  0  0  0  0  0  0  0  0  0  0  0
    0.8105    2.9595    2.9344 O   0  0  0  0  0  0  0  0  0  0  0  0
   -2.1820    2.1811    1.7058 C   0  0  0  0  0  0  0  0  0  0  0  0
    0.0770    1.9516   -0.4248 H   0  0  0  0  0  0  0  0  0  0  0  0
   -1.1425    3.6249    0.4825 H   0  0  0  0  0  0  0  0  0  0  0  0
   -1.9655    1.4082    2.4523 H   0  0  0  0  0  0  0  0  0  0  0  0
   -2.8647    2.9030    2.1659 H   0  0  0  0  0  0  0  0  0  0  0  0
   -2.7051    1.7005    0.8719 H   0  0  0  0  0  0  0  0  0  0  0  0
   -0.7192    4.6977    2.7798 N   0  0  0  0  0  0  0  0  0  0  0  0
   -0.1960    5.4866    3.8706 C   0  0  0  0  0  0  0  0  0  0  0  0
   -1.5080    5.0714    2.2603 H   0  0  0  0  0  0  0  0  0  0  0  0
   -0.7163    5.2167    4.8015 H   0  0  0  0  0  0  0  0  0  0  0  0
    0.8805    5.2897    3.9820 H   0  0  0  0  0  0  0  0  0  0  0  0
   -0.3535    6.5545    3.6591 H   0  0  0  0  0  0  0  0  0  0  0  0
  1  3  1  0  0  0  0
  1  7  1  0  0  0  0
  1  2  2  0  0  0  0
 22 23  1  0  0  0  0
 23 25  1  0  0  0  0
 23 24  2  0  0  0  0
 35 36  1  0  0  0  0
 36 44  1  0  0  0  0
 36 37  2  0  0  0  0
  8  9  1  0  0  0  0
  9 17  1  0  0  0  0
  9 10  2  0  0  0  0
 18 19  1  0  0  0  0
 19 34  1  0  0  0  0
 19 20  2  0  0  0  0
 35 38  1  0  0  0  0
  8 11  1  0  0  0  0
 44 45  1  0  0  0  0
 21 22  1  0  0  0  0
 18 21  1  0  0  0  0
 34 35  1  0  0  0  0
  7  8  1  0  0  0  0
 17 18  1  0  0  0  0
  3  4  1  0  0  0  0
  3  5  1  0  0  0  0
  3  6  1  0  0  0  0
 38 41  1  0  0  0  0
 38 42  1  0  0  0  0
 38 43  1  0  0  0  0
 11 14  1  0  0  0  0
 11 15  1  0  0  0  0
 11 16  1  0  0  0  0
 45 47  1  0  0  0  0
 45 48  1  0  0  0  0
 45 49  1  0  0  0  0
 22 30  1  0  0  0  0
 22 31  1  0  0  0  0
 21 28  1  0  0  0  0
 21 29  1  0  0  0  0
 35 40  1  0  0  0  0
  8 13  1  0  0  0  0
 18 27  1  0  0  0  0
 25 32  1  0  0  0  0
 25 33  1  0  0  0  0
 44 46  1  0  0  0  0
  7 12  1  0  0  0  0
 34 39  1  0  0  0  0
 17 26  1  0  0  0  0
M  END
$$$$

  -OEChem-05262214473D

 49 48  0     1  0  0  0  0  0999 V2000
   -1.9833   -0.0509   -3.3423 C   0  0  0  0  0  0  0  0  0  0  0  0
   -1.6199   -1.0613   -2.7518 O   0  0  0  0  0  0  0  0  0  0  0  0
   -3.3243   -0.0235   -3.9975 C   0  0  0  0  0  0  0  0  0  0  0  0
   -3.2886   -0.3689   -5.0432 H   0  0  0  0  0  0  0  0  0  0  0  0
   -4.0503   -0.6845   -3.4973 H   0  0  0  0  0  0  0  0  0  0  0  0
   -3.8104    0.9645   -4.0351 H   0  0  0  0  0  0  0  0  0  0  0  0
   -1.2607    1.1231   -3.4768 N   0  0  0  0  0  0  0  0  0  0  0  0
    0.0536    1.3115   -2.9213 C   0  0  2  0  0  0  0  0  0  0  0  0
    0.0266    0.8315   -1.4761 C   0  0  0  0  0  0  0  0  0  0  0  0
   -1.0065    0.7530   -0.8146 O   0  0  0  0  0  0  0  0  0  0  0  0
    0.4852    2.7674   -3.0025 C   0  0  0  0  0  0  0  0  0  0  0  0
   -1.6809    1.8924   -3.9952 H   0  0  0  0  0  0  0  0  0  0  0  0
    0.7360    0.6822   -3.5030 H   0  0  0  0  0  0  0  0  0  0  0  0
   -0.1867    3.4133   -2.4256 H   0  0  0  0  0  0  0  0  0  0  0  0
    1.4966    2.9042   -2.6056 H   0  0  0  0  0  0  0  0  0  0  0  0
    0.4754    3.1196   -4.0397 H   0  0  0  0  0  0  0  0  0  0  0  0
    1.2978    0.5411   -0.9947 N   0  0  0  0  0  0  0  0  0  0  0  0
    1.5371    0.0807    0.3489 C   0  0  2  0  0  0  0  0  0  0  0  0
    0.7052    0.9549    1.2808 C   0  0  0  0  0  0  0  0  0  0  0  0
    0.8593    0.9682    2.5002 O   0  0  0  0  0  0  0  0  0  0  0  0
    3.0209    0.1552    0.7309 C   0  0  0  0  0  0  0  0  0  0  0  0
    3.9014   -0.8164   -0.0572 C   0  0  0  0  0  0  0  0  0  0  0  0
    5.3731   -0.7278    0.3017 C   0  0  0  0  0  0  0  0  0  0  0  0
    5.8395    0.0906    1.0887 O   0  0  0  0  0  0  0  0  0  0  0  0
    6.1347   -1.6552   -0.3765 N   0  0  0  0  0  0  0  0  0  0  0  0
    2.0949    0.6178   -1.6227 H   0  0  0  0  0  0  0  0  0  0  0  0
    1.1655   -0.9483    0.3991 H   0  0  0  0  0  0  0  0  0  0  0  0
    3.3877    1.1753    0.5549 H   0  0  0  0  0  0  0  0  0  0  0  0
    3.1422   -0.0308    1.8055 H   0  0  0  0  0  0  0  0  0  0  0  0
    3.8191   -0.5795   -1.1252 H   0  0  0  0  0  0  0  0  0  0  0  0
    3.5573   -1.8483    0.0746 H   0  0  0  0  0  0  0  0  0  0  0  0
    5.6746   -2.2863   -1.0242 H   0  0  0  0  0  0  0  0  0  0  0  0
    7.1391   -1.7295   -0.2512 H   0  0  0  0  0  0  0  0  0  0  0  0
   -0.2597    1.6771    0.5924 N   0  0  0  0  0  0  0  0  0  0  0  0
   -1.1964    2.5672    1.2397 C   0  0  2  0  0  0  0  0  0  0  0  0
   -0.4114    3.4752    2.1772 C   0  0  0  0  0  0  0  0  0  0  0  0
    0.6961    3.1824    2.6232 O   0  0  0  0  0  0  0  0  0  0  0  0
   -2.2617    1.7922    1.9994 C   0  0  0  0  0  0  0  0  0  0  0  0
   -0.3100    1.5749   -0.4168 H   0  0  0  0  0  0  0  0  0  0  0  0
   -1.6585    3.1690    0.4496 H   0  0  0  0  0  0  0  0  0  0  0  0
   -1.8176    1.1833    2.7953 H   0  0  0  0  0  0  0  0  0  0  0  0
   -2.9869    2.4673    2.4655 H   0  0  0  0  0  0  0  0  0  0  0  0
   -2.8054    1.1178    1.3291 H   0  0  0  0  0  0  0  0  0  0  0  0
   -1.1116    4.6315    2.4915 N   0  0  0  0  0  0  0  0  0  0  0  0
   -0.5847    5.6466    3.3735 C   0  0  0  0  0  0  0  0  0  0  0  0
   -2.0158    4.8007    2.0608 H   0  0  0  0  0  0  0  0  0  0  0  0
   -0.9194    5.4487    4.4024 H   0  0  0  0  0  0  0  0  0  0  0  0
    0.5145    5.6301    3.3360 H   0  0  0  0  0  0  0  0  0  0  0  0
   -0.9477    6.6345    3.0536 H   0  0  0  0  0  0  0  0  0  0  0  0
  1  3  1  0  0  0  0
  1  7  1  0  0  0  0
  1  2  2  0  0  0  0
 22 23  1  0  0  0  0
 23 25  1  0  0  0  0
 23 24  2  0  0  0  0
 35 36  1  0  0  0  0
 36 44  1  0  0  0  0
 36 37  2  0  0  0  0
  8  9  1  0  0  0  0
  9 17  1  0  0  0  0
  9 10  2  0  0  0  0
 18 19  1  0  0  0  0
 19 34  1  0  0  0  0
 19 20  2  0  0  0  0
 35 38  1  0  0  0  0
  8 11  1  0  0  0  0
 44 45  1  0  0  0  0
 21 22  1  0  0  0  0
 18 21  1  0  0  0  0
 34 35  1  0  0  0  0
  7  8  1  0  0  0  0
 17 18  1  0  0  0  0
  3  4  1  0  0  0  0
  3  5  1  0  0  0  0
  3  6  1  0  0  0  0
 38 41  1  0  0  0  0
 38 42  1  0  0  0  0
 38 43  1  0  0  0  0
 11 14  1  0  0  0  0
 11 15  1  0  0  0  0
 11 16  1  0  0  0  0
 45 47  1  0  0  0  0
 45 48  1  0  0  0  0
 45 49  1  0  0  0  0
 22 30  1  0  0  0  0
 22 31  1  0  0  0  0
 21 28  1  0  0  0  0
 21 29  1  0  0  0  0
 35 40  1  0  0  0  0
  8 13  1  0  0  0  0
 18 27  1  0  0  0  0
 25 32  1  0  0  0  0
 25 33  1  0  0  0  0
 44 46  1  0  0  0  0
  7 12  1  0  0  0  0
 34 39  1  0  0  0  0
 17 26  1  0  0  0  0
M  END
$$$$

  -OEChem-05262214473D

 49 48  0     1  0  0  0  0  0999 V2000
   -1.9833   -0.0509   -3.3423 C   0  0  0  0  0  0  0  0  0  0  0  0
   -1.6199   -1.0613   -2.7518 O   0  0  0  0  0  0  0  0  0  0  0  0
   -3.3243   -0.0235   -3.9975 C   0  0  0  0  0  0  0  0  0  0  0  0
   -3.2886   -0.3689   -5.0432 H   0  0  0  0  0  0  0  0  0  0  0  0
   -4.0503   -0.6845   -3.4973 H   0  0  0  0  0  0  0  0  0  0  0  0
   -3.8104    0.9645   -4.0351 H   0  0  0  0  0  0  0  0  0  0  0  0
   -1.2607    1.1231   -3.4768 N   0  0  0  0  0  0  0  0  0  0  0  0
    0.0536    1.3115   -2.9213 C   0  0  2  0  0  0  0  0  0  0  0  0
    0.0266    0.8315   -1.4761 C   0  0  0  0  0  0  0  0  0  0  0  0
   -1.0065    0.7530   -0.8146 O   0  0  0  0  0  0  0  0  0  0  0  0
    0.4852    2.7674   -3.0025 C   0  0  0  0  0  0  0  0  0  0  0  0
   -1.6809    1.8924   -3.9952 H   0  0  0  0  0  0  0  0  0  0  0  0
    0.7360    0.6822   -3.5030 H   0  0  0  0  0  0  0  0  0  0  0  0
   -0.1867    3.4133   -2.4256 H   0  0  0  0  0  0  0  0  0  0  0  0
    1.4966    2.9042   -2.6056 H   0  0  0  0  0  0  0  0  0  0  0  0
    0.4754    3.1196   -4.0397 H   0  0  0  0  0  0  0  0  0  0  0  0
    1.2978    0.5411   -0.9947 N   0  0  0  0  0  0  0  0  0  0  0  0
    1.5371    0.0807    0.3489 C   0  0  2  0  0  0  0  0  0  0  0  0
    0.7052    0.9549    1.2808 C   0  0  0  0  0  0  0  0  0  0  0  0
    1.0205    1.1774    2.4478 O   0  0  0  0  0  0  0  0  0  0  0  0
    3.0209    0.1552    0.7309 C   0  0  0  0  0  0  0  0  0  0  0  0
    3.9014   -0.8164   -0.0572 C   0  0  0  0  0  0  0  0  0  0  0  0
    5.3731   -0.7278    0.3017 C   0  0  0  0  0  0  0  0  0  0  0  0
    5.8395    0.0906    1.0887 O   0  0  0  0  0  0  0  0  0  0  0  0
    6.1347   -1.6552   -0.3765 N   0  0  0  0  0  0  0  0  0  0  0  0
    2.0949    0.6178   -1.6227 H   0  0  0  0  0  0  0  0  0  0  0  0
    1.1655   -0.9483    0.3991 H   0  0  0  0  0  0  0  0  0  0  0  0
    3.3877    1.1753    0.5549 H   0  0  0  0  0  0  0  0  0  0  0  0
    3.1422   -0.0308    1.8055 H   0  0  0  0  0  0  0  0  0  0  0  0
    3.8191   -0.5795   -1.1252 H   0  0  0  0  0  0  0  0  0  0  0  0
    3.5573   -1.8483    0.0746 H   0  0  0  0  0  0  0  0  0  0  0  0
    5.6746   -2.2863   -1.0242 H   0  0  0  0  0  0  0  0  0  0  0  0
    7.1391   -1.7295   -0.2512 H   0  0  0  0  0  0  0  0  0  0  0  0
   -0.4529    1.4128    0.6679 N   0  0  0  0  0  0  0  0  0  0  0  0
   -1.4287    2.2436    1.3360 C   0  0  2  0  0  0  0  0  0  0  0  0
   -0.6873    3.3902    2.0106 C   0  0  0  0  0  0  0  0  0  0  0  0
    0.5042    3.3357    2.3080 O   0  0  0  0  0  0  0  0  0  0  0  0
   -2.2336    1.4454    2.3498 C   0  0  0  0  0  0  0  0  0  0  0  0
   -0.6230    1.1510   -0.2986 H   0  0  0  0  0  0  0  0  0  0  0  0
   -2.0897    2.6424    0.5587 H   0  0  0  0  0  0  0  0  0  0  0  0
   -1.5882    1.0378    3.1365 H   0  0  0  0  0  0  0  0  0  0  0  0
   -2.9916    2.0695    2.8345 H   0  0  0  0  0  0  0  0  0  0  0  0
   -2.7423    0.6036    1.8679 H   0  0  0  0  0  0  0  0  0  0  0  0
   -1.5230    4.4648    2.2806 N   0  0  0  0  0  0  0  0  0  0  0  0
   -1.0592    5.6696    2.9283 C   0  0  0  0  0  0  0  0  0  0  0  0
   -2.4932    4.4308    1.9817 H   0  0  0  0  0  0  0  0  0  0  0  0
   -1.2115    5.5844    4.0144 H   0  0  0  0  0  0  0  0  0  0  0  0
    0.0114    5.8099    2.7182 H   0  0  0  0  0  0  0  0  0  0  0  0
   -1.6242    6.5323    2.5455 H   0  0  0  0  0  0  0  0  0  0  0  0
  1  3  1  0  0  0  0
  1  7  1  0  0  0  0
  1  2  2  0  0  0  0
 22 23  1  0  0  0  0
 23 25  1  0  0  0  0
 23 24  2  0  0  0  0
 35 36  1  0  0  0  0
 36 44  1  0  0  0  0
 36 37  2  0  0  0  0
  8  9  1  0  0  0  0
  9 17  1  0  0  0  0
  9 10  2  0  0  0  0
 18 19  1  0  0  0  0
 19 34  1  0  0  0  0
 19 20  2  0  0  0  0
 35 38  1  0  0  0  0
  8 11  1  0  0  0  0
 44 45  1  0  0  0  0
 21 22  1  0  0  0  0
 18 21  1  0  0  0  0
 34 35  1  0  0  0  0
  7  8  1  0  0  0  0
 17 18  1  0  0  0  0
  3  4  1  0  0  0  0
  3  5  1  0  0  0  0
  3  6  1  0  0  0  0
 38 41  1  0  0  0  0
 38 42  1  0  0  0  0
 38 43  1  0  0  0  0
 11 14  1  0  0  0  0
 11 15  1  0  0  0  0
 11 16  1  0  0  0  0
 45 47  1  0  0  0  0
 45 48  1  0  0  0  0
 45 49  1  0  0  0  0
 22 30  1  0  0  0  0
 22 31  1  0  0  0  0
 21 28  1  0  0  0  0
 21 29  1  0  0  0  0
 35 40  1  0  0  0  0
  8 13  1  0  0  0  0
 18 27  1  0  0  0  0
 25 32  1  0  0  0  0
 25 33  1  0  0  0  0
 44 46  1  0  0  0  0
  7 12  1  0  0  0  0
 34 39  1  0  0  0  0
 17 26  1  0  0  0  0
M  END
$$$$

  -OEChem-05262214473D

 49 48  0     1  0  0  0  0  0999 V2000
   -1.9833   -0.0509   -3.3423 C   0  0  0  0  0  0  0  0  0  0  0  0
   -1.6199   -1.0613   -2.7518 O   0  0  0  0  0  0  0  0  0  0  0  0
   -3.3243   -0.0235   -3.9975 C   0  0  0  0  0  0  0  0  0  0  0  0
   -3.2886   -0.3689   -5.0432 H   0  0  0  0  0  0  0  0  0  0  0  0
   -4.0503   -0.6845   -3.4973 H   0  0  0  0  0  0  0  0  0  0  0  0
   -3.8104    0.9645   -4.0351 H   0  0  0  0  0  0  0  0  0  0  0  0
   -1.2607    1.1231   -3.4768 N   0  0  0  0  0  0  0  0  0  0  0  0
    0.0536    1.3115   -2.9213 C   0  0  2  0  0  0  0  0  0  0  0  0
    0.0266    0.8315   -1.4761 C   0  0  0  0  0  0  0  0  0  0  0  0
   -1.0065    0.7530   -0.8146 O   0  0  0  0  0  0  0  0  0  0  0  0
    0.4852    2.7674   -3.0025 C   0  0  0  0  0  0  0  0  0  0  0  0
   -1.6809    1.8924   -3.9952 H   0  0  0  0  0  0  0  0  0  0  0  0
    0.7360    0.6822   -3.5030 H   0  0  0  0  0  0  0  0  0  0  0  0
   -0.1867    3.4133   -2.4256 H   0  0  0  0  0  0  0  0  0  0  0  0
    1.4966    2.9042   -2.6056 H   0  0  0  0  0  0  0  0  0  0  0  0
    0.4754    3.1196   -4.0397 H   0  0  0  0  0  0  0  0  0  0  0  0
    1.2978    0.5411   -0.9947 N   0  0  0  0  0  0  0  0  0  0  0  0
    1.5371    0.0807    0.3489 C   0  0  2  0  0  0  0  0  0  0  0  0
    0.7052    0.9549    1.2808 C   0  0  0  0  0  0  0  0  0  0  0  0
    1.1353    1.3976    2.3438 O   0  0  0  0  0  0  0  0  0  0  0  0
    3.0209    0.1552    0.7309 C   0  0  0  0  0  0  0  0  0  0  0  0
    3.9014   -0.8164   -0.0572 C   0  0  0  0  0  0  0  0  0  0  0  0
    5.3731   -0.7278    0.3017 C   0  0  0  0  0  0  0  0  0  0  0  0
    5.8395    0.0906    1.0887 O   0  0  0  0  0  0  0  0  0  0  0  0
    6.1347   -1.6552   -0.3765 N   0  0  0  0  0  0  0  0  0  0  0  0
    2.0949    0.6178   -1.6227 H   0  0  0  0  0  0  0  0  0  0  0  0
    1.1655   -0.9483    0.3991 H   0  0  0  0  0  0  0  0  0  0  0  0
    3.3877    1.1753    0.5549 H   0  0  0  0  0  0  0  0  0  0  0  0
    3.1422   -0.0308    1.8055 H   0  0  0  0  0  0  0  0  0  0  0  0
    3.8191   -0.5795   -1.1252 H   0  0  0  0  0  0  0  0  0  0  0  0
    3.5573   -1.8483    0.0746 H   0  0  0  0  0  0  0  0  0  0  0  0
    5.6746   -2.2863   -1.0242 H   0  0  0  0  0  0  0  0  0  0  0  0
    7.1391   -1.7295   -0.2512 H   0  0  0  0  0  0  0  0  0  0  0  0
   -0.5864    1.1376    0.8068 N   0  0  0  0  0  0  0  0  0  0  0  0
   -1.5877    1.9077    1.5091 C   0  0  2  0  0  0  0  0  0  0  0  0
   -0.9652    3.2408    1.9027 C   0  0  0  0  0  0  0  0  0  0  0  0
    0.2478    3.4089    2.0104 O   0  0  0  0  0  0  0  0  0  0  0  0
   -2.0996    1.1644    2.7331 C   0  0  0  0  0  0  0  0  0  0  0  0
   -0.8408    0.7086   -0.0780 H   0  0  0  0  0  0  0  0  0  0  0  0
   -2.4067    2.0809    0.8025 H   0  0  0  0  0  0  0  0  0  0  0  0
   -1.2930    0.9818    3.4526 H   0  0  0  0  0  0  0  0  0  0  0  0
   -2.8784    1.7367    3.2479 H   0  0  0  0  0  0  0  0  0  0  0  0
   -2.5200    0.1929    2.4515 H   0  0  0  0  0  0  0  0  0  0  0  0
   -1.9253    4.2090    2.1614 N   0  0  0  0  0  0  0  0  0  0  0  0
   -1.5873    5.5538    2.5655 C   0  0  0  0  0  0  0  0  0  0  0  0
   -2.9075    3.9868    2.0283 H   0  0  0  0  0  0  0  0  0  0  0  0
   -1.5727    5.6145    3.6638 H   0  0  0  0  0  0  0  0  0  0  0  0
   -0.5948    5.8166    2.1707 H   0  0  0  0  0  0  0  0  0  0  0  0
   -2.3368    6.2548    2.1696 H   0  0  0  0  0  0  0  0  0  0  0  0
  1  3  1  0  0  0  0
  1  7  1  0  0  0  0
  1  2  2  0  0  0  0
 22 23  1  0  0  0  0
 23 25  1  0  0  0  0
 23 24  2  0  0  0  0
 35 36  1  0  0  0  0
 36 44  1  0  0  0  0
 36 37  2  0  0  0  0
  8  9  1  0  0  0  0
  9 17  1  0  0  0  0
  9 10  2  0  0  0  0
 18 19  1  0  0  0  0
 19 34  1  0  0  0  0
 19 20  2  0  0  0  0
 35 38  1  0  0  0  0
  8 11  1  0  0  0  0
 44 45  1  0  0  0  0
 21 22  1  0  0  0  0
 18 21  1  0  0  0  0
 34 35  1  0  0  0  0
  7  8  1  0  0  0  0
 17 18  1  0  0  0  0
  3  4  1  0  0  0  0
  3  5  1  0  0  0  0
  3  6  1  0  0  0  0
 38 41  1  0  0  0  0
 38 42  1  0  0  0  0
 38 43  1  0  0  0  0
 11 14  1  0  0  0  0
 11 15  1  0  0  0  0
 11 16  1  0  0  0  0
 45 47  1  0  0  0  0
 45 48  1  0  0  0  0
 45 49  1  0  0  0  0
 22 30  1  0  0  0  0
 22 31  1  0  0  0  0
 21 28  1  0  0  0  0
 21 29  1  0  0  0  0
 35 40  1  0  0  0  0
  8 13  1  0  0  0  0
 18 27  1  0  0  0  0
 25 32  1  0  0  0  0
 25 33  1  0  0  0  0
 44 46  1  0  0  0  0
  7 12  1  0  0  0  0
 34 39  1  0  0  0  0
 17 26  1  0  0  0  0
M  END
$$$$

  -OEChem-05262214473D

 49 48  0     1  0  0  0  0  0999 V2000
   -1.9833   -0.0509   -3.3423 C   0  0  0  0  0  0  0  0  0  0  0  0
   -1.6199   -1.0613   -2.7518 O   0  0  0  0  0  0  0  0  0  0  0  0
   -3.3243   -0.0235   -3.9975 C   0  0  0  0  0  0  0  0  0  0  0  0
   -3.2886   -0.3689   -5.0432 H   0  0  0  0  0  0  0  0  0  0  0  0
   -4.0503   -0.6845   -3.4973 H   0  0  0  0  0  0  0  0  0  0  0  0
   -3.8104    0.9645   -4.0351 H   0  0  0  0  0  0  0  0  0  0  0  0
   -1.2607    1.1231   -3.4768 N   0  0  0  0  0  0  0  0  0  0  0  0
    0.0536    1.3115   -2.9213 C   0  0  2  0  0  0  0  0  0  0  0  0
    0.0266    0.8315   -1.4761 C   0  0  0  0  0  0  0  0  0  0  0  0
   -1.0065    0.7530   -0.8146 O   0  0  0  0  0  0  0  0  0  0  0  0
    0.4852    2.7674   -3.0025 C   0  0  0  0  0  0  0  0  0  0  0  0
   -1.6809    1.8924   -3.9952 H   0  0  0  0  0  0  0  0  0  0  0  0
    0.7360    0.6822   -3.5030 H   0  0  0  0  0  0  0  0  0  0  0  0
   -0.1867    3.4133   -2.4256 H   0  0  0  0  0  0  0  0  0  0  0  0
    1.4966    2.9042   -2.6056 H   0  0  0  0  0  0  0  0  0  0  0  0
    0.4754    3.1196   -4.0397 H   0  0  0  0  0  0  0  0  0  0  0  0
    1.2978    0.5411   -0.9947 N   0  0  0  0  0  0  0  0  0  0  0  0
    1.5371    0.0807    0.3489 C   0  0  2  0  0  0  0  0  0  0  0  0
    0.7052    0.9549    1.2808 C   0  0  0  0  0  0  0  0  0  0  0  0
    1.1959    1.6137    2.1951 O   0  0  0  0  0  0  0  0  0  0  0  0
    3.0209    0.1552    0.7309 C   0  0  0  0  0  0  0  0  0  0  0  0
    3.9014   -0.8164   -0.0572 C   0  0  0  0  0  0  0  0  0  0  0  0
    5.3731   -0.7278    0.3017 C   0  0  0  0  0  0  0  0  0  0  0  0
    5.8395    0.0906    1.0887 O   0  0  0  0  0  0  0  0  0  0  0  0
    6.1347   -1.6552   -0.3765 N   0  0  0  0  0  0  0  0  0  0  0  0
    2.0949    0.6178   -1.6227 H   0  0  0  0  0  0  0  0  0  0  0  0
    1.1655   -0.9483    0.3991 H   0  0  0  0  0  0  0  0  0  0  0  0
    3.3877    1.1753    0.5549 H   0  0  0  0  0  0  0  0  0  0  0  0
    3.1422   -0.0308    1.8055 H   0  0  0  0  0  0  0  0  0  0  0  0
    3.8191   -0.5795   -1.1252 H   0  0  0  0  0  0  0  0  0  0  0  0
    3.5573   -1.8483    0.0746 H   0  0  0  0  0  0  0  0  0  0  0  0
    5.6746   -2.2863   -1.0242 H   0  0  0  0  0  0  0  0  0  0  0  0
    7.1391   -1.7295   -0.2512 H   0  0  0  0  0  0  0  0  0  0  0  0
   -0.6513    0.8703    0.9997 N   0  0  0  0  0  0  0  0  0  0  0  0
   -1.6624    1.5826    1.7474 C   0  0  2  0  0  0  0  0  0  0  0  0
   -1.2259    3.0373    1.8607 C   0  0  0  0  0  0  0  0  0  0  0  0
   -0.0557    3.3971    1.7506 O   0  0  0  0  0  0  0  0  0  0  0  0
   -1.8688    0.9683    3.1231 C   0  0  0  0  0  0  0  0  0  0  0  0
   -0.9484    0.2781    0.2298 H   0  0  0  0  0  0  0  0  0  0  0  0
   -2.5879    1.5228    1.1643 H   0  0  0  0  0  0  0  0  0  0  0  0
   -0.9522    1.0191    3.7220 H   0  0  0  0  0  0  0  0  0  0  0  0
   -2.6551    1.4914    3.6773 H   0  0  0  0  0  0  0  0  0  0  0  0
   -2.1537   -0.0861    3.0403 H   0  0  0  0  0  0  0  0  0  0  0  0
   -2.2911    3.8814    2.1422 N   0  0  0  0  0  0  0  0  0  0  0  0
   -2.1328    5.3072    2.3098 C   0  0  0  0  0  0  0  0  0  0  0  0
   -3.2305    3.4990    2.1976 H   0  0  0  0  0  0  0  0  0  0  0  0
   -1.9783    5.5368    3.3744 H   0  0  0  0  0  0  0  0  0  0  0  0
   -1.2626    5.6499    1.7309 H   0  0  0  0  0  0  0  0  0  0  0  0
   -3.0371    5.8209    1.9515 H   0  0  0  0  0  0  0  0  0  0  0  0
  1  3  1  0  0  0  0
  1  7  1  0  0  0  0
  1  2  2  0  0  0  0
 22 23  1  0  0  0  0
 23 25  1  0  0  0  0
 23 24  2  0  0  0  0
 35 36  1  0  0  0  0
 36 44  1  0  0  0  0
 36 37  2  0  0  0  0
  8  9  1  0  0  0  0
  9 17  1  0  0  0  0
  9 10  2  0  0  0  0
 18 19  1  0  0  0  0
 19 34  1  0  0  0  0
 19 20  2  0  0  0  0
 35 38  1  0  0  0  0
  8 11  1  0  0  0  0
 44 45  1  0  0  0  0
 21 22  1  0  0  0  0
 18 21  1  0  0  0  0
 34 35  1  0  0  0  0
  7  8  1  0  0  0  0
 17 18  1  0  0  0  0
  3  4  1  0  0  0  0
  3  5  1  0  0  0  0
  3  6  1  0  0  0  0
 38 41  1  0  0  0  0
 38 42  1  0  0  0  0
 38 43  1  0  0  0  0
 11 14  1  0  0  0  0
 11 15  1  0  0  0  0
 11 16  1  0  0  0  0
 45 47  1  0  0  0  0
 45 48  1  0  0  0  0
 45 49  1  0  0  0  0
 22 30  1  0  0  0  0
 22 31  1  0  0  0  0
 21 28  1  0  0  0  0
 21 29  1  0  0  0  0
 35 40  1  0  0  0  0
  8 13  1  0  0  0  0
 18 27  1  0  0  0  0
 25 32  1  0  0  0  0
 25 33  1  0  0  0  0
 44 46  1  0  0  0  0
  7 12  1  0  0  0  0
 34 39  1  0  0  0  0
 17 26  1  0  0  0  0
M  END
$$$$

  -OEChem-05262214473D

 49 48  0     1  0  0  0  0  0999 V2000
   -1.9833   -0.0509   -3.3423 C   0  0  0  0  0  0  0  0  0  0  0  0
   -1.6199   -1.0613   -2.7518 O   0  0  0  0  0  0  0  0  0  0  0  0
   -3.3243   -0.0235   -3.9975 C   0  0  0  0  0  0  0  0  0  0  0  0
   -3.2886   -0.3689   -5.0432 H   0  0  0  0  0  0  0  0  0  0  0  0
   -4.0503   -0.6845   -3.4973 H   0  0  0  0  0  0  0  0  0  0  0  0
   -3.8104    0.9645   -4.0351 H   0  0  0  0  0  0  0  0  0  0  0  0
   -1.2607    1.1231   -3.4768 N   0  0  0  0  0  0  0  0  0  0  0  0
    0.0536    1.3115   -2.9213 C   0  0  2  0  0  0  0  0  0  0  0  0
    0.0266    0.8315   -1.4761 C   0  0  0  0  0  0  0  0  0  0  0  0
   -1.0065    0.7530   -0.8146 O   0  0  0  0  0  0  0  0  0  0  0  0
    0.4852    2.7674   -3.0025 C   0  0  0  0  0  0  0  0  0  0  0  0
   -1.6809    1.8924   -3.9952 H   0  0  0  0  0  0  0  0  0  0  0  0
    0.7360    0.6822   -3.5030 H   0  0  0  0  0  0  0  0  0  0  0  0
   -0.1867    3.4133   -2.4256 H   0  0  0  0  0  0  0  0  0  0  0  0
    1.4966    2.9042   -2.6056 H   0  0  0  0  0  0  0  0  0  0  0  0
    0.4754    3.1196   -4.0397 H   0  0  0  0  0  0  0  0  0  0  0  0
    1.2978    0.5411   -0.9947 N   0  0  0  0  0  0  0  0  0  0  0  0
    1.5371    0.0807    0.3489 C   0  0  2  0  0  0  0  0  0  0  0  0
    0.7052    0.9549    1.2808 C   0  0  0  0  0  0  0  0  0  0  0  0
    1.1982    1.8111    2.0121 O   0  0  0  0  0  0  0  0  0  0  0  0
    3.0209    0.1552    0.7309 C   0  0  0  0  0  0  0  0  0  0  0  0
    3.9014   -0.8164   -0.0572 C   0  0  0  0  0  0  0  0  0  0  0  0
    5.3731   -0.7278    0.3017 C   0  0  0  0  0  0  0  0  0  0  0  0
    5.8395    0.0906    1.0887 O   0  0  0  0  0  0  0  0  0  0  0  0
    6.1347   -1.6552   -0.3765 N   0  0  0  0  0  0  0  0  0  0  0  0
    2.0949    0.6178   -1.6227 H   0  0  0  0  0  0  0  0  0  0  0  0
    1.1655   -0.9483    0.3991 H   0  0  0  0  0  0  0  0  0  0  0  0
    3.3877    1.1753    0.5549 H   0  0  0  0  0  0  0  0  0  0  0  0
    3.1422   -0.0308    1.8055 H   0  0  0  0  0  0  0  0  0  0  0  0
    3.8191   -0.5795   -1.1252 H   0  0  0  0  0  0  0  0  0  0  0  0
    3.5573   -1.8483    0.0746 H   0  0  0  0  0  0  0  0  0  0  0  0
    5.6746   -2.2863   -1.0242 H   0  0  0  0  0  0  0  0  0  0  0  0
    7.1391   -1.7295   -0.2512 H   0  0  0  0  0  0  0  0  0  0  0  0
   -0.6431    0.6291    1.2333 N   0  0  0  0  0  0  0  0  0  0  0  0
   -1.6478    1.2905    2.0345 C   0  0  2  0  0  0  0  0  0  0  0  0
   -1.4519    2.7937    1.8877 C   0  0  0  0  0  0  0  0  0  0  0  0
   -0.3854    3.3009    1.5464 O   0  0  0  0  0  0  0  0  0  0  0  0
   -1.5570    0.8704    3.4933 C   0  0  0  0  0  0  0  0  0  0  0  0
   -0.9386   -0.1113    0.6039 H   0  0  0  0  0  0  0  0  0  0  0  0
   -2.6209    1.0062    1.6194 H   0  0  0  0  0  0  0  0  0  0  0  0
   -0.5888    1.1470    3.9264 H   0  0  0  0  0  0  0  0  0  0  0  0
   -2.3368    1.3505    4.0937 H   0  0  0  0  0  0  0  0  0  0  0  0
   -1.6684   -0.2146    3.5941 H   0  0  0  0  0  0  0  0  0  0  0  0
   -2.5955    3.5044    2.2242 N   0  0  0  0  0  0  0  0  0  0  0  0
   -2.6588    4.9465    2.1786 C   0  0  0  0  0  0  0  0  0  0  0  0
   -3.4403    3.0007    2.4779 H   0  0  0  0  0  0  0  0  0  0  0  0
   -2.4008    5.3568    3.1661 H   0  0  0  0  0  0  0  0  0  0  0  0
   -1.9466    5.3212    1.4287 H   0  0  0  0  0  0  0  0  0  0  0  0
   -3.6772    5.2603    1.9060 H   0  0  0  0  0  0  0  0  0  0  0  0
  1  3  1  0  0  0  0
  1  7  1  0  0  0  0
  1  2  2  0  0  0  0
 22 23  1  0  0  0  0
 23 25  1  0  0  0  0
 23 24  2  0  0  0  0
 35 36  1  0  0  0  0
 36 44  1  0  0  0  0
 36 37  2  0  0  0  0
  8  9  1  0  0  0  0
  9 17  1  0  0  0  0
  9 10  2  0  0  0  0
 18 19  1  0  0  0  0
 19 34  1  0  0  0  0
 19 20  2  0  0  0  0
 35 38  1  0  0  0  0
  8 11  1  0  0  0  0
 44 45  1  0  0  0  0
 21 22  1  0  0  0  0
 18 21  1  0  0  0  0
 34 35  1  0  0  0  0
  7  8  1  0  0  0  0
 17 18  1  0  0  0  0
  3  4  1  0  0  0  0
  3  5  1  0  0  0  0
  3  6  1  0  0  0  0
 38 41  1  0  0  0  0
 38 42  1  0  0  0  0
 38 43  1  0  0  0  0
 11 14  1  0  0  0  0
 11 15  1  0  0  0  0
 11 16  1  0  0  0  0
 45 47  1  0  0  0  0
 45 48  1  0  0  0  0
 45 49  1  0  0  0  0
 22 30  1  0  0  0  0
 22 31  1  0  0  0  0
 21 28  1  0  0  0  0
 21 29  1  0  0  0  0
 35 40  1  0  0  0  0
  8 13  1  0  0  0  0
 18 27  1  0  0  0  0
 25 32  1  0  0  0  0
 25 33  1  0  0  0  0
 44 46  1  0  0  0  0
  7 12  1  0  0  0  0
 34 39  1  0  0  0  0
 17 26  1  0  0  0  0
M  END
$$$$

  -OEChem-05262214473D

 49 48  0     1  0  0  0  0  0999 V2000
   -1.9833   -0.0509   -3.3423 C   0  0  0  0  0  0  0  0  0  0  0  0
   -1.6199   -1.0613   -2.7518 O   0  0  0  0  0  0  0  0  0  0  0  0
   -3.3243   -0.0235   -3.9975 C   0  0  0  0  0  0  0  0  0  0  0  0
   -3.2886   -0.3689   -5.0432 H   0  0  0  0  0  0  0  0  0  0  0  0
   -4.0503   -0.6845   -3.4973 H   0  0  0  0  0  0  0  0  0  0  0  0
   -3.8104    0.9645   -4.0351 H   0  0  0  0  0  0  0  0  0  0  0  0
   -1.2607    1.1231   -3.4768 N   0  0  0  0  0  0  0  0  0  0  0  0
    0.0536    1.3115   -2.9213 C   0  0  2  0  0  0  0  0  0  0  0  0
    0.0266    0.8315   -1.4761 C   0  0  0  0  0  0  0  0  0  0  0  0
   -1.0065    0.7530   -0.8146 O   0  0  0  0  0  0  0  0  0  0  0  0
    0.4852    2.7674   -3.0025 C   0  0  0  0  0  0  0  0  0  0  0  0
   -1.6809    1.8924   -3.9952 H   0  0  0  0  0  0  0  0  0  0  0  0
    0.7360    0.6822   -3.5030 H   0  0  0  0  0  0  0  0  0  0  0  0
   -0.1867    3.4133   -2.4256 H   0  0  0  0  0  0  0  0  0  0  0  0
    1.4966    2.9042   -2.6056 H   0  0  0  0  0  0  0  0  0  0  0  0
    0.4754    3.1196   -4.0397 H   0  0  0  0  0  0  0  0  0  0  0  0
    1.2978    0.5411   -0.9947 N   0  0  0  0  0  0  0  0  0  0  0  0
    1.5371    0.0807    0.3489 C   0  0  2  0  0  0  0  0  0  0  0  0
    0.7052    0.9549    1.2808 C   0  0  0  0  0  0  0  0  0  0  0  0
    1.1421    1.9762    1.8070 O   0  0  0  0  0  0  0  0  0  0  0  0
    3.0209    0.1552    0.7309 C   0  0  0  0  0  0  0  0  0  0  0  0
    3.9014   -0.8164   -0.0572 C   0  0  0  0  0  0  0  0  0  0  0  0
    5.3731   -0.7278    0.3017 C   0  0  0  0  0  0  0  0  0  0  0  0
    5.8395    0.0906    1.0887 O   0  0  0  0  0  0  0  0  0  0  0  0
    6.1347   -1.6552   -0.3765 N   0  0  0  0  0  0  0  0  0  0  0  0
    2.0949    0.6178   -1.6227 H   0  0  0  0  0  0  0  0  0  0  0  0
    1.1655   -0.9483    0.3991 H   0  0  0  0  0  0  0  0  0  0  0  0
    3.3877    1.1753    0.5549 H   0  0  0  0  0  0  0  0  0  0  0  0
    3.1422   -0.0308    1.8055 H   0  0  0  0  0  0  0  0  0  0  0  0
    3.8191   -0.5795   -1.1252 H   0  0  0  0  0  0  0  0  0  0  0  0
    3.5573   -1.8483    0.0746 H   0  0  0  0  0  0  0  0  0  0  0  0
    5.6746   -2.2863   -1.0242 H   0  0  0  0  0  0  0  0  0  0  0  0
    7.1391   -1.7295   -0.2512 H   0  0  0  0  0  0  0  0  0  0  0  0
   -0.5623    0.4304    1.4919 N   0  0  0  0  0  0  0  0  0  0  0  0
   -1.5449    1.0511    2.3510 C   0  0  2  0  0  0  0  0  0  0  0  0
   -1.6275    2.5263    1.9816 C   0  0  0  0  0  0  0  0  0  0  0  0
   -0.7190    3.1271    1.4117 O   0  0  0  0  0  0  0  0  0  0  0  0
   -1.1854    0.8775    3.8184 C   0  0  0  0  0  0  0  0  0  0  0  0
   -0.8120   -0.4331    1.0189 H   0  0  0  0  0  0  0  0  0  0  0  0
   -2.5036    0.5662    2.1370 H   0  0  0  0  0  0  0  0  0  0  0  0
   -0.2277    1.3569    4.0518 H   0  0  0  0  0  0  0  0  0  0  0  0
   -1.9453    1.3235    4.4685 H   0  0  0  0  0  0  0  0  0  0  0  0
   -1.0972   -0.1837    4.0751 H   0  0  0  0  0  0  0  0  0  0  0  0
   -2.8177    3.1036    2.4018 N   0  0  0  0  0  0  0  0  0  0  0  0
   -3.1292    4.4965    2.1808 C   0  0  0  0  0  0  0  0  0  0  0  0
   -3.5224    2.5257    2.8501 H   0  0  0  0  0  0  0  0  0  0  0  0
   -2.8114    5.0867    3.0530 H   0  0  0  0  0  0  0  0  0  0  0  0
   -2.6001    4.8528    1.2847 H   0  0  0  0  0  0  0  0  0  0  0  0
   -4.2136    4.6111    2.0362 H   0  0  0  0  0  0  0  0  0  0  0  0
  1  3  1  0  0  0  0
  1  7  1  0  0  0  0
  1  2  2  0  0  0  0
 22 23  1  0  0  0  0
 23 25  1  0  0  0  0
 23 24  2  0  0  0  0
 35 36  1  0  0  0  0
 36 44  1  0  0  0  0
 36 37  2  0  0  0  0
  8  9  1  0  0  0  0
  9 17  1  0  0  0  0
  9 10  2  0  0  0  0
 18 19  1  0  0  0  0
 19 34  1  0  0  0  0
 19 20  2  0  0  0  0
 35 38  1  0  0  0  0
  8 11  1  0  0  0  0
 44 45  1  0  0  0  0
 21 22  1  0  0  0  0
 18 21  1  0  0  0  0
 34 35  1  0  0  0  0
  7  8  1  0  0  0  0
 17 18  1  0  0  0  0
  3  4  1  0  0  0  0
  3  5  1  0  0  0  0
  3  6  1  0  0  0  0
 38 41  1  0  0  0  0
 38 42  1  0  0  0  0
 38 43  1  0  0  0  0
 11 14  1  0  0  0  0
 11 15  1  0  0  0  0
 11 16  1  0  0  0  0
 45 47  1  0  0  0  0
 45 48  1  0  0  0  0
 45 49  1  0  0  0  0
 22 30  1  0  0  0  0
 22 31  1  0  0  0  0
 21 28  1  0  0  0  0
 21 29  1  0  0  0  0
 35 40  1  0  0  0  0
  8 13  1  0  0  0  0
 18 27  1  0  0  0  0
 25 32  1  0  0  0  0
 25 33  1  0  0  0  0
 44 46  1  0  0  0  0
  7 12  1  0  0  0  0
 34 39  1  0  0  0  0
 17 26  1  0  0  0  0
M  END
$$$$

  -OEChem-05262214473D

 49 48  0     1  0  0  0  0  0999 V2000
   -1.9833   -0.0509   -3.3423 C   0  0  0  0  0  0  0  0  0  0  0  0
   -1.6199   -1.0613   -2.7518 O   0  0  0  0  0  0  0  0  0  0  0  0
   -3.3243   -0.0235   -3.9975 C   0  0  0  0  0  0  0  0  0  0  0  0
   -3.2886   -0.3689   -5.0432 H   0  0  0  0  0  0  0  0  0  0  0  0
   -4.0503   -0.6845   -3.4973 H   0  0  0  0  0  0  0  0  0  0  0  0
   -3.8104    0.9645   -4.0351 H   0  0  0  0  0  0  0  0  0  0  0  0
   -1.2607    1.1231   -3.4768 N   0  0  0  0  0  0  0  0  0  0  0  0
    0.0536    1.3115   -2.9213 C   0  0  2  0  0  0  0  0  0  0  0  0
    0.0266    0.8315   -1.4761 C   0  0  0  0  0  0  0  0  0  0  0  0
   -1.0065    0.7530   -0.8146 O   0  0  0  0  0  0  0  0  0  0  0  0
    0.4852    2.7674   -3.0025 C   0  0  0  0  0  0  0  0  0  0  0  0
   -1.6809    1.8924   -3.9952 H   0  0  0  0  0  0  0  0  0  0  0  0
    0.7360    0.6822   -3.5030 H   0  0  0  0  0  0  0  0  0  0  0  0
   -0.1867    3.4133   -2.4256 H   0  0  0  0  0  0  0  0  0  0  0  0
    1.4966    2.9042   -2.6056 H   0  0  0  0  0  0  0  0  0  0  0  0
    0.4754    3.1196   -4.0397 H   0  0  0  0  0  0  0  0  0  0  0  0
    1.2978    0.5411   -0.9947 N   0  0  0  0  0  0  0  0  0  0  0  0
    1.5371    0.0807    0.3489 C   0  0  2  0  0  0  0  0  0  0  0  0
    0.7052    0.9549    1.2808 C   0  0  0  0  0  0  0  0  0  0  0  0
    1.0313    2.0979    1.5939 O   0  0  0  0  0  0  0  0  0  0  0  0
    3.0209    0.1552    0.7309 C   0  0  0  0  0  0  0  0  0  0  0  0
    3.9014   -0.8164   -0.0572 C   0  0  0  0  0  0  0  0  0  0  0  0
    5.3731   -0.7278    0.3017 C   0  0  0  0  0  0  0  0  0  0  0  0
    5.8395    0.0906    1.0887 O   0  0  0  0  0  0  0  0  0  0  0  0
    6.1347   -1.6552   -0.3765 N   0  0  0  0  0  0  0  0  0  0  0  0
    2.0949    0.6178   -1.6227 H   0  0  0  0  0  0  0  0  0  0  0  0
    1.1655   -0.9483    0.3991 H   0  0  0  0  0  0  0  0  0  0  0  0
    3.3877    1.1753    0.5549 H   0  0  0  0  0  0  0  0  0  0  0  0
    3.1422   -0.0308    1.8055 H   0  0  0  0  0  0  0  0  0  0  0  0
    3.8191   -0.5795   -1.1252 H   0  0  0  0  0  0  0  0  0  0  0  0
    3.5573   -1.8483    0.0746 H   0  0  0  0  0  0  0  0  0  0  0  0
    5.6746   -2.2863   -1.0242 H   0  0  0  0  0  0  0  0  0  0  0  0
    7.1391   -1.7295   -0.2512 H   0  0  0  0  0  0  0  0  0  0  0  0
   -0.4145    0.2877    1.7577 N   0  0  0  0  0  0  0  0  0  0  0  0
   -1.3606    0.8809    2.6751 C   0  0  2  0  0  0  0  0  0  0  0  0
   -1.7410    2.2536    2.1362 C   0  0  0  0  0  0  0  0  0  0  0  0
   -1.0338    2.8873    1.3556 O   0  0  0  0  0  0  0  0  0  0  0  0
   -0.7794    0.9890    4.0763 C   0  0  0  0  0  0  0  0  0  0  0  0
   -0.5772   -0.6653    1.4463 H   0  0  0  0  0  0  0  0  0  0  0  0
   -2.2438    0.2328    2.6816 H   0  0  0  0  0  0  0  0  0  0  0  0
    0.1065    1.6345    4.0897 H   0  0  0  0  0  0  0  0  0  0  0  0
   -1.5073    1.4122    4.7763 H   0  0  0  0  0  0  0  0  0  0  0  0
   -0.4789    0.0045    4.4506 H   0  0  0  0  0  0  0  0  0  0  0  0
   -2.9425    2.7065    2.6629 N   0  0  0  0  0  0  0  0  0  0  0  0
   -3.5121    3.9877    2.3164 C   0  0  0  0  0  0  0  0  0  0  0  0
   -3.4714    2.1064    3.2890 H   0  0  0  0  0  0  0  0  0  0  0  0
   -3.1820    4.7448    3.0429 H   0  0  0  0  0  0  0  0  0  0  0  0
   -3.1786    4.2766    1.3087 H   0  0  0  0  0  0  0  0  0  0  0  0
   -4.6097    3.9175    2.3332 H   0  0  0  0  0  0  0  0  0  0  0  0
  1  3  1  0  0  0  0
  1  7  1  0  0  0  0
  1  2  2  0  0  0  0
 22 23  1  0  0  0  0
 23 25  1  0  0  0  0
 23 24  2  0  0  0  0
 35 36  1  0  0  0  0
 36 44  1  0  0  0  0
 36 37  2  0  0  0  0
  8  9  1  0  0  0  0
  9 17  1  0  0  0  0
  9 10  2  0  0  0  0
 18 19  1  0  0  0  0
 19 34  1  0  0  0  0
 19 20  2  0  0  0  0
 35 38  1  0  0  0  0
  8 11  1  0  0  0  0
 44 45  1  0  0  0  0
 21 22  1  0  0  0  0
 18 21  1  0  0  0  0
 34 35  1  0  0  0  0
  7  8  1  0  0  0  0
 17 18  1  0  0  0  0
  3  4  1  0  0  0  0
  3  5  1  0  0  0  0
  3  6  1  0  0  0  0
 38 41  1  0  0  0  0
 38 42  1  0  0  0  0
 38 43  1  0  0  0  0
 11 14  1  0  0  0  0
 11 15  1  0  0  0  0
 11 16  1  0  0  0  0
 45 47  1  0  0  0  0
 45 48  1  0  0  0  0
 45 49  1  0  0  0  0
 22 30  1  0  0  0  0
 22 31  1  0  0  0  0
 21 28  1  0  0  0  0
 21 29  1  0  0  0  0
 35 40  1  0  0  0  0
  8 13  1  0  0  0  0
 18 27  1  0  0  0  0
 25 32  1  0  0  0  0
 25 33  1  0  0  0  0
 44 46  1  0  0  0  0
  7 12  1  0  0  0  0
 34 39  1  0  0  0  0
 17 26  1  0  0  0  0
M  END
$$$$

  -OEChem-05262214473D

 49 48  0     1  0  0  0  0  0999 V2000
   -1.9833   -0.0509   -3.3423 C   0  0  0  0  0  0  0  0  0  0  0  0
   -1.6199   -1.0613   -2.7518 O   0  0  0  0  0  0  0  0  0  0  0  0
   -3.3243   -0.0235   -3.9975 C   0  0  0  0  0  0  0  0  0  0  0  0
   -3.2886   -0.3689   -5.0432 H   0  0  0  0  0  0  0  0  0  0  0  0
   -4.0503   -0.6845   -3.4973 H   0  0  0  0  0  0  0  0  0  0  0  0
   -3.8104    0.9645   -4.0351 H   0  0  0  0  0  0  0  0  0  0  0  0
   -1.2607    1.1231   -3.4768 N   0  0  0  0  0  0  0  0  0  0  0  0
    0.0536    1.3115   -2.9213 C   0  0  2  0  0  0  0  0  0  0  0  0
    0.0266    0.8315   -1.4761 C   0  0  0  0  0  0  0  0  0  0  0  0
   -1.0065    0.7530   -0.8146 O   0  0  0  0  0  0  0  0  0  0  0  0
    0.4852    2.7674   -3.0025 C   0  0  0  0  0  0  0  0  0  0  0  0
   -1.6809    1.8924   -3.9952 H   0  0  0  0  0  0  0  0  0  0  0  0
    0.7360    0.6822   -3.5030 H   0  0  0  0  0  0  0  0  0  0  0  0
   -0.1867    3.4133   -2.4256 H   0  0  0  0  0  0  0  0  0  0  0  0
    1.4966    2.9042   -2.6056 H   0  0  0  0  0  0  0  0  0  0  0  0
    0.4754    3.1196   -4.0397 H   0  0  0  0  0  0  0  0  0  0  0  0
    1.2978    0.5411   -0.9947 N   0  0  0  0  0  0  0  0  0  0  0  0
    1.5371    0.0807    0.3489 C   0  0  2  0  0  0  0  0  0  0  0  0
    0.7052    0.9549    1.2808 C   0  0  0  0  0  0  0  0  0  0  0  0
    0.8734    2.1678    1.3874 O   0  0  0  0  0  0  0  0  0  0  0  0
    3.0209    0.1552    0.7309 C   0  0  0  0  0  0  0  0  0  0  0  0
    3.9014   -0.8164   -0.0572 C   0  0  0  0  0  0  0  0  0  0  0  0
    5.3731   -0.7278    0.3017 C   0  0  0  0  0  0  0  0  0  0  0  0
    5.8395    0.0906    1.0887 O   0  0  0  0  0  0  0  0  0  0  0  0
    6.1347   -1.6552   -0.3765 N   0  0  0  0  0  0  0  0  0  0  0  0
    2.0949    0.6178   -1.6227 H   0  0  0  0  0  0  0  0  0  0  0  0
    1.1655   -0.9483    0.3991 H   0  0  0  0  0  0  0  0  0  0  0  0
    3.3877    1.1753    0.5549 H   0  0  0  0  0  0  0  0  0  0  0  0
    3.1422   -0.0308    1.8055 H   0  0  0  0  0  0  0  0  0  0  0  0
    3.8191   -0.5795   -1.1252 H   0  0  0  0  0  0  0  0  0  0  0  0
    3.5573   -1.8483    0.0746 H   0  0  0  0  0  0  0  0  0  0  0  0
    5.6746   -2.2863   -1.0242 H   0  0  0  0  0  0  0  0  0  0  0  0
    7.1391   -1.7295   -0.2512 H   0  0  0  0  0  0  0  0  0  0  0  0
   -0.2097    0.2108    2.0126 N   0  0  0  0  0  0  0  0  0  0  0  0
   -1.1076    0.7914    2.9850 C   0  0  2  0  0  0  0  0  0  0  0  0
   -1.7845    1.9940    2.3408 C   0  0  0  0  0  0  0  0  0  0  0  0
   -1.3082    2.5981    1.3820 O   0  0  0  0  0  0  0  0  0  0  0  0
   -0.3665    1.1974    4.2494 C   0  0  0  0  0  0  0  0  0  0  0  0
   -0.2503   -0.7921    1.8571 H   0  0  0  0  0  0  0  0  0  0  0  0
   -1.8594    0.0289    3.2162 H   0  0  0  0  0  0  0  0  0  0  0  0
    0.3910    1.9608    4.0375 H   0  0  0  0  0  0  0  0  0  0  0  0
   -1.0526    1.6108    4.9960 H   0  0  0  0  0  0  0  0  0  0  0  0
    0.1443    0.3370    4.6950 H   0  0  0  0  0  0  0  0  0  0  0  0
   -2.9616    2.3399    2.9897 N   0  0  0  0  0  0  0  0  0  0  0  0
   -3.7813    3.4548    2.5759 C   0  0  0  0  0  0  0  0  0  0  0  0
   -3.2907    1.7715    3.7645 H   0  0  0  0  0  0  0  0  0  0  0  0
   -3.4874    4.3546    3.1363 H   0  0  0  0  0  0  0  0  0  0  0  0
   -3.6426    3.6320    1.4992 H   0  0  0  0  0  0  0  0  0  0  0  0
   -4.8385    3.2269    2.7769 H   0  0  0  0  0  0  0  0  0  0  0  0
  1  3  1  0  0  0  0
  1  7  1  0  0  0  0
  1  2  2  0  0  0  0
 22 23  1  0  0  0  0
 23 25  1  0  0  0  0
 23 24  2  0  0  0  0
 35 36  1  0  0  0  0
 36 44  1  0  0  0  0
 36 37  2  0  0  0  0
  8  9  1  0  0  0  0
  9 17  1  0  0  0  0
  9 10  2  0  0  0  0
 18 19  1  0  0  0  0
 19 34  1  0  0  0  0
 19 20  2  0  0  0  0
 35 38  1  0  0  0  0
  8 11  1  0  0  0  0
 44 45  1  0  0  0  0
 21 22  1  0  0  0  0
 18 21  1  0  0  0  0
 34 35  1  0  0  0  0
  7  8  1  0  0  0  0
 17 18  1  0  0  0  0
  3  4  1  0  0  0  0
  3  5  1  0  0  0  0
  3  6  1  0  0  0  0
 38 41  1  0  0  0  0
 38 42  1  0  0  0  0
 38 43  1  0  0  0  0
 11 14  1  0  0  0  0
 11 15  1  0  0  0  0
 11 16  1  0  0  0  0
 45 47  1  0  0  0  0
 45 48  1  0  0  0  0
 45 49  1  0  0  0  0
 22 30  1  0  0  0  0
 22 31  1  0  0  0  0
 21 28  1  0  0  0  0
 21 29  1  0  0  0  0
 35 40  1  0  0  0  0
  8 13  1  0  0  0  0
 18 27  1  0  0  0  0
 25 32  1  0  0  0  0
 25 33  1  0  0  0  0
 44 46  1  0  0  0  0
  7 12  1  0  0  0  0
 34 39  1  0  0  0  0
 17 26  1  0  0  0  0
M  END
$$$$

  -OEChem-05262214473D

 49 48  0     1  0  0  0  0  0999 V2000
   -1.9833   -0.0509   -3.3423 C   0  0  0  0  0  0  0  0  0  0  0  0
   -1.6199   -1.0613   -2.7518 O   0  0  0  0  0  0  0  0  0  0  0  0
   -3.3243   -0.0235   -3.9975 C   0  0  0  0  0  0  0  0  0  0  0  0
   -3.2886   -0.3689   -5.0432 H   0  0  0  0  0  0  0  0  0  0  0  0
   -4.0503   -0.6845   -3.4973 H   0  0  0  0  0  0  0  0  0  0  0  0
   -3.8104    0.9645   -4.0351 H   0  0  0  0  0  0  0  0  0  0  0  0
   -1.2607    1.1231   -3.4768 N   0  0  0  0  0  0  0  0  0  0  0  0
    0.0536    1.3115   -2.9213 C   0  0  2  0  0  0  0  0  0  0  0  0
    0.0266    0.8315   -1.4761 C   0  0  0  0  0  0  0  0  0  0  0  0
   -1.0065    0.7530   -0.8146 O   0  0  0  0  0  0  0  0  0  0  0  0
    0.4852    2.7674   -3.0025 C   0  0  0  0  0  0  0  0  0  0  0  0
   -1.6809    1.8924   -3.9952 H   0  0  0  0  0  0  0  0  0  0  0  0
    0.7360    0.6822   -3.5030 H   0  0  0  0  0  0  0  0  0  0  0  0
   -0.1867    3.4133   -2.4256 H   0  0  0  0  0  0  0  0  0  0  0  0
    1.4966    2.9042   -2.6056 H   0  0  0  0  0  0  0  0  0  0  0  0
    0.4754    3.1196   -4.0397 H   0  0  0  0  0  0  0  0  0  0  0  0
    1.2978    0.5411   -0.9947 N   0  0  0  0  0  0  0  0  0  0  0  0
    1.5371    0.0807    0.3489 C   0  0  2  0  0  0  0  0  0  0  0  0
    0.7052    0.9549    1.2808 C   0  0  0  0  0  0  0  0  0  0  0  0
    0.6792    2.1812    1.2014 O   0  0  0  0  0  0  0  0  0  0  0  0
    3.0209    0.1552    0.7309 C   0  0  0  0  0  0  0  0  0  0  0  0
    3.9014   -0.8164   -0.0572 C   0  0  0  0  0  0  0  0  0  0  0  0
    5.3731   -0.7278    0.3017 C   0  0  0  0  0  0  0  0  0  0  0  0
    5.8395    0.0906    1.0887 O   0  0  0  0  0  0  0  0  0  0  0  0
    6.1347   -1.6552   -0.3765 N   0  0  0  0  0  0  0  0  0  0  0  0
    2.0949    0.6178   -1.6227 H   0  0  0  0  0  0  0  0  0  0  0  0
    1.1655   -0.9483    0.3991 H   0  0  0  0  0  0  0  0  0  0  0  0
    3.3877    1.1753    0.5549 H   0  0  0  0  0  0  0  0  0  0  0  0
    3.1422   -0.0308    1.8055 H   0  0  0  0  0  0  0  0  0  0  0  0
    3.8191   -0.5795   -1.1252 H   0  0  0  0  0  0  0  0  0  0  0  0
    3.5573   -1.8483    0.0746 H   0  0  0  0  0  0  0  0  0  0  0  0
    5.6746   -2.2863   -1.0242 H   0  0  0  0  0  0  0  0  0  0  0  0
    7.1391   -1.7295   -0.2512 H   0  0  0  0  0  0  0  0  0  0  0  0
    0.0381    0.2050    2.2394 N   0  0  0  0  0  0  0  0  0  0  0  0
   -0.8031    0.7887    3.2594 C   0  0  2  0  0  0  0  0  0  0  0  0
   -1.7551    1.7653    2.5816 C   0  0  0  0  0  0  0  0  0  0  0  0
   -1.5235    2.2790    1.4891 O   0  0  0  0  0  0  0  0  0  0  0  0
    0.0250    1.4884    4.3259 C   0  0  0  0  0  0  0  0  0  0  0  0
    0.1465   -0.8048    2.2233 H   0  0  0  0  0  0  0  0  0  0  0  0
   -1.3764   -0.0319    3.7043 H   0  0  0  0  0  0  0  0  0  0  0  0
    0.6064    2.3137    3.8989 H   0  0  0  0  0  0  0  0  0  0  0  0
   -0.6121    1.9055    5.1127 H   0  0  0  0  0  0  0  0  0  0  0  0
    0.7300    0.7913    4.7916 H   0  0  0  0  0  0  0  0  0  0  0  0
   -2.8735    2.0291    3.3600 N   0  0  0  0  0  0  0  0  0  0  0  0
   -3.9185    2.9341    2.9419 C   0  0  0  0  0  0  0  0  0  0  0  0
   -2.9926    1.5437    4.2443 H   0  0  0  0  0  0  0  0  0  0  0  0
   -3.7068    3.9425    3.3270 H   0  0  0  0  0  0  0  0  0  0  0  0
   -3.9607    2.9628    1.8431 H   0  0  0  0  0  0  0  0  0  0  0  0
   -4.8844    2.5862    3.3369 H   0  0  0  0  0  0  0  0  0  0  0  0
  1  3  1  0  0  0  0
  1  7  1  0  0  0  0
  1  2  2  0  0  0  0
 22 23  1  0  0  0  0
 23 25  1  0  0  0  0
 23 24  2  0  0  0  0
 35 36  1  0  0  0  0
 36 44  1  0  0  0  0
 36 37  2  0  0  0  0
  8  9  1  0  0  0  0
  9 17  1  0  0  0  0
  9 10  2  0  0  0  0
 18 19  1  0  0  0  0
 19 34  1  0  0  0  0
 19 20  2  0  0  0  0
 35 38  1  0  0  0  0
  8 11  1  0  0  0  0
 44 45  1  0  0  0  0
 21 22  1  0  0  0  0
 18 21  1  0  0  0  0
 34 35  1  0  0  0  0
  7  8  1  0  0  0  0
 17 18  1  0  0  0  0
  3  4  1  0  0  0  0
  3  5  1  0  0  0  0
  3  6  1  0  0  0  0
 38 41  1  0  0  0  0
 38 42  1  0  0  0  0
 38 43  1  0  0  0  0
 11 14  1  0  0  0  0
 11 15  1  0  0  0  0
 11 16  1  0  0  0  0
 45 47  1  0  0  0  0
 45 48  1  0  0  0  0
 45 49  1  0  0  0  0
 22 30  1  0  0  0  0
 22 31  1  0  0  0  0
 21 28  1  0  0  0  0
 21 29  1  0  0  0  0
 35 40  1  0  0  0  0
  8 13  1  0  0  0  0
 18 27  1  0  0  0  0
 25 32  1  0  0  0  0
 25 33  1  0  0  0  0
 44 46  1  0  0  0  0
  7 12  1  0  0  0  0
 34 39  1  0  0  0  0
 17 26  1  0  0  0  0
M  END
$$$$

  -OEChem-05262214473D

 49 48  0     1  0  0  0  0  0999 V2000
   -1.9833   -0.0509   -3.3423 C   0  0  0  0  0  0  0  0  0  0  0  0
   -1.6199   -1.0613   -2.7518 O   0  0  0  0  0  0  0  0  0  0  0  0
   -3.3243   -0.0235   -3.9975 C   0  0  0  0  0  0  0  0  0  0  0  0
   -3.2886   -0.3689   -5.0432 H   0  0  0  0  0  0  0  0  0  0  0  0
   -4.0503   -0.6845   -3.4973 H   0  0  0  0  0  0  0  0  0  0  0  0
   -3.8104    0.9645   -4.0351 H   0  0  0  0  0  0  0  0  0  0  0  0
   -1.2607    1.1231   -3.4768 N   0  0  0  0  0  0  0  0  0  0  0  0
    0.0536    1.3115   -2.9213 C   0  0  2  0  0  0  0  0  0  0  0  0
    0.0266    0.8315   -1.4761 C   0  0  0  0  0  0  0  0  0  0  0  0
   -1.0065    0.7530   -0.8146 O   0  0  0  0  0  0  0  0  0  0  0  0
    0.4852    2.7674   -3.0025 C   0  0  0  0  0  0  0  0  0  0  0  0
   -1.6809    1.8924   -3.9952 H   0  0  0  0  0  0  0  0  0  0  0  0
    0.7360    0.6822   -3.5030 H   0  0  0  0  0  0  0  0  0  0  0  0
   -0.1867    3.4133   -2.4256 H   0  0  0  0  0  0  0  0  0  0  0  0
    1.4966    2.9042   -2.6056 H   0  0  0  0  0  0  0  0  0  0  0  0
    0.4754    3.1196   -4.0397 H   0  0  0  0  0  0  0  0  0  0  0  0
    1.2978    0.5411   -0.9947 N   0  0  0  0  0  0  0  0  0  0  0  0
    1.5371    0.0807    0.3489 C   0  0  2  0  0  0  0  0  0  0  0  0
    0.7052    0.9549    1.2808 C   0  0  0  0  0  0  0  0  0  0  0  0
    0.4619    2.1372    1.0487 O   0  0  0  0  0  0  0  0  0  0  0  0
    3.0209    0.1552    0.7309 C   0  0  0  0  0  0  0  0  0  0  0  0
    3.9014   -0.8164   -0.0572 C   0  0  0  0  0  0  0  0  0  0  0  0
    5.3731   -0.7278    0.3017 C   0  0  0  0  0  0  0  0  0  0  0  0
    5.8395    0.0906    1.0887 O   0  0  0  0  0  0  0  0  0  0  0  0
    6.1347   -1.6552   -0.3765 N   0  0  0  0  0  0  0  0  0  0  0  0
    2.0949    0.6178   -1.6227 H   0  0  0  0  0  0  0  0  0  0  0  0
    1.1655   -0.9483    0.3991 H   0  0  0  0  0  0  0  0  0  0  0  0
    3.3877    1.1753    0.5549 H   0  0  0  0  0  0  0  0  0  0  0  0
    3.1422   -0.0308    1.8055 H   0  0  0  0  0  0  0  0  0  0  0  0
    3.8191   -0.5795   -1.1252 H   0  0  0  0  0  0  0  0  0  0  0  0
    3.5573   -1.8483    0.0746 H   0  0  0  0  0  0  0  0  0  0  0  0
    5.6746   -2.2863   -1.0242 H   0  0  0  0  0  0  0  0  0  0  0  0
    7.1391   -1.7295   -0.2512 H   0  0  0  0  0  0  0  0  0  0  0  0
    0.3121    0.2705    2.4225 N   0  0  0  0  0  0  0  0  0  0  0  0
   -0.4678    0.8730    3.4796 C   0  0  2  0  0  0  0  0  0  0  0  0
   -1.6548    1.5831    2.8422 C   0  0  0  0  0  0  0  0  0  0  0  0
   -1.6652    1.9518    1.6696 O   0  0  0  0  0  0  0  0  0  0  0  0
    0.3685    1.8423    4.3006 C   0  0  0  0  0  0  0  0  0  0  0  0
    0.5862   -0.7026    2.5199 H   0  0  0  0  0  0  0  0  0  0  0  0
   -0.8279    0.0548    4.1127 H   0  0  0  0  0  0  0  0  0  0  0  0
    0.7381    2.6690    3.6831 H   0  0  0  0  0  0  0  0  0  0  0  0
   -0.2160    2.2763    5.1185 H   0  0  0  0  0  0  0  0  0  0  0  0
    1.2381    1.3364    4.7338 H   0  0  0  0  0  0  0  0  0  0  0  0
   -2.6843    1.7950    3.7485 N   0  0  0  0  0  0  0  0  0  0  0  0
   -3.9144    2.4611    3.3893 C   0  0  0  0  0  0  0  0  0  0  0  0
   -2.5974    1.4387    4.6957 H   0  0  0  0  0  0  0  0  0  0  0  0
   -3.8253    3.5367    3.6020 H   0  0  0  0  0  0  0  0  0  0  0  0
   -4.1110    2.3147    2.3169 H   0  0  0  0  0  0  0  0  0  0  0  0
   -4.7444    2.0392    3.9751 H   0  0  0  0  0  0  0  0  0  0  0  0
  1  3  1  0  0  0  0
  1  7  1  0  0  0  0
  1  2  2  0  0  0  0
 22 23  1  0  0  0  0
 23 25  1  0  0  0  0
 23 24  2  0  0  0  0
 35 36  1  0  0  0  0
 36 44  1  0  0  0  0
 36 37  2  0  0  0  0
  8  9  1  0  0  0  0
  9 17  1  0  0  0  0
  9 10  2  0  0  0  0
 18 19  1  0  0  0  0
 19 34  1  0  0  0  0
 19 20  2  0  0  0  0
 35 38  1  0  0  0  0
  8 11  1  0  0  0  0
 44 45  1  0  0  0  0
 21 22  1  0  0  0  0
 18 21  1  0  0  0  0
 34 35  1  0  0  0  0
  7  8  1  0  0  0  0
 17 18  1  0  0  0  0
  3  4  1  0  0  0  0
  3  5  1  0  0  0  0
  3  6  1  0  0  0  0
 38 41  1  0  0  0  0
 38 42  1  0  0  0  0
 38 43  1  0  0  0  0
 11 14  1  0  0  0  0
 11 15  1  0  0  0  0
 11 16  1  0  0  0  0
 45 47  1  0  0  0  0
 45 48  1  0  0  0  0
 45 49  1  0  0  0  0
 22 30  1  0  0  0  0
 22 31  1  0  0  0  0
 21 28  1  0  0  0  0
 21 29  1  0  0  0  0
 35 40  1  0  0  0  0
  8 13  1  0  0  0  0
 18 27  1  0  0  0  0
 25 32  1  0  0  0  0
 25 33  1  0  0  0  0
 44 46  1  0  0  0  0
  7 12  1  0  0  0  0
 34 39  1  0  0  0  0
 17 26  1  0  0  0  0
M  END
$$$$

  -OEChem-05262214473D

 49 48  0     1  0  0  0  0  0999 V2000
   -1.9833   -0.0509   -3.3423 C   0  0  0  0  0  0  0  0  0  0  0  0
   -1.6199   -1.0613   -2.7518 O   0  0  0  0  0  0  0  0  0  0  0  0
   -3.3243   -0.0235   -3.9975 C   0  0  0  0  0  0  0  0  0  0  0  0
   -3.2886   -0.3689   -5.0432 H   0  0  0  0  0  0  0  0  0  0  0  0
   -4.0503   -0.6845   -3.4973 H   0  0  0  0  0  0  0  0  0  0  0  0
   -3.8104    0.9645   -4.0351 H   0  0  0  0  0  0  0  0  0  0  0  0
   -1.2607    1.1231   -3.4768 N   0  0  0  0  0  0  0  0  0  0  0  0
    0.0536    1.3115   -2.9213 C   0  0  2  0  0  0  0  0  0  0  0  0
    0.0266    0.8315   -1.4761 C   0  0  0  0  0  0  0  0  0  0  0  0
   -1.0065    0.7530   -0.8146 O   0  0  0  0  0  0  0  0  0  0  0  0
    0.4852    2.7674   -3.0025 C   0  0  0  0  0  0  0  0  0  0  0  0
   -1.6809    1.8924   -3.9952 H   0  0  0  0  0  0  0  0  0  0  0  0
    0.7360    0.6822   -3.5030 H   0  0  0  0  0  0  0  0  0  0  0  0
   -0.1867    3.4133   -2.4256 H   0  0  0  0  0  0  0  0  0  0  0  0
    1.4966    2.9042   -2.6056 H   0  0  0  0  0  0  0  0  0  0  0  0
    0.4754    3.1196   -4.0397 H   0  0  0  0  0  0  0  0  0  0  0  0
    1.2978    0.5411   -0.9947 N   0  0  0  0  0  0  0  0  0  0  0  0
    1.5371    0.0807    0.3489 C   0  0  2  0  0  0  0  0  0  0  0  0
    0.7052    0.9549    1.2808 C   0  0  0  0  0  0  0  0  0  0  0  0
    0.2363    2.0387    0.9397 O   0  0  0  0  0  0  0  0  0  0  0  0
    3.0209    0.1552    0.7309 C   0  0  0  0  0  0  0  0  0  0  0  0
    3.9014   -0.8164   -0.0572 C   0  0  0  0  0  0  0  0  0  0  0  0
    5.3731   -0.7278    0.3017 C   0  0  0  0  0  0  0  0  0  0  0  0
    5.8395    0.0906    1.0887 O   0  0  0  0  0  0  0  0  0  0  0  0
    6.1347   -1.6552   -0.3765 N   0  0  0  0  0  0  0  0  0  0  0  0
    2.0949    0.6178   -1.6227 H   0  0  0  0  0  0  0  0  0  0  0  0
    1.1655   -0.9483    0.3991 H   0  0  0  0  0  0  0  0  0  0  0  0
    3.3877    1.1753    0.5549 H   0  0  0  0  0  0  0  0  0  0  0  0
    3.1422   -0.0308    1.8055 H   0  0  0  0  0  0  0  0  0  0  0  0
    3.8191   -0.5795   -1.1252 H   0  0  0  0  0  0  0  0  0  0  0  0
    3.5573   -1.8483    0.0746 H   0  0  0  0  0  0  0  0  0  0  0  0
    5.6746   -2.2863   -1.0242 H   0  0  0  0  0  0  0  0  0  0  0  0
    7.1391   -1.7295   -0.2512 H   0  0  0  0  0  0  0  0  0  0  0  0
    0.5935    0.4030    2.5494 N   0  0  0  0  0  0  0  0  0  0  0  0
   -0.1246    1.0386    3.6306 C   0  0  2  0  0  0  0  0  0  0  0  0
   -1.4904    1.4597    3.1047 C   0  0  0  0  0  0  0  0  0  0  0  0
   -1.7235    1.6389    1.9111 O   0  0  0  0  0  0  0  0  0  0  0  0
    0.6405    2.2348    4.1752 C   0  0  0  0  0  0  0  0  0  0  0  0
    1.0387   -0.4925    2.7267 H   0  0  0  0  0  0  0  0  0  0  0  0
   -0.2511    0.2830    4.4135 H   0  0  0  0  0  0  0  0  0  0  0  0
    0.7771    3.0026    3.4049 H   0  0  0  0  0  0  0  0  0  0  0  0
    0.1088    2.6979    5.0129 H   0  0  0  0  0  0  0  0  0  0  0  0
    1.6341    1.9352    4.5257 H   0  0  0  0  0  0  0  0  0  0  0  0
   -2.4069    1.6537    4.1287 N   0  0  0  0  0  0  0  0  0  0  0  0
   -3.7693    2.0681    3.8876 C   0  0  0  0  0  0  0  0  0  0  0  0
   -2.1321    1.4634    5.0879 H   0  0  0  0  0  0  0  0  0  0  0  0
   -3.8347    3.1648    3.9425 H   0  0  0  0  0  0  0  0  0  0  0  0
   -4.0833    1.7318    2.8884 H   0  0  0  0  0  0  0  0  0  0  0  0
   -4.4278    1.6231    4.6480 H   0  0  0  0  0  0  0  0  0  0  0  0
  1  3  1  0  0  0  0
  1  7  1  0  0  0  0
  1  2  2  0  0  0  0
 22 23  1  0  0  0  0
 23 25  1  0  0  0  0
 23 24  2  0  0  0  0
 35 36  1  0  0  0  0
 36 44  1  0  0  0  0
 36 37  2  0  0  0  0
  8  9  1  0  0  0  0
  9 17  1  0  0  0  0
  9 10  2  0  0  0  0
 18 19  1  0  0  0  0
 19 34  1  0  0  0  0
 19 20  2  0  0  0  0
 35 38  1  0  0  0  0
  8 11  1  0  0  0  0
 44 45  1  0  0  0  0
 21 22  1  0  0  0  0
 18 21  1  0  0  0  0
 34 35  1  0  0  0  0
  7  8  1  0  0  0  0
 17 18  1  0  0  0  0
  3  4  1  0  0  0  0
  3  5  1  0  0  0  0
  3  6  1  0  0  0  0
 38 41  1  0  0  0  0
 38 42  1  0  0  0  0
 38 43  1  0  0  0  0
 11 14  1  0  0  0  0
 11 15  1  0  0  0  0
 11 16  1  0  0  0  0
 45 47  1  0  0  0  0
 45 48  1  0  0  0  0
 45 49  1  0  0  0  0
 22 30  1  0  0  0  0
 22 31  1  0  0  0  0
 21 28  1  0  0  0  0
 21 29  1  0  0  0  0
 35 40  1  0  0  0  0
  8 13  1  0  0  0  0
 18 27  1  0  0  0  0
 25 32  1  0  0  0  0
 25 33  1  0  0  0  0
 44 46  1  0  0  0  0
  7 12  1  0  0  0  0
 34 39  1  0  0  0  0
 17 26  1  0  0  0  0
M  END
$$$$

  -OEChem-05262214473D

 49 48  0     1  0  0  0  0  0999 V2000
   -1.9833   -0.0509   -3.3423 C   0  0  0  0  0  0  0  0  0  0  0  0
   -1.6199   -1.0613   -2.7518 O   0  0  0  0  0  0  0  0  0  0  0  0
   -3.3243   -0.0235   -3.9975 C   0  0  0  0  0  0  0  0  0  0  0  0
   -3.2886   -0.3689   -5.0432 H   0  0  0  0  0  0  0  0  0  0  0  0
   -4.0503   -0.6845   -3.4973 H   0  0  0  0  0  0  0  0  0  0  0  0
   -3.8104    0.9645   -4.0351 H   0  0  0  0  0  0  0  0  0  0  0  0
   -1.2607    1.1231   -3.4768 N   0  0  0  0  0  0  0  0  0  0  0  0
    0.0536    1.3115   -2.9213 C   0  0  2  0  0  0  0  0  0  0  0  0
    0.0266    0.8315   -1.4761 C   0  0  0  0  0  0  0  0  0  0  0  0
   -1.0065    0.7530   -0.8146 O   0  0  0  0  0  0  0  0  0  0  0  0
    0.4852    2.7674   -3.0025 C   0  0  0  0  0  0  0  0  0  0  0  0
   -1.6809    1.8924   -3.9952 H   0  0  0  0  0  0  0  0  0  0  0  0
    0.7360    0.6822   -3.5030 H   0  0  0  0  0  0  0  0  0  0  0  0
   -0.1867    3.4133   -2.4256 H   0  0  0  0  0  0  0  0  0  0  0  0
    1.4966    2.9042   -2.6056 H   0  0  0  0  0  0  0  0  0  0  0  0
    0.4754    3.1196   -4.0397 H   0  0  0  0  0  0  0  0  0  0  0  0
    1.2978    0.5411   -0.9947 N   0  0  0  0  0  0  0  0  0  0  0  0
    1.5371    0.0807    0.3489 C   0  0  2  0  0  0  0  0  0  0  0  0
    0.4480    0.6793    1.2321 C   0  0  0  0  0  0  0  0  0  0  0  0
   -0.4139    1.4447    0.8052 O   0  0  0  0  0  0  0  0  0  0  0  0
    2.9240    0.4882    0.8622 C   0  0  0  0  0  0  0  0  0  0  0  0
    4.0728   -0.2008    0.1232 C   0  0  0  0  0  0  0  0  0  0  0  0
    5.4463    0.2187    0.6129 C   0  0  0  0  0  0  0  0  0  0  0  0
    5.6373    1.0820    1.4644 O   0  0  0  0  0  0  0  0  0  0  0  0
    6.4608   -0.4618   -0.0257 N   0  0  0  0  0  0  0  0  0  0  0  0
    2.0949    0.6178   -1.6227 H   0  0  0  0  0  0  0  0  0  0  0  0
    1.4242   -1.0086    0.3324 H   0  0  0  0  0  0  0  0  0  0  0  0
    3.0442    1.5743    0.7528 H   0  0  0  0  0  0  0  0  0  0  0  0
    3.0033    0.2798    1.9367 H   0  0  0  0  0  0  0  0  0  0  0  0
    4.0183    0.0659   -0.9395 H   0  0  0  0  0  0  0  0  0  0  0  0
    3.9809   -1.2906    0.1902 H   0  0  0  0  0  0  0  0  0  0  0  0
    6.2196   -1.1494   -0.7317 H   0  0  0  0  0  0  0  0  0  0  0  0
    7.4404   -0.2998    0.1850 H   0  0  0  0  0  0  0  0  0  0  0  0
    0.5855    0.2960    2.5590 N   0  0  0  0  0  0  0  0  0  0  0  0
   -0.3027    0.7398    3.6092 C   0  0  2  0  0  0  0  0  0  0  0  0
   -1.7344    0.5301    3.1341 C   0  0  0  0  0  0  0  0  0  0  0  0
   -2.0422    0.4496    1.9467 O   0  0  0  0  0  0  0  0  0  0  0  0
   -0.0556    2.1979    3.9634 C   0  0  0  0  0  0  0  0  0  0  0  0
    1.3488   -0.3277    2.8043 H   0  0  0  0  0  0  0  0  0  0  0  0
   -0.1085    0.1018    4.4782 H   0  0  0  0  0  0  0  0  0  0  0  0
   -0.2451    2.8525    3.1049 H   0  0  0  0  0  0  0  0  0  0  0  0
   -0.7097    2.5245    4.7787 H   0  0  0  0  0  0  0  0  0  0  0  0
    0.9826    2.3524    4.2765 H   0  0  0  0  0  0  0  0  0  0  0  0
   -2.6337    0.4865    4.1903 N   0  0  0  0  0  0  0  0  0  0  0  0
   -4.0540    0.3089    3.9981 C   0  0  0  0  0  0  0  0  0  0  0  0
   -2.2877    0.5426    5.1437 H   0  0  0  0  0  0  0  0  0  0  0  0
   -4.5419    1.2928    3.9347 H   0  0  0  0  0  0  0  0  0  0  0  0
   -4.2310   -0.2486    3.0665 H   0  0  0  0  0  0  0  0  0  0  0  0
   -4.4713   -0.2531    4.8466 H   0  0  0  0  0  0  0  0  0  0  0  0
  1  3  1  0  0  0  0
  1  7  1  0  0  0  0
  1  2  2  0  0  0  0
 22 23  1  0  0  0  0
 23 25  1  0  0  0  0
 23 24  2  0  0  0  0
 35 36  1  0  0  0  0
 36 44  1  0  0  0  0
 36 37  2  0  0  0  0
  8  9  1  0  0  0  0
  9 17  1  0  0  0  0
  9 10  2  0  0  0  0
 18 19  1  0  0  0  0
 19 34  1  0  0  0  0
 19 20  2  0  0  0  0
 35 38  1  0  0  0  0
  8 11  1  0  0  0  0
 44 45  1  0  0  0  0
 21 22  1  0  0  0  0
 18 21  1  0  0  0  0
 34 35  1  0  0  0  0
  7  8  1  0  0  0  0
 17 18  1  0  0  0  0
  3  4  1  0  0  0  0
  3  5  1  0  0  0  0
  3  6  1  0  0  0  0
 38 41  1  0  0  0  0
 38 42  1  0  0  0  0
 38 43  1  0  0  0  0
 11 14  1  0  0  0  0
 11 15  1  0  0  0  0
 11 16  1  0  0  0  0
 45 47  1  0  0  0  0
 45 48  1  0  0  0  0
 45 49  1  0  0  0  0
 22 30  1  0  0  0  0
 22 31  1  0  0  0  0
 21 28  1  0  0  0  0
 21 29  1  0  0  0  0
 35 40  1  0  0  0  0
  8 13  1  0  0  0  0
 18 27  1  0  0  0  0
 25 32  1  0  0  0  0
 25 33  1  0  0  0  0
 44 46  1  0  0  0  0
  7 12  1  0  0  0  0
 34 39  1  0  0  0  0
 17 26  1  0  0  0  0
M  END
$$$$

  -OEChem-05262214473D

 49 48  0     1  0  0  0  0  0999 V2000
   -1.9833   -0.0509   -3.3423 C   0  0  0  0  0  0  0  0  0  0  0  0
   -1.6199   -1.0613   -2.7518 O   0  0  0  0  0  0  0  0  0  0  0  0
   -3.3243   -0.0235   -3.9975 C   0  0  0  0  0  0  0  0  0  0  0  0
   -3.2886   -0.3689   -5.0432 H   0  0  0  0  0  0  0  0  0  0  0  0
   -4.0503   -0.6845   -3.4973 H   0  0  0  0  0  0  0  0  0  0  0  0
   -3.8104    0.9645   -4.0351 H   0  0  0  0  0  0  0  0  0  0  0  0
   -1.2607    1.1231   -3.4768 N   0  0  0  0  0  0  0  0  0  0  0  0
    0.0536    1.3115   -2.9213 C   0  0  2  0  0  0  0  0  0  0  0  0
    0.0266    0.8315   -1.4761 C   0  0  0  0  0  0  0  0  0  0  0  0
   -1.0065    0.7530   -0.8146 O   0  0  0  0  0  0  0  0  0  0  0  0
    0.4852    2.7674   -3.0025 C   0  0  0  0  0  0  0  0  0  0  0  0
   -1.6809    1.8924   -3.9952 H   0  0  0  0  0  0  0  0  0  0  0  0
    0.7360    0.6822   -3.5030 H   0  0  0  0  0  0  0  0  0  0  0  0
   -0.1867    3.4133   -2.4256 H   0  0  0  0  0  0  0  0  0  0  0  0
    1.4966    2.9042   -2.6056 H   0  0  0  0  0  0  0  0  0  0  0  0
    0.4754    3.1196   -4.0397 H   0  0  0  0  0  0  0  0  0  0  0  0
    1.2978    0.5411   -0.9947 N   0  0  0  0  0  0  0  0  0  0  0  0
    1.5371    0.0807    0.3489 C   0  0  2  0  0  0  0  0  0  0  0  0
    0.4480    0.6793    1.2321 C   0  0  0  0  0  0  0  0  0  0  0  0
   -0.5589    1.2194    0.7790 O   0  0  0  0  0  0  0  0  0  0  0  0
    2.9240    0.4882    0.8622 C   0  0  0  0  0  0  0  0  0  0  0  0
    4.0728   -0.2008    0.1232 C   0  0  0  0  0  0  0  0  0  0  0  0
    5.4463    0.2187    0.6129 C   0  0  0  0  0  0  0  0  0  0  0  0
    5.6373    1.0820    1.4644 O   0  0  0  0  0  0  0  0  0  0  0  0
    6.4608   -0.4618   -0.0257 N   0  0  0  0  0  0  0  0  0  0  0  0
    2.0949    0.6178   -1.6227 H   0  0  0  0  0  0  0  0  0  0  0  0
    1.4242   -1.0086    0.3324 H   0  0  0  0  0  0  0  0  0  0  0  0
    3.0442    1.5743    0.7528 H   0  0  0  0  0  0  0  0  0  0  0  0
    3.0033    0.2798    1.9367 H   0  0  0  0  0  0  0  0  0  0  0  0
    4.0183    0.0659   -0.9395 H   0  0  0  0  0  0  0  0  0  0  0  0
    3.9809   -1.2906    0.1902 H   0  0  0  0  0  0  0  0  0  0  0  0
    6.2196   -1.1494   -0.7317 H   0  0  0  0  0  0  0  0  0  0  0  0
    7.4404   -0.2998    0.1850 H   0  0  0  0  0  0  0  0  0  0  0  0
    0.7605    0.5820    2.5809 N   0  0  0  0  0  0  0  0  0  0  0  0
   -0.0918    1.0906    3.6315 C   0  0  2  0  0  0  0  0  0  0  0  0
   -1.5078    0.5944    3.3700 C   0  0  0  0  0  0  0  0  0  0  0  0
   -1.9014    0.2443    2.2593 O   0  0  0  0  0  0  0  0  0  0  0  0
   -0.0504    2.6096    3.6909 C   0  0  0  0  0  0  0  0  0  0  0  0
    1.6319    0.1307    2.8428 H   0  0  0  0  0  0  0  0  0  0  0  0
    0.2769    0.6656    4.5714 H   0  0  0  0  0  0  0  0  0  0  0  0
   -0.4162    3.0534    2.7577 H   0  0  0  0  0  0  0  0  0  0  0  0
   -0.6743    2.9920    4.5055 H   0  0  0  0  0  0  0  0  0  0  0  0
    0.9733    2.9657    3.8493 H   0  0  0  0  0  0  0  0  0  0  0  0
   -2.2926    0.6294    4.5140 N   0  0  0  0  0  0  0  0  0  0  0  0
   -3.6778    0.2204    4.5220 C   0  0  0  0  0  0  0  0  0  0  0  0
   -1.8780    0.9160    5.3959 H   0  0  0  0  0  0  0  0  0  0  0  0
   -4.3200    1.0953    4.3422 H   0  0  0  0  0  0  0  0  0  0  0  0
   -3.8444   -0.5253    3.7307 H   0  0  0  0  0  0  0  0  0  0  0  0
   -3.9242   -0.2205    5.4992 H   0  0  0  0  0  0  0  0  0  0  0  0
  1  3  1  0  0  0  0
  1  7  1  0  0  0  0
  1  2  2  0  0  0  0
 22 23  1  0  0  0  0
 23 25  1  0  0  0  0
 23 24  2  0  0  0  0
 35 36  1  0  0  0  0
 36 44  1  0  0  0  0
 36 37  2  0  0  0  0
  8  9  1  0  0  0  0
  9 17  1  0  0  0  0
  9 10  2  0  0  0  0
 18 19  1  0  0  0  0
 19 34  1  0  0  0  0
 19 20  2  0  0  0  0
 35 38  1  0  0  0  0
  8 11  1  0  0  0  0
 44 45  1  0  0  0  0
 21 22  1  0  0  0  0
 18 21  1  0  0  0  0
 34 35  1  0  0  0  0
  7  8  1  0  0  0  0
 17 18  1  0  0  0  0
  3  4  1  0  0  0  0
  3  5  1  0  0  0  0
  3  6  1  0  0  0  0
 38 41  1  0  0  0  0
 38 42  1  0  0  0  0
 38 43  1  0  0  0  0
 11 14  1  0  0  0  0
 11 15  1  0  0  0  0
 11 16  1  0  0  0  0
 45 47  1  0  0  0  0
 45 48  1  0  0  0  0
 45 49  1  0  0  0  0
 22 30  1  0  0  0  0
 22 31  1  0  0  0  0
 21 28  1  0  0  0  0
 21 29  1  0  0  0  0
 35 40  1  0  0  0  0
  8 13  1  0  0  0  0
 18 27  1  0  0  0  0
 25 32  1  0  0  0  0
 25 33  1  0  0  0  0
 44 46  1  0  0  0  0
  7 12  1  0  0  0  0
 34 39  1  0  0  0  0
 17 26  1  0  0  0  0
M  END
$$$$

  -OEChem-05262214473D

 49 48  0     1  0  0  0  0  0999 V2000
   -1.9833   -0.0509   -3.3423 C   0  0  0  0  0  0  0  0  0  0  0  0
   -1.6199   -1.0613   -2.7518 O   0  0  0  0  0  0  0  0  0  0  0  0
   -3.3243   -0.0235   -3.9975 C   0  0  0  0  0  0  0  0  0  0  0  0
   -3.2886   -0.3689   -5.0432 H   0  0  0  0  0  0  0  0  0  0  0  0
   -4.0503   -0.6845   -3.4973 H   0  0  0  0  0  0  0  0  0  0  0  0
   -3.8104    0.9645   -4.0351 H   0  0  0  0  0  0  0  0  0  0  0  0
   -1.2607    1.1231   -3.4768 N   0  0  0  0  0  0  0  0  0  0  0  0
    0.0536    1.3115   -2.9213 C   0  0  2  0  0  0  0  0  0  0  0  0
    0.0266    0.8315   -1.4761 C   0  0  0  0  0  0  0  0  0  0  0  0
   -1.0065    0.7530   -0.8146 O   0  0  0  0  0  0  0  0  0  0  0  0
    0.4852    2.7674   -3.0025 C   0  0  0  0  0  0  0  0  0  0  0  0
   -1.6809    1.8924   -3.9952 H   0  0  0  0  0  0  0  0  0  0  0  0
    0.7360    0.6822   -3.5030 H   0  0  0  0  0  0  0  0  0  0  0  0
   -0.1867    3.4133   -2.4256 H   0  0  0  0  0  0  0  0  0  0  0  0
    1.4966    2.9042   -2.6056 H   0  0  0  0  0  0  0  0  0  0  0  0
    0.4754    3.1196   -4.0397 H   0  0  0  0  0  0  0  0  0  0  0  0
    1.2978    0.5411   -0.9947 N   0  0  0  0  0  0  0  0  0  0  0  0
    1.5371    0.0807    0.3489 C   0  0  2  0  0  0  0  0  0  0  0  0
    0.4480    0.6793    1.2321 C   0  0  0  0  0  0  0  0  0  0  0  0
   -0.6679    0.9752    0.8101 O   0  0  0  0  0  0  0  0  0  0  0  0
    2.9240    0.4882    0.8622 C   0  0  0  0  0  0  0  0  0  0  0  0
    4.0728   -0.2008    0.1232 C   0  0  0  0  0  0  0  0  0  0  0  0
    5.4463    0.2187    0.6129 C   0  0  0  0  0  0  0  0  0  0  0  0
    5.6373    1.0820    1.4644 O   0  0  0  0  0  0  0  0  0  0  0  0
    6.4608   -0.4618   -0.0257 N   0  0  0  0  0  0  0  0  0  0  0  0
    2.0949    0.6178   -1.6227 H   0  0  0  0  0  0  0  0  0  0  0  0
    1.4242   -1.0086    0.3324 H   0  0  0  0  0  0  0  0  0  0  0  0
    3.0442    1.5743    0.7528 H   0  0  0  0  0  0  0  0  0  0  0  0
    3.0033    0.2798    1.9367 H   0  0  0  0  0  0  0  0  0  0  0  0
    4.0183    0.0659   -0.9395 H   0  0  0  0  0  0  0  0  0  0  0  0
    3.9809   -1.2906    0.1902 H   0  0  0  0  0  0  0  0  0  0  0  0
    6.2196   -1.1494   -0.7317 H   0  0  0  0  0  0  0  0  0  0  0  0
    7.4404   -0.2998    0.1850 H   0  0  0  0  0  0  0  0  0  0  0  0
    0.8888    0.8885    2.5315 N   0  0  0  0  0  0  0  0  0  0  0  0
    0.0616    1.4652    3.5668 C   0  0  2  0  0  0  0  0  0  0  0  0
   -1.2745    0.7342    3.5629 C   0  0  0  0  0  0  0  0  0  0  0  0
   -1.7030    0.1250    2.5850 O   0  0  0  0  0  0  0  0  0  0  0  0
   -0.1348    2.9577    3.3509 C   0  0  0  0  0  0  0  0  0  0  0  0
    1.8406    0.6229    2.7665 H   0  0  0  0  0  0  0  0  0  0  0  0
    0.5742    1.2853    4.5180 H   0  0  0  0  0  0  0  0  0  0  0  0
   -0.6469    3.1575    2.4026 H   0  0  0  0  0  0  0  0  0  0  0  0
   -0.7380    3.3984    4.1515 H   0  0  0  0  0  0  0  0  0  0  0  0
    0.8289    3.4777    3.3242 H   0  0  0  0  0  0  0  0  0  0  0  0
   -1.9518    0.8783    4.7657 N   0  0  0  0  0  0  0  0  0  0  0  0
   -3.2479    0.2883    5.0062 C   0  0  0  0  0  0  0  0  0  0  0  0
   -1.5126    1.3848    5.5288 H   0  0  0  0  0  0  0  0  0  0  0  0
   -4.0346    1.0131    4.7498 H   0  0  0  0  0  0  0  0  0  0  0  0
   -3.3620   -0.6118    4.3842 H   0  0  0  0  0  0  0  0  0  0  0  0
   -3.3343    0.0137    6.0679 H   0  0  0  0  0  0  0  0  0  0  0  0
  1  3  1  0  0  0  0
  1  7  1  0  0  0  0
  1  2  2  0  0  0  0
 22 23  1  0  0  0  0
 23 25  1  0  0  0  0
 23 24  2  0  0  0  0
 35 36  1  0  0  0  0
 36 44  1  0  0  0  0
 36 37  2  0  0  0  0
  8  9  1  0  0  0  0
  9 17  1  0  0  0  0
  9 10  2  0  0  0  0
 18 19  1  0  0  0  0
 19 34  1  0  0  0  0
 19 20  2  0  0  0  0
 35 38  1  0  0  0  0
  8 11  1  0  0  0  0
 44 45  1  0  0  0  0
 21 22  1  0  0  0  0
 18 21  1  0  0  0  0
 34 35  1  0  0  0  0
  7  8  1  0  0  0  0
 17 18  1  0  0  0  0
  3  4  1  0  0  0  0
  3  5  1  0  0  0  0
  3  6  1  0  0  0  0
 38 41  1  0  0  0  0
 38 42  1  0  0  0  0
 38 43  1  0  0  0  0
 11 14  1  0  0  0  0
 11 15  1  0  0  0  0
 11 16  1  0  0  0  0
 45 47  1  0  0  0  0
 45 48  1  0  0  0  0
 45 49  1  0  0  0  0
 22 30  1  0  0  0  0
 22 31  1  0  0  0  0
 21 28  1  0  0  0  0
 21 29  1  0  0  0  0
 35 40  1  0  0  0  0
  8 13  1  0  0  0  0
 18 27  1  0  0  0  0
 25 32  1  0  0  0  0
 25 33  1  0  0  0  0
 44 46  1  0  0  0  0
  7 12  1  0  0  0  0
 34 39  1  0  0  0  0
 17 26  1  0  0  0  0
M  END
$$$$

  -OEChem-05262214473D

 49 48  0     1  0  0  0  0  0999 V2000
   -1.9833   -0.0509   -3.3423 C   0  0  0  0  0  0  0  0  0  0  0  0
   -1.6199   -1.0613   -2.7518 O   0  0  0  0  0  0  0  0  0  0  0  0
   -3.3243   -0.0235   -3.9975 C   0  0  0  0  0  0  0  0  0  0  0  0
   -3.2886   -0.3689   -5.0432 H   0  0  0  0  0  0  0  0  0  0  0  0
   -4.0503   -0.6845   -3.4973 H   0  0  0  0  0  0  0  0  0  0  0  0
   -3.8104    0.9645   -4.0351 H   0  0  0  0  0  0  0  0  0  0  0  0
   -1.2607    1.1231   -3.4768 N   0  0  0  0  0  0  0  0  0  0  0  0
    0.0536    1.3115   -2.9213 C   0  0  2  0  0  0  0  0  0  0  0  0
    0.0266    0.8315   -1.4761 C   0  0  0  0  0  0  0  0  0  0  0  0
   -1.0065    0.7530   -0.8146 O   0  0  0  0  0  0  0  0  0  0  0  0
    0.4852    2.7674   -3.0025 C   0  0  0  0  0  0  0  0  0  0  0  0
   -1.6809    1.8924   -3.9952 H   0  0  0  0  0  0  0  0  0  0  0  0
    0.7360    0.6822   -3.5030 H   0  0  0  0  0  0  0  0  0  0  0  0
   -0.1867    3.4133   -2.4256 H   0  0  0  0  0  0  0  0  0  0  0  0
    1.4966    2.9042   -2.6056 H   0  0  0  0  0  0  0  0  0  0  0  0
    0.4754    3.1196   -4.0397 H   0  0  0  0  0  0  0  0  0  0  0  0
    1.2978    0.5411   -0.9947 N   0  0  0  0  0  0  0  0  0  0  0  0
    1.5371    0.0807    0.3489 C   0  0  2  0  0  0  0  0  0  0  0  0
    0.4480    0.6793    1.2321 C   0  0  0  0  0  0  0  0  0  0  0  0
   -0.7334    0.7287    0.8963 O   0  0  0  0  0  0  0  0  0  0  0  0
    2.9240    0.4882    0.8622 C   0  0  0  0  0  0  0  0  0  0  0  0
    4.0728   -0.2008    0.1232 C   0  0  0  0  0  0  0  0  0  0  0  0
    5.4463    0.2187    0.6129 C   0  0  0  0  0  0  0  0  0  0  0  0
    5.6373    1.0820    1.4644 O   0  0  0  0  0  0  0  0  0  0  0  0
    6.4608   -0.4618   -0.0257 N   0  0  0  0  0  0  0  0  0  0  0  0
    2.0949    0.6178   -1.6227 H   0  0  0  0  0  0  0  0  0  0  0  0
    1.4242   -1.0086    0.3324 H   0  0  0  0  0  0  0  0  0  0  0  0
    3.0442    1.5743    0.7528 H   0  0  0  0  0  0  0  0  0  0  0  0
    3.0033    0.2798    1.9367 H   0  0  0  0  0  0  0  0  0  0  0  0
    4.0183    0.0659   -0.9395 H   0  0  0  0  0  0  0  0  0  0  0  0
    3.9809   -1.2906    0.1902 H   0  0  0  0  0  0  0  0  0  0  0  0
    6.2196   -1.1494   -0.7317 H   0  0  0  0  0  0  0  0  0  0  0  0
    7.4404   -0.2998    0.1850 H   0  0  0  0  0  0  0  0  0  0  0  0
    0.9618    1.1946    2.4140 N   0  0  0  0  0  0  0  0  0  0  0  0
    0.1470    1.8380    3.4194 C   0  0  2  0  0  0  0  0  0  0  0  0
   -1.0506    0.9398    3.6997 C   0  0  0  0  0  0  0  0  0  0  0  0
   -1.4603    0.0996    2.9014 O   0  0  0  0  0  0  0  0  0  0  0  0
   -0.3030    3.2183    2.9668 C   0  0  0  0  0  0  0  0  0  0  0  0
    1.9606    1.1156    2.5806 H   0  0  0  0  0  0  0  0  0  0  0  0
    0.7630    1.9186    4.3217 H   0  0  0  0  0  0  0  0  0  0  0  0
   -0.9215    3.1579    2.0638 H   0  0  0  0  0  0  0  0  0  0  0  0
   -0.8964    3.7159    3.7410 H   0  0  0  0  0  0  0  0  0  0  0  0
    0.5593    3.8535    2.7371 H   0  0  0  0  0  0  0  0  0  0  0  0
   -1.6342    1.2164    4.9281 N   0  0  0  0  0  0  0  0  0  0  0  0
   -2.7936    0.5078    5.4176 C   0  0  0  0  0  0  0  0  0  0  0  0
   -1.2164    1.9169    5.5334 H   0  0  0  0  0  0  0  0  0  0  0  0
   -3.7052    1.0519    5.1297 H   0  0  0  0  0  0  0  0  0  0  0  0
   -2.8167   -0.5022    4.9824 H   0  0  0  0  0  0  0  0  0  0  0  0
   -2.7419    0.4335    6.5139 H   0  0  0  0  0  0  0  0  0  0  0  0
  1  3  1  0  0  0  0
  1  7  1  0  0  0  0
  1  2  2  0  0  0  0
 22 23  1  0  0  0  0
 23 25  1  0  0  0  0
 23 24  2  0  0  0  0
 35 36  1  0  0  0  0
 36 44  1  0  0  0  0
 36 37  2  0  0  0  0
  8  9  1  0  0  0  0
  9 17  1  0  0  0  0
  9 10  2  0  0  0  0
 18 19  1  0  0  0  0
 19 34  1  0  0  0  0
 19 20  2  0  0  0  0
 35 38  1  0  0  0  0
  8 11  1  0  0  0  0
 44 45  1  0  0  0  0
 21 22  1  0  0  0  0
 18 21  1  0  0  0  0
 34 35  1  0  0  0  0
  7  8  1  0  0  0  0
 17 18  1  0  0  0  0
  3  4  1  0  0  0  0
  3  5  1  0  0  0  0
  3  6  1  0  0  0  0
 38 41  1  0  0  0  0
 38 42  1  0  0  0  0
 38 43  1  0  0  0  0
 11 14  1  0  0  0  0
 11 15  1  0  0  0  0
 11 16  1  0  0  0  0
 45 47  1  0  0  0  0
 45 48  1  0  0  0  0
 45 49  1  0  0  0  0
 22 30  1  0  0  0  0
 22 31  1  0  0  0  0
 21 28  1  0  0  0  0
 21 29  1  0  0  0  0
 35 40  1  0  0  0  0
  8 13  1  0  0  0  0
 18 27  1  0  0  0  0
 25 32  1  0  0  0  0
 25 33  1  0  0  0  0
 44 46  1  0  0  0  0
  7 12  1  0  0  0  0
 34 39  1  0  0  0  0
 17 26  1  0  0  0  0
M  END
$$$$

  -OEChem-05262214473D

 49 48  0     1  0  0  0  0  0999 V2000
   -1.9833   -0.0509   -3.3423 C   0  0  0  0  0  0  0  0  0  0  0  0
   -1.6199   -1.0613   -2.7518 O   0  0  0  0  0  0  0  0  0  0  0  0
   -3.3243   -0.0235   -3.9975 C   0  0  0  0  0  0  0  0  0  0  0  0
   -3.2886   -0.3689   -5.0432 H   0  0  0  0  0  0  0  0  0  0  0  0
   -4.0503   -0.6845   -3.4973 H   0  0  0  0  0  0  0  0  0  0  0  0
   -3.8104    0.9645   -4.0351 H   0  0  0  0  0  0  0  0  0  0  0  0
   -1.2607    1.1231   -3.4768 N   0  0  0  0  0  0  0  0  0  0  0  0
    0.0536    1.3115   -2.9213 C   0  0  2  0  0  0  0  0  0  0  0  0
    0.0266    0.8315   -1.4761 C   0  0  0  0  0  0  0  0  0  0  0  0
   -1.0065    0.7530   -0.8146 O   0  0  0  0  0  0  0  0  0  0  0  0
    0.4852    2.7674   -3.0025 C   0  0  0  0  0  0  0  0  0  0  0  0
   -1.6809    1.8924   -3.9952 H   0  0  0  0  0  0  0  0  0  0  0  0
    0.7360    0.6822   -3.5030 H   0  0  0  0  0  0  0  0  0  0  0  0
   -0.1867    3.4133   -2.4256 H   0  0  0  0  0  0  0  0  0  0  0  0
    1.4966    2.9042   -2.6056 H   0  0  0  0  0  0  0  0  0  0  0  0
    0.4754    3.1196   -4.0397 H   0  0  0  0  0  0  0  0  0  0  0  0
    1.2978    0.5411   -0.9947 N   0  0  0  0  0  0  0  0  0  0  0  0
    1.5371    0.0807    0.3489 C   0  0  2  0  0  0  0  0  0  0  0  0
    0.4480    0.6793    1.2321 C   0  0  0  0  0  0  0  0  0  0  0  0
   -0.7510    0.4968    1.0319 O   0  0  0  0  0  0  0  0  0  0  0  0
    2.9240    0.4882    0.8622 C   0  0  0  0  0  0  0  0  0  0  0  0
    4.0728   -0.2008    0.1232 C   0  0  0  0  0  0  0  0  0  0  0  0
    5.4463    0.2187    0.6129 C   0  0  0  0  0  0  0  0  0  0  0  0
    5.6373    1.0820    1.4644 O   0  0  0  0  0  0  0  0  0  0  0  0
    6.4608   -0.4618   -0.0257 N   0  0  0  0  0  0  0  0  0  0  0  0
    2.0949    0.6178   -1.6227 H   0  0  0  0  0  0  0  0  0  0  0  0
    1.4242   -1.0086    0.3324 H   0  0  0  0  0  0  0  0  0  0  0  0
    3.0442    1.5743    0.7528 H   0  0  0  0  0  0  0  0  0  0  0  0
    3.0033    0.2798    1.9367 H   0  0  0  0  0  0  0  0  0  0  0  0
    4.0183    0.0659   -0.9395 H   0  0  0  0  0  0  0  0  0  0  0  0
    3.9809   -1.2906    0.1902 H   0  0  0  0  0  0  0  0  0  0  0  0
    6.2196   -1.1494   -0.7317 H   0  0  0  0  0  0  0  0  0  0  0  0
    7.4404   -0.2998    0.1850 H   0  0  0  0  0  0  0  0  0  0  0  0
    0.9744    1.4796    2.2365 N   0  0  0  0  0  0  0  0  0  0  0  0
    0.1586    2.1837    3.1994 C   0  0  2  0  0  0  0  0  0  0  0  0
   -0.8512    1.1973    3.7711 C   0  0  0  0  0  0  0  0  0  0  0  0
   -1.1900    0.1700    3.1871 O   0  0  0  0  0  0  0  0  0  0  0  0
   -0.5437    3.3739    2.5646 C   0  0  0  0  0  0  0  0  0  0  0  0
    1.9838    1.5752    2.2978 H   0  0  0  0  0  0  0  0  0  0  0  0
    0.8304    2.5222    3.9957 H   0  0  0  0  0  0  0  0  0  0  0  0
   -1.2212    3.0544    1.7644 H   0  0  0  0  0  0  0  0  0  0  0  0
   -1.1387    3.9230    3.3018 H   0  0  0  0  0  0  0  0  0  0  0  0
    0.1829    4.0676    2.1278 H   0  0  0  0  0  0  0  0  0  0  0  0
   -1.3617    1.6206    4.9902 N   0  0  0  0  0  0  0  0  0  0  0  0
   -2.3459    0.8640    5.7283 C   0  0  0  0  0  0  0  0  0  0  0  0
   -1.0096    2.4762    5.4094 H   0  0  0  0  0  0  0  0  0  0  0  0
   -3.3543    1.2090    5.4560 H   0  0  0  0  0  0  0  0  0  0  0  0
   -2.2456   -0.2040    5.4845 H   0  0  0  0  0  0  0  0  0  0  0  0
   -2.1873    1.0103    6.8070 H   0  0  0  0  0  0  0  0  0  0  0  0
  1  3  1  0  0  0  0
  1  7  1  0  0  0  0
  1  2  2  0  0  0  0
 22 23  1  0  0  0  0
 23 25  1  0  0  0  0
 23 24  2  0  0  0  0
 35 36  1  0  0  0  0
 36 44  1  0  0  0  0
 36 37  2  0  0  0  0
  8  9  1  0  0  0  0
  9 17  1  0  0  0  0
  9 10  2  0  0  0  0
 18 19  1  0  0  0  0
 19 34  1  0  0  0  0
 19 20  2  0  0  0  0
 35 38  1  0  0  0  0
  8 11  1  0  0  0  0
 44 45  1  0  0  0  0
 21 22  1  0  0  0  0
 18 21  1  0  0  0  0
 34 35  1  0  0  0  0
  7  8  1  0  0  0  0
 17 18  1  0  0  0  0
  3  4  1  0  0  0  0
  3  5  1  0  0  0  0
  3  6  1  0  0  0  0
 38 41  1  0  0  0  0
 38 42  1  0  0  0  0
 38 43  1  0  0  0  0
 11 14  1  0  0  0  0
 11 15  1  0  0  0  0
 11 16  1  0  0  0  0
 45 47  1  0  0  0  0
 45 48  1  0  0  0  0
 45 49  1  0  0  0  0
 22 30  1  0  0  0  0
 22 31  1  0  0  0  0
 21 28  1  0  0  0  0
 21 29  1  0  0  0  0
 35 40  1  0  0  0  0
  8 13  1  0  0  0  0
 18 27  1  0  0  0  0
 25 32  1  0  0  0  0
 25 33  1  0  0  0  0
 44 46  1  0  0  0  0
  7 12  1  0  0  0  0
 34 39  1  0  0  0  0
 17 26  1  0  0  0  0
M  END
$$$$

  -OEChem-05262214473D

 49 48  0     1  0  0  0  0  0999 V2000
   -1.9833   -0.0509   -3.3423 C   0  0  0  0  0  0  0  0  0  0  0  0
   -1.6199   -1.0613   -2.7518 O   0  0  0  0  0  0  0  0  0  0  0  0
   -3.3243   -0.0235   -3.9975 C   0  0  0  0  0  0  0  0  0  0  0  0
   -3.2886   -0.3689   -5.0432 H   0  0  0  0  0  0  0  0  0  0  0  0
   -4.0503   -0.6845   -3.4973 H   0  0  0  0  0  0  0  0  0  0  0  0
   -3.8104    0.9645   -4.0351 H   0  0  0  0  0  0  0  0  0  0  0  0
   -1.2607    1.1231   -3.4768 N   0  0  0  0  0  0  0  0  0  0  0  0
    0.0536    1.3115   -2.9213 C   0  0  2  0  0  0  0  0  0  0  0  0
    0.0266    0.8315   -1.4761 C   0  0  0  0  0  0  0  0  0  0  0  0
   -1.0065    0.7530   -0.8146 O   0  0  0  0  0  0  0  0  0  0  0  0
    0.4852    2.7674   -3.0025 C   0  0  0  0  0  0  0  0  0  0  0  0
   -1.6809    1.8924   -3.9952 H   0  0  0  0  0  0  0  0  0  0  0  0
    0.7360    0.6822   -3.5030 H   0  0  0  0  0  0  0  0  0  0  0  0
   -0.1867    3.4133   -2.4256 H   0  0  0  0  0  0  0  0  0  0  0  0
    1.4966    2.9042   -2.6056 H   0  0  0  0  0  0  0  0  0  0  0  0
    0.4754    3.1196   -4.0397 H   0  0  0  0  0  0  0  0  0  0  0  0
    1.2978    0.5411   -0.9947 N   0  0  0  0  0  0  0  0  0  0  0  0
    1.5371    0.0807    0.3489 C   0  0  2  0  0  0  0  0  0  0  0  0
    0.4480    0.6793    1.2321 C   0  0  0  0  0  0  0  0  0  0  0  0
   -0.7194    0.2952    1.2074 O   0  0  0  0  0  0  0  0  0  0  0  0
    2.9240    0.4882    0.8622 C   0  0  0  0  0  0  0  0  0  0  0  0
    4.0728   -0.2008    0.1232 C   0  0  0  0  0  0  0  0  0  0  0  0
    5.4463    0.2187    0.6129 C   0  0  0  0  0  0  0  0  0  0  0  0
    5.6373    1.0820    1.4644 O   0  0  0  0  0  0  0  0  0  0  0  0
    6.4608   -0.4618   -0.0257 N   0  0  0  0  0  0  0  0  0  0  0  0
    2.0949    0.6178   -1.6227 H   0  0  0  0  0  0  0  0  0  0  0  0
    1.4242   -1.0086    0.3324 H   0  0  0  0  0  0  0  0  0  0  0  0
    3.0442    1.5743    0.7528 H   0  0  0  0  0  0  0  0  0  0  0  0
    3.0033    0.2798    1.9367 H   0  0  0  0  0  0  0  0  0  0  0  0
    4.0183    0.0659   -0.9395 H   0  0  0  0  0  0  0  0  0  0  0  0
    3.9809   -1.2906    0.1902 H   0  0  0  0  0  0  0  0  0  0  0  0
    6.2196   -1.1494   -0.7317 H   0  0  0  0  0  0  0  0  0  0  0  0
    7.4404   -0.2998    0.1850 H   0  0  0  0  0  0  0  0  0  0  0  0
    0.9259    1.7239    2.0110 N   0  0  0  0  0  0  0  0  0  0  0  0
    0.0956    2.4787    2.9219 C   0  0  2  0  0  0  0  0  0  0  0  0
   -0.6899    1.4891    3.7722 C   0  0  0  0  0  0  0  0  0  0  0  0
   -0.9103    0.3314    3.4226 O   0  0  0  0  0  0  0  0  0  0  0  0
   -0.8403    3.4137    2.1719 C   0  0  0  0  0  0  0  0  0  0  0  0
    1.9085    1.9702    1.9372 H   0  0  0  0  0  0  0  0  0  0  0  0
    0.7719    3.0552    3.5625 H   0  0  0  0  0  0  0  0  0  0  0  0
   -1.5255    2.8542    1.5247 H   0  0  0  0  0  0  0  0  0  0  0  0
   -1.4484    4.0055    2.8640 H   0  0  0  0  0  0  0  0  0  0  0  0
   -0.2747    4.1052    1.5380 H   0  0  0  0  0  0  0  0  0  0  0  0
   -1.1528    2.0634    4.9478 N   0  0  0  0  0  0  0  0  0  0  0  0
   -1.9353    1.3326    5.9171 C   0  0  0  0  0  0  0  0  0  0  0  0
   -0.9063    3.0245    5.1651 H   0  0  0  0  0  0  0  0  0  0  0  0
   -3.0057    1.4737    5.7065 H   0  0  0  0  0  0  0  0  0  0  0  0
   -1.6877    0.2626    5.8564 H   0  0  0  0  0  0  0  0  0  0  0  0
   -1.7083    1.7048    6.9270 H   0  0  0  0  0  0  0  0  0  0  0  0
  1  3  1  0  0  0  0
  1  7  1  0  0  0  0
  1  2  2  0  0  0  0
 22 23  1  0  0  0  0
 23 25  1  0  0  0  0
 23 24  2  0  0  0  0
 35 36  1  0  0  0  0
 36 44  1  0  0  0  0
 36 37  2  0  0  0  0
  8  9  1  0  0  0  0
  9 17  1  0  0  0  0
  9 10  2  0  0  0  0
 18 19  1  0  0  0  0
 19 34  1  0  0  0  0
 19 20  2  0  0  0  0
 35 38  1  0  0  0  0
  8 11  1  0  0  0  0
 44 45  1  0  0  0  0
 21 22  1  0  0  0  0
 18 21  1  0  0  0  0
 34 35  1  0  0  0  0
  7  8  1  0  0  0  0
 17 18  1  0  0  0  0
  3  4  1  0  0  0  0
  3  5  1  0  0  0  0
  3  6  1  0  0  0  0
 38 41  1  0  0  0  0
 38 42  1  0  0  0  0
 38 43  1  0  0  0  0
 11 14  1  0  0  0  0
 11 15  1  0  0  0  0
 11 16  1  0  0  0  0
 45 47  1  0  0  0  0
 45 48  1  0  0  0  0
 45 49  1  0  0  0  0
 22 30  1  0  0  0  0
 22 31  1  0  0  0  0
 21 28  1  0  0  0  0
 21 29  1  0  0  0  0
 35 40  1  0  0  0  0
  8 13  1  0  0  0  0
 18 27  1  0  0  0  0
 25 32  1  0  0  0  0
 25 33  1  0  0  0  0
 44 46  1  0  0  0  0
  7 12  1  0  0  0  0
 34 39  1  0  0  0  0
 17 26  1  0  0  0  0
M  END
$$$$

  -OEChem-05262214473D

 49 48  0     1  0  0  0  0  0999 V2000
   -1.9833   -0.0509   -3.3423 C   0  0  0  0  0  0  0  0  0  0  0  0
   -1.6199   -1.0613   -2.7518 O   0  0  0  0  0  0  0  0  0  0  0  0
   -3.3243   -0.0235   -3.9975 C   0  0  0  0  0  0  0  0  0  0  0  0
   -3.2886   -0.3689   -5.0432 H   0  0  0  0  0  0  0  0  0  0  0  0
   -4.0503   -0.6845   -3.4973 H   0  0  0  0  0  0  0  0  0  0  0  0
   -3.8104    0.9645   -4.0351 H   0  0  0  0  0  0  0  0  0  0  0  0
   -1.2607    1.1231   -3.4768 N   0  0  0  0  0  0  0  0  0  0  0  0
    0.0536    1.3115   -2.9213 C   0  0  2  0  0  0  0  0  0  0  0  0
    0.0266    0.8315   -1.4761 C   0  0  0  0  0  0  0  0  0  0  0  0
   -1.0065    0.7530   -0.8146 O   0  0  0  0  0  0  0  0  0  0  0  0
    0.4852    2.7674   -3.0025 C   0  0  0  0  0  0  0  0  0  0  0  0
   -1.6809    1.8924   -3.9952 H   0  0  0  0  0  0  0  0  0  0  0  0
    0.7360    0.6822   -3.5030 H   0  0  0  0  0  0  0  0  0  0  0  0
   -0.1867    3.4133   -2.4256 H   0  0  0  0  0  0  0  0  0  0  0  0
    1.4966    2.9042   -2.6056 H   0  0  0  0  0  0  0  0  0  0  0  0
    0.4754    3.1196   -4.0397 H   0  0  0  0  0  0  0  0  0  0  0  0
    1.2978    0.5411   -0.9947 N   0  0  0  0  0  0  0  0  0  0  0  0
    1.5371    0.0807    0.3489 C   0  0  2  0  0  0  0  0  0  0  0  0
    0.4480    0.6793    1.2321 C   0  0  0  0  0  0  0  0  0  0  0  0
   -0.6408    0.1376    1.4111 O   0  0  0  0  0  0  0  0  0  0  0  0
    2.9240    0.4882    0.8622 C   0  0  0  0  0  0  0  0  0  0  0  0
    4.0728   -0.2008    0.1232 C   0  0  0  0  0  0  0  0  0  0  0  0
    5.4463    0.2187    0.6129 C   0  0  0  0  0  0  0  0  0  0  0  0
    5.6373    1.0820    1.4644 O   0  0  0  0  0  0  0  0  0  0  0  0
    6.4608   -0.4618   -0.0257 N   0  0  0  0  0  0  0  0  0  0  0  0
    2.0949    0.6178   -1.6227 H   0  0  0  0  0  0  0  0  0  0  0  0
    1.4242   -1.0086    0.3324 H   0  0  0  0  0  0  0  0  0  0  0  0
    3.0442    1.5743    0.7528 H   0  0  0  0  0  0  0  0  0  0  0  0
    3.0033    0.2798    1.9367 H   0  0  0  0  0  0  0  0  0  0  0  0
    4.0183    0.0659   -0.9395 H   0  0  0  0  0  0  0  0  0  0  0  0
    3.9809   -1.2906    0.1902 H   0  0  0  0  0  0  0  0  0  0  0  0
    6.2196   -1.1494   -0.7317 H   0  0  0  0  0  0  0  0  0  0  0  0
    7.4404   -0.2998    0.1850 H   0  0  0  0  0  0  0  0  0  0  0  0
    0.8195    1.9109    1.7531 N   0  0  0  0  0  0  0  0  0  0  0  0
   -0.0376    2.7029    2.6056 C   0  0  2  0  0  0  0  0  0  0  0  0
   -0.5778    1.7953    3.7029 C   0  0  0  0  0  0  0  0  0  0  0  0
   -0.6405    0.5727    3.5918 O   0  0  0  0  0  0  0  0  0  0  0  0
   -1.1726    3.3351    1.8153 C   0  0  0  0  0  0  0  0  0  0  0  0
    1.7400    2.2739    1.5236 H   0  0  0  0  0  0  0  0  0  0  0  0
    0.5915    3.4811    3.0513 H   0  0  0  0  0  0  0  0  0  0  0  0
   -1.8139    2.5708    1.3612 H   0  0  0  0  0  0  0  0  0  0  0  0
   -1.8045    3.9578    2.4572 H   0  0  0  0  0  0  0  0  0  0  0  0
   -0.7823    3.9640    1.0078 H   0  0  0  0  0  0  0  0  0  0  0  0
   -1.0217    2.5146    4.8037 N   0  0  0  0  0  0  0  0  0  0  0  0
   -1.5898    1.8817    5.9711 C   0  0  0  0  0  0  0  0  0  0  0  0
   -0.9136    3.5245    4.8174 H   0  0  0  0  0  0  0  0  0  0  0  0
   -2.6832    1.8279    5.8641 H   0  0  0  0  0  0  0  0  0  0  0  0
   -1.1809    0.8656    6.0726 H   0  0  0  0  0  0  0  0  0  0  0  0
   -1.3375    2.4696    6.8659 H   0  0  0  0  0  0  0  0  0  0  0  0
  1  3  1  0  0  0  0
  1  7  1  0  0  0  0
  1  2  2  0  0  0  0
 22 23  1  0  0  0  0
 23 25  1  0  0  0  0
 23 24  2  0  0  0  0
 35 36  1  0  0  0  0
 36 44  1  0  0  0  0
 36 37  2  0  0  0  0
  8  9  1  0  0  0  0
  9 17  1  0  0  0  0
  9 10  2  0  0  0  0
 18 19  1  0  0  0  0
 19 34  1  0  0  0  0
 19 20  2  0  0  0  0
 35 38  1  0  0  0  0
  8 11  1  0  0  0  0
 44 45  1  0  0  0  0
 21 22  1  0  0  0  0
 18 21  1  0  0  0  0
 34 35  1  0  0  0  0
  7  8  1  0  0  0  0
 17 18  1  0  0  0  0
  3  4  1  0  0  0  0
  3  5  1  0  0  0  0
  3  6  1  0  0  0  0
 38 41  1  0  0  0  0
 38 42  1  0  0  0  0
 38 43  1  0  0  0  0
 11 14  1  0  0  0  0
 11 15  1  0  0  0  0
 11 16  1  0  0  0  0
 45 47  1  0  0  0  0
 45 48  1  0  0  0  0
 45 49  1  0  0  0  0
 22 30  1  0  0  0  0
 22 31  1  0  0  0  0
 21 28  1  0  0  0  0
 21 29  1  0  0  0  0
 35 40  1  0  0  0  0
  8 13  1  0  0  0  0
 18 27  1  0  0  0  0
 25 32  1  0  0  0  0
 25 33  1  0  0  0  0
 44 46  1  0  0  0  0
  7 12  1  0  0  0  0
 34 39  1  0  0  0  0
 17 26  1  0  0  0  0
M  END
$$$$

  -OEChem-05262214473D

 49 48  0     1  0  0  0  0  0999 V2000
   -1.9833   -0.0509   -3.3423 C   0  0  0  0  0  0  0  0  0  0  0  0
   -1.6199   -1.0613   -2.7518 O   0  0  0  0  0  0  0  0  0  0  0  0
   -3.3243   -0.0235   -3.9975 C   0  0  0  0  0  0  0  0  0  0  0  0
   -3.2886   -0.3689   -5.0432 H   0  0  0  0  0  0  0  0  0  0  0  0
   -4.0503   -0.6845   -3.4973 H   0  0  0  0  0  0  0  0  0  0  0  0
   -3.8104    0.9645   -4.0351 H   0  0  0  0  0  0  0  0  0  0  0  0
   -1.2607    1.1231   -3.4768 N   0  0  0  0  0  0  0  0  0  0  0  0
    0.0536    1.3115   -2.9213 C   0  0  2  0  0  0  0  0  0  0  0  0
    0.0266    0.8315   -1.4761 C   0  0  0  0  0  0  0  0  0  0  0  0
   -1.0065    0.7530   -0.8146 O   0  0  0  0  0  0  0  0  0  0  0  0
    0.4852    2.7674   -3.0025 C   0  0  0  0  0  0  0  0  0  0  0  0
   -1.6809    1.8924   -3.9952 H   0  0  0  0  0  0  0  0  0  0  0  0
    0.7360    0.6822   -3.5030 H   0  0  0  0  0  0  0  0  0  0  0  0
   -0.1867    3.4133   -2.4256 H   0  0  0  0  0  0  0  0  0  0  0  0
    1.4966    2.9042   -2.6056 H   0  0  0  0  0  0  0  0  0  0  0  0
    0.4754    3.1196   -4.0397 H   0  0  0  0  0  0  0  0  0  0  0  0
    1.2978    0.5411   -0.9947 N   0  0  0  0  0  0  0  0  0  0  0  0
    1.5371    0.0807    0.3489 C   0  0  2  0  0  0  0  0  0  0  0  0
    0.4480    0.6793    1.2321 C   0  0  0  0  0  0  0  0  0  0  0  0
   -0.5206    0.0349    1.6290 O   0  0  0  0  0  0  0  0  0  0  0  0
    2.9240    0.4882    0.8622 C   0  0  0  0  0  0  0  0  0  0  0  0
    4.0728   -0.2008    0.1232 C   0  0  0  0  0  0  0  0  0  0  0  0
    5.4463    0.2187    0.6129 C   0  0  0  0  0  0  0  0  0  0  0  0
    5.6373    1.0820    1.4644 O   0  0  0  0  0  0  0  0  0  0  0  0
    6.4608   -0.4618   -0.0257 N   0  0  0  0  0  0  0  0  0  0  0  0
    2.0949    0.6178   -1.6227 H   0  0  0  0  0  0  0  0  0  0  0  0
    1.4242   -1.0086    0.3324 H   0  0  0  0  0  0  0  0  0  0  0  0
    3.0442    1.5743    0.7528 H   0  0  0  0  0  0  0  0  0  0  0  0
    3.0033    0.2798    1.9367 H   0  0  0  0  0  0  0  0  0  0  0  0
    4.0183    0.0659   -0.9395 H   0  0  0  0  0  0  0  0  0  0  0  0
    3.9809   -1.2906    0.1902 H   0  0  0  0  0  0  0  0  0  0  0  0
    6.2196   -1.1494   -0.7317 H   0  0  0  0  0  0  0  0  0  0  0  0
    7.4404   -0.2998    0.1850 H   0  0  0  0  0  0  0  0  0  0  0  0
    0.6624    2.0279    1.4801 N   0  0  0  0  0  0  0  0  0  0  0  0
   -0.2320    2.8410    2.2723 C   0  0  2  0  0  0  0  0  0  0  0  0
   -0.5225    2.0951    3.5679 C   0  0  0  0  0  0  0  0  0  0  0  0
   -0.3989    0.8775    3.6832 O   0  0  0  0  0  0  0  0  0  0  0  0
   -1.5181    3.1434    1.5191 C   0  0  0  0  0  0  0  0  0  0  0  0
    1.4896    2.4654    1.0850 H   0  0  0  0  0  0  0  0  0  0  0  0
    0.3015    3.7709    2.4972 H   0  0  0  0  0  0  0  0  0  0  0  0
   -2.0665    2.2237    1.2849 H   0  0  0  0  0  0  0  0  0  0  0  0
   -2.1825    3.7831    2.1094 H   0  0  0  0  0  0  0  0  0  0  0  0
   -1.3053    3.6534    0.5734 H   0  0  0  0  0  0  0  0  0  0  0  0
   -0.9774    2.9434    4.5677 N   0  0  0  0  0  0  0  0  0  0  0  0
   -1.3328    2.4739    5.8865 C   0  0  0  0  0  0  0  0  0  0  0  0
   -1.0309    3.9420    4.3897 H   0  0  0  0  0  0  0  0  0  0  0  0
   -2.4088    2.2476    5.9181 H   0  0  0  0  0  0  0  0  0  0  0  0
   -0.7599    1.5640    6.1185 H   0  0  0  0  0  0  0  0  0  0  0  0
   -1.1002    3.2526    6.6279 H   0  0  0  0  0  0  0  0  0  0  0  0
  1  3  1  0  0  0  0
  1  7  1  0  0  0  0
  1  2  2  0  0  0  0
 22 23  1  0  0  0  0
 23 25  1  0  0  0  0
 23 24  2  0  0  0  0
 35 36  1  0  0  0  0
 36 44  1  0  0  0  0
 36 37  2  0  0  0  0
  8  9  1  0  0  0  0
  9 17  1  0  0  0  0
  9 10  2  0  0  0  0
 18 19  1  0  0  0  0
 19 34  1  0  0  0  0
 19 20  2  0  0  0  0
 35 38  1  0  0  0  0
  8 11  1  0  0  0  0
 44 45  1  0  0  0  0
 21 22  1  0  0  0  0
 18 21  1  0  0  0  0
 34 35  1  0  0  0  0
  7  8  1  0  0  0  0
 17 18  1  0  0  0  0
  3  4  1  0  0  0  0
  3  5  1  0  0  0  0
  3  6  1  0  0  0  0
 38 41  1  0  0  0  0
 38 42  1  0  0  0  0
 38 43  1  0  0  0  0
 11 14  1  0  0  0  0
 11 15  1  0  0  0  0
 11 16  1  0  0  0  0
 45 47  1  0  0  0  0
 45 48  1  0  0  0  0
 45 49  1  0  0  0  0
 22 30  1  0  0  0  0
 22 31  1  0  0  0  0
 21 28  1  0  0  0  0
 21 29  1  0  0  0  0
 35 40  1  0  0  0  0
  8 13  1  0  0  0  0
 18 27  1  0  0  0  0
 25 32  1  0  0  0  0
 25 33  1  0  0  0  0
 44 46  1  0  0  0  0
  7 12  1  0  0  0  0
 34 39  1  0  0  0  0
 17 26  1  0  0  0  0
M  END
$$$$

  -OEChem-05262214473D

 49 48  0     1  0  0  0  0  0999 V2000
   -1.9833   -0.0509   -3.3423 C   0  0  0  0  0  0  0  0  0  0  0  0
   -1.6199   -1.0613   -2.7518 O   0  0  0  0  0  0  0  0  0  0  0  0
   -3.3243   -0.0235   -3.9975 C   0  0  0  0  0  0  0  0  0  0  0  0
   -3.2886   -0.3689   -5.0432 H   0  0  0  0  0  0  0  0  0  0  0  0
   -4.0503   -0.6845   -3.4973 H   0  0  0  0  0  0  0  0  0  0  0  0
   -3.8104    0.9645   -4.0351 H   0  0  0  0  0  0  0  0  0  0  0  0
   -1.2607    1.1231   -3.4768 N   0  0  0  0  0  0  0  0  0  0  0  0
    0.0536    1.3115   -2.9213 C   0  0  2  0  0  0  0  0  0  0  0  0
    0.0266    0.8315   -1.4761 C   0  0  0  0  0  0  0  0  0  0  0  0
   -1.0065    0.7530   -0.8146 O   0  0  0  0  0  0  0  0  0  0  0  0
    0.4852    2.7674   -3.0025 C   0  0  0  0  0  0  0  0  0  0  0  0
   -1.6809    1.8924   -3.9952 H   0  0  0  0  0  0  0  0  0  0  0  0
    0.7360    0.6822   -3.5030 H   0  0  0  0  0  0  0  0  0  0  0  0
   -0.1867    3.4133   -2.4256 H   0  0  0  0  0  0  0  0  0  0  0  0
    1.4966    2.9042   -2.6056 H   0  0  0  0  0  0  0  0  0  0  0  0
    0.4754    3.1196   -4.0397 H   0  0  0  0  0  0  0  0  0  0  0  0
    1.2978    0.5411   -0.9947 N   0  0  0  0  0  0  0  0  0  0  0  0
    1.5371    0.0807    0.3489 C   0  0  2  0  0  0  0  0  0  0  0  0
    0.4480    0.6793    1.2321 C   0  0  0  0  0  0  0  0  0  0  0  0
   -0.3670   -0.0061    1.8462 O   0  0  0  0  0  0  0  0  0  0  0  0
    2.9240    0.4882    0.8622 C   0  0  0  0  0  0  0  0  0  0  0  0
    4.0728   -0.2008    0.1232 C   0  0  0  0  0  0  0  0  0  0  0  0
    5.4463    0.2187    0.6129 C   0  0  0  0  0  0  0  0  0  0  0  0
    5.6373    1.0820    1.4644 O   0  0  0  0  0  0  0  0  0  0  0  0
    6.4608   -0.4618   -0.0257 N   0  0  0  0  0  0  0  0  0  0  0  0
    2.0949    0.6178   -1.6227 H   0  0  0  0  0  0  0  0  0  0  0  0
    1.4242   -1.0086    0.3324 H   0  0  0  0  0  0  0  0  0  0  0  0
    3.0442    1.5743    0.7528 H   0  0  0  0  0  0  0  0  0  0  0  0
    3.0033    0.2798    1.9367 H   0  0  0  0  0  0  0  0  0  0  0  0
    4.0183    0.0659   -0.9395 H   0  0  0  0  0  0  0  0  0  0  0  0
    3.9809   -1.2906    0.1902 H   0  0  0  0  0  0  0  0  0  0  0  0
    6.2196   -1.1494   -0.7317 H   0  0  0  0  0  0  0  0  0  0  0  0
    7.4404   -0.2998    0.1850 H   0  0  0  0  0  0  0  0  0  0  0  0
    0.4655    2.0669    1.2108 N   0  0  0  0  0  0  0  0  0  0  0  0
   -0.4744    2.8836    1.9445 C   0  0  2  0  0  0  0  0  0  0  0  0
   -0.5277    2.3680    3.3765 C   0  0  0  0  0  0  0  0  0  0  0  0
   -0.2019    1.2251    3.6905 O   0  0  0  0  0  0  0  0  0  0  0  0
   -1.8532    2.8517    1.3036 C   0  0  0  0  0  0  0  0  0  0  0  0
    1.1745    2.5318    0.6514 H   0  0  0  0  0  0  0  0  0  0  0  0
   -0.0784    3.9050    1.9379 H   0  0  0  0  0  0  0  0  0  0  0  0
   -2.2662    1.8364    1.3011 H   0  0  0  0  0  0  0  0  0  0  0  0
   -2.5569    3.4934    1.8441 H   0  0  0  0  0  0  0  0  0  0  0  0
   -1.8080    3.1947    0.2643 H   0  0  0  0  0  0  0  0  0  0  0  0
   -1.0228    3.3206    4.2561 N   0  0  0  0  0  0  0  0  0  0  0  0
   -1.1821    3.0689    5.6693 C   0  0  0  0  0  0  0  0  0  0  0  0
   -1.2503    4.2486    3.9114 H   0  0  0  0  0  0  0  0  0  0  0  0
   -2.2012    2.7041    5.8647 H   0  0  0  0  0  0  0  0  0  0  0  0
   -0.4533    2.3103    5.9909 H   0  0  0  0  0  0  0  0  0  0  0  0
   -1.0126    4.0006    6.2290 H   0  0  0  0  0  0  0  0  0  0  0  0
  1  3  1  0  0  0  0
  1  7  1  0  0  0  0
  1  2  2  0  0  0  0
 22 23  1  0  0  0  0
 23 25  1  0  0  0  0
 23 24  2  0  0  0  0
 35 36  1  0  0  0  0
 36 44  1  0  0  0  0
 36 37  2  0  0  0  0
  8  9  1  0  0  0  0
  9 17  1  0  0  0  0
  9 10  2  0  0  0  0
 18 19  1  0  0  0  0
 19 34  1  0  0  0  0
 19 20  2  0  0  0  0
 35 38  1  0  0  0  0
  8 11  1  0  0  0  0
 44 45  1  0  0  0  0
 21 22  1  0  0  0  0
 18 21  1  0  0  0  0
 34 35  1  0  0  0  0
  7  8  1  0  0  0  0
 17 18  1  0  0  0  0
  3  4  1  0  0  0  0
  3  5  1  0  0  0  0
  3  6  1  0  0  0  0
 38 41  1  0  0  0  0
 38 42  1  0  0  0  0
 38 43  1  0  0  0  0
 11 14  1  0  0  0  0
 11 15  1  0  0  0  0
 11 16  1  0  0  0  0
 45 47  1  0  0  0  0
 45 48  1  0  0  0  0
 45 49  1  0  0  0  0
 22 30  1  0  0  0  0
 22 31  1  0  0  0  0
 21 28  1  0  0  0  0
 21 29  1  0  0  0  0
 35 40  1  0  0  0  0
  8 13  1  0  0  0  0
 18 27  1  0  0  0  0
 25 32  1  0  0  0  0
 25 33  1  0  0  0  0
 44 46  1  0  0  0  0
  7 12  1  0  0  0  0
 34 39  1  0  0  0  0
 17 26  1  0  0  0  0
M  END
$$$$

  -OEChem-05262214473D

 49 48  0     1  0  0  0  0  0999 V2000
   -1.9833   -0.0509   -3.3423 C   0  0  0  0  0  0  0  0  0  0  0  0
   -1.6199   -1.0613   -2.7518 O   0  0  0  0  0  0  0  0  0  0  0  0
   -3.3243   -0.0235   -3.9975 C   0  0  0  0  0  0  0  0  0  0  0  0
   -3.2886   -0.3689   -5.0432 H   0  0  0  0  0  0  0  0  0  0  0  0
   -4.0503   -0.6845   -3.4973 H   0  0  0  0  0  0  0  0  0  0  0  0
   -3.8104    0.9645   -4.0351 H   0  0  0  0  0  0  0  0  0  0  0  0
   -1.2607    1.1231   -3.4768 N   0  0  0  0  0  0  0  0  0  0  0  0
    0.0536    1.3115   -2.9213 C   0  0  2  0  0  0  0  0  0  0  0  0
    0.0266    0.8315   -1.4761 C   0  0  0  0  0  0  0  0  0  0  0  0
   -1.0065    0.7530   -0.8146 O   0  0  0  0  0  0  0  0  0  0  0  0
    0.4852    2.7674   -3.0025 C   0  0  0  0  0  0  0  0  0  0  0  0
   -1.6809    1.8924   -3.9952 H   0  0  0  0  0  0  0  0  0  0  0  0
    0.7360    0.6822   -3.5030 H   0  0  0  0  0  0  0  0  0  0  0  0
   -0.1867    3.4133   -2.4256 H   0  0  0  0  0  0  0  0  0  0  0  0
    1.4966    2.9042   -2.6056 H   0  0  0  0  0  0  0  0  0  0  0  0
    0.4754    3.1196   -4.0397 H   0  0  0  0  0  0  0  0  0  0  0  0
    1.2978    0.5411   -0.9947 N   0  0  0  0  0  0  0  0  0  0  0  0
    1.5371    0.0807    0.3489 C   0  0  2  0  0  0  0  0  0  0  0  0
    0.4480    0.6793    1.2321 C   0  0  0  0  0  0  0  0  0  0  0  0
   -0.1903    0.0176    2.0480 O   0  0  0  0  0  0  0  0  0  0  0  0
    2.9240    0.4882    0.8622 C   0  0  0  0  0  0  0  0  0  0  0  0
    4.0728   -0.2008    0.1232 C   0  0  0  0  0  0  0  0  0  0  0  0
    5.4463    0.2187    0.6129 C   0  0  0  0  0  0  0  0  0  0  0  0
    5.6373    1.0820    1.4644 O   0  0  0  0  0  0  0  0  0  0  0  0
    6.4608   -0.4618   -0.0257 N   0  0  0  0  0  0  0  0  0  0  0  0
    2.0949    0.6178   -1.6227 H   0  0  0  0  0  0  0  0  0  0  0  0
    1.4242   -1.0086    0.3324 H   0  0  0  0  0  0  0  0  0  0  0  0
    3.0442    1.5743    0.7528 H   0  0  0  0  0  0  0  0  0  0  0  0
    3.0033    0.2798    1.9367 H   0  0  0  0  0  0  0  0  0  0  0  0
    4.0183    0.0659   -0.9395 H   0  0  0  0  0  0  0  0  0  0  0  0
    3.9809   -1.2906    0.1902 H   0  0  0  0  0  0  0  0  0  0  0  0
    6.2196   -1.1494   -0.7317 H   0  0  0  0  0  0  0  0  0  0  0  0
    7.4404   -0.2998    0.1850 H   0  0  0  0  0  0  0  0  0  0  0  0
    0.2420    2.0253    0.9634 N   0  0  0  0  0  0  0  0  0  0  0  0
   -0.7483    2.8278    1.6446 C   0  0  2  0  0  0  0  0  0  0  0  0
   -0.5931    2.5955    3.1417 C   0  0  0  0  0  0  0  0  0  0  0  0
   -0.0629    1.5917    3.6134 O   0  0  0  0  0  0  0  0  0  0  0  0
   -2.1550    2.4798    1.1834 C   0  0  0  0  0  0  0  0  0  0  0  0
    0.8161    2.4685    0.2523 H   0  0  0  0  0  0  0  0  0  0  0  0
   -0.5223    3.8741    1.4114 H   0  0  0  0  0  0  0  0  0  0  0  0
   -2.3995    1.4353    1.4086 H   0  0  0  0  0  0  0  0  0  0  0  0
   -2.9020    3.1083    1.6794 H   0  0  0  0  0  0  0  0  0  0  0  0
   -2.2562    2.6191    0.1017 H   0  0  0  0  0  0  0  0  0  0  0  0
   -1.1549    3.6206    3.8899 N   0  0  0  0  0  0  0  0  0  0  0  0
   -1.1477    3.6260    5.3342 C   0  0  0  0  0  0  0  0  0  0  0  0
   -1.5568    4.4235    3.4150 H   0  0  0  0  0  0  0  0  0  0  0  0
   -2.0746    3.1662    5.7077 H   0  0  0  0  0  0  0  0  0  0  0  0
   -0.2819    3.0535    5.6985 H   0  0  0  0  0  0  0  0  0  0  0  0
   -1.0807    4.6624    5.6965 H   0  0  0  0  0  0  0  0  0  0  0  0
  1  3  1  0  0  0  0
  1  7  1  0  0  0  0
  1  2  2  0  0  0  0
 22 23  1  0  0  0  0
 23 25  1  0  0  0  0
 23 24  2  0  0  0  0
 35 36  1  0  0  0  0
 36 44  1  0  0  0  0
 36 37  2  0  0  0  0
  8  9  1  0  0  0  0
  9 17  1  0  0  0  0
  9 10  2  0  0  0  0
 18 19  1  0  0  0  0
 19 34  1  0  0  0  0
 19 20  2  0  0  0  0
 35 38  1  0  0  0  0
  8 11  1  0  0  0  0
 44 45  1  0  0  0  0
 21 22  1  0  0  0  0
 18 21  1  0  0  0  0
 34 35  1  0  0  0  0
  7  8  1  0  0  0  0
 17 18  1  0  0  0  0
  3  4  1  0  0  0  0
  3  5  1  0  0  0  0
  3  6  1  0  0  0  0
 38 41  1  0  0  0  0
 38 42  1  0  0  0  0
 38 43  1  0  0  0  0
 11 14  1  0  0  0  0
 11 15  1  0  0  0  0
 11 16  1  0  0  0  0
 45 47  1  0  0  0  0
 45 48  1  0  0  0  0
 45 49  1  0  0  0  0
 22 30  1  0  0  0  0
 22 31  1  0  0  0  0
 21 28  1  0  0  0  0
 21 29  1  0  0  0  0
 35 40  1  0  0  0  0
  8 13  1  0  0  0  0
 18 27  1  0  0  0  0
 25 32  1  0  0  0  0
 25 33  1  0  0  0  0
 44 46  1  0  0  0  0
  7 12  1  0  0  0  0
 34 39  1  0  0  0  0
 17 26  1  0  0  0  0
M  END
$$$$

  -OEChem-05262214473D

 49 48  0     1  0  0  0  0  0999 V2000
   -1.9833   -0.0509   -3.3423 C   0  0  0  0  0  0  0  0  0  0  0  0
   -1.6199   -1.0613   -2.7518 O   0  0  0  0  0  0  0  0  0  0  0  0
   -3.3243   -0.0235   -3.9975 C   0  0  0  0  0  0  0  0  0  0  0  0
   -3.2886   -0.3689   -5.0432 H   0  0  0  0  0  0  0  0  0  0  0  0
   -4.0503   -0.6845   -3.4973 H   0  0  0  0  0  0  0  0  0  0  0  0
   -3.8104    0.9645   -4.0351 H   0  0  0  0  0  0  0  0  0  0  0  0
   -1.2607    1.1231   -3.4768 N   0  0  0  0  0  0  0  0  0  0  0  0
    0.0536    1.3115   -2.9213 C   0  0  2  0  0  0  0  0  0  0  0  0
    0.0266    0.8315   -1.4761 C   0  0  0  0  0  0  0  0  0  0  0  0
   -1.0065    0.7530   -0.8146 O   0  0  0  0  0  0  0  0  0  0  0  0
    0.4852    2.7674   -3.0025 C   0  0  0  0  0  0  0  0  0  0  0  0
   -1.6809    1.8924   -3.9952 H   0  0  0  0  0  0  0  0  0  0  0  0
    0.7360    0.6822   -3.5030 H   0  0  0  0  0  0  0  0  0  0  0  0
   -0.1867    3.4133   -2.4256 H   0  0  0  0  0  0  0  0  0  0  0  0
    1.4966    2.9042   -2.6056 H   0  0  0  0  0  0  0  0  0  0  0  0
    0.4754    3.1196   -4.0397 H   0  0  0  0  0  0  0  0  0  0  0  0
    1.2978    0.5411   -0.9947 N   0  0  0  0  0  0  0  0  0  0  0  0
    1.5371    0.0807    0.3489 C   0  0  2  0  0  0  0  0  0  0  0  0
    0.4480    0.6793    1.2321 C   0  0  0  0  0  0  0  0  0  0  0  0
   -0.0028    0.1042    2.2206 O   0  0  0  0  0  0  0  0  0  0  0  0
    2.9240    0.4882    0.8622 C   0  0  0  0  0  0  0  0  0  0  0  0
    4.0728   -0.2008    0.1232 C   0  0  0  0  0  0  0  0  0  0  0  0
    5.4463    0.2187    0.6129 C   0  0  0  0  0  0  0  0  0  0  0  0
    5.6373    1.0820    1.4644 O   0  0  0  0  0  0  0  0  0  0  0  0
    6.4608   -0.4618   -0.0257 N   0  0  0  0  0  0  0  0  0  0  0  0
    2.0949    0.6178   -1.6227 H   0  0  0  0  0  0  0  0  0  0  0  0
    1.4242   -1.0086    0.3324 H   0  0  0  0  0  0  0  0  0  0  0  0
    3.0442    1.5743    0.7528 H   0  0  0  0  0  0  0  0  0  0  0  0
    3.0033    0.2798    1.9367 H   0  0  0  0  0  0  0  0  0  0  0  0
    4.0183    0.0659   -0.9395 H   0  0  0  0  0  0  0  0  0  0  0  0
    3.9809   -1.2906    0.1902 H   0  0  0  0  0  0  0  0  0  0  0  0
    6.2196   -1.1494   -0.7317 H   0  0  0  0  0  0  0  0  0  0  0  0
    7.4404   -0.2998    0.1850 H   0  0  0  0  0  0  0  0  0  0  0  0
    0.0072    1.9058    0.7549 N   0  0  0  0  0  0  0  0  0  0  0  0
   -1.0349    2.6774    1.3931 C   0  0  2  0  0  0  0  0  0  0  0  0
   -0.7143    2.7620    2.8795 C   0  0  0  0  0  0  0  0  0  0  0  0
    0.0084    1.9524    3.4569 O   0  0  0  0  0  0  0  0  0  0  0  0
   -2.4030    2.0531    1.1668 C   0  0  0  0  0  0  0  0  0  0  0  0
    0.4388    2.2799   -0.0850 H   0  0  0  0  0  0  0  0  0  0  0  0
   -1.0000    3.6803    0.9537 H   0  0  0  0  0  0  0  0  0  0  0  0
   -2.4571    1.0478    1.6002 H   0  0  0  0  0  0  0  0  0  0  0  0
   -3.1944    2.6542    1.6266 H   0  0  0  0  0  0  0  0  0  0  0  0
   -2.6194    1.9658    0.0966 H   0  0  0  0  0  0  0  0  0  0  0  0
   -1.3647    3.8228    3.4942 N   0  0  0  0  0  0  0  0  0  0  0  0
   -1.2320    4.1072    4.9039 C   0  0  0  0  0  0  0  0  0  0  0  0
   -1.9294    4.4547    2.9343 H   0  0  0  0  0  0  0  0  0  0  0  0
   -2.0375    3.6026    5.4577 H   0  0  0  0  0  0  0  0  0  0  0  0
   -0.2575    3.7430    5.2613 H   0  0  0  0  0  0  0  0  0  0  0  0
   -1.2998    5.1930    5.0668 H   0  0  0  0  0  0  0  0  0  0  0  0
  1  3  1  0  0  0  0
  1  7  1  0  0  0  0
  1  2  2  0  0  0  0
 22 23  1  0  0  0  0
 23 25  1  0  0  0  0
 23 24  2  0  0  0  0
 35 36  1  0  0  0  0
 36 44  1  0  0  0  0
 36 37  2  0  0  0  0
  8  9  1  0  0  0  0
  9 17  1  0  0  0  0
  9 10  2  0  0  0  0
 18 19  1  0  0  0  0
 19 34  1  0  0  0  0
 19 20  2  0  0  0  0
 35 38  1  0  0  0  0
  8 11  1  0  0  0  0
 44 45  1  0  0  0  0
 21 22  1  0  0  0  0
 18 21  1  0  0  0  0
 34 35  1  0  0  0  0
  7  8  1  0  0  0  0
 17 18  1  0  0  0  0
  3  4  1  0  0  0  0
  3  5  1  0  0  0  0
  3  6  1  0  0  0  0
 38 41  1  0  0  0  0
 38 42  1  0  0  0  0
 38 43  1  0  0  0  0
 11 14  1  0  0  0  0
 11 15  1  0  0  0  0
 11 16  1  0  0  0  0
 45 47  1  0  0  0  0
 45 48  1  0  0  0  0
 45 49  1  0  0  0  0
 22 30  1  0  0  0  0
 22 31  1  0  0  0  0
 21 28  1  0  0  0  0
 21 29  1  0  0  0  0
 35 40  1  0  0  0  0
  8 13  1  0  0  0  0
 18 27  1  0  0  0  0
 25 32  1  0  0  0  0
 25 33  1  0  0  0  0
 44 46  1  0  0  0  0
  7 12  1  0  0  0  0
 34 39  1  0  0  0  0
 17 26  1  0  0  0  0
M  END
$$$$

  -OEChem-05262214473D

 49 48  0     1  0  0  0  0  0999 V2000
   -1.9833   -0.0509   -3.3423 C   0  0  0  0  0  0  0  0  0  0  0  0
   -1.6199   -1.0613   -2.7518 O   0  0  0  0  0  0  0  0  0  0  0  0
   -3.3243   -0.0235   -3.9975 C   0  0  0  0  0  0  0  0  0  0  0  0
   -3.2886   -0.3689   -5.0432 H   0  0  0  0  0  0  0  0  0  0  0  0
   -4.0503   -0.6845   -3.4973 H   0  0  0  0  0  0  0  0  0  0  0  0
   -3.8104    0.9645   -4.0351 H   0  0  0  0  0  0  0  0  0  0  0  0
   -1.2607    1.1231   -3.4768 N   0  0  0  0  0  0  0  0  0  0  0  0
    0.0536    1.3115   -2.9213 C   0  0  2  0  0  0  0  0  0  0  0  0
    0.0266    0.8315   -1.4761 C   0  0  0  0  0  0  0  0  0  0  0  0
   -1.0065    0.7530   -0.8146 O   0  0  0  0  0  0  0  0  0  0  0  0
    0.4852    2.7674   -3.0025 C   0  0  0  0  0  0  0  0  0  0  0  0
   -1.6809    1.8924   -3.9952 H   0  0  0  0  0  0  0  0  0  0  0  0
    0.7360    0.6822   -3.5030 H   0  0  0  0  0  0  0  0  0  0  0  0
   -0.1867    3.4133   -2.4256 H   0  0  0  0  0  0  0  0  0  0  0  0
    1.4966    2.9042   -2.6056 H   0  0  0  0  0  0  0  0  0  0  0  0
    0.4754    3.1196   -4.0397 H   0  0  0  0  0  0  0  0  0  0  0  0
    1.2978    0.5411   -0.9947 N   0  0  0  0  0  0  0  0  0  0  0  0
    1.5371    0.0807    0.3489 C   0  0  2  0  0  0  0  0  0  0  0  0
    0.4480    0.6793    1.2321 C   0  0  0  0  0  0  0  0  0  0  0  0
    0.1830    0.2480    2.3522 O   0  0  0  0  0  0  0  0  0  0  0  0
    2.9240    0.4882    0.8622 C   0  0  0  0  0  0  0  0  0  0  0  0
    4.0728   -0.2008    0.1232 C   0  0  0  0  0  0  0  0  0  0  0  0
    5.4463    0.2187    0.6129 C   0  0  0  0  0  0  0  0  0  0  0  0
    5.6373    1.0820    1.4644 O   0  0  0  0  0  0  0  0  0  0  0  0
    6.4608   -0.4618   -0.0257 N   0  0  0  0  0  0  0  0  0  0  0  0
    2.0949    0.6178   -1.6227 H   0  0  0  0  0  0  0  0  0  0  0  0
    1.4242   -1.0086    0.3324 H   0  0  0  0  0  0  0  0  0  0  0  0
    3.0442    1.5743    0.7528 H   0  0  0  0  0  0  0  0  0  0  0  0
    3.0033    0.2798    1.9367 H   0  0  0  0  0  0  0  0  0  0  0  0
    4.0183    0.0659   -0.9395 H   0  0  0  0  0  0  0  0  0  0  0  0
    3.9809   -1.2906    0.1902 H   0  0  0  0  0  0  0  0  0  0  0  0
    6.2196   -1.1494   -0.7317 H   0  0  0  0  0  0  0  0  0  0  0  0
    7.4404   -0.2998    0.1850 H   0  0  0  0  0  0  0  0  0  0  0  0
   -0.2228    1.7167    0.5994 N   0  0  0  0  0  0  0  0  0  0  0  0
   -1.3148    2.4427    1.2070 C   0  0  2  0  0  0  0  0  0  0  0  0
   -0.8829    2.8562    2.6077 C   0  0  0  0  0  0  0  0  0  0  0  0
    0.0074    2.2826    3.2319 O   0  0  0  0  0  0  0  0  0  0  0  0
   -2.5803    1.6008    1.2548 C   0  0  0  0  0  0  0  0  0  0  0  0
    0.0684    1.9787   -0.3377 H   0  0  0  0  0  0  0  0  0  0  0  0
   -1.4788    3.3369    0.5959 H   0  0  0  0  0  0  0  0  0  0  0  0
   -2.4352    0.7003    1.8627 H   0  0  0  0  0  0  0  0  0  0  0  0
   -3.4141    2.1620    1.6893 H   0  0  0  0  0  0  0  0  0  0  0  0
   -2.8728    1.2794    0.2493 H   0  0  0  0  0  0  0  0  0  0  0  0
   -1.6378    3.9135    3.0958 N   0  0  0  0  0  0  0  0  0  0  0  0
   -1.4294    4.4800    4.4080 C   0  0  0  0  0  0  0  0  0  0  0  0
   -2.3430    4.3400    2.5020 H   0  0  0  0  0  0  0  0  0  0  0  0
   -2.0924    3.9835    5.1318 H   0  0  0  0  0  0  0  0  0  0  0  0
   -0.3818    4.3318    4.7090 H   0  0  0  0  0  0  0  0  0  0  0  0
   -1.6549    5.5563    4.3826 H   0  0  0  0  0  0  0  0  0  0  0  0
  1  3  1  0  0  0  0
  1  7  1  0  0  0  0
  1  2  2  0  0  0  0
 22 23  1  0  0  0  0
 23 25  1  0  0  0  0
 23 24  2  0  0  0  0
 35 36  1  0  0  0  0
 36 44  1  0  0  0  0
 36 37  2  0  0  0  0
  8  9  1  0  0  0  0
  9 17  1  0  0  0  0
  9 10  2  0  0  0  0
 18 19  1  0  0  0  0
 19 34  1  0  0  0  0
 19 20  2  0  0  0  0
 35 38  1  0  0  0  0
  8 11  1  0  0  0  0
 44 45  1  0  0  0  0
 21 22  1  0  0  0  0
 18 21  1  0  0  0  0
 34 35  1  0  0  0  0
  7  8  1  0  0  0  0
 17 18  1  0  0  0  0
  3  4  1  0  0  0  0
  3  5  1  0  0  0  0
  3  6  1  0  0  0  0
 38 41  1  0  0  0  0
 38 42  1  0  0  0  0
 38 43  1  0  0  0  0
 11 14  1  0  0  0  0
 11 15  1  0  0  0  0
 11 16  1  0  0  0  0
 45 47  1  0  0  0  0
 45 48  1  0  0  0  0
 45 49  1  0  0  0  0
 22 30  1  0  0  0  0
 22 31  1  0  0  0  0
 21 28  1  0  0  0  0
 21 29  1  0  0  0  0
 35 40  1  0  0  0  0
  8 13  1  0  0  0  0
 18 27  1  0  0  0  0
 25 32  1  0  0  0  0
 25 33  1  0  0  0  0
 44 46  1  0  0  0  0
  7 12  1  0  0  0  0
 34 39  1  0  0  0  0
 17 26  1  0  0  0  0
M  END
$$$$

  -OEChem-05262214473D

 49 48  0     1  0  0  0  0  0999 V2000
   -1.9833   -0.0509   -3.3423 C   0  0  0  0  0  0  0  0  0  0  0  0
   -1.6199   -1.0613   -2.7518 O   0  0  0  0  0  0  0  0  0  0  0  0
   -3.3243   -0.0235   -3.9975 C   0  0  0  0  0  0  0  0  0  0  0  0
   -3.2886   -0.3689   -5.0432 H   0  0  0  0  0  0  0  0  0  0  0  0
   -4.0503   -0.6845   -3.4973 H   0  0  0  0  0  0  0  0  0  0  0  0
   -3.8104    0.9645   -4.0351 H   0  0  0  0  0  0  0  0  0  0  0  0
   -1.2607    1.1231   -3.4768 N   0  0  0  0  0  0  0  0  0  0  0  0
    0.0536    1.3115   -2.9213 C   0  0  2  0  0  0  0  0  0  0  0  0
    0.0266    0.8315   -1.4761 C   0  0  0  0  0  0  0  0  0  0  0  0
   -1.0065    0.7530   -0.8146 O   0  0  0  0  0  0  0  0  0  0  0  0
    0.4852    2.7674   -3.0025 C   0  0  0  0  0  0  0  0  0  0  0  0
   -1.6809    1.8924   -3.9952 H   0  0  0  0  0  0  0  0  0  0  0  0
    0.7360    0.6822   -3.5030 H   0  0  0  0  0  0  0  0  0  0  0  0
   -0.1867    3.4133   -2.4256 H   0  0  0  0  0  0  0  0  0  0  0  0
    1.4966    2.9042   -2.6056 H   0  0  0  0  0  0  0  0  0  0  0  0
    0.4754    3.1196   -4.0397 H   0  0  0  0  0  0  0  0  0  0  0  0
    1.2978    0.5411   -0.9947 N   0  0  0  0  0  0  0  0  0  0  0  0
    1.5371    0.0807    0.3489 C   0  0  2  0  0  0  0  0  0  0  0  0
    0.4480    0.6793    1.2321 C   0  0  0  0  0  0  0  0  0  0  0  0
    0.3542    0.4390    2.4340 O   0  0  0  0  0  0  0  0  0  0  0  0
    2.9240    0.4882    0.8622 C   0  0  0  0  0  0  0  0  0  0  0  0
    4.0728   -0.2008    0.1232 C   0  0  0  0  0  0  0  0  0  0  0  0
    5.4463    0.2187    0.6129 C   0  0  0  0  0  0  0  0  0  0  0  0
    5.6373    1.0820    1.4644 O   0  0  0  0  0  0  0  0  0  0  0  0
    6.4608   -0.4618   -0.0257 N   0  0  0  0  0  0  0  0  0  0  0  0
    2.0949    0.6178   -1.6227 H   0  0  0  0  0  0  0  0  0  0  0  0
    1.4242   -1.0086    0.3324 H   0  0  0  0  0  0  0  0  0  0  0  0
    3.0442    1.5743    0.7528 H   0  0  0  0  0  0  0  0  0  0  0  0
    3.0033    0.2798    1.9367 H   0  0  0  0  0  0  0  0  0  0  0  0
    4.0183    0.0659   -0.9395 H   0  0  0  0  0  0  0  0  0  0  0  0
    3.9809   -1.2906    0.1902 H   0  0  0  0  0  0  0  0  0  0  0  0
    6.2196   -1.1494   -0.7317 H   0  0  0  0  0  0  0  0  0  0  0  0
    7.4404   -0.2998    0.1850 H   0  0  0  0  0  0  0  0  0  0  0  0
   -0.4324    1.4707    0.5076 N   0  0  0  0  0  0  0  0  0  0  0  0
   -1.5688    2.1396    1.0992 C   0  0  2  0  0  0  0  0  0  0  0  0
   -1.0875    2.8716    2.3450 C   0  0  0  0  0  0  0  0  0  0  0  0
   -0.0660    2.5598    2.9536 O   0  0  0  0  0  0  0  0  0  0  0  0
   -2.6747    1.1535    1.4414 C   0  0  0  0  0  0  0  0  0  0  0  0
   -0.2699    1.5856   -0.4884 H   0  0  0  0  0  0  0  0  0  0  0  0
   -1.9262    2.8673    0.3625 H   0  0  0  0  0  0  0  0  0  0  0  0
   -2.3353    0.4164    2.1783 H   0  0  0  0  0  0  0  0  0  0  0  0
   -3.5461    1.6652    1.8632 H   0  0  0  0  0  0  0  0  0  0  0  0
   -2.9991    0.6066    0.5495 H   0  0  0  0  0  0  0  0  0  0  0  0
   -1.9557    3.8865    2.7221 N   0  0  0  0  0  0  0  0  0  0  0  0
   -1.7263    4.7187    3.8800 C   0  0  0  0  0  0  0  0  0  0  0  0
   -2.7691    4.0874    2.1477 H   0  0  0  0  0  0  0  0  0  0  0  0
   -2.2358    4.2829    4.7521 H   0  0  0  0  0  0  0  0  0  0  0  0
   -0.6462    4.7798    4.0793 H   0  0  0  0  0  0  0  0  0  0  0  0
   -2.1220    5.7274    3.6907 H   0  0  0  0  0  0  0  0  0  0  0  0
  1  3  1  0  0  0  0
  1  7  1  0  0  0  0
  1  2  2  0  0  0  0
 22 23  1  0  0  0  0
 23 25  1  0  0  0  0
 23 24  2  0  0  0  0
 35 36  1  0  0  0  0
 36 44  1  0  0  0  0
 36 37  2  0  0  0  0
  8  9  1  0  0  0  0
  9 17  1  0  0  0  0
  9 10  2  0  0  0  0
 18 19  1  0  0  0  0
 19 34  1  0  0  0  0
 19 20  2  0  0  0  0
 35 38  1  0  0  0  0
  8 11  1  0  0  0  0
 44 45  1  0  0  0  0
 21 22  1  0  0  0  0
 18 21  1  0  0  0  0
 34 35  1  0  0  0  0
  7  8  1  0  0  0  0
 17 18  1  0  0  0  0
  3  4  1  0  0  0  0
  3  5  1  0  0  0  0
  3  6  1  0  0  0  0
 38 41  1  0  0  0  0
 38 42  1  0  0  0  0
 38 43  1  0  0  0  0
 11 14  1  0  0  0  0
 11 15  1  0  0  0  0
 11 16  1  0  0  0  0
 45 47  1  0  0  0  0
 45 48  1  0  0  0  0
 45 49  1  0  0  0  0
 22 30  1  0  0  0  0
 22 31  1  0  0  0  0
 21 28  1  0  0  0  0
 21 29  1  0  0  0  0
 35 40  1  0  0  0  0
  8 13  1  0  0  0  0
 18 27  1  0  0  0  0
 25 32  1  0  0  0  0
 25 33  1  0  0  0  0
 44 46  1  0  0  0  0
  7 12  1  0  0  0  0
 34 39  1  0  0  0  0
 17 26  1  0  0  0  0
M  END
$$$$

  -OEChem-05262214473D

 49 48  0     1  0  0  0  0  0999 V2000
   -1.9833   -0.0509   -3.3423 C   0  0  0  0  0  0  0  0  0  0  0  0
   -1.6199   -1.0613   -2.7518 O   0  0  0  0  0  0  0  0  0  0  0  0
   -3.3243   -0.0235   -3.9975 C   0  0  0  0  0  0  0  0  0  0  0  0
   -3.2886   -0.3689   -5.0432 H   0  0  0  0  0  0  0  0  0  0  0  0
   -4.0503   -0.6845   -3.4973 H   0  0  0  0  0  0  0  0  0  0  0  0
   -3.8104    0.9645   -4.0351 H   0  0  0  0  0  0  0  0  0  0  0  0
   -1.2607    1.1231   -3.4768 N   0  0  0  0  0  0  0  0  0  0  0  0
    0.0536    1.3115   -2.9213 C   0  0  2  0  0  0  0  0  0  0  0  0
    0.0266    0.8315   -1.4761 C   0  0  0  0  0  0  0  0  0  0  0  0
   -1.0065    0.7530   -0.8146 O   0  0  0  0  0  0  0  0  0  0  0  0
    0.4852    2.7674   -3.0025 C   0  0  0  0  0  0  0  0  0  0  0  0
   -1.6809    1.8924   -3.9952 H   0  0  0  0  0  0  0  0  0  0  0  0
    0.7360    0.6822   -3.5030 H   0  0  0  0  0  0  0  0  0  0  0  0
   -0.1867    3.4133   -2.4256 H   0  0  0  0  0  0  0  0  0  0  0  0
    1.4966    2.9042   -2.6056 H   0  0  0  0  0  0  0  0  0  0  0  0
    0.4754    3.1196   -4.0397 H   0  0  0  0  0  0  0  0  0  0  0  0
    1.2978    0.5411   -0.9947 N   0  0  0  0  0  0  0  0  0  0  0  0
    1.5371    0.0807    0.3489 C   0  0  2  0  0  0  0  0  0  0  0  0
    0.4480    0.6793    1.2321 C   0  0  0  0  0  0  0  0  0  0  0  0
    0.4993    0.6643    2.4602 O   0  0  0  0  0  0  0  0  0  0  0  0
    2.9240    0.4882    0.8622 C   0  0  0  0  0  0  0  0  0  0  0  0
    4.0728   -0.2008    0.1232 C   0  0  0  0  0  0  0  0  0  0  0  0
    5.4463    0.2187    0.6129 C   0  0  0  0  0  0  0  0  0  0  0  0
    5.6373    1.0820    1.4644 O   0  0  0  0  0  0  0  0  0  0  0  0
    6.4608   -0.4618   -0.0257 N   0  0  0  0  0  0  0  0  0  0  0  0
    2.0949    0.6178   -1.6227 H   0  0  0  0  0  0  0  0  0  0  0  0
    1.4242   -1.0086    0.3324 H   0  0  0  0  0  0  0  0  0  0  0  0
    3.0442    1.5743    0.7528 H   0  0  0  0  0  0  0  0  0  0  0  0
    3.0033    0.2798    1.9367 H   0  0  0  0  0  0  0  0  0  0  0  0
    4.0183    0.0659   -0.9395 H   0  0  0  0  0  0  0  0  0  0  0  0
    3.9809   -1.2906    0.1902 H   0  0  0  0  0  0  0  0  0  0  0  0
    6.2196   -1.1494   -0.7317 H   0  0  0  0  0  0  0  0  0  0  0  0
    7.4404   -0.2998    0.1850 H   0  0  0  0  0  0  0  0  0  0  0  0
   -0.6073    1.1848    0.4857 N   0  0  0  0  0  0  0  0  0  0  0  0
   -1.7797    1.7888    1.0769 C   0  0  2  0  0  0  0  0  0  0  0  0
   -1.3141    2.8073    2.1091 C   0  0  0  0  0  0  0  0  0  0  0  0
   -0.2067    2.7651    2.6409 O   0  0  0  0  0  0  0  0  0  0  0  0
   -2.6800    0.7418    1.7140 C   0  0  0  0  0  0  0  0  0  0  0  0
   -0.5530    1.1273   -0.5270 H   0  0  0  0  0  0  0  0  0  0  0  0
   -2.3116    2.3034    0.2693 H   0  0  0  0  0  0  0  0  0  0  0  0
   -2.1641    0.2156    2.5255 H   0  0  0  0  0  0  0  0  0  0  0  0
   -3.5815    1.1977    2.1364 H   0  0  0  0  0  0  0  0  0  0  0  0
   -2.9897   -0.0067    0.9766 H   0  0  0  0  0  0  0  0  0  0  0  0
   -2.2968    3.7437    2.3983 N   0  0  0  0  0  0  0  0  0  0  0  0
   -2.1026    4.8071    3.3561 C   0  0  0  0  0  0  0  0  0  0  0  0
   -3.1788    3.7139    1.8955 H   0  0  0  0  0  0  0  0  0  0  0  0
   -2.4577    4.4804    4.3446 H   0  0  0  0  0  0  0  0  0  0  0  0
   -1.0328    5.0565    3.4150 H   0  0  0  0  0  0  0  0  0  0  0  0
   -2.6691    5.6948    3.0381 H   0  0  0  0  0  0  0  0  0  0  0  0
  1  3  1  0  0  0  0
  1  7  1  0  0  0  0
  1  2  2  0  0  0  0
 22 23  1  0  0  0  0
 23 25  1  0  0  0  0
 23 24  2  0  0  0  0
 35 36  1  0  0  0  0
 36 44  1  0  0  0  0
 36 37  2  0  0  0  0
  8  9  1  0  0  0  0
  9 17  1  0  0  0  0
  9 10  2  0  0  0  0
 18 19  1  0  0  0  0
 19 34  1  0  0  0  0
 19 20  2  0  0  0  0
 35 38  1  0  0  0  0
  8 11  1  0  0  0  0
 44 45  1  0  0  0  0
 21 22  1  0  0  0  0
 18 21  1  0  0  0  0
 34 35  1  0  0  0  0
  7  8  1  0  0  0  0
 17 18  1  0  0  0  0
  3  4  1  0  0  0  0
  3  5  1  0  0  0  0
  3  6  1  0  0  0  0
 38 41  1  0  0  0  0
 38 42  1  0  0  0  0
 38 43  1  0  0  0  0
 11 14  1  0  0  0  0
 11 15  1  0  0  0  0
 11 16  1  0  0  0  0
 45 47  1  0  0  0  0
 45 48  1  0  0  0  0
 45 49  1  0  0  0  0
 22 30  1  0  0  0  0
 22 31  1  0  0  0  0
 21 28  1  0  0  0  0
 21 29  1  0  0  0  0
 35 40  1  0  0  0  0
  8 13  1  0  0  0  0
 18 27  1  0  0  0  0
 25 32  1  0  0  0  0
 25 33  1  0  0  0  0
 44 46  1  0  0  0  0
  7 12  1  0  0  0  0
 34 39  1  0  0  0  0
 17 26  1  0  0  0  0
M  END
$$$$

  -OEChem-05262214473D

 49 48  0     1  0  0  0  0  0999 V2000
   -1.9833   -0.0509   -3.3423 C   0  0  0  0  0  0  0  0  0  0  0  0
   -1.6199   -1.0613   -2.7518 O   0  0  0  0  0  0  0  0  0  0  0  0
   -3.3243   -0.0235   -3.9975 C   0  0  0  0  0  0  0  0  0  0  0  0
   -3.2886   -0.3689   -5.0432 H   0  0  0  0  0  0  0  0  0  0  0  0
   -4.0503   -0.6845   -3.4973 H   0  0  0  0  0  0  0  0  0  0  0  0
   -3.8104    0.9645   -4.0351 H   0  0  0  0  0  0  0  0  0  0  0  0
   -1.2607    1.1231   -3.4768 N   0  0  0  0  0  0  0  0  0  0  0  0
    0.0536    1.3115   -2.9213 C   0  0  2  0  0  0  0  0  0  0  0  0
    0.0266    0.8315   -1.4761 C   0  0  0  0  0  0  0  0  0  0  0  0
   -1.0065    0.7530   -0.8146 O   0  0  0  0  0  0  0  0  0  0  0  0
    0.4852    2.7674   -3.0025 C   0  0  0  0  0  0  0  0  0  0  0  0
   -1.6809    1.8924   -3.9952 H   0  0  0  0  0  0  0  0  0  0  0  0
    0.7360    0.6822   -3.5030 H   0  0  0  0  0  0  0  0  0  0  0  0
   -0.1867    3.4133   -2.4256 H   0  0  0  0  0  0  0  0  0  0  0  0
    1.4966    2.9042   -2.6056 H   0  0  0  0  0  0  0  0  0  0  0  0
    0.4754    3.1196   -4.0397 H   0  0  0  0  0  0  0  0  0  0  0  0
    1.2978    0.5411   -0.9947 N   0  0  0  0  0  0  0  0  0  0  0  0
    1.5371    0.0807    0.3489 C   0  0  2  0  0  0  0  0  0  0  0  0
    0.4480    0.6793    1.2321 C   0  0  0  0  0  0  0  0  0  0  0  0
    0.6083    0.9085    2.4291 O   0  0  0  0  0  0  0  0  0  0  0  0
    2.9240    0.4882    0.8622 C   0  0  0  0  0  0  0  0  0  0  0  0
    4.0728   -0.2008    0.1232 C   0  0  0  0  0  0  0  0  0  0  0  0
    5.4463    0.2187    0.6129 C   0  0  0  0  0  0  0  0  0  0  0  0
    5.6373    1.0820    1.4644 O   0  0  0  0  0  0  0  0  0  0  0  0
    6.4608   -0.4618   -0.0257 N   0  0  0  0  0  0  0  0  0  0  0  0
    2.0949    0.6178   -1.6227 H   0  0  0  0  0  0  0  0  0  0  0  0
    1.4242   -1.0086    0.3324 H   0  0  0  0  0  0  0  0  0  0  0  0
    3.0442    1.5743    0.7528 H   0  0  0  0  0  0  0  0  0  0  0  0
    3.0033    0.2798    1.9367 H   0  0  0  0  0  0  0  0  0  0  0  0
    4.0183    0.0659   -0.9395 H   0  0  0  0  0  0  0  0  0  0  0  0
    3.9809   -1.2906    0.1902 H   0  0  0  0  0  0  0  0  0  0  0  0
    6.2196   -1.1494   -0.7317 H   0  0  0  0  0  0  0  0  0  0  0  0
    7.4404   -0.2998    0.1850 H   0  0  0  0  0  0  0  0  0  0  0  0
   -0.7357    0.8782    0.5351 N   0  0  0  0  0  0  0  0  0  0  0  0
   -1.9330    1.4142    1.1416 C   0  0  2  0  0  0  0  0  0  0  0  0
   -1.5474    2.6675    1.9162 C   0  0  0  0  0  0  0  0  0  0  0  0
   -0.4051    2.8845    2.3153 O   0  0  0  0  0  0  0  0  0  0  0  0
   -2.5956    0.3937    2.0540 C   0  0  0  0  0  0  0  0  0  0  0  0
   -0.7617    0.6350   -0.4507 H   0  0  0  0  0  0  0  0  0  0  0  0
   -2.6089    1.6838    0.3227 H   0  0  0  0  0  0  0  0  0  0  0  0
   -1.9334    0.1114    2.8806 H   0  0  0  0  0  0  0  0  0  0  0  0
   -3.5178    0.7913    2.4903 H   0  0  0  0  0  0  0  0  0  0  0  0
   -2.8453   -0.5187    1.5017 H   0  0  0  0  0  0  0  0  0  0  0  0
   -2.6376    3.4947    2.1467 N   0  0  0  0  0  0  0  0  0  0  0  0
   -2.5325    4.7393    2.8720 C   0  0  0  0  0  0  0  0  0  0  0  0
   -3.5443    3.2452    1.7626 H   0  0  0  0  0  0  0  0  0  0  0  0
   -2.7431    4.5625    3.9370 H   0  0  0  0  0  0  0  0  0  0  0  0
   -1.5152    5.1430    2.7616 H   0  0  0  0  0  0  0  0  0  0  0  0
   -3.2589    5.4606    2.4695 H   0  0  0  0  0  0  0  0  0  0  0  0
  1  3  1  0  0  0  0
  1  7  1  0  0  0  0
  1  2  2  0  0  0  0
 22 23  1  0  0  0  0
 23 25  1  0  0  0  0
 23 24  2  0  0  0  0
 35 36  1  0  0  0  0
 36 44  1  0  0  0  0
 36 37  2  0  0  0  0
  8  9  1  0  0  0  0
  9 17  1  0  0  0  0
  9 10  2  0  0  0  0
 18 19  1  0  0  0  0
 19 34  1  0  0  0  0
 19 20  2  0  0  0  0
 35 38  1  0  0  0  0
  8 11  1  0  0  0  0
 44 45  1  0  0  0  0
 21 22  1  0  0  0  0
 18 21  1  0  0  0  0
 34 35  1  0  0  0  0
  7  8  1  0  0  0  0
 17 18  1  0  0  0  0
  3  4  1  0  0  0  0
  3  5  1  0  0  0  0
  3  6  1  0  0  0  0
 38 41  1  0  0  0  0
 38 42  1  0  0  0  0
 38 43  1  0  0  0  0
 11 14  1  0  0  0  0
 11 15  1  0  0  0  0
 11 16  1  0  0  0  0
 45 47  1  0  0  0  0
 45 48  1  0  0  0  0
 45 49  1  0  0  0  0
 22 30  1  0  0  0  0
 22 31  1  0  0  0  0
 21 28  1  0  0  0  0
 21 29  1  0  0  0  0
 35 40  1  0  0  0  0
  8 13  1  0  0  0  0
 18 27  1  0  0  0  0
 25 32  1  0  0  0  0
 25 33  1  0  0  0  0
 44 46  1  0  0  0  0
  7 12  1  0  0  0  0
 34 39  1  0  0  0  0
 17 26  1  0  0  0  0
M  END
$$$$

  -OEChem-05262214473D

 49 48  0     1  0  0  0  0  0999 V2000
   -1.9833   -0.0509   -3.3423 C   0  0  0  0  0  0  0  0  0  0  0  0
   -1.6199   -1.0613   -2.7518 O   0  0  0  0  0  0  0  0  0  0  0  0
   -3.3243   -0.0235   -3.9975 C   0  0  0  0  0  0  0  0  0  0  0  0
   -3.2886   -0.3689   -5.0432 H   0  0  0  0  0  0  0  0  0  0  0  0
   -4.0503   -0.6845   -3.4973 H   0  0  0  0  0  0  0  0  0  0  0  0
   -3.8104    0.9645   -4.0351 H   0  0  0  0  0  0  0  0  0  0  0  0
   -1.2607    1.1231   -3.4768 N   0  0  0  0  0  0  0  0  0  0  0  0
    0.0536    1.3115   -2.9213 C   0  0  2  0  0  0  0  0  0  0  0  0
    0.0266    0.8315   -1.4761 C   0  0  0  0  0  0  0  0  0  0  0  0
   -1.0065    0.7530   -0.8146 O   0  0  0  0  0  0  0  0  0  0  0  0
    0.4852    2.7674   -3.0025 C   0  0  0  0  0  0  0  0  0  0  0  0
   -1.6809    1.8924   -3.9952 H   0  0  0  0  0  0  0  0  0  0  0  0
    0.7360    0.6822   -3.5030 H   0  0  0  0  0  0  0  0  0  0  0  0
   -0.1867    3.4133   -2.4256 H   0  0  0  0  0  0  0  0  0  0  0  0
    1.4966    2.9042   -2.6056 H   0  0  0  0  0  0  0  0  0  0  0  0
    0.4754    3.1196   -4.0397 H   0  0  0  0  0  0  0  0  0  0  0  0
    1.2978    0.5411   -0.9947 N   0  0  0  0  0  0  0  0  0  0  0  0
    1.5371    0.0807    0.3489 C   0  0  2  0  0  0  0  0  0  0  0  0
    0.4480    0.6793    1.2321 C   0  0  0  0  0  0  0  0  0  0  0  0
    0.6738    1.1549    2.3428 O   0  0  0  0  0  0  0  0  0  0  0  0
    2.9240    0.4882    0.8622 C   0  0  0  0  0  0  0  0  0  0  0  0
    4.0728   -0.2008    0.1232 C   0  0  0  0  0  0  0  0  0  0  0  0
    5.4463    0.2187    0.6129 C   0  0  0  0  0  0  0  0  0  0  0  0
    5.6373    1.0820    1.4644 O   0  0  0  0  0  0  0  0  0  0  0  0
    6.4608   -0.4618   -0.0257 N   0  0  0  0  0  0  0  0  0  0  0  0
    2.0949    0.6178   -1.6227 H   0  0  0  0  0  0  0  0  0  0  0  0
    1.4242   -1.0086    0.3324 H   0  0  0  0  0  0  0  0  0  0  0  0
    3.0442    1.5743    0.7528 H   0  0  0  0  0  0  0  0  0  0  0  0
    3.0033    0.2798    1.9367 H   0  0  0  0  0  0  0  0  0  0  0  0
    4.0183    0.0659   -0.9395 H   0  0  0  0  0  0  0  0  0  0  0  0
    3.9809   -1.2906    0.1902 H   0  0  0  0  0  0  0  0  0  0  0  0
    6.2196   -1.1494   -0.7317 H   0  0  0  0  0  0  0  0  0  0  0  0
    7.4404   -0.2998    0.1850 H   0  0  0  0  0  0  0  0  0  0  0  0
   -0.8087    0.5721    0.6526 N   0  0  0  0  0  0  0  0  0  0  0  0
   -2.0184    1.0413    1.2890 C   0  0  2  0  0  0  0  0  0  0  0  0
   -1.7713    2.4619    1.7794 C   0  0  0  0  0  0  0  0  0  0  0  0
   -0.6478    2.9098    1.9989 O   0  0  0  0  0  0  0  0  0  0  0  0
   -2.4273    0.1330    2.4381 C   0  0  0  0  0  0  0  0  0  0  0  0
   -0.8817    0.1423   -0.2648 H   0  0  0  0  0  0  0  0  0  0  0  0
   -2.7977    1.0505    0.5191 H   0  0  0  0  0  0  0  0  0  0  0  0
   -1.6588    0.1111    3.2194 H   0  0  0  0  0  0  0  0  0  0  0  0
   -3.3594    0.4738    2.9008 H   0  0  0  0  0  0  0  0  0  0  0  0
   -2.5757   -0.8945    2.0889 H   0  0  0  0  0  0  0  0  0  0  0  0
   -2.9552    3.1566    1.9843 N   0  0  0  0  0  0  0  0  0  0  0  0
   -2.9867    4.5198    2.4605 C   0  0  0  0  0  0  0  0  0  0  0  0
   -3.8405    2.7130    1.7580 H   0  0  0  0  0  0  0  0  0  0  0  0
   -3.0724    4.5237    3.5571 H   0  0  0  0  0  0  0  0  0  0  0  0
   -2.0605    5.0334    2.1634 H   0  0  0  0  0  0  0  0  0  0  0  0
   -3.8513    5.0408    2.0234 H   0  0  0  0  0  0  0  0  0  0  0  0
  1  3  1  0  0  0  0
  1  7  1  0  0  0  0
  1  2  2  0  0  0  0
 22 23  1  0  0  0  0
 23 25  1  0  0  0  0
 23 24  2  0  0  0  0
 35 36  1  0  0  0  0
 36 44  1  0  0  0  0
 36 37  2  0  0  0  0
  8  9  1  0  0  0  0
  9 17  1  0  0  0  0
  9 10  2  0  0  0  0
 18 19  1  0  0  0  0
 19 34  1  0  0  0  0
 19 20  2  0  0  0  0
 35 38  1  0  0  0  0
  8 11  1  0  0  0  0
 44 45  1  0  0  0  0
 21 22  1  0  0  0  0
 18 21  1  0  0  0  0
 34 35  1  0  0  0  0
  7  8  1  0  0  0  0
 17 18  1  0  0  0  0
  3  4  1  0  0  0  0
  3  5  1  0  0  0  0
  3  6  1  0  0  0  0
 38 41  1  0  0  0  0
 38 42  1  0  0  0  0
 38 43  1  0  0  0  0
 11 14  1  0  0  0  0
 11 15  1  0  0  0  0
 11 16  1  0  0  0  0
 45 47  1  0  0  0  0
 45 48  1  0  0  0  0
 45 49  1  0  0  0  0
 22 30  1  0  0  0  0
 22 31  1  0  0  0  0
 21 28  1  0  0  0  0
 21 29  1  0  0  0  0
 35 40  1  0  0  0  0
  8 13  1  0  0  0  0
 18 27  1  0  0  0  0
 25 32  1  0  0  0  0
 25 33  1  0  0  0  0
 44 46  1  0  0  0  0
  7 12  1  0  0  0  0
 34 39  1  0  0  0  0
 17 26  1  0  0  0  0
M  END
$$$$

  -OEChem-05262214473D

 49 48  0     1  0  0  0  0  0999 V2000
   -1.9833   -0.0509   -3.3423 C   0  0  0  0  0  0  0  0  0  0  0  0
   -1.6199   -1.0613   -2.7518 O   0  0  0  0  0  0  0  0  0  0  0  0
   -3.3243   -0.0235   -3.9975 C   0  0  0  0  0  0  0  0  0  0  0  0
   -3.2886   -0.3689   -5.0432 H   0  0  0  0  0  0  0  0  0  0  0  0
   -4.0503   -0.6845   -3.4973 H   0  0  0  0  0  0  0  0  0  0  0  0
   -3.8104    0.9645   -4.0351 H   0  0  0  0  0  0  0  0  0  0  0  0
   -1.2607    1.1231   -3.4768 N   0  0  0  0  0  0  0  0  0  0  0  0
    0.0536    1.3115   -2.9213 C   0  0  2  0  0  0  0  0  0  0  0  0
    0.0266    0.8315   -1.4761 C   0  0  0  0  0  0  0  0  0  0  0  0
   -1.0065    0.7530   -0.8146 O   0  0  0  0  0  0  0  0  0  0  0  0
    0.4852    2.7674   -3.0025 C   0  0  0  0  0  0  0  0  0  0  0  0
   -1.6809    1.8924   -3.9952 H   0  0  0  0  0  0  0  0  0  0  0  0
    0.7360    0.6822   -3.5030 H   0  0  0  0  0  0  0  0  0  0  0  0
   -0.1867    3.4133   -2.4256 H   0  0  0  0  0  0  0  0  0  0  0  0
    1.4966    2.9042   -2.6056 H   0  0  0  0  0  0  0  0  0  0  0  0
    0.4754    3.1196   -4.0397 H   0  0  0  0  0  0  0  0  0  0  0  0
    1.2978    0.5411   -0.9947 N   0  0  0  0  0  0  0  0  0  0  0  0
    1.5371    0.0807    0.3489 C   0  0  2  0  0  0  0  0  0  0  0  0
    0.4480    0.6793    1.2321 C   0  0  0  0  0  0  0  0  0  0  0  0
    0.6913    1.3869    2.2073 O   0  0  0  0  0  0  0  0  0  0  0  0
    2.9240    0.4882    0.8622 C   0  0  0  0  0  0  0  0  0  0  0  0
    4.0728   -0.2008    0.1232 C   0  0  0  0  0  0  0  0  0  0  0  0
    5.4463    0.2187    0.6129 C   0  0  0  0  0  0  0  0  0  0  0  0
    5.6373    1.0820    1.4644 O   0  0  0  0  0  0  0  0  0  0  0  0
    6.4608   -0.4618   -0.0257 N   0  0  0  0  0  0  0  0  0  0  0  0
    2.0949    0.6178   -1.6227 H   0  0  0  0  0  0  0  0  0  0  0  0
    1.4242   -1.0086    0.3324 H   0  0  0  0  0  0  0  0  0  0  0  0
    3.0442    1.5743    0.7528 H   0  0  0  0  0  0  0  0  0  0  0  0
    3.0033    0.2798    1.9367 H   0  0  0  0  0  0  0  0  0  0  0  0
    4.0183    0.0659   -0.9395 H   0  0  0  0  0  0  0  0  0  0  0  0
    3.9809   -1.2906    0.1902 H   0  0  0  0  0  0  0  0  0  0  0  0
    6.2196   -1.1494   -0.7317 H   0  0  0  0  0  0  0  0  0  0  0  0
    7.4404   -0.2998    0.1850 H   0  0  0  0  0  0  0  0  0  0  0  0
   -0.8213    0.2871    0.8301 N   0  0  0  0  0  0  0  0  0  0  0  0
   -2.0301    0.6956    1.5089 C   0  0  2  0  0  0  0  0  0  0  0  0
   -1.9707    2.2044    1.7080 C   0  0  0  0  0  0  0  0  0  0  0  0
   -0.9182    2.8394    1.7132 O   0  0  0  0  0  0  0  0  0  0  0  0
   -2.1867   -0.0225    2.8402 C   0  0  0  0  0  0  0  0  0  0  0  0
   -0.9049   -0.3172    0.0181 H   0  0  0  0  0  0  0  0  0  0  0  0
   -2.8651    0.4469    0.8450 H   0  0  0  0  0  0  0  0  0  0  0  0
   -1.3592    0.2145    3.5188 H   0  0  0  0  0  0  0  0  0  0  0  0
   -3.1171    0.2667    3.3400 H   0  0  0  0  0  0  0  0  0  0  0  0
   -2.1993   -1.1085    2.6981 H   0  0  0  0  0  0  0  0  0  0  0  0
   -3.2277    2.7524    1.9222 N   0  0  0  0  0  0  0  0  0  0  0  0
   -3.4345    4.1636    2.1498 C   0  0  0  0  0  0  0  0  0  0  0  0
   -4.0472    2.1537    1.8820 H   0  0  0  0  0  0  0  0  0  0  0  0
   -3.4234    4.3666    3.2308 H   0  0  0  0  0  0  0  0  0  0  0  0
   -2.6316    4.7352    1.6612 H   0  0  0  0  0  0  0  0  0  0  0  0
   -4.4060    4.4640    1.7303 H   0  0  0  0  0  0  0  0  0  0  0  0
  1  3  1  0  0  0  0
  1  7  1  0  0  0  0
  1  2  2  0  0  0  0
 22 23  1  0  0  0  0
 23 25  1  0  0  0  0
 23 24  2  0  0  0  0
 35 36  1  0  0  0  0
 36 44  1  0  0  0  0
 36 37  2  0  0  0  0
  8  9  1  0  0  0  0
  9 17  1  0  0  0  0
  9 10  2  0  0  0  0
 18 19  1  0  0  0  0
 19 34  1  0  0  0  0
 19 20  2  0  0  0  0
 35 38  1  0  0  0  0
  8 11  1  0  0  0  0
 44 45  1  0  0  0  0
 21 22  1  0  0  0  0
 18 21  1  0  0  0  0
 34 35  1  0  0  0  0
  7  8  1  0  0  0  0
 17 18  1  0  0  0  0
  3  4  1  0  0  0  0
  3  5  1  0  0  0  0
  3  6  1  0  0  0  0
 38 41  1  0  0  0  0
 38 42  1  0  0  0  0
 38 43  1  0  0  0  0
 11 14  1  0  0  0  0
 11 15  1  0  0  0  0
 11 16  1  0  0  0  0
 45 47  1  0  0  0  0
 45 48  1  0  0  0  0
 45 49  1  0  0  0  0
 22 30  1  0  0  0  0
 22 31  1  0  0  0  0
 21 28  1  0  0  0  0
 21 29  1  0  0  0  0
 35 40  1  0  0  0  0
  8 13  1  0  0  0  0
 18 27  1  0  0  0  0
 25 32  1  0  0  0  0
 25 33  1  0  0  0  0
 44 46  1  0  0  0  0
  7 12  1  0  0  0  0
 34 39  1  0  0  0  0
 17 26  1  0  0  0  0
M  END
$$$$

  -OEChem-05262214473D

 49 48  0     1  0  0  0  0  0999 V2000
   -1.9833   -0.0509   -3.3423 C   0  0  0  0  0  0  0  0  0  0  0  0
   -1.6199   -1.0613   -2.7518 O   0  0  0  0  0  0  0  0  0  0  0  0
   -3.3243   -0.0235   -3.9975 C   0  0  0  0  0  0  0  0  0  0  0  0
   -3.2886   -0.3689   -5.0432 H   0  0  0  0  0  0  0  0  0  0  0  0
   -4.0503   -0.6845   -3.4973 H   0  0  0  0  0  0  0  0  0  0  0  0
   -3.8104    0.9645   -4.0351 H   0  0  0  0  0  0  0  0  0  0  0  0
   -1.2607    1.1231   -3.4768 N   0  0  0  0  0  0  0  0  0  0  0  0
    0.0536    1.3115   -2.9213 C   0  0  2  0  0  0  0  0  0  0  0  0
    0.0266    0.8315   -1.4761 C   0  0  0  0  0  0  0  0  0  0  0  0
   -1.0065    0.7530   -0.8146 O   0  0  0  0  0  0  0  0  0  0  0  0
    0.4852    2.7674   -3.0025 C   0  0  0  0  0  0  0  0  0  0  0  0
   -1.6809    1.8924   -3.9952 H   0  0  0  0  0  0  0  0  0  0  0  0
    0.7360    0.6822   -3.5030 H   0  0  0  0  0  0  0  0  0  0  0  0
   -0.1867    3.4133   -2.4256 H   0  0  0  0  0  0  0  0  0  0  0  0
    1.4966    2.9042   -2.6056 H   0  0  0  0  0  0  0  0  0  0  0  0
    0.4754    3.1196   -4.0397 H   0  0  0  0  0  0  0  0  0  0  0  0
    1.2978    0.5411   -0.9947 N   0  0  0  0  0  0  0  0  0  0  0  0
    1.5371    0.0807    0.3489 C   0  0  2  0  0  0  0  0  0  0  0  0
    0.4480    0.6793    1.2321 C   0  0  0  0  0  0  0  0  0  0  0  0
    0.6597    1.5885    2.0317 O   0  0  0  0  0  0  0  0  0  0  0  0
    2.9240    0.4882    0.8622 C   0  0  0  0  0  0  0  0  0  0  0  0
    4.0728   -0.2008    0.1232 C   0  0  0  0  0  0  0  0  0  0  0  0
    5.4463    0.2187    0.6129 C   0  0  0  0  0  0  0  0  0  0  0  0
    5.6373    1.0820    1.4644 O   0  0  0  0  0  0  0  0  0  0  0  0
    6.4608   -0.4618   -0.0257 N   0  0  0  0  0  0  0  0  0  0  0  0
    2.0949    0.6178   -1.6227 H   0  0  0  0  0  0  0  0  0  0  0  0
    1.4242   -1.0086    0.3324 H   0  0  0  0  0  0  0  0  0  0  0  0
    3.0442    1.5743    0.7528 H   0  0  0  0  0  0  0  0  0  0  0  0
    3.0033    0.2798    1.9367 H   0  0  0  0  0  0  0  0  0  0  0  0
    4.0183    0.0659   -0.9395 H   0  0  0  0  0  0  0  0  0  0  0  0
    3.9809   -1.2906    0.1902 H   0  0  0  0  0  0  0  0  0  0  0  0
    6.2196   -1.1494   -0.7317 H   0  0  0  0  0  0  0  0  0  0  0  0
    7.4404   -0.2998    0.1850 H   0  0  0  0  0  0  0  0  0  0  0  0
   -0.7728    0.0428    1.0555 N   0  0  0  0  0  0  0  0  0  0  0  0
   -1.9671    0.4006    1.7865 C   0  0  2  0  0  0  0  0  0  0  0  0
   -2.1319    1.9126    1.7069 C   0  0  0  0  0  0  0  0  0  0  0  0
   -1.1978    2.6781    1.4777 O   0  0  0  0  0  0  0  0  0  0  0  0
   -1.8901   -0.0623    3.2330 C   0  0  0  0  0  0  0  0  0  0  0  0
   -0.8296   -0.7123    0.3786 H   0  0  0  0  0  0  0  0  0  0  0  0
   -2.8067   -0.0861    1.2783 H   0  0  0  0  0  0  0  0  0  0  0  0
   -1.0548    0.4147    3.7585 H   0  0  0  0  0  0  0  0  0  0  0  0
   -2.8074    0.1842    3.7779 H   0  0  0  0  0  0  0  0  0  0  0  0
   -1.7417   -1.1462    3.2879 H   0  0  0  0  0  0  0  0  0  0  0  0
   -3.4366    2.3096    1.9646 N   0  0  0  0  0  0  0  0  0  0  0  0
   -3.8451    3.6949    1.9610 C   0  0  0  0  0  0  0  0  0  0  0  0
   -4.1505    1.6054    2.1263 H   0  0  0  0  0  0  0  0  0  0  0  0
   -3.7720    4.1020    2.9804 H   0  0  0  0  0  0  0  0  0  0  0  0
   -3.1895    4.2687    1.2894 H   0  0  0  0  0  0  0  0  0  0  0  0
   -4.8850    3.7695    1.6103 H   0  0  0  0  0  0  0  0  0  0  0  0
  1  3  1  0  0  0  0
  1  7  1  0  0  0  0
  1  2  2  0  0  0  0
 22 23  1  0  0  0  0
 23 25  1  0  0  0  0
 23 24  2  0  0  0  0
 35 36  1  0  0  0  0
 36 44  1  0  0  0  0
 36 37  2  0  0  0  0
  8  9  1  0  0  0  0
  9 17  1  0  0  0  0
  9 10  2  0  0  0  0
 18 19  1  0  0  0  0
 19 34  1  0  0  0  0
 19 20  2  0  0  0  0
 35 38  1  0  0  0  0
  8 11  1  0  0  0  0
 44 45  1  0  0  0  0
 21 22  1  0  0  0  0
 18 21  1  0  0  0  0
 34 35  1  0  0  0  0
  7  8  1  0  0  0  0
 17 18  1  0  0  0  0
  3  4  1  0  0  0  0
  3  5  1  0  0  0  0
  3  6  1  0  0  0  0
 38 41  1  0  0  0  0
 38 42  1  0  0  0  0
 38 43  1  0  0  0  0
 11 14  1  0  0  0  0
 11 15  1  0  0  0  0
 11 16  1  0  0  0  0
 45 47  1  0  0  0  0
 45 48  1  0  0  0  0
 45 49  1  0  0  0  0
 22 30  1  0  0  0  0
 22 31  1  0  0  0  0
 21 28  1  0  0  0  0
 21 29  1  0  0  0  0
 35 40  1  0  0  0  0
  8 13  1  0  0  0  0
 18 27  1  0  0  0  0
 25 32  1  0  0  0  0
 25 33  1  0  0  0  0
 44 46  1  0  0  0  0
  7 12  1  0  0  0  0
 34 39  1  0  0  0  0
 17 26  1  0  0  0  0
M  END
$$$$

  -OEChem-05262214473D

 49 48  0     1  0  0  0  0  0999 V2000
   -1.9833   -0.0509   -3.3423 C   0  0  0  0  0  0  0  0  0  0  0  0
   -1.6199   -1.0613   -2.7518 O   0  0  0  0  0  0  0  0  0  0  0  0
   -3.3243   -0.0235   -3.9975 C   0  0  0  0  0  0  0  0  0  0  0  0
   -3.2886   -0.3689   -5.0432 H   0  0  0  0  0  0  0  0  0  0  0  0
   -4.0503   -0.6845   -3.4973 H   0  0  0  0  0  0  0  0  0  0  0  0
   -3.8104    0.9645   -4.0351 H   0  0  0  0  0  0  0  0  0  0  0  0
   -1.2607    1.1231   -3.4768 N   0  0  0  0  0  0  0  0  0  0  0  0
    0.0536    1.3115   -2.9213 C   0  0  2  0  0  0  0  0  0  0  0  0
    0.0266    0.8315   -1.4761 C   0  0  0  0  0  0  0  0  0  0  0  0
   -1.0065    0.7530   -0.8146 O   0  0  0  0  0  0  0  0  0  0  0  0
    0.4852    2.7674   -3.0025 C   0  0  0  0  0  0  0  0  0  0  0  0
   -1.6809    1.8924   -3.9952 H   0  0  0  0  0  0  0  0  0  0  0  0
    0.7360    0.6822   -3.5030 H   0  0  0  0  0  0  0  0  0  0  0  0
   -0.1867    3.4133   -2.4256 H   0  0  0  0  0  0  0  0  0  0  0  0
    1.4966    2.9042   -2.6056 H   0  0  0  0  0  0  0  0  0  0  0  0
    0.4754    3.1196   -4.0397 H   0  0  0  0  0  0  0  0  0  0  0  0
    1.2978    0.5411   -0.9947 N   0  0  0  0  0  0  0  0  0  0  0  0
    1.5371    0.0807    0.3489 C   0  0  2  0  0  0  0  0  0  0  0  0
    0.4480    0.6793    1.2321 C   0  0  0  0  0  0  0  0  0  0  0  0
    0.5812    1.7460    1.8280 O   0  0  0  0  0  0  0  0  0  0  0  0
    2.9240    0.4882    0.8622 C   0  0  0  0  0  0  0  0  0  0  0  0
    4.0728   -0.2008    0.1232 C   0  0  0  0  0  0  0  0  0  0  0  0
    5.4463    0.2187    0.6129 C   0  0  0  0  0  0  0  0  0  0  0  0
    5.6373    1.0820    1.4644 O   0  0  0  0  0  0  0  0  0  0  0  0
    6.4608   -0.4618   -0.0257 N   0  0  0  0  0  0  0  0  0  0  0  0
    2.0949    0.6178   -1.6227 H   0  0  0  0  0  0  0  0  0  0  0  0
    1.4242   -1.0086    0.3324 H   0  0  0  0  0  0  0  0  0  0  0  0
    3.0442    1.5743    0.7528 H   0  0  0  0  0  0  0  0  0  0  0  0
    3.0033    0.2798    1.9367 H   0  0  0  0  0  0  0  0  0  0  0  0
    4.0183    0.0659   -0.9395 H   0  0  0  0  0  0  0  0  0  0  0  0
    3.9809   -1.2906    0.1902 H   0  0  0  0  0  0  0  0  0  0  0  0
    6.2196   -1.1494   -0.7317 H   0  0  0  0  0  0  0  0  0  0  0  0
    7.4404   -0.2998    0.1850 H   0  0  0  0  0  0  0  0  0  0  0  0
   -0.6664   -0.1442    1.3135 N   0  0  0  0  0  0  0  0  0  0  0  0
   -1.8339    0.1765    2.1027 C   0  0  2  0  0  0  0  0  0  0  0  0
   -2.2440    1.6064    1.7762 C   0  0  0  0  0  0  0  0  0  0  0  0
   -1.4676    2.4367    1.3085 O   0  0  0  0  0  0  0  0  0  0  0  0
   -1.5577    0.0163    3.5896 C   0  0  0  0  0  0  0  0  0  0  0  0
   -0.6610   -1.0159    0.7923 H   0  0  0  0  0  0  0  0  0  0  0  0
   -2.6262   -0.5120    1.7894 H   0  0  0  0  0  0  0  0  0  0  0  0
   -0.7665    0.6981    3.9220 H   0  0  0  0  0  0  0  0  0  0  0  0
   -2.4513    0.2319    4.1846 H   0  0  0  0  0  0  0  0  0  0  0  0
   -1.2341   -1.0049    3.8181 H   0  0  0  0  0  0  0  0  0  0  0  0
   -3.5677    1.8585    2.1087 N   0  0  0  0  0  0  0  0  0  0  0  0
   -4.1906    3.1458    1.9071 C   0  0  0  0  0  0  0  0  0  0  0  0
   -4.1432    1.1055    2.4741 H   0  0  0  0  0  0  0  0  0  0  0  0
   -4.0944    3.7477    2.8228 H   0  0  0  0  0  0  0  0  0  0  0  0
   -3.6963    3.6656    1.0732 H   0  0  0  0  0  0  0  0  0  0  0  0
   -5.2558    3.0047    1.6714 H   0  0  0  0  0  0  0  0  0  0  0  0
  1  3  1  0  0  0  0
  1  7  1  0  0  0  0
  1  2  2  0  0  0  0
 22 23  1  0  0  0  0
 23 25  1  0  0  0  0
 23 24  2  0  0  0  0
 35 36  1  0  0  0  0
 36 44  1  0  0  0  0
 36 37  2  0  0  0  0
  8  9  1  0  0  0  0
  9 17  1  0  0  0  0
  9 10  2  0  0  0  0
 18 19  1  0  0  0  0
 19 34  1  0  0  0  0
 19 20  2  0  0  0  0
 35 38  1  0  0  0  0
  8 11  1  0  0  0  0
 44 45  1  0  0  0  0
 21 22  1  0  0  0  0
 18 21  1  0  0  0  0
 34 35  1  0  0  0  0
  7  8  1  0  0  0  0
 17 18  1  0  0  0  0
  3  4  1  0  0  0  0
  3  5  1  0  0  0  0
  3  6  1  0  0  0  0
 38 41  1  0  0  0  0
 38 42  1  0  0  0  0
 38 43  1  0  0  0  0
 11 14  1  0  0  0  0
 11 15  1  0  0  0  0
 11 16  1  0  0  0  0
 45 47  1  0  0  0  0
 45 48  1  0  0  0  0
 45 49  1  0  0  0  0
 22 30  1  0  0  0  0
 22 31  1  0  0  0  0
 21 28  1  0  0  0  0
 21 29  1  0  0  0  0
 35 40  1  0  0  0  0
  8 13  1  0  0  0  0
 18 27  1  0  0  0  0
 25 32  1  0  0  0  0
 25 33  1  0  0  0  0
 44 46  1  0  0  0  0
  7 12  1  0  0  0  0
 34 39  1  0  0  0  0
 17 26  1  0  0  0  0
M  END
$$$$

  -OEChem-05262214473D

 49 48  0     1  0  0  0  0  0999 V2000
   -1.9833   -0.0509   -3.3423 C   0  0  0  0  0  0  0  0  0  0  0  0
   -1.6199   -1.0613   -2.7518 O   0  0  0  0  0  0  0  0  0  0  0  0
   -3.3243   -0.0235   -3.9975 C   0  0  0  0  0  0  0  0  0  0  0  0
   -3.2886   -0.3689   -5.0432 H   0  0  0  0  0  0  0  0  0  0  0  0
   -4.0503   -0.6845   -3.4973 H   0  0  0  0  0  0  0  0  0  0  0  0
   -3.8104    0.9645   -4.0351 H   0  0  0  0  0  0  0  0  0  0  0  0
   -1.2607    1.1231   -3.4768 N   0  0  0  0  0  0  0  0  0  0  0  0
    0.0536    1.3115   -2.9213 C   0  0  2  0  0  0  0  0  0  0  0  0
    0.0266    0.8315   -1.4761 C   0  0  0  0  0  0  0  0  0  0  0  0
   -1.0065    0.7530   -0.8146 O   0  0  0  0  0  0  0  0  0  0  0  0
    0.4852    2.7674   -3.0025 C   0  0  0  0  0  0  0  0  0  0  0  0
   -1.6809    1.8924   -3.9952 H   0  0  0  0  0  0  0  0  0  0  0  0
    0.7360    0.6822   -3.5030 H   0  0  0  0  0  0  0  0  0  0  0  0
   -0.1867    3.4133   -2.4256 H   0  0  0  0  0  0  0  0  0  0  0  0
    1.4966    2.9042   -2.6056 H   0  0  0  0  0  0  0  0  0  0  0  0
    0.4754    3.1196   -4.0397 H   0  0  0  0  0  0  0  0  0  0  0  0
    1.2978    0.5411   -0.9947 N   0  0  0  0  0  0  0  0  0  0  0  0
    1.5371    0.0807    0.3489 C   0  0  2  0  0  0  0  0  0  0  0  0
    0.4480    0.6793    1.2321 C   0  0  0  0  0  0  0  0  0  0  0  0
    0.4610    1.8488    1.6102 O   0  0  0  0  0  0  0  0  0  0  0  0
    2.9240    0.4882    0.8622 C   0  0  0  0  0  0  0  0  0  0  0  0
    4.0728   -0.2008    0.1232 C   0  0  0  0  0  0  0  0  0  0  0  0
    5.4463    0.2187    0.6129 C   0  0  0  0  0  0  0  0  0  0  0  0
    5.6373    1.0820    1.4644 O   0  0  0  0  0  0  0  0  0  0  0  0
    6.4608   -0.4618   -0.0257 N   0  0  0  0  0  0  0  0  0  0  0  0
    2.0949    0.6178   -1.6227 H   0  0  0  0  0  0  0  0  0  0  0  0
    1.4242   -1.0086    0.3324 H   0  0  0  0  0  0  0  0  0  0  0  0
    3.0442    1.5743    0.7528 H   0  0  0  0  0  0  0  0  0  0  0  0
    3.0033    0.2798    1.9367 H   0  0  0  0  0  0  0  0  0  0  0  0
    4.0183    0.0659   -0.9395 H   0  0  0  0  0  0  0  0  0  0  0  0
    3.9809   -1.2906    0.1902 H   0  0  0  0  0  0  0  0  0  0  0  0
    6.2196   -1.1494   -0.7317 H   0  0  0  0  0  0  0  0  0  0  0  0
    7.4404   -0.2998    0.1850 H   0  0  0  0  0  0  0  0  0  0  0  0
   -0.5093   -0.2612    1.5865 N   0  0  0  0  0  0  0  0  0  0  0  0
   -1.6394    0.0384    2.4361 C   0  0  2  0  0  0  0  0  0  0  0  0
   -2.2994    1.3066    1.9111 C   0  0  0  0  0  0  0  0  0  0  0  0
   -1.7093    2.1319    1.2171 O   0  0  0  0  0  0  0  0  0  0  0  0
   -1.2122    0.2080    3.8857 C   0  0  0  0  0  0  0  0  0  0  0  0
   -0.4107   -1.2075    1.2308 H   0  0  0  0  0  0  0  0  0  0  0  0
   -2.3362   -0.8018    2.3435 H   0  0  0  0  0  0  0  0  0  0  0  0
   -0.5138    1.0453    3.9983 H   0  0  0  0  0  0  0  0  0  0  0  0
   -2.0732    0.4066    4.5325 H   0  0  0  0  0  0  0  0  0  0  0  0
   -0.7112   -0.6944    4.2525 H   0  0  0  0  0  0  0  0  0  0  0  0
   -3.6120    1.4296    2.3446 N   0  0  0  0  0  0  0  0  0  0  0  0
   -4.4475    2.5536    1.9916 C   0  0  0  0  0  0  0  0  0  0  0  0
   -4.0259    0.6879    2.9017 H   0  0  0  0  0  0  0  0  0  0  0  0
   -4.3688    3.3281    2.7688 H   0  0  0  0  0  0  0  0  0  0  0  0
   -4.1173    2.9672    1.0273 H   0  0  0  0  0  0  0  0  0  0  0  0
   -5.4930    2.2217    1.9095 H   0  0  0  0  0  0  0  0  0  0  0  0
  1  3  1  0  0  0  0
  1  7  1  0  0  0  0
  1  2  2  0  0  0  0
 22 23  1  0  0  0  0
 23 25  1  0  0  0  0
 23 24  2  0  0  0  0
 35 36  1  0  0  0  0
 36 44  1  0  0  0  0
 36 37  2  0  0  0  0
  8  9  1  0  0  0  0
  9 17  1  0  0  0  0
  9 10  2  0  0  0  0
 18 19  1  0  0  0  0
 19 34  1  0  0  0  0
 19 20  2  0  0  0  0
 35 38  1  0  0  0  0
  8 11  1  0  0  0  0
 44 45  1  0  0  0  0
 21 22  1  0  0  0  0
 18 21  1  0  0  0  0
 34 35  1  0  0  0  0
  7  8  1  0  0  0  0
 17 18  1  0  0  0  0
  3  4  1  0  0  0  0
  3  5  1  0  0  0  0
  3  6  1  0  0  0  0
 38 41  1  0  0  0  0
 38 42  1  0  0  0  0
 38 43  1  0  0  0  0
 11 14  1  0  0  0  0
 11 15  1  0  0  0  0
 11 16  1  0  0  0  0
 45 47  1  0  0  0  0
 45 48  1  0  0  0  0
 45 49  1  0  0  0  0
 22 30  1  0  0  0  0
 22 31  1  0  0  0  0
 21 28  1  0  0  0  0
 21 29  1  0  0  0  0
 35 40  1  0  0  0  0
  8 13  1  0  0  0  0
 18 27  1  0  0  0  0
 25 32  1  0  0  0  0
 25 33  1  0  0  0  0
 44 46  1  0  0  0  0
  7 12  1  0  0  0  0
 34 39  1  0  0  0  0
 17 26  1  0  0  0  0
M  END
$$$$

  -OEChem-05262214473D

 49 48  0     1  0  0  0  0  0999 V2000
   -1.9833   -0.0509   -3.3423 C   0  0  0  0  0  0  0  0  0  0  0  0
   -1.6199   -1.0613   -2.7518 O   0  0  0  0  0  0  0  0  0  0  0  0
   -3.3243   -0.0235   -3.9975 C   0  0  0  0  0  0  0  0  0  0  0  0
   -3.2886   -0.3689   -5.0432 H   0  0  0  0  0  0  0  0  0  0  0  0
   -4.0503   -0.6845   -3.4973 H   0  0  0  0  0  0  0  0  0  0  0  0
   -3.8104    0.9645   -4.0351 H   0  0  0  0  0  0  0  0  0  0  0  0
   -1.2607    1.1231   -3.4768 N   0  0  0  0  0  0  0  0  0  0  0  0
    0.0536    1.3115   -2.9213 C   0  0  2  0  0  0  0  0  0  0  0  0
    0.0266    0.8315   -1.4761 C   0  0  0  0  0  0  0  0  0  0  0  0
   -1.0065    0.7530   -0.8146 O   0  0  0  0  0  0  0  0  0  0  0  0
    0.4852    2.7674   -3.0025 C   0  0  0  0  0  0  0  0  0  0  0  0
   -1.6809    1.8924   -3.9952 H   0  0  0  0  0  0  0  0  0  0  0  0
    0.7360    0.6822   -3.5030 H   0  0  0  0  0  0  0  0  0  0  0  0
   -0.1867    3.4133   -2.4256 H   0  0  0  0  0  0  0  0  0  0  0  0
    1.4966    2.9042   -2.6056 H   0  0  0  0  0  0  0  0  0  0  0  0
    0.4754    3.1196   -4.0397 H   0  0  0  0  0  0  0  0  0  0  0  0
    1.2978    0.5411   -0.9947 N   0  0  0  0  0  0  0  0  0  0  0  0
    1.5371    0.0807    0.3489 C   0  0  2  0  0  0  0  0  0  0  0  0
    0.4480    0.6793    1.2321 C   0  0  0  0  0  0  0  0  0  0  0  0
    0.3073    1.8897    1.3929 O   0  0  0  0  0  0  0  0  0  0  0  0
    2.9240    0.4882    0.8622 C   0  0  0  0  0  0  0  0  0  0  0  0
    4.0728   -0.2008    0.1232 C   0  0  0  0  0  0  0  0  0  0  0  0
    5.4463    0.2187    0.6129 C   0  0  0  0  0  0  0  0  0  0  0  0
    5.6373    1.0820    1.4644 O   0  0  0  0  0  0  0  0  0  0  0  0
    6.4608   -0.4618   -0.0257 N   0  0  0  0  0  0  0  0  0  0  0  0
    2.0949    0.6178   -1.6227 H   0  0  0  0  0  0  0  0  0  0  0  0
    1.4242   -1.0086    0.3324 H   0  0  0  0  0  0  0  0  0  0  0  0
    3.0442    1.5743    0.7528 H   0  0  0  0  0  0  0  0  0  0  0  0
    3.0033    0.2798    1.9367 H   0  0  0  0  0  0  0  0  0  0  0  0
    4.0183    0.0659   -0.9395 H   0  0  0  0  0  0  0  0  0  0  0  0
    3.9809   -1.2906    0.1902 H   0  0  0  0  0  0  0  0  0  0  0  0
    6.2196   -1.1494   -0.7317 H   0  0  0  0  0  0  0  0  0  0  0  0
    7.4404   -0.2998    0.1850 H   0  0  0  0  0  0  0  0  0  0  0  0
   -0.3123   -0.3002    1.8558 N   0  0  0  0  0  0  0  0  0  0  0  0
   -1.3970   -0.0043    2.7639 C   0  0  2  0  0  0  0  0  0  0  0  0
   -2.2942    1.0336    2.1025 C   0  0  0  0  0  0  0  0  0  0  0  0
   -1.9063    1.7843    1.2097 O   0  0  0  0  0  0  0  0  0  0  0  0
   -0.8771    0.4997    4.1012 C   0  0  0  0  0  0  0  0  0  0  0  0
   -0.0955   -1.2739    1.6644 H   0  0  0  0  0  0  0  0  0  0  0  0
   -1.9563   -0.9359    2.9029 H   0  0  0  0  0  0  0  0  0  0  0  0
   -0.3141    1.4326    3.9821 H   0  0  0  0  0  0  0  0  0  0  0  0
   -1.6989    0.6963    4.7978 H   0  0  0  0  0  0  0  0  0  0  0  0
   -0.2085   -0.2356    4.5616 H   0  0  0  0  0  0  0  0  0  0  0  0
   -3.5666    1.0524    2.6563 N   0  0  0  0  0  0  0  0  0  0  0  0
   -4.5983    1.9587    2.2088 C   0  0  0  0  0  0  0  0  0  0  0  0
   -3.8066    0.3813    3.3800 H   0  0  0  0  0  0  0  0  0  0  0  0
   -4.5764    2.8716    2.8221 H   0  0  0  0  0  0  0  0  0  0  0  0
   -4.4239    2.2209    1.1549 H   0  0  0  0  0  0  0  0  0  0  0  0
   -5.5806    1.4737    2.3083 H   0  0  0  0  0  0  0  0  0  0  0  0
  1  3  1  0  0  0  0
  1  7  1  0  0  0  0
  1  2  2  0  0  0  0
 22 23  1  0  0  0  0
 23 25  1  0  0  0  0
 23 24  2  0  0  0  0
 35 36  1  0  0  0  0
 36 44  1  0  0  0  0
 36 37  2  0  0  0  0
  8  9  1  0  0  0  0
  9 17  1  0  0  0  0
  9 10  2  0  0  0  0
 18 19  1  0  0  0  0
 19 34  1  0  0  0  0
 19 20  2  0  0  0  0
 35 38  1  0  0  0  0
  8 11  1  0  0  0  0
 44 45  1  0  0  0  0
 21 22  1  0  0  0  0
 18 21  1  0  0  0  0
 34 35  1  0  0  0  0
  7  8  1  0  0  0  0
 17 18  1  0  0  0  0
  3  4  1  0  0  0  0
  3  5  1  0  0  0  0
  3  6  1  0  0  0  0
 38 41  1  0  0  0  0
 38 42  1  0  0  0  0
 38 43  1  0  0  0  0
 11 14  1  0  0  0  0
 11 15  1  0  0  0  0
 11 16  1  0  0  0  0
 45 47  1  0  0  0  0
 45 48  1  0  0  0  0
 45 49  1  0  0  0  0
 22 30  1  0  0  0  0
 22 31  1  0  0  0  0
 21 28  1  0  0  0  0
 21 29  1  0  0  0  0
 35 40  1  0  0  0  0
  8 13  1  0  0  0  0
 18 27  1  0  0  0  0
 25 32  1  0  0  0  0
 25 33  1  0  0  0  0
 44 46  1  0  0  0  0
  7 12  1  0  0  0  0
 34 39  1  0  0  0  0
 17 26  1  0  0  0  0
M  END
$$$$

  -OEChem-05262214473D

 49 48  0     1  0  0  0  0  0999 V2000
   -1.9833   -0.0509   -3.3423 C   0  0  0  0  0  0  0  0  0  0  0  0
   -1.6199   -1.0613   -2.7518 O   0  0  0  0  0  0  0  0  0  0  0  0
   -3.3243   -0.0235   -3.9975 C   0  0  0  0  0  0  0  0  0  0  0  0
   -3.2886   -0.3689   -5.0432 H   0  0  0  0  0  0  0  0  0  0  0  0
   -4.0503   -0.6845   -3.4973 H   0  0  0  0  0  0  0  0  0  0  0  0
   -3.8104    0.9645   -4.0351 H   0  0  0  0  0  0  0  0  0  0  0  0
   -1.2607    1.1231   -3.4768 N   0  0  0  0  0  0  0  0  0  0  0  0
    0.0536    1.3115   -2.9213 C   0  0  2  0  0  0  0  0  0  0  0  0
    0.0266    0.8315   -1.4761 C   0  0  0  0  0  0  0  0  0  0  0  0
   -1.0065    0.7530   -0.8146 O   0  0  0  0  0  0  0  0  0  0  0  0
    0.4852    2.7674   -3.0025 C   0  0  0  0  0  0  0  0  0  0  0  0
   -1.6809    1.8924   -3.9952 H   0  0  0  0  0  0  0  0  0  0  0  0
    0.7360    0.6822   -3.5030 H   0  0  0  0  0  0  0  0  0  0  0  0
   -0.1867    3.4133   -2.4256 H   0  0  0  0  0  0  0  0  0  0  0  0
    1.4966    2.9042   -2.6056 H   0  0  0  0  0  0  0  0  0  0  0  0
    0.4754    3.1196   -4.0397 H   0  0  0  0  0  0  0  0  0  0  0  0
    1.2978    0.5411   -0.9947 N   0  0  0  0  0  0  0  0  0  0  0  0
    1.5371    0.0807    0.3489 C   0  0  2  0  0  0  0  0  0  0  0  0
    0.4480    0.6793    1.2321 C   0  0  0  0  0  0  0  0  0  0  0  0
    0.1307    1.8661    1.1911 O   0  0  0  0  0  0  0  0  0  0  0  0
    2.9240    0.4882    0.8622 C   0  0  0  0  0  0  0  0  0  0  0  0
    4.0728   -0.2008    0.1232 C   0  0  0  0  0  0  0  0  0  0  0  0
    5.4463    0.2187    0.6129 C   0  0  0  0  0  0  0  0  0  0  0  0
    5.6373    1.0820    1.4644 O   0  0  0  0  0  0  0  0  0  0  0  0
    6.4608   -0.4618   -0.0257 N   0  0  0  0  0  0  0  0  0  0  0  0
    2.0949    0.6178   -1.6227 H   0  0  0  0  0  0  0  0  0  0  0  0
    1.4242   -1.0086    0.3324 H   0  0  0  0  0  0  0  0  0  0  0  0
    3.0442    1.5743    0.7528 H   0  0  0  0  0  0  0  0  0  0  0  0
    3.0033    0.2798    1.9367 H   0  0  0  0  0  0  0  0  0  0  0  0
    4.0183    0.0659   -0.9395 H   0  0  0  0  0  0  0  0  0  0  0  0
    3.9809   -1.2906    0.1902 H   0  0  0  0  0  0  0  0  0  0  0  0
    6.2196   -1.1494   -0.7317 H   0  0  0  0  0  0  0  0  0  0  0  0
    7.4404   -0.2998    0.1850 H   0  0  0  0  0  0  0  0  0  0  0  0
   -0.0889   -0.2586    2.1032 N   0  0  0  0  0  0  0  0  0  0  0  0
   -1.1232    0.0515    3.0638 C   0  0  2  0  0  0  0  0  0  0  0  0
   -2.2288    0.8062    2.3373 C   0  0  0  0  0  0  0  0  0  0  0  0
   -2.0452    1.4177    1.2869 O   0  0  0  0  0  0  0  0  0  0  0  0
   -0.5753    0.8716    4.2214 C   0  0  0  0  0  0  0  0  0  0  0  0
    0.2628   -1.2106    2.0635 H   0  0  0  0  0  0  0  0  0  0  0  0
   -1.5124   -0.9050    3.4293 H   0  0  0  0  0  0  0  0  0  0  0  0
   -0.1809    1.8336    3.8746 H   0  0  0  0  0  0  0  0  0  0  0  0
   -1.3537    1.0814    4.9624 H   0  0  0  0  0  0  0  0  0  0  0  0
    0.2398    0.3400    4.7242 H   0  0  0  0  0  0  0  0  0  0  0  0
   -3.4345    0.7525    3.0225 N   0  0  0  0  0  0  0  0  0  0  0  0
   -4.6327    1.4016    2.5440 C   0  0  0  0  0  0  0  0  0  0  0  0
   -3.5001    0.2064    3.8765 H   0  0  0  0  0  0  0  0  0  0  0  0
   -4.7031    2.4094    2.9792 H   0  0  0  0  0  0  0  0  0  0  0  0
   -4.5953    1.4777    1.4473 H   0  0  0  0  0  0  0  0  0  0  0  0
   -5.5125    0.8119    2.8408 H   0  0  0  0  0  0  0  0  0  0  0  0
  1  3  1  0  0  0  0
  1  7  1  0  0  0  0
  1  2  2  0  0  0  0
 22 23  1  0  0  0  0
 23 25  1  0  0  0  0
 23 24  2  0  0  0  0
 35 36  1  0  0  0  0
 36 44  1  0  0  0  0
 36 37  2  0  0  0  0
  8  9  1  0  0  0  0
  9 17  1  0  0  0  0
  9 10  2  0  0  0  0
 18 19  1  0  0  0  0
 19 34  1  0  0  0  0
 19 20  2  0  0  0  0
 35 38  1  0  0  0  0
  8 11  1  0  0  0  0
 44 45  1  0  0  0  0
 21 22  1  0  0  0  0
 18 21  1  0  0  0  0
 34 35  1  0  0  0  0
  7  8  1  0  0  0  0
 17 18  1  0  0  0  0
  3  4  1  0  0  0  0
  3  5  1  0  0  0  0
  3  6  1  0  0  0  0
 38 41  1  0  0  0  0
 38 42  1  0  0  0  0
 38 43  1  0  0  0  0
 11 14  1  0  0  0  0
 11 15  1  0  0  0  0
 11 16  1  0  0  0  0
 45 47  1  0  0  0  0
 45 48  1  0  0  0  0
 45 49  1  0  0  0  0
 22 30  1  0  0  0  0
 22 31  1  0  0  0  0
 21 28  1  0  0  0  0
 21 29  1  0  0  0  0
 35 40  1  0  0  0  0
  8 13  1  0  0  0  0
 18 27  1  0  0  0  0
 25 32  1  0  0  0  0
 25 33  1  0  0  0  0
 44 46  1  0  0  0  0
  7 12  1  0  0  0  0
 34 39  1  0  0  0  0
 17 26  1  0  0  0  0
M  END
$$$$

  -OEChem-05262214473D

 49 48  0     1  0  0  0  0  0999 V2000
   -1.9833   -0.0509   -3.3423 C   0  0  0  0  0  0  0  0  0  0  0  0
   -1.6199   -1.0613   -2.7518 O   0  0  0  0  0  0  0  0  0  0  0  0
   -3.3243   -0.0235   -3.9975 C   0  0  0  0  0  0  0  0  0  0  0  0
   -3.2886   -0.3689   -5.0432 H   0  0  0  0  0  0  0  0  0  0  0  0
   -4.0503   -0.6845   -3.4973 H   0  0  0  0  0  0  0  0  0  0  0  0
   -3.8104    0.9645   -4.0351 H   0  0  0  0  0  0  0  0  0  0  0  0
   -1.2607    1.1231   -3.4768 N   0  0  0  0  0  0  0  0  0  0  0  0
    0.0536    1.3115   -2.9213 C   0  0  2  0  0  0  0  0  0  0  0  0
    0.0266    0.8315   -1.4761 C   0  0  0  0  0  0  0  0  0  0  0  0
   -1.0065    0.7530   -0.8146 O   0  0  0  0  0  0  0  0  0  0  0  0
    0.4852    2.7674   -3.0025 C   0  0  0  0  0  0  0  0  0  0  0  0
   -1.6809    1.8924   -3.9952 H   0  0  0  0  0  0  0  0  0  0  0  0
    0.7360    0.6822   -3.5030 H   0  0  0  0  0  0  0  0  0  0  0  0
   -0.1867    3.4133   -2.4256 H   0  0  0  0  0  0  0  0  0  0  0  0
    1.4966    2.9042   -2.6056 H   0  0  0  0  0  0  0  0  0  0  0  0
    0.4754    3.1196   -4.0397 H   0  0  0  0  0  0  0  0  0  0  0  0
    1.2978    0.5411   -0.9947 N   0  0  0  0  0  0  0  0  0  0  0  0
    1.5371    0.0807    0.3489 C   0  0  2  0  0  0  0  0  0  0  0  0
    0.4480    0.6793    1.2321 C   0  0  0  0  0  0  0  0  0  0  0  0
   -0.0569    1.7794    1.0185 O   0  0  0  0  0  0  0  0  0  0  0  0
    2.9240    0.4882    0.8622 C   0  0  0  0  0  0  0  0  0  0  0  0
    4.0728   -0.2008    0.1232 C   0  0  0  0  0  0  0  0  0  0  0  0
    5.4463    0.2187    0.6129 C   0  0  0  0  0  0  0  0  0  0  0  0
    5.6373    1.0820    1.4644 O   0  0  0  0  0  0  0  0  0  0  0  0
    6.4608   -0.4618   -0.0257 N   0  0  0  0  0  0  0  0  0  0  0  0
    2.0949    0.6178   -1.6227 H   0  0  0  0  0  0  0  0  0  0  0  0
    1.4242   -1.0086    0.3324 H   0  0  0  0  0  0  0  0  0  0  0  0
    3.0442    1.5743    0.7528 H   0  0  0  0  0  0  0  0  0  0  0  0
    3.0033    0.2798    1.9367 H   0  0  0  0  0  0  0  0  0  0  0  0
    4.0183    0.0659   -0.9395 H   0  0  0  0  0  0  0  0  0  0  0  0
    3.9809   -1.2906    0.1902 H   0  0  0  0  0  0  0  0  0  0  0  0
    6.2196   -1.1494   -0.7317 H   0  0  0  0  0  0  0  0  0  0  0  0
    7.4404   -0.2998    0.1850 H   0  0  0  0  0  0  0  0  0  0  0  0
    0.1459   -0.1391    2.3117 N   0  0  0  0  0  0  0  0  0  0  0  0
   -0.8366    0.2019    3.3153 C   0  0  2  0  0  0  0  0  0  0  0  0
   -2.1076    0.6397    2.5996 C   0  0  0  0  0  0  0  0  0  0  0  0
   -2.1166    1.0570    1.4433 O   0  0  0  0  0  0  0  0  0  0  0  0
   -0.3273    1.2982    4.2381 C   0  0  0  0  0  0  0  0  0  0  0  0
    0.6401   -1.0220    2.4009 H   0  0  0  0  0  0  0  0  0  0  0  0
   -1.0347   -0.7112    3.8871 H   0  0  0  0  0  0  0  0  0  0  0  0
   -0.1232    2.2211    3.6830 H   0  0  0  0  0  0  0  0  0  0  0  0
   -1.0614    1.5355    5.0152 H   0  0  0  0  0  0  0  0  0  0  0  0
    0.6029    0.9932    4.7294 H   0  0  0  0  0  0  0  0  0  0  0  0
   -3.2247    0.5502    3.4182 N   0  0  0  0  0  0  0  0  0  0  0  0
   -4.5483    0.9203    2.9742 C   0  0  0  0  0  0  0  0  0  0  0  0
   -3.1274    0.1753    4.3572 H   0  0  0  0  0  0  0  0  0  0  0  0
   -4.7402    1.9730    3.2292 H   0  0  0  0  0  0  0  0  0  0  0  0
   -4.6197    0.7882    1.8845 H   0  0  0  0  0  0  0  0  0  0  0  0
   -5.2935    0.2813    3.4706 H   0  0  0  0  0  0  0  0  0  0  0  0
  1  3  1  0  0  0  0
  1  7  1  0  0  0  0
  1  2  2  0  0  0  0
 22 23  1  0  0  0  0
 23 25  1  0  0  0  0
 23 24  2  0  0  0  0
 35 36  1  0  0  0  0
 36 44  1  0  0  0  0
 36 37  2  0  0  0  0
  8  9  1  0  0  0  0
  9 17  1  0  0  0  0
  9 10  2  0  0  0  0
 18 19  1  0  0  0  0
 19 34  1  0  0  0  0
 19 20  2  0  0  0  0
 35 38  1  0  0  0  0
  8 11  1  0  0  0  0
 44 45  1  0  0  0  0
 21 22  1  0  0  0  0
 18 21  1  0  0  0  0
 34 35  1  0  0  0  0
  7  8  1  0  0  0  0
 17 18  1  0  0  0  0
  3  4  1  0  0  0  0
  3  5  1  0  0  0  0
  3  6  1  0  0  0  0
 38 41  1  0  0  0  0
 38 42  1  0  0  0  0
 38 43  1  0  0  0  0
 11 14  1  0  0  0  0
 11 15  1  0  0  0  0
 11 16  1  0  0  0  0
 45 47  1  0  0  0  0
 45 48  1  0  0  0  0
 45 49  1  0  0  0  0
 22 30  1  0  0  0  0
 22 31  1  0  0  0  0
 21 28  1  0  0  0  0
 21 29  1  0  0  0  0
 35 40  1  0  0  0  0
  8 13  1  0  0  0  0
 18 27  1  0  0  0  0
 25 32  1  0  0  0  0
 25 33  1  0  0  0  0
 44 46  1  0  0  0  0
  7 12  1  0  0  0  0
 34 39  1  0  0  0  0
 17 26  1  0  0  0  0
M  END
$$$$

  -OEChem-05262214473D

 49 48  0     1  0  0  0  0  0999 V2000
   -1.9833   -0.0509   -3.3423 C   0  0  0  0  0  0  0  0  0  0  0  0
   -1.6199   -1.0613   -2.7518 O   0  0  0  0  0  0  0  0  0  0  0  0
   -3.3243   -0.0235   -3.9975 C   0  0  0  0  0  0  0  0  0  0  0  0
   -3.2886   -0.3689   -5.0432 H   0  0  0  0  0  0  0  0  0  0  0  0
   -4.0503   -0.6845   -3.4973 H   0  0  0  0  0  0  0  0  0  0  0  0
   -3.8104    0.9645   -4.0351 H   0  0  0  0  0  0  0  0  0  0  0  0
   -1.2607    1.1231   -3.4768 N   0  0  0  0  0  0  0  0  0  0  0  0
    0.0536    1.3115   -2.9213 C   0  0  2  0  0  0  0  0  0  0  0  0
    0.0266    0.8315   -1.4761 C   0  0  0  0  0  0  0  0  0  0  0  0
   -1.0065    0.7530   -0.8146 O   0  0  0  0  0  0  0  0  0  0  0  0
    0.4852    2.7674   -3.0025 C   0  0  0  0  0  0  0  0  0  0  0  0
   -1.6809    1.8924   -3.9952 H   0  0  0  0  0  0  0  0  0  0  0  0
    0.7360    0.6822   -3.5030 H   0  0  0  0  0  0  0  0  0  0  0  0
   -0.1867    3.4133   -2.4256 H   0  0  0  0  0  0  0  0  0  0  0  0
    1.4966    2.9042   -2.6056 H   0  0  0  0  0  0  0  0  0  0  0  0
    0.4754    3.1196   -4.0397 H   0  0  0  0  0  0  0  0  0  0  0  0
    1.2978    0.5411   -0.9947 N   0  0  0  0  0  0  0  0  0  0  0  0
    1.5371    0.0807    0.3489 C   0  0  2  0  0  0  0  0  0  0  0  0
    0.4480    0.6793    1.2321 C   0  0  0  0  0  0  0  0  0  0  0  0
   -0.2426    1.6357    0.8869 O   0  0  0  0  0  0  0  0  0  0  0  0
    2.9240    0.4882    0.8622 C   0  0  0  0  0  0  0  0  0  0  0  0
    4.0728   -0.2008    0.1232 C   0  0  0  0  0  0  0  0  0  0  0  0
    5.4463    0.2187    0.6129 C   0  0  0  0  0  0  0  0  0  0  0  0
    5.6373    1.0820    1.4644 O   0  0  0  0  0  0  0  0  0  0  0  0
    6.4608   -0.4618   -0.0257 N   0  0  0  0  0  0  0  0  0  0  0  0
    2.0949    0.6178   -1.6227 H   0  0  0  0  0  0  0  0  0  0  0  0
    1.4242   -1.0086    0.3324 H   0  0  0  0  0  0  0  0  0  0  0  0
    3.0442    1.5743    0.7528 H   0  0  0  0  0  0  0  0  0  0  0  0
    3.0033    0.2798    1.9367 H   0  0  0  0  0  0  0  0  0  0  0  0
    4.0183    0.0659   -0.9395 H   0  0  0  0  0  0  0  0  0  0  0  0
    3.9809   -1.2906    0.1902 H   0  0  0  0  0  0  0  0  0  0  0  0
    6.2196   -1.1494   -0.7317 H   0  0  0  0  0  0  0  0  0  0  0  0
    7.4404   -0.2998    0.1850 H   0  0  0  0  0  0  0  0  0  0  0  0
    0.3759    0.0501    2.4672 N   0  0  0  0  0  0  0  0  0  0  0  0
   -0.5567    0.4367    3.5013 C   0  0  2  0  0  0  0  0  0  0  0  0
   -1.9390    0.5455    2.8713 C   0  0  0  0  0  0  0  0  0  0  0  0
   -2.1155    0.7268    1.6684 O   0  0  0  0  0  0  0  0  0  0  0  0
   -0.1501    1.7506    4.1501 C   0  0  0  0  0  0  0  0  0  0  0  0
    1.0105   -0.7208    2.6535 H   0  0  0  0  0  0  0  0  0  0  0  0
   -0.5559   -0.3678    4.2448 H   0  0  0  0  0  0  0  0  0  0  0  0
   -0.1451    2.5687    3.4205 H   0  0  0  0  0  0  0  0  0  0  0  0
   -0.8417    2.0277    4.9525 H   0  0  0  0  0  0  0  0  0  0  0  0
    0.8563    1.6797    4.5766 H   0  0  0  0  0  0  0  0  0  0  0  0
   -2.9516    0.4595    3.8165 N   0  0  0  0  0  0  0  0  0  0  0  0
   -4.3510    0.5476    3.4702 C   0  0  0  0  0  0  0  0  0  0  0  0
   -2.7139    0.2899    4.7894 H   0  0  0  0  0  0  0  0  0  0  0  0
   -4.6852    1.5921    3.5551 H   0  0  0  0  0  0  0  0  0  0  0  0
   -4.4954    0.1994    2.4368 H   0  0  0  0  0  0  0  0  0  0  0  0
   -4.9383   -0.0820    4.1547 H   0  0  0  0  0  0  0  0  0  0  0  0
  1  3  1  0  0  0  0
  1  7  1  0  0  0  0
  1  2  2  0  0  0  0
 22 23  1  0  0  0  0
 23 25  1  0  0  0  0
 23 24  2  0  0  0  0
 35 36  1  0  0  0  0
 36 44  1  0  0  0  0
 36 37  2  0  0  0  0
  8  9  1  0  0  0  0
  9 17  1  0  0  0  0
  9 10  2  0  0  0  0
 18 19  1  0  0  0  0
 19 34  1  0  0  0  0
 19 20  2  0  0  0  0
 35 38  1  0  0  0  0
  8 11  1  0  0  0  0
 44 45  1  0  0  0  0
 21 22  1  0  0  0  0
 18 21  1  0  0  0  0
 34 35  1  0  0  0  0
  7  8  1  0  0  0  0
 17 18  1  0  0  0  0
  3  4  1  0  0  0  0
  3  5  1  0  0  0  0
  3  6  1  0  0  0  0
 38 41  1  0  0  0  0
 38 42  1  0  0  0  0
 38 43  1  0  0  0  0
 11 14  1  0  0  0  0
 11 15  1  0  0  0  0
 11 16  1  0  0  0  0
 45 47  1  0  0  0  0
 45 48  1  0  0  0  0
 45 49  1  0  0  0  0
 22 30  1  0  0  0  0
 22 31  1  0  0  0  0
 21 28  1  0  0  0  0
 21 29  1  0  0  0  0
 35 40  1  0  0  0  0
  8 13  1  0  0  0  0
 18 27  1  0  0  0  0
 25 32  1  0  0  0  0
 25 33  1  0  0  0  0
 44 46  1  0  0  0  0
  7 12  1  0  0  0  0
 34 39  1  0  0  0  0
 17 26  1  0  0  0  0
M  END
$$$$

  -OEChem-05262214473D

 49 48  0     1  0  0  0  0  0999 V2000
   -1.9833   -0.0509   -3.3423 C   0  0  0  0  0  0  0  0  0  0  0  0
   -1.6199   -1.0613   -2.7518 O   0  0  0  0  0  0  0  0  0  0  0  0
   -3.3243   -0.0235   -3.9975 C   0  0  0  0  0  0  0  0  0  0  0  0
   -3.2886   -0.3689   -5.0432 H   0  0  0  0  0  0  0  0  0  0  0  0
   -4.0503   -0.6845   -3.4973 H   0  0  0  0  0  0  0  0  0  0  0  0
   -3.8104    0.9645   -4.0351 H   0  0  0  0  0  0  0  0  0  0  0  0
   -1.2607    1.1231   -3.4768 N   0  0  0  0  0  0  0  0  0  0  0  0
    0.0536    1.3115   -2.9213 C   0  0  2  0  0  0  0  0  0  0  0  0
    0.0266    0.8315   -1.4761 C   0  0  0  0  0  0  0  0  0  0  0  0
   -1.0065    0.7530   -0.8146 O   0  0  0  0  0  0  0  0  0  0  0  0
    0.4852    2.7674   -3.0025 C   0  0  0  0  0  0  0  0  0  0  0  0
   -1.6809    1.8924   -3.9952 H   0  0  0  0  0  0  0  0  0  0  0  0
    0.7360    0.6822   -3.5030 H   0  0  0  0  0  0  0  0  0  0  0  0
   -0.1867    3.4133   -2.4256 H   0  0  0  0  0  0  0  0  0  0  0  0
    1.4966    2.9042   -2.6056 H   0  0  0  0  0  0  0  0  0  0  0  0
    0.4754    3.1196   -4.0397 H   0  0  0  0  0  0  0  0  0  0  0  0
    1.2978    0.5411   -0.9947 N   0  0  0  0  0  0  0  0  0  0  0  0
    1.5371    0.0807    0.3489 C   0  0  2  0  0  0  0  0  0  0  0  0
    0.2701    0.3530    1.1520 C   0  0  0  0  0  0  0  0  0  0  0  0
   -0.7164    0.9112    0.6763 O   0  0  0  0  0  0  0  0  0  0  0  0
    2.7391    0.7808    0.9954 C   0  0  0  0  0  0  0  0  0  0  0  0
    4.0747    0.4274    0.3381 C   0  0  0  0  0  0  0  0  0  0  0  0
    5.2628    1.1372    0.9603 C   0  0  0  0  0  0  0  0  0  0  0  0
    5.1714    1.9746    1.8532 O   0  0  0  0  0  0  0  0  0  0  0  0
    6.4586    0.7545    0.3915 N   0  0  0  0  0  0  0  0  0  0  0  0
    2.0949    0.6178   -1.6227 H   0  0  0  0  0  0  0  0  0  0  0  0
    1.6942   -1.0014    0.2868 H   0  0  0  0  0  0  0  0  0  0  0  0
    2.5996    1.8683    0.9327 H   0  0  0  0  0  0  0  0  0  0  0  0
    2.7834    0.5407    2.0652 H   0  0  0  0  0  0  0  0  0  0  0  0
    4.0395    0.7294   -0.7160 H   0  0  0  0  0  0  0  0  0  0  0  0
    4.2458   -0.6546    0.3610 H   0  0  0  0  0  0  0  0  0  0  0  0
    6.4474    0.0678   -0.3553 H   0  0  0  0  0  0  0  0  0  0  0  0
    7.3500    1.1351    0.6928 H   0  0  0  0  0  0  0  0  0  0  0  0
    0.3935   -0.0561    2.4726 N   0  0  0  0  0  0  0  0  0  0  0  0
   -0.6545    0.1054    3.4545 C   0  0  2  0  0  0  0  0  0  0  0  0
   -1.9510   -0.4157    2.8486 C   0  0  0  0  0  0  0  0  0  0  0  0
   -2.1370   -0.5043    1.6367 O   0  0  0  0  0  0  0  0  0  0  0  0
   -0.7978    1.5593    3.8768 C   0  0  0  0  0  0  0  0  0  0  0  0
    1.2642   -0.4908    2.7634 H   0  0  0  0  0  0  0  0  0  0  0  0
   -0.3789   -0.5127    4.3158 H   0  0  0  0  0  0  0  0  0  0  0  0
   -1.0737    2.1941    3.0269 H   0  0  0  0  0  0  0  0  0  0  0  0
   -1.5727    1.6758    4.6416 H   0  0  0  0  0  0  0  0  0  0  0  0
    0.1442    1.9413    4.2849 H   0  0  0  0  0  0  0  0  0  0  0  0
   -2.8917   -0.7296    3.8196 N   0  0  0  0  0  0  0  0  0  0  0  0
   -4.2069   -1.2319    3.4974 C   0  0  0  0  0  0  0  0  0  0  0  0
   -2.6447   -0.6430    4.8010 H   0  0  0  0  0  0  0  0  0  0  0  0
   -4.9130   -0.3917    3.4237 H   0  0  0  0  0  0  0  0  0  0  0  0
   -4.1702   -1.7652    2.5360 H   0  0  0  0  0  0  0  0  0  0  0  0
   -4.5393   -1.9218    4.2870 H   0  0  0  0  0  0  0  0  0  0  0  0
  1  3  1  0  0  0  0
  1  7  1  0  0  0  0
  1  2  2  0  0  0  0
 22 23  1  0  0  0  0
 23 25  1  0  0  0  0
 23 24  2  0  0  0  0
 35 36  1  0  0  0  0
 36 44  1  0  0  0  0
 36 37  2  0  0  0  0
  8  9  1  0  0  0  0
  9 17  1  0  0  0  0
  9 10  2  0  0  0  0
 18 19  1  0  0  0  0
 19 34  1  0  0  0  0
 19 20  2  0  0  0  0
 35 38  1  0  0  0  0
  8 11  1  0  0  0  0
 44 45  1  0  0  0  0
 21 22  1  0  0  0  0
 18 21  1  0  0  0  0
 34 35  1  0  0  0  0
  7  8  1  0  0  0  0
 17 18  1  0  0  0  0
  3  4  1  0  0  0  0
  3  5  1  0  0  0  0
  3  6  1  0  0  0  0
 38 41  1  0  0  0  0
 38 42  1  0  0  0  0
 38 43  1  0  0  0  0
 11 14  1  0  0  0  0
 11 15  1  0  0  0  0
 11 16  1  0  0  0  0
 45 47  1  0  0  0  0
 45 48  1  0  0  0  0
 45 49  1  0  0  0  0
 22 30  1  0  0  0  0
 22 31  1  0  0  0  0
 21 28  1  0  0  0  0
 21 29  1  0  0  0  0
 35 40  1  0  0  0  0
  8 13  1  0  0  0  0
 18 27  1  0  0  0  0
 25 32  1  0  0  0  0
 25 33  1  0  0  0  0
 44 46  1  0  0  0  0
  7 12  1  0  0  0  0
 34 39  1  0  0  0  0
 17 26  1  0  0  0  0
M  END
$$$$

  -OEChem-05262214473D

 49 48  0     1  0  0  0  0  0999 V2000
   -1.9833   -0.0509   -3.3423 C   0  0  0  0  0  0  0  0  0  0  0  0
   -1.6199   -1.0613   -2.7518 O   0  0  0  0  0  0  0  0  0  0  0  0
   -3.3243   -0.0235   -3.9975 C   0  0  0  0  0  0  0  0  0  0  0  0
   -3.2886   -0.3689   -5.0432 H   0  0  0  0  0  0  0  0  0  0  0  0
   -4.0503   -0.6845   -3.4973 H   0  0  0  0  0  0  0  0  0  0  0  0
   -3.8104    0.9645   -4.0351 H   0  0  0  0  0  0  0  0  0  0  0  0
   -1.2607    1.1231   -3.4768 N   0  0  0  0  0  0  0  0  0  0  0  0
    0.0536    1.3115   -2.9213 C   0  0  2  0  0  0  0  0  0  0  0  0
    0.0266    0.8315   -1.4761 C   0  0  0  0  0  0  0  0  0  0  0  0
   -1.0065    0.7530   -0.8146 O   0  0  0  0  0  0  0  0  0  0  0  0
    0.4852    2.7674   -3.0025 C   0  0  0  0  0  0  0  0  0  0  0  0
   -1.6809    1.8924   -3.9952 H   0  0  0  0  0  0  0  0  0  0  0  0
    0.7360    0.6822   -3.5030 H   0  0  0  0  0  0  0  0  0  0  0  0
   -0.1867    3.4133   -2.4256 H   0  0  0  0  0  0  0  0  0  0  0  0
    1.4966    2.9042   -2.6056 H   0  0  0  0  0  0  0  0  0  0  0  0
    0.4754    3.1196   -4.0397 H   0  0  0  0  0  0  0  0  0  0  0  0
    1.2978    0.5411   -0.9947 N   0  0  0  0  0  0  0  0  0  0  0  0
    1.5371    0.0807    0.3489 C   0  0  2  0  0  0  0  0  0  0  0  0
    0.2701    0.3530    1.1520 C   0  0  0  0  0  0  0  0  0  0  0  0
   -0.7998    0.6594    0.6300 O   0  0  0  0  0  0  0  0  0  0  0  0
    2.7391    0.7808    0.9954 C   0  0  0  0  0  0  0  0  0  0  0  0
    4.0747    0.4274    0.3381 C   0  0  0  0  0  0  0  0  0  0  0  0
    5.2628    1.1372    0.9603 C   0  0  0  0  0  0  0  0  0  0  0  0
    5.1714    1.9746    1.8532 O   0  0  0  0  0  0  0  0  0  0  0  0
    6.4586    0.7545    0.3915 N   0  0  0  0  0  0  0  0  0  0  0  0
    2.0949    0.6178   -1.6227 H   0  0  0  0  0  0  0  0  0  0  0  0
    1.6942   -1.0014    0.2868 H   0  0  0  0  0  0  0  0  0  0  0  0
    2.5996    1.8683    0.9327 H   0  0  0  0  0  0  0  0  0  0  0  0
    2.7834    0.5407    2.0652 H   0  0  0  0  0  0  0  0  0  0  0  0
    4.0395    0.7294   -0.7160 H   0  0  0  0  0  0  0  0  0  0  0  0
    4.2458   -0.6546    0.3610 H   0  0  0  0  0  0  0  0  0  0  0  0
    6.4474    0.0678   -0.3553 H   0  0  0  0  0  0  0  0  0  0  0  0
    7.3500    1.1351    0.6928 H   0  0  0  0  0  0  0  0  0  0  0  0
    0.4914    0.2619    2.5192 N   0  0  0  0  0  0  0  0  0  0  0  0
   -0.5377    0.4948    3.5068 C   0  0  2  0  0  0  0  0  0  0  0  0
   -1.7658   -0.3116    3.1055 C   0  0  0  0  0  0  0  0  0  0  0  0
   -1.9753   -0.6862    1.9536 O   0  0  0  0  0  0  0  0  0  0  0  0
   -0.8718    1.9742    3.6194 C   0  0  0  0  0  0  0  0  0  0  0  0
    1.4235    0.0193    2.8418 H   0  0  0  0  0  0  0  0  0  0  0  0
   -0.1506    0.1213    4.4611 H   0  0  0  0  0  0  0  0  0  0  0  0
   -1.2612    2.3663    2.6728 H   0  0  0  0  0  0  0  0  0  0  0  0
   -1.6311    2.1520    4.3881 H   0  0  0  0  0  0  0  0  0  0  0  0
    0.0191    2.5562    3.8789 H   0  0  0  0  0  0  0  0  0  0  0  0
   -2.6218   -0.5266    4.1766 N   0  0  0  0  0  0  0  0  0  0  0  0
   -3.8622   -1.2553    4.0492 C   0  0  0  0  0  0  0  0  0  0  0  0
   -2.3589   -0.1962    5.1004 H   0  0  0  0  0  0  0  0  0  0  0  0
   -4.6820   -0.5516    3.8424 H   0  0  0  0  0  0  0  0  0  0  0  0
   -3.7806   -1.9761    3.2223 H   0  0  0  0  0  0  0  0  0  0  0  0
   -4.0689   -1.7938    4.9859 H   0  0  0  0  0  0  0  0  0  0  0  0
  1  3  1  0  0  0  0
  1  7  1  0  0  0  0
  1  2  2  0  0  0  0
 22 23  1  0  0  0  0
 23 25  1  0  0  0  0
 23 24  2  0  0  0  0
 35 36  1  0  0  0  0
 36 44  1  0  0  0  0
 36 37  2  0  0  0  0
  8  9  1  0  0  0  0
  9 17  1  0  0  0  0
  9 10  2  0  0  0  0
 18 19  1  0  0  0  0
 19 34  1  0  0  0  0
 19 20  2  0  0  0  0
 35 38  1  0  0  0  0
  8 11  1  0  0  0  0
 44 45  1  0  0  0  0
 21 22  1  0  0  0  0
 18 21  1  0  0  0  0
 34 35  1  0  0  0  0
  7  8  1  0  0  0  0
 17 18  1  0  0  0  0
  3  4  1  0  0  0  0
  3  5  1  0  0  0  0
  3  6  1  0  0  0  0
 38 41  1  0  0  0  0
 38 42  1  0  0  0  0
 38 43  1  0  0  0  0
 11 14  1  0  0  0  0
 11 15  1  0  0  0  0
 11 16  1  0  0  0  0
 45 47  1  0  0  0  0
 45 48  1  0  0  0  0
 45 49  1  0  0  0  0
 22 30  1  0  0  0  0
 22 31  1  0  0  0  0
 21 28  1  0  0  0  0
 21 29  1  0  0  0  0
 35 40  1  0  0  0  0
  8 13  1  0  0  0  0
 18 27  1  0  0  0  0
 25 32  1  0  0  0  0
 25 33  1  0  0  0  0
 44 46  1  0  0  0  0
  7 12  1  0  0  0  0
 34 39  1  0  0  0  0
 17 26  1  0  0  0  0
M  END
$$$$

  -OEChem-05262214473D

 49 48  0     1  0  0  0  0  0999 V2000
   -1.9833   -0.0509   -3.3423 C   0  0  0  0  0  0  0  0  0  0  0  0
   -1.6199   -1.0613   -2.7518 O   0  0  0  0  0  0  0  0  0  0  0  0
   -3.3243   -0.0235   -3.9975 C   0  0  0  0  0  0  0  0  0  0  0  0
   -3.2886   -0.3689   -5.0432 H   0  0  0  0  0  0  0  0  0  0  0  0
   -4.0503   -0.6845   -3.4973 H   0  0  0  0  0  0  0  0  0  0  0  0
   -3.8104    0.9645   -4.0351 H   0  0  0  0  0  0  0  0  0  0  0  0
   -1.2607    1.1231   -3.4768 N   0  0  0  0  0  0  0  0  0  0  0  0
    0.0536    1.3115   -2.9213 C   0  0  2  0  0  0  0  0  0  0  0  0
    0.0266    0.8315   -1.4761 C   0  0  0  0  0  0  0  0  0  0  0  0
   -1.0065    0.7530   -0.8146 O   0  0  0  0  0  0  0  0  0  0  0  0
    0.4852    2.7674   -3.0025 C   0  0  0  0  0  0  0  0  0  0  0  0
   -1.6809    1.8924   -3.9952 H   0  0  0  0  0  0  0  0  0  0  0  0
    0.7360    0.6822   -3.5030 H   0  0  0  0  0  0  0  0  0  0  0  0
   -0.1867    3.4133   -2.4256 H   0  0  0  0  0  0  0  0  0  0  0  0
    1.4966    2.9042   -2.6056 H   0  0  0  0  0  0  0  0  0  0  0  0
    0.4754    3.1196   -4.0397 H   0  0  0  0  0  0  0  0  0  0  0  0
    1.2978    0.5411   -0.9947 N   0  0  0  0  0  0  0  0  0  0  0  0
    1.5371    0.0807    0.3489 C   0  0  2  0  0  0  0  0  0  0  0  0
    0.2701    0.3530    1.1520 C   0  0  0  0  0  0  0  0  0  0  0  0
   -0.8482    0.3949    0.6434 O   0  0  0  0  0  0  0  0  0  0  0  0
    2.7391    0.7808    0.9954 C   0  0  0  0  0  0  0  0  0  0  0  0
    4.0747    0.4274    0.3381 C   0  0  0  0  0  0  0  0  0  0  0  0
    5.2628    1.1372    0.9603 C   0  0  0  0  0  0  0  0  0  0  0  0
    5.1714    1.9746    1.8532 O   0  0  0  0  0  0  0  0  0  0  0  0
    6.4586    0.7545    0.3915 N   0  0  0  0  0  0  0  0  0  0  0  0
    2.0949    0.6178   -1.6227 H   0  0  0  0  0  0  0  0  0  0  0  0
    1.6942   -1.0014    0.2868 H   0  0  0  0  0  0  0  0  0  0  0  0
    2.5996    1.8683    0.9327 H   0  0  0  0  0  0  0  0  0  0  0  0
    2.7834    0.5407    2.0652 H   0  0  0  0  0  0  0  0  0  0  0  0
    4.0395    0.7294   -0.7160 H   0  0  0  0  0  0  0  0  0  0  0  0
    4.2458   -0.6546    0.3610 H   0  0  0  0  0  0  0  0  0  0  0  0
    6.4474    0.0678   -0.3553 H   0  0  0  0  0  0  0  0  0  0  0  0
    7.3500    1.1351    0.6928 H   0  0  0  0  0  0  0  0  0  0  0  0
    0.5448    0.5924    2.4913 N   0  0  0  0  0  0  0  0  0  0  0  0
   -0.4755    0.8982    3.4681 C   0  0  2  0  0  0  0  0  0  0  0  0
   -1.5892   -0.1304    3.3227 C   0  0  0  0  0  0  0  0  0  0  0  0
   -1.7796   -0.7717    2.2914 O   0  0  0  0  0  0  0  0  0  0  0  0
   -1.0117    2.3094    3.2850 C   0  0  0  0  0  0  0  0  0  0  0  0
    1.5114    0.5506    2.8004 H   0  0  0  0  0  0  0  0  0  0  0  0
   -0.0098    0.7961    4.4544 H   0  0  0  0  0  0  0  0  0  0  0  0
   -1.4821    2.4308    2.3024 H   0  0  0  0  0  0  0  0  0  0  0  0
   -1.7641    2.5495    4.0435 H   0  0  0  0  0  0  0  0  0  0  0  0
   -0.2044    3.0459    3.3603 H   0  0  0  0  0  0  0  0  0  0  0  0
   -2.3722   -0.2169    4.4653 N   0  0  0  0  0  0  0  0  0  0  0  0
   -3.5005   -1.1123    4.5713 C   0  0  0  0  0  0  0  0  0  0  0  0
   -2.1299    0.3387    5.2803 H   0  0  0  0  0  0  0  0  0  0  0  0
   -4.4176   -0.5845    4.2706 H   0  0  0  0  0  0  0  0  0  0  0  0
   -3.3438   -1.9791    3.9125 H   0  0  0  0  0  0  0  0  0  0  0  0
   -3.5996   -1.4556    5.6116 H   0  0  0  0  0  0  0  0  0  0  0  0
  1  3  1  0  0  0  0
  1  7  1  0  0  0  0
  1  2  2  0  0  0  0
 22 23  1  0  0  0  0
 23 25  1  0  0  0  0
 23 24  2  0  0  0  0
 35 36  1  0  0  0  0
 36 44  1  0  0  0  0
 36 37  2  0  0  0  0
  8  9  1  0  0  0  0
  9 17  1  0  0  0  0
  9 10  2  0  0  0  0
 18 19  1  0  0  0  0
 19 34  1  0  0  0  0
 19 20  2  0  0  0  0
 35 38  1  0  0  0  0
  8 11  1  0  0  0  0
 44 45  1  0  0  0  0
 21 22  1  0  0  0  0
 18 21  1  0  0  0  0
 34 35  1  0  0  0  0
  7  8  1  0  0  0  0
 17 18  1  0  0  0  0
  3  4  1  0  0  0  0
  3  5  1  0  0  0  0
  3  6  1  0  0  0  0
 38 41  1  0  0  0  0
 38 42  1  0  0  0  0
 38 43  1  0  0  0  0
 11 14  1  0  0  0  0
 11 15  1  0  0  0  0
 11 16  1  0  0  0  0
 45 47  1  0  0  0  0
 45 48  1  0  0  0  0
 45 49  1  0  0  0  0
 22 30  1  0  0  0  0
 22 31  1  0  0  0  0
 21 28  1  0  0  0  0
 21 29  1  0  0  0  0
 35 40  1  0  0  0  0
  8 13  1  0  0  0  0
 18 27  1  0  0  0  0
 25 32  1  0  0  0  0
 25 33  1  0  0  0  0
 44 46  1  0  0  0  0
  7 12  1  0  0  0  0
 34 39  1  0  0  0  0
 17 26  1  0  0  0  0
M  END
$$$$

  -OEChem-05262214473D

 49 48  0     1  0  0  0  0  0999 V2000
   -1.9833   -0.0509   -3.3423 C   0  0  0  0  0  0  0  0  0  0  0  0
   -1.6199   -1.0613   -2.7518 O   0  0  0  0  0  0  0  0  0  0  0  0
   -3.3243   -0.0235   -3.9975 C   0  0  0  0  0  0  0  0  0  0  0  0
   -3.2886   -0.3689   -5.0432 H   0  0  0  0  0  0  0  0  0  0  0  0
   -4.0503   -0.6845   -3.4973 H   0  0  0  0  0  0  0  0  0  0  0  0
   -3.8104    0.9645   -4.0351 H   0  0  0  0  0  0  0  0  0  0  0  0
   -1.2607    1.1231   -3.4768 N   0  0  0  0  0  0  0  0  0  0  0  0
    0.0536    1.3115   -2.9213 C   0  0  2  0  0  0  0  0  0  0  0  0
    0.0266    0.8315   -1.4761 C   0  0  0  0  0  0  0  0  0  0  0  0
   -1.0065    0.7530   -0.8146 O   0  0  0  0  0  0  0  0  0  0  0  0
    0.4852    2.7674   -3.0025 C   0  0  0  0  0  0  0  0  0  0  0  0
   -1.6809    1.8924   -3.9952 H   0  0  0  0  0  0  0  0  0  0  0  0
    0.7360    0.6822   -3.5030 H   0  0  0  0  0  0  0  0  0  0  0  0
   -0.1867    3.4133   -2.4256 H   0  0  0  0  0  0  0  0  0  0  0  0
    1.4966    2.9042   -2.6056 H   0  0  0  0  0  0  0  0  0  0  0  0
    0.4754    3.1196   -4.0397 H   0  0  0  0  0  0  0  0  0  0  0  0
    1.2978    0.5411   -0.9947 N   0  0  0  0  0  0  0  0  0  0  0  0
    1.5371    0.0807    0.3489 C   0  0  2  0  0  0  0  0  0  0  0  0
    0.2701    0.3530    1.1520 C   0  0  0  0  0  0  0  0  0  0  0  0
   -0.8582    0.1357    0.7154 O   0  0  0  0  0  0  0  0  0  0  0  0
    2.7391    0.7808    0.9954 C   0  0  0  0  0  0  0  0  0  0  0  0
    4.0747    0.4274    0.3381 C   0  0  0  0  0  0  0  0  0  0  0  0
    5.2628    1.1372    0.9603 C   0  0  0  0  0  0  0  0  0  0  0  0
    5.1714    1.9746    1.8532 O   0  0  0  0  0  0  0  0  0  0  0  0
    6.4586    0.7545    0.3915 N   0  0  0  0  0  0  0  0  0  0  0  0
    2.0949    0.6178   -1.6227 H   0  0  0  0  0  0  0  0  0  0  0  0
    1.6942   -1.0014    0.2868 H   0  0  0  0  0  0  0  0  0  0  0  0
    2.5996    1.8683    0.9327 H   0  0  0  0  0  0  0  0  0  0  0  0
    2.7834    0.5407    2.0652 H   0  0  0  0  0  0  0  0  0  0  0  0
    4.0395    0.7294   -0.7160 H   0  0  0  0  0  0  0  0  0  0  0  0
    4.2458   -0.6546    0.3610 H   0  0  0  0  0  0  0  0  0  0  0  0
    6.4474    0.0678   -0.3553 H   0  0  0  0  0  0  0  0  0  0  0  0
    7.3500    1.1351    0.6928 H   0  0  0  0  0  0  0  0  0  0  0  0
    0.5499    0.9129    2.3908 N   0  0  0  0  0  0  0  0  0  0  0  0
   -0.4722    1.2879    3.3412 C   0  0  2  0  0  0  0  0  0  0  0  0
   -1.4333    0.1153    3.4854 C   0  0  0  0  0  0  0  0  0  0  0  0
   -1.5633   -0.7549    2.6269 O   0  0  0  0  0  0  0  0  0  0  0  0
   -1.2081    2.5422    2.8963 C   0  0  0  0  0  0  0  0  0  0  0  0
    1.5220    1.0668    2.6420 H   0  0  0  0  0  0  0  0  0  0  0  0
    0.0339    1.4656    4.2963 H   0  0  0  0  0  0  0  0  0  0  0  0
   -1.7214    2.3834    1.9409 H   0  0  0  0  0  0  0  0  0  0  0  0
   -1.9627    2.8412    3.6312 H   0  0  0  0  0  0  0  0  0  0  0  0
   -0.5110    3.3768    2.7643 H   0  0  0  0  0  0  0  0  0  0  0  0
   -2.1601    0.1783    4.6660 N   0  0  0  0  0  0  0  0  0  0  0  0
   -3.1466   -0.8125    5.0281 C   0  0  0  0  0  0  0  0  0  0  0  0
   -1.9734    0.9253    5.3285 H   0  0  0  0  0  0  0  0  0  0  0  0
   -4.1380   -0.4882    4.6791 H   0  0  0  0  0  0  0  0  0  0  0  0
   -2.8895   -1.7740    4.5596 H   0  0  0  0  0  0  0  0  0  0  0  0
   -3.1634   -0.9304    6.1217 H   0  0  0  0  0  0  0  0  0  0  0  0
  1  3  1  0  0  0  0
  1  7  1  0  0  0  0
  1  2  2  0  0  0  0
 22 23  1  0  0  0  0
 23 25  1  0  0  0  0
 23 24  2  0  0  0  0
 35 36  1  0  0  0  0
 36 44  1  0  0  0  0
 36 37  2  0  0  0  0
  8  9  1  0  0  0  0
  9 17  1  0  0  0  0
  9 10  2  0  0  0  0
 18 19  1  0  0  0  0
 19 34  1  0  0  0  0
 19 20  2  0  0  0  0
 35 38  1  0  0  0  0
  8 11  1  0  0  0  0
 44 45  1  0  0  0  0
 21 22  1  0  0  0  0
 18 21  1  0  0  0  0
 34 35  1  0  0  0  0
  7  8  1  0  0  0  0
 17 18  1  0  0  0  0
  3  4  1  0  0  0  0
  3  5  1  0  0  0  0
  3  6  1  0  0  0  0
 38 41  1  0  0  0  0
 38 42  1  0  0  0  0
 38 43  1  0  0  0  0
 11 14  1  0  0  0  0
 11 15  1  0  0  0  0
 11 16  1  0  0  0  0
 45 47  1  0  0  0  0
 45 48  1  0  0  0  0
 45 49  1  0  0  0  0
 22 30  1  0  0  0  0
 22 31  1  0  0  0  0
 21 28  1  0  0  0  0
 21 29  1  0  0  0  0
 35 40  1  0  0  0  0
  8 13  1  0  0  0  0
 18 27  1  0  0  0  0
 25 32  1  0  0  0  0
 25 33  1  0  0  0  0
 44 46  1  0  0  0  0
  7 12  1  0  0  0  0
 34 39  1  0  0  0  0
 17 26  1  0  0  0  0
M  END
$$$$

  -OEChem-05262214473D

 49 48  0     1  0  0  0  0  0999 V2000
   -1.9833   -0.0509   -3.3423 C   0  0  0  0  0  0  0  0  0  0  0  0
   -1.6199   -1.0613   -2.7518 O   0  0  0  0  0  0  0  0  0  0  0  0
   -3.3243   -0.0235   -3.9975 C   0  0  0  0  0  0  0  0  0  0  0  0
   -3.2886   -0.3689   -5.0432 H   0  0  0  0  0  0  0  0  0  0  0  0
   -4.0503   -0.6845   -3.4973 H   0  0  0  0  0  0  0  0  0  0  0  0
   -3.8104    0.9645   -4.0351 H   0  0  0  0  0  0  0  0  0  0  0  0
   -1.2607    1.1231   -3.4768 N   0  0  0  0  0  0  0  0  0  0  0  0
    0.0536    1.3115   -2.9213 C   0  0  2  0  0  0  0  0  0  0  0  0
    0.0266    0.8315   -1.4761 C   0  0  0  0  0  0  0  0  0  0  0  0
   -1.0065    0.7530   -0.8146 O   0  0  0  0  0  0  0  0  0  0  0  0
    0.4852    2.7674   -3.0025 C   0  0  0  0  0  0  0  0  0  0  0  0
   -1.6809    1.8924   -3.9952 H   0  0  0  0  0  0  0  0  0  0  0  0
    0.7360    0.6822   -3.5030 H   0  0  0  0  0  0  0  0  0  0  0  0
   -0.1867    3.4133   -2.4256 H   0  0  0  0  0  0  0  0  0  0  0  0
    1.4966    2.9042   -2.6056 H   0  0  0  0  0  0  0  0  0  0  0  0
    0.4754    3.1196   -4.0397 H   0  0  0  0  0  0  0  0  0  0  0  0
    1.2978    0.5411   -0.9947 N   0  0  0  0  0  0  0  0  0  0  0  0
    1.5371    0.0807    0.3489 C   0  0  2  0  0  0  0  0  0  0  0  0
    0.2701    0.3530    1.1520 C   0  0  0  0  0  0  0  0  0  0  0  0
   -0.8293   -0.1006    0.8411 O   0  0  0  0  0  0  0  0  0  0  0  0
    2.7391    0.7808    0.9954 C   0  0  0  0  0  0  0  0  0  0  0  0
    4.0747    0.4274    0.3381 C   0  0  0  0  0  0  0  0  0  0  0  0
    5.2628    1.1372    0.9603 C   0  0  0  0  0  0  0  0  0  0  0  0
    5.1714    1.9746    1.8532 O   0  0  0  0  0  0  0  0  0  0  0  0
    6.4586    0.7545    0.3915 N   0  0  0  0  0  0  0  0  0  0  0  0
    2.0949    0.6178   -1.6227 H   0  0  0  0  0  0  0  0  0  0  0  0
    1.6942   -1.0014    0.2868 H   0  0  0  0  0  0  0  0  0  0  0  0
    2.5996    1.8683    0.9327 H   0  0  0  0  0  0  0  0  0  0  0  0
    2.7834    0.5407    2.0652 H   0  0  0  0  0  0  0  0  0  0  0  0
    4.0395    0.7294   -0.7160 H   0  0  0  0  0  0  0  0  0  0  0  0
    4.2458   -0.6546    0.3610 H   0  0  0  0  0  0  0  0  0  0  0  0
    6.4474    0.0678   -0.3553 H   0  0  0  0  0  0  0  0  0  0  0  0
    7.3500    1.1351    0.6928 H   0  0  0  0  0  0  0  0  0  0  0  0
    0.5066    1.2016    2.2245 N   0  0  0  0  0  0  0  0  0  0  0  0
   -0.5281    1.6375    3.1346 C   0  0  2  0  0  0  0  0  0  0  0  0
   -1.3087    0.4089    3.5824 C   0  0  0  0  0  0  0  0  0  0  0  0
   -1.3411   -0.6371    2.9375 O   0  0  0  0  0  0  0  0  0  0  0  0
   -1.4474    2.6567    2.4798 C   0  0  0  0  0  0  0  0  0  0  0  0
    1.4545    1.5329    2.3775 H   0  0  0  0  0  0  0  0  0  0  0  0
   -0.0225    2.0843    3.9976 H   0  0  0  0  0  0  0  0  0  0  0  0
   -1.9627    2.2272    1.6130 H   0  0  0  0  0  0  0  0  0  0  0  0
   -2.2134    3.0073    3.1795 H   0  0  0  0  0  0  0  0  0  0  0  0
   -0.8799    3.5265    2.1317 H   0  0  0  0  0  0  0  0  0  0  0  0
   -1.9997    0.6321    4.7651 N   0  0  0  0  0  0  0  0  0  0  0  0
   -2.8244   -0.3765    5.3885 C   0  0  0  0  0  0  0  0  0  0  0  0
   -1.8999    1.5236    5.2415 H   0  0  0  0  0  0  0  0  0  0  0  0
   -3.8622   -0.2692    5.0400 H   0  0  0  0  0  0  0  0  0  0  0  0
   -2.4488   -1.3747    5.1195 H   0  0  0  0  0  0  0  0  0  0  0  0
   -2.7902   -0.2540    6.4812 H   0  0  0  0  0  0  0  0  0  0  0  0
  1  3  1  0  0  0  0
  1  7  1  0  0  0  0
  1  2  2  0  0  0  0
 22 23  1  0  0  0  0
 23 25  1  0  0  0  0
 23 24  2  0  0  0  0
 35 36  1  0  0  0  0
 36 44  1  0  0  0  0
 36 37  2  0  0  0  0
  8  9  1  0  0  0  0
  9 17  1  0  0  0  0
  9 10  2  0  0  0  0
 18 19  1  0  0  0  0
 19 34  1  0  0  0  0
 19 20  2  0  0  0  0
 35 38  1  0  0  0  0
  8 11  1  0  0  0  0
 44 45  1  0  0  0  0
 21 22  1  0  0  0  0
 18 21  1  0  0  0  0
 34 35  1  0  0  0  0
  7  8  1  0  0  0  0
 17 18  1  0  0  0  0
  3  4  1  0  0  0  0
  3  5  1  0  0  0  0
  3  6  1  0  0  0  0
 38 41  1  0  0  0  0
 38 42  1  0  0  0  0
 38 43  1  0  0  0  0
 11 14  1  0  0  0  0
 11 15  1  0  0  0  0
 11 16  1  0  0  0  0
 45 47  1  0  0  0  0
 45 48  1  0  0  0  0
 45 49  1  0  0  0  0
 22 30  1  0  0  0  0
 22 31  1  0  0  0  0
 21 28  1  0  0  0  0
 21 29  1  0  0  0  0
 35 40  1  0  0  0  0
  8 13  1  0  0  0  0
 18 27  1  0  0  0  0
 25 32  1  0  0  0  0
 25 33  1  0  0  0  0
 44 46  1  0  0  0  0
  7 12  1  0  0  0  0
 34 39  1  0  0  0  0
 17 26  1  0  0  0  0
M  END
$$$$

  -OEChem-05262214473D

 49 48  0     1  0  0  0  0  0999 V2000
   -1.9833   -0.0509   -3.3423 C   0  0  0  0  0  0  0  0  0  0  0  0
   -1.6199   -1.0613   -2.7518 O   0  0  0  0  0  0  0  0  0  0  0  0
   -3.3243   -0.0235   -3.9975 C   0  0  0  0  0  0  0  0  0  0  0  0
   -3.2886   -0.3689   -5.0432 H   0  0  0  0  0  0  0  0  0  0  0  0
   -4.0503   -0.6845   -3.4973 H   0  0  0  0  0  0  0  0  0  0  0  0
   -3.8104    0.9645   -4.0351 H   0  0  0  0  0  0  0  0  0  0  0  0
   -1.2607    1.1231   -3.4768 N   0  0  0  0  0  0  0  0  0  0  0  0
    0.0536    1.3115   -2.9213 C   0  0  2  0  0  0  0  0  0  0  0  0
    0.0266    0.8315   -1.4761 C   0  0  0  0  0  0  0  0  0  0  0  0
   -1.0065    0.7530   -0.8146 O   0  0  0  0  0  0  0  0  0  0  0  0
    0.4852    2.7674   -3.0025 C   0  0  0  0  0  0  0  0  0  0  0  0
   -1.6809    1.8924   -3.9952 H   0  0  0  0  0  0  0  0  0  0  0  0
    0.7360    0.6822   -3.5030 H   0  0  0  0  0  0  0  0  0  0  0  0
   -0.1867    3.4133   -2.4256 H   0  0  0  0  0  0  0  0  0  0  0  0
    1.4966    2.9042   -2.6056 H   0  0  0  0  0  0  0  0  0  0  0  0
    0.4754    3.1196   -4.0397 H   0  0  0  0  0  0  0  0  0  0  0  0
    1.2978    0.5411   -0.9947 N   0  0  0  0  0  0  0  0  0  0  0  0
    1.5371    0.0807    0.3489 C   0  0  2  0  0  0  0  0  0  0  0  0
    0.2701    0.3530    1.1520 C   0  0  0  0  0  0  0  0  0  0  0  0
   -0.7633   -0.2978    1.0121 O   0  0  0  0  0  0  0  0  0  0  0  0
    2.7391    0.7808    0.9954 C   0  0  0  0  0  0  0  0  0  0  0  0
    4.0747    0.4274    0.3381 C   0  0  0  0  0  0  0  0  0  0  0  0
    5.2628    1.1372    0.9603 C   0  0  0  0  0  0  0  0  0  0  0  0
    5.1714    1.9746    1.8532 O   0  0  0  0  0  0  0  0  0  0  0  0
    6.4586    0.7545    0.3915 N   0  0  0  0  0  0  0  0  0  0  0  0
    2.0949    0.6178   -1.6227 H   0  0  0  0  0  0  0  0  0  0  0  0
    1.6942   -1.0014    0.2868 H   0  0  0  0  0  0  0  0  0  0  0  0
    2.5996    1.8683    0.9327 H   0  0  0  0  0  0  0  0  0  0  0  0
    2.7834    0.5407    2.0652 H   0  0  0  0  0  0  0  0  0  0  0  0
    4.0395    0.7294   -0.7160 H   0  0  0  0  0  0  0  0  0  0  0  0
    4.2458   -0.6546    0.3610 H   0  0  0  0  0  0  0  0  0  0  0  0
    6.4474    0.0678   -0.3553 H   0  0  0  0  0  0  0  0  0  0  0  0
    7.3500    1.1351    0.6928 H   0  0  0  0  0  0  0  0  0  0  0  0
    0.4177    1.4388    2.0039 N   0  0  0  0  0  0  0  0  0  0  0  0
   -0.6392    1.9231    2.8624 C   0  0  2  0  0  0  0  0  0  0  0  0
   -1.2239    0.7303    3.6073 C   0  0  0  0  0  0  0  0  0  0  0  0
   -1.1283   -0.4262    3.2018 O   0  0  0  0  0  0  0  0  0  0  0  0
   -1.7134    2.6452    2.0640 C   0  0  0  0  0  0  0  0  0  0  0  0
    1.3136    1.9170    2.0250 H   0  0  0  0  0  0  0  0  0  0  0  0
   -0.1751    2.6100    3.5786 H   0  0  0  0  0  0  0  0  0  0  0  0
   -2.1898    1.9729    1.3411 H   0  0  0  0  0  0  0  0  0  0  0  0
   -2.4990    3.0363    2.7190 H   0  0  0  0  0  0  0  0  0  0  0  0
   -1.2858    3.4847    1.5055 H   0  0  0  0  0  0  0  0  0  0  0  0
   -1.9022    1.1137    4.7558 N   0  0  0  0  0  0  0  0  0  0  0  0
   -2.5560    0.1662    5.6280 C   0  0  0  0  0  0  0  0  0  0  0  0
   -1.9145    2.0929    5.0255 H   0  0  0  0  0  0  0  0  0  0  0  0
   -3.6090    0.0576    5.3288 H   0  0  0  0  0  0  0  0  0  0  0  0
   -2.0516   -0.8086    5.5542 H   0  0  0  0  0  0  0  0  0  0  0  0
   -2.5053    0.5277    6.6657 H   0  0  0  0  0  0  0  0  0  0  0  0
  1  3  1  0  0  0  0
  1  7  1  0  0  0  0
  1  2  2  0  0  0  0
 22 23  1  0  0  0  0
 23 25  1  0  0  0  0
 23 24  2  0  0  0  0
 35 36  1  0  0  0  0
 36 44  1  0  0  0  0
 36 37  2  0  0  0  0
  8  9  1  0  0  0  0
  9 17  1  0  0  0  0
  9 10  2  0  0  0  0
 18 19  1  0  0  0  0
 19 34  1  0  0  0  0
 19 20  2  0  0  0  0
 35 38  1  0  0  0  0
  8 11  1  0  0  0  0
 44 45  1  0  0  0  0
 21 22  1  0  0  0  0
 18 21  1  0  0  0  0
 34 35  1  0  0  0  0
  7  8  1  0  0  0  0
 17 18  1  0  0  0  0
  3  4  1  0  0  0  0
  3  5  1  0  0  0  0
  3  6  1  0  0  0  0
 38 41  1  0  0  0  0
 38 42  1  0  0  0  0
 38 43  1  0  0  0  0
 11 14  1  0  0  0  0
 11 15  1  0  0  0  0
 11 16  1  0  0  0  0
 45 47  1  0  0  0  0
 45 48  1  0  0  0  0
 45 49  1  0  0  0  0
 22 30  1  0  0  0  0
 22 31  1  0  0  0  0
 21 28  1  0  0  0  0
 21 29  1  0  0  0  0
 35 40  1  0  0  0  0
  8 13  1  0  0  0  0
 18 27  1  0  0  0  0
 25 32  1  0  0  0  0
 25 33  1  0  0  0  0
 44 46  1  0  0  0  0
  7 12  1  0  0  0  0
 34 39  1  0  0  0  0
 17 26  1  0  0  0  0
M  END
$$$$

  -OEChem-05262214473D

 49 48  0     1  0  0  0  0  0999 V2000
   -1.9833   -0.0509   -3.3423 C   0  0  0  0  0  0  0  0  0  0  0  0
   -1.6199   -1.0613   -2.7518 O   0  0  0  0  0  0  0  0  0  0  0  0
   -3.3243   -0.0235   -3.9975 C   0  0  0  0  0  0  0  0  0  0  0  0
   -3.2886   -0.3689   -5.0432 H   0  0  0  0  0  0  0  0  0  0  0  0
   -4.0503   -0.6845   -3.4973 H   0  0  0  0  0  0  0  0  0  0  0  0
   -3.8104    0.9645   -4.0351 H   0  0  0  0  0  0  0  0  0  0  0  0
   -1.2607    1.1231   -3.4768 N   0  0  0  0  0  0  0  0  0  0  0  0
    0.0536    1.3115   -2.9213 C   0  0  2  0  0  0  0  0  0  0  0  0
    0.0266    0.8315   -1.4761 C   0  0  0  0  0  0  0  0  0  0  0  0
   -1.0065    0.7530   -0.8146 O   0  0  0  0  0  0  0  0  0  0  0  0
    0.4852    2.7674   -3.0025 C   0  0  0  0  0  0  0  0  0  0  0  0
   -1.6809    1.8924   -3.9952 H   0  0  0  0  0  0  0  0  0  0  0  0
    0.7360    0.6822   -3.5030 H   0  0  0  0  0  0  0  0  0  0  0  0
   -0.1867    3.4133   -2.4256 H   0  0  0  0  0  0  0  0  0  0  0  0
    1.4966    2.9042   -2.6056 H   0  0  0  0  0  0  0  0  0  0  0  0
    0.4754    3.1196   -4.0397 H   0  0  0  0  0  0  0  0  0  0  0  0
    1.2978    0.5411   -0.9947 N   0  0  0  0  0  0  0  0  0  0  0  0
    1.5371    0.0807    0.3489 C   0  0  2  0  0  0  0  0  0  0  0  0
    0.2701    0.3530    1.1520 C   0  0  0  0  0  0  0  0  0  0  0  0
   -0.6648   -0.4425    1.2166 O   0  0  0  0  0  0  0  0  0  0  0  0
    2.7391    0.7808    0.9954 C   0  0  0  0  0  0  0  0  0  0  0  0
    4.0747    0.4274    0.3381 C   0  0  0  0  0  0  0  0  0  0  0  0
    5.2628    1.1372    0.9603 C   0  0  0  0  0  0  0  0  0  0  0  0
    5.1714    1.9746    1.8532 O   0  0  0  0  0  0  0  0  0  0  0  0
    6.4586    0.7545    0.3915 N   0  0  0  0  0  0  0  0  0  0  0  0
    2.0949    0.6178   -1.6227 H   0  0  0  0  0  0  0  0  0  0  0  0
    1.6942   -1.0014    0.2868 H   0  0  0  0  0  0  0  0  0  0  0  0
    2.5996    1.8683    0.9327 H   0  0  0  0  0  0  0  0  0  0  0  0
    2.7834    0.5407    2.0652 H   0  0  0  0  0  0  0  0  0  0  0  0
    4.0395    0.7294   -0.7160 H   0  0  0  0  0  0  0  0  0  0  0  0
    4.2458   -0.6546    0.3610 H   0  0  0  0  0  0  0  0  0  0  0  0
    6.4474    0.0678   -0.3553 H   0  0  0  0  0  0  0  0  0  0  0  0
    7.3500    1.1351    0.6928 H   0  0  0  0  0  0  0  0  0  0  0  0
    0.2893    1.6083    1.7438 N   0  0  0  0  0  0  0  0  0  0  0  0
   -0.7981    2.1254    2.5432 C   0  0  2  0  0  0  0  0  0  0  0  0
   -1.1846    1.0577    3.5582 C   0  0  0  0  0  0  0  0  0  0  0  0
   -0.9392   -0.1366    3.4019 O   0  0  0  0  0  0  0  0  0  0  0  0
   -1.9881    2.5083    1.6772 C   0  0  0  0  0  0  0  0  0  0  0  0
    1.1088    2.1929    1.6083 H   0  0  0  0  0  0  0  0  0  0  0  0
   -0.4136    3.0068    3.0678 H   0  0  0  0  0  0  0  0  0  0  0  0
   -2.3870    1.6378    1.1436 H   0  0  0  0  0  0  0  0  0  0  0  0
   -2.8001    2.9263    2.2812 H   0  0  0  0  0  0  0  0  0  0  0  0
   -1.7011    3.2543    0.9283 H   0  0  0  0  0  0  0  0  0  0  0  0
   -1.8740    1.5901    4.6387 N   0  0  0  0  0  0  0  0  0  0  0  0
   -2.3597    0.7785    5.7302 C   0  0  0  0  0  0  0  0  0  0  0  0
   -2.0162    2.5943    4.6950 H   0  0  0  0  0  0  0  0  0  0  0  0
   -3.3955    0.4699    5.5257 H   0  0  0  0  0  0  0  0  0  0  0  0
   -1.7251   -0.1140    5.8339 H   0  0  0  0  0  0  0  0  0  0  0  0
   -2.3281    1.3612    6.6626 H   0  0  0  0  0  0  0  0  0  0  0  0
  1  3  1  0  0  0  0
  1  7  1  0  0  0  0
  1  2  2  0  0  0  0
 22 23  1  0  0  0  0
 23 25  1  0  0  0  0
 23 24  2  0  0  0  0
 35 36  1  0  0  0  0
 36 44  1  0  0  0  0
 36 37  2  0  0  0  0
  8  9  1  0  0  0  0
  9 17  1  0  0  0  0
  9 10  2  0  0  0  0
 18 19  1  0  0  0  0
 19 34  1  0  0  0  0
 19 20  2  0  0  0  0
 35 38  1  0  0  0  0
  8 11  1  0  0  0  0
 44 45  1  0  0  0  0
 21 22  1  0  0  0  0
 18 21  1  0  0  0  0
 34 35  1  0  0  0  0
  7  8  1  0  0  0  0
 17 18  1  0  0  0  0
  3  4  1  0  0  0  0
  3  5  1  0  0  0  0
  3  6  1  0  0  0  0
 38 41  1  0  0  0  0
 38 42  1  0  0  0  0
 38 43  1  0  0  0  0
 11 14  1  0  0  0  0
 11 15  1  0  0  0  0
 11 16  1  0  0  0  0
 45 47  1  0  0  0  0
 45 48  1  0  0  0  0
 45 49  1  0  0  0  0
 22 30  1  0  0  0  0
 22 31  1  0  0  0  0
 21 28  1  0  0  0  0
 21 29  1  0  0  0  0
 35 40  1  0  0  0  0
  8 13  1  0  0  0  0
 18 27  1  0  0  0  0
 25 32  1  0  0  0  0
 25 33  1  0  0  0  0
 44 46  1  0  0  0  0
  7 12  1  0  0  0  0
 34 39  1  0  0  0  0
 17 26  1  0  0  0  0
M  END
$$$$

  -OEChem-05262214473D

 49 48  0     1  0  0  0  0  0999 V2000
   -1.9833   -0.0509   -3.3423 C   0  0  0  0  0  0  0  0  0  0  0  0
   -1.6199   -1.0613   -2.7518 O   0  0  0  0  0  0  0  0  0  0  0  0
   -3.3243   -0.0235   -3.9975 C   0  0  0  0  0  0  0  0  0  0  0  0
   -3.2886   -0.3689   -5.0432 H   0  0  0  0  0  0  0  0  0  0  0  0
   -4.0503   -0.6845   -3.4973 H   0  0  0  0  0  0  0  0  0  0  0  0
   -3.8104    0.9645   -4.0351 H   0  0  0  0  0  0  0  0  0  0  0  0
   -1.2607    1.1231   -3.4768 N   0  0  0  0  0  0  0  0  0  0  0  0
    0.0536    1.3115   -2.9213 C   0  0  2  0  0  0  0  0  0  0  0  0
    0.0266    0.8315   -1.4761 C   0  0  0  0  0  0  0  0  0  0  0  0
   -1.0065    0.7530   -0.8146 O   0  0  0  0  0  0  0  0  0  0  0  0
    0.4852    2.7674   -3.0025 C   0  0  0  0  0  0  0  0  0  0  0  0
   -1.6809    1.8924   -3.9952 H   0  0  0  0  0  0  0  0  0  0  0  0
    0.7360    0.6822   -3.5030 H   0  0  0  0  0  0  0  0  0  0  0  0
   -0.1867    3.4133   -2.4256 H   0  0  0  0  0  0  0  0  0  0  0  0
    1.4966    2.9042   -2.6056 H   0  0  0  0  0  0  0  0  0  0  0  0
    0.4754    3.1196   -4.0397 H   0  0  0  0  0  0  0  0  0  0  0  0
    1.2978    0.5411   -0.9947 N   0  0  0  0  0  0  0  0  0  0  0  0
    1.5371    0.0807    0.3489 C   0  0  2  0  0  0  0  0  0  0  0  0
    0.2701    0.3530    1.1520 C   0  0  0  0  0  0  0  0  0  0  0  0
   -0.5404   -0.5249    1.4407 O   0  0  0  0  0  0  0  0  0  0  0  0
    2.7391    0.7808    0.9954 C   0  0  0  0  0  0  0  0  0  0  0  0
    4.0747    0.4274    0.3381 C   0  0  0  0  0  0  0  0  0  0  0  0
    5.2628    1.1372    0.9603 C   0  0  0  0  0  0  0  0  0  0  0  0
    5.1714    1.9746    1.8532 O   0  0  0  0  0  0  0  0  0  0  0  0
    6.4586    0.7545    0.3915 N   0  0  0  0  0  0  0  0  0  0  0  0
    2.0949    0.6178   -1.6227 H   0  0  0  0  0  0  0  0  0  0  0  0
    1.6942   -1.0014    0.2868 H   0  0  0  0  0  0  0  0  0  0  0  0
    2.5996    1.8683    0.9327 H   0  0  0  0  0  0  0  0  0  0  0  0
    2.7834    0.5407    2.0652 H   0  0  0  0  0  0  0  0  0  0  0  0
    4.0395    0.7294   -0.7160 H   0  0  0  0  0  0  0  0  0  0  0  0
    4.2458   -0.6546    0.3610 H   0  0  0  0  0  0  0  0  0  0  0  0
    6.4474    0.0678   -0.3553 H   0  0  0  0  0  0  0  0  0  0  0  0
    7.3500    1.1351    0.6928 H   0  0  0  0  0  0  0  0  0  0  0  0
    0.1302    1.6986    1.4621 N   0  0  0  0  0  0  0  0  0  0  0  0
   -0.9938    2.2304    2.1987 C   0  0  2  0  0  0  0  0  0  0  0  0
   -1.1936    1.3688    3.4386 C   0  0  0  0  0  0  0  0  0  0  0  0
   -0.7868    0.2120    3.5242 O   0  0  0  0  0  0  0  0  0  0  0  0
   -2.2526    2.2554    1.3456 C   0  0  0  0  0  0  0  0  0  0  0  0
    0.8541    2.3419    1.1559 H   0  0  0  0  0  0  0  0  0  0  0  0
   -0.7216    3.2477    2.5002 H   0  0  0  0  0  0  0  0  0  0  0  0
   -2.5409    1.2448    1.0340 H   0  0  0  0  0  0  0  0  0  0  0  0
   -3.0963    2.6849    1.8958 H   0  0  0  0  0  0  0  0  0  0  0  0
   -2.0975    2.8510    0.4396 H   0  0  0  0  0  0  0  0  0  0  0  0
   -1.9171    2.0290    4.4218 N   0  0  0  0  0  0  0  0  0  0  0  0
   -2.2488    1.4186    5.6881 C   0  0  0  0  0  0  0  0  0  0  0  0
   -2.1981    2.9937    4.2727 H   0  0  0  0  0  0  0  0  0  0  0  0
   -3.2365    0.9397    5.6173 H   0  0  0  0  0  0  0  0  0  0  0  0
   -1.4915    0.6615    5.9395 H   0  0  0  0  0  0  0  0  0  0  0  0
   -2.2707    2.1898    6.4721 H   0  0  0  0  0  0  0  0  0  0  0  0
  1  3  1  0  0  0  0
  1  7  1  0  0  0  0
  1  2  2  0  0  0  0
 22 23  1  0  0  0  0
 23 25  1  0  0  0  0
 23 24  2  0  0  0  0
 35 36  1  0  0  0  0
 36 44  1  0  0  0  0
 36 37  2  0  0  0  0
  8  9  1  0  0  0  0
  9 17  1  0  0  0  0
  9 10  2  0  0  0  0
 18 19  1  0  0  0  0
 19 34  1  0  0  0  0
 19 20  2  0  0  0  0
 35 38  1  0  0  0  0
  8 11  1  0  0  0  0
 44 45  1  0  0  0  0
 21 22  1  0  0  0  0
 18 21  1  0  0  0  0
 34 35  1  0  0  0  0
  7  8  1  0  0  0  0
 17 18  1  0  0  0  0
  3  4  1  0  0  0  0
  3  5  1  0  0  0  0
  3  6  1  0  0  0  0
 38 41  1  0  0  0  0
 38 42  1  0  0  0  0
 38 43  1  0  0  0  0
 11 14  1  0  0  0  0
 11 15  1  0  0  0  0
 11 16  1  0  0  0  0
 45 47  1  0  0  0  0
 45 48  1  0  0  0  0
 45 49  1  0  0  0  0
 22 30  1  0  0  0  0
 22 31  1  0  0  0  0
 21 28  1  0  0  0  0
 21 29  1  0  0  0  0
 35 40  1  0  0  0  0
  8 13  1  0  0  0  0
 18 27  1  0  0  0  0
 25 32  1  0  0  0  0
 25 33  1  0  0  0  0
 44 46  1  0  0  0  0
  7 12  1  0  0  0  0
 34 39  1  0  0  0  0
 17 26  1  0  0  0  0
M  END
$$$$

  -OEChem-05262214473D

 49 48  0     1  0  0  0  0  0999 V2000
   -1.9833   -0.0509   -3.3423 C   0  0  0  0  0  0  0  0  0  0  0  0
   -1.6199   -1.0613   -2.7518 O   0  0  0  0  0  0  0  0  0  0  0  0
   -3.3243   -0.0235   -3.9975 C   0  0  0  0  0  0  0  0  0  0  0  0
   -3.2886   -0.3689   -5.0432 H   0  0  0  0  0  0  0  0  0  0  0  0
   -4.0503   -0.6845   -3.4973 H   0  0  0  0  0  0  0  0  0  0  0  0
   -3.8104    0.9645   -4.0351 H   0  0  0  0  0  0  0  0  0  0  0  0
   -1.2607    1.1231   -3.4768 N   0  0  0  0  0  0  0  0  0  0  0  0
    0.0536    1.3115   -2.9213 C   0  0  2  0  0  0  0  0  0  0  0  0
    0.0266    0.8315   -1.4761 C   0  0  0  0  0  0  0  0  0  0  0  0
   -1.0065    0.7530   -0.8146 O   0  0  0  0  0  0  0  0  0  0  0  0
    0.4852    2.7674   -3.0025 C   0  0  0  0  0  0  0  0  0  0  0  0
   -1.6809    1.8924   -3.9952 H   0  0  0  0  0  0  0  0  0  0  0  0
    0.7360    0.6822   -3.5030 H   0  0  0  0  0  0  0  0  0  0  0  0
   -0.1867    3.4133   -2.4256 H   0  0  0  0  0  0  0  0  0  0  0  0
    1.4966    2.9042   -2.6056 H   0  0  0  0  0  0  0  0  0  0  0  0
    0.4754    3.1196   -4.0397 H   0  0  0  0  0  0  0  0  0  0  0  0
    1.2978    0.5411   -0.9947 N   0  0  0  0  0  0  0  0  0  0  0  0
    1.5371    0.0807    0.3489 C   0  0  2  0  0  0  0  0  0  0  0  0
    0.2701    0.3530    1.1520 C   0  0  0  0  0  0  0  0  0  0  0  0
   -0.3987   -0.5393    1.6692 O   0  0  0  0  0  0  0  0  0  0  0  0
    2.7391    0.7808    0.9954 C   0  0  0  0  0  0  0  0  0  0  0  0
    4.0747    0.4274    0.3381 C   0  0  0  0  0  0  0  0  0  0  0  0
    5.2628    1.1372    0.9603 C   0  0  0  0  0  0  0  0  0  0  0  0
    5.1714    1.9746    1.8532 O   0  0  0  0  0  0  0  0  0  0  0  0
    6.4586    0.7545    0.3915 N   0  0  0  0  0  0  0  0  0  0  0  0
    2.0949    0.6178   -1.6227 H   0  0  0  0  0  0  0  0  0  0  0  0
    1.6942   -1.0014    0.2868 H   0  0  0  0  0  0  0  0  0  0  0  0
    2.5996    1.8683    0.9327 H   0  0  0  0  0  0  0  0  0  0  0  0
    2.7834    0.5407    2.0652 H   0  0  0  0  0  0  0  0  0  0  0  0
    4.0395    0.7294   -0.7160 H   0  0  0  0  0  0  0  0  0  0  0  0
    4.2458   -0.6546    0.3610 H   0  0  0  0  0  0  0  0  0  0  0  0
    6.4474    0.0678   -0.3553 H   0  0  0  0  0  0  0  0  0  0  0  0
    7.3500    1.1351    0.6928 H   0  0  0  0  0  0  0  0  0  0  0  0
   -0.0489    1.7035    1.1779 N   0  0  0  0  0  0  0  0  0  0  0  0
   -1.2132    2.2310    1.8524 C   0  0  2  0  0  0  0  0  0  0  0  0
   -1.2502    1.6423    3.2565 C   0  0  0  0  0  0  0  0  0  0  0  0
   -0.6814    0.5957    3.5603 O   0  0  0  0  0  0  0  0  0  0  0  0
   -2.4889    1.9037    1.0920 C   0  0  0  0  0  0  0  0  0  0  0  0
    0.5668    2.3538    0.6987 H   0  0  0  0  0  0  0  0  0  0  0  0
   -1.0782    3.3164    1.9143 H   0  0  0  0  0  0  0  0  0  0  0  0
   -2.6410    0.8206    1.0198 H   0  0  0  0  0  0  0  0  0  0  0  0
   -3.3672    2.3284    1.5892 H   0  0  0  0  0  0  0  0  0  0  0  0
   -2.4481    2.3023    0.0726 H   0  0  0  0  0  0  0  0  0  0  0  0
   -2.0287    2.4004    4.1199 N   0  0  0  0  0  0  0  0  0  0  0  0
   -2.2309    2.0430    5.5046 C   0  0  0  0  0  0  0  0  0  0  0  0
   -2.4477    3.2638    3.7872 H   0  0  0  0  0  0  0  0  0  0  0  0
   -3.1427    1.4347    5.5975 H   0  0  0  0  0  0  0  0  0  0  0  0
   -1.3666    1.4652    5.8640 H   0  0  0  0  0  0  0  0  0  0  0  0
   -2.3371    2.9571    6.1073 H   0  0  0  0  0  0  0  0  0  0  0  0
  1  3  1  0  0  0  0
  1  7  1  0  0  0  0
  1  2  2  0  0  0  0
 22 23  1  0  0  0  0
 23 25  1  0  0  0  0
 23 24  2  0  0  0  0
 35 36  1  0  0  0  0
 36 44  1  0  0  0  0
 36 37  2  0  0  0  0
  8  9  1  0  0  0  0
  9 17  1  0  0  0  0
  9 10  2  0  0  0  0
 18 19  1  0  0  0  0
 19 34  1  0  0  0  0
 19 20  2  0  0  0  0
 35 38  1  0  0  0  0
  8 11  1  0  0  0  0
 44 45  1  0  0  0  0
 21 22  1  0  0  0  0
 18 21  1  0  0  0  0
 34 35  1  0  0  0  0
  7  8  1  0  0  0  0
 17 18  1  0  0  0  0
  3  4  1  0  0  0  0
  3  5  1  0  0  0  0
  3  6  1  0  0  0  0
 38 41  1  0  0  0  0
 38 42  1  0  0  0  0
 38 43  1  0  0  0  0
 11 14  1  0  0  0  0
 11 15  1  0  0  0  0
 11 16  1  0  0  0  0
 45 47  1  0  0  0  0
 45 48  1  0  0  0  0
 45 49  1  0  0  0  0
 22 30  1  0  0  0  0
 22 31  1  0  0  0  0
 21 28  1  0  0  0  0
 21 29  1  0  0  0  0
 35 40  1  0  0  0  0
  8 13  1  0  0  0  0
 18 27  1  0  0  0  0
 25 32  1  0  0  0  0
 25 33  1  0  0  0  0
 44 46  1  0  0  0  0
  7 12  1  0  0  0  0
 34 39  1  0  0  0  0
 17 26  1  0  0  0  0
M  END
$$$$

  -OEChem-05262214473D

 49 48  0     1  0  0  0  0  0999 V2000
   -1.9833   -0.0509   -3.3423 C   0  0  0  0  0  0  0  0  0  0  0  0
   -1.6199   -1.0613   -2.7518 O   0  0  0  0  0  0  0  0  0  0  0  0
   -3.3243   -0.0235   -3.9975 C   0  0  0  0  0  0  0  0  0  0  0  0
   -3.2886   -0.3689   -5.0432 H   0  0  0  0  0  0  0  0  0  0  0  0
   -4.0503   -0.6845   -3.4973 H   0  0  0  0  0  0  0  0  0  0  0  0
   -3.8104    0.9645   -4.0351 H   0  0  0  0  0  0  0  0  0  0  0  0
   -1.2607    1.1231   -3.4768 N   0  0  0  0  0  0  0  0  0  0  0  0
    0.0536    1.3115   -2.9213 C   0  0  2  0  0  0  0  0  0  0  0  0
    0.0266    0.8315   -1.4761 C   0  0  0  0  0  0  0  0  0  0  0  0
   -1.0065    0.7530   -0.8146 O   0  0  0  0  0  0  0  0  0  0  0  0
    0.4852    2.7674   -3.0025 C   0  0  0  0  0  0  0  0  0  0  0  0
   -1.6809    1.8924   -3.9952 H   0  0  0  0  0  0  0  0  0  0  0  0
    0.7360    0.6822   -3.5030 H   0  0  0  0  0  0  0  0  0  0  0  0
   -0.1867    3.4133   -2.4256 H   0  0  0  0  0  0  0  0  0  0  0  0
    1.4966    2.9042   -2.6056 H   0  0  0  0  0  0  0  0  0  0  0  0
    0.4754    3.1196   -4.0397 H   0  0  0  0  0  0  0  0  0  0  0  0
    1.2978    0.5411   -0.9947 N   0  0  0  0  0  0  0  0  0  0  0  0
    1.5371    0.0807    0.3489 C   0  0  2  0  0  0  0  0  0  0  0  0
    0.2701    0.3530    1.1520 C   0  0  0  0  0  0  0  0  0  0  0  0
   -0.2493   -0.4848    1.8864 O   0  0  0  0  0  0  0  0  0  0  0  0
    2.7391    0.7808    0.9954 C   0  0  0  0  0  0  0  0  0  0  0  0
    4.0747    0.4274    0.3381 C   0  0  0  0  0  0  0  0  0  0  0  0
    5.2628    1.1372    0.9603 C   0  0  0  0  0  0  0  0  0  0  0  0
    5.1714    1.9746    1.8532 O   0  0  0  0  0  0  0  0  0  0  0  0
    6.4586    0.7545    0.3915 N   0  0  0  0  0  0  0  0  0  0  0  0
    2.0949    0.6178   -1.6227 H   0  0  0  0  0  0  0  0  0  0  0  0
    1.6942   -1.0014    0.2868 H   0  0  0  0  0  0  0  0  0  0  0  0
    2.5996    1.8683    0.9327 H   0  0  0  0  0  0  0  0  0  0  0  0
    2.7834    0.5407    2.0652 H   0  0  0  0  0  0  0  0  0  0  0  0
    4.0395    0.7294   -0.7160 H   0  0  0  0  0  0  0  0  0  0  0  0
    4.2458   -0.6546    0.3610 H   0  0  0  0  0  0  0  0  0  0  0  0
    6.4474    0.0678   -0.3553 H   0  0  0  0  0  0  0  0  0  0  0  0
    7.3500    1.1351    0.6928 H   0  0  0  0  0  0  0  0  0  0  0  0
   -0.2357    1.6228    0.9106 N   0  0  0  0  0  0  0  0  0  0  0  0
   -1.4412    2.1272    1.5279 C   0  0  2  0  0  0  0  0  0  0  0  0
   -1.3506    1.8596    3.0245 C   0  0  0  0  0  0  0  0  0  0  0  0
   -0.6303    0.9885    3.5077 O   0  0  0  0  0  0  0  0  0  0  0  0
   -2.6809    1.4773    0.9336 C   0  0  0  0  0  0  0  0  0  0  0  0
    0.2666    2.2278    0.2677 H   0  0  0  0  0  0  0  0  0  0  0  0
   -1.4591    3.2080    1.3500 H   0  0  0  0  0  0  0  0  0  0  0  0
   -2.6806    0.3942    1.1019 H   0  0  0  0  0  0  0  0  0  0  0  0
   -3.5945    1.8812    1.3823 H   0  0  0  0  0  0  0  0  0  0  0  0
   -2.7288    1.6455   -0.1477 H   0  0  0  0  0  0  0  0  0  0  0  0
   -2.2010    2.6790    3.7536 N   0  0  0  0  0  0  0  0  0  0  0  0
   -2.3072    2.6091    5.1923 C   0  0  0  0  0  0  0  0  0  0  0  0
   -2.7481    3.3863    3.2717 H   0  0  0  0  0  0  0  0  0  0  0  0
   -3.1205    1.9215    5.4675 H   0  0  0  0  0  0  0  0  0  0  0  0
   -1.3591    2.2422    5.6124 H   0  0  0  0  0  0  0  0  0  0  0  0
   -2.5226    3.6106    5.5930 H   0  0  0  0  0  0  0  0  0  0  0  0
  1  3  1  0  0  0  0
  1  7  1  0  0  0  0
  1  2  2  0  0  0  0
 22 23  1  0  0  0  0
 23 25  1  0  0  0  0
 23 24  2  0  0  0  0
 35 36  1  0  0  0  0
 36 44  1  0  0  0  0
 36 37  2  0  0  0  0
  8  9  1  0  0  0  0
  9 17  1  0  0  0  0
  9 10  2  0  0  0  0
 18 19  1  0  0  0  0
 19 34  1  0  0  0  0
 19 20  2  0  0  0  0
 35 38  1  0  0  0  0
  8 11  1  0  0  0  0
 44 45  1  0  0  0  0
 21 22  1  0  0  0  0
 18 21  1  0  0  0  0
 34 35  1  0  0  0  0
  7  8  1  0  0  0  0
 17 18  1  0  0  0  0
  3  4  1  0  0  0  0
  3  5  1  0  0  0  0
  3  6  1  0  0  0  0
 38 41  1  0  0  0  0
 38 42  1  0  0  0  0
 38 43  1  0  0  0  0
 11 14  1  0  0  0  0
 11 15  1  0  0  0  0
 11 16  1  0  0  0  0
 45 47  1  0  0  0  0
 45 48  1  0  0  0  0
 45 49  1  0  0  0  0
 22 30  1  0  0  0  0
 22 31  1  0  0  0  0
 21 28  1  0  0  0  0
 21 29  1  0  0  0  0
 35 40  1  0  0  0  0
  8 13  1  0  0  0  0
 18 27  1  0  0  0  0
 25 32  1  0  0  0  0
 25 33  1  0  0  0  0
 44 46  1  0  0  0  0
  7 12  1  0  0  0  0
 34 39  1  0  0  0  0
 17 26  1  0  0  0  0
M  END
$$$$

  -OEChem-05262214473D

 49 48  0     1  0  0  0  0  0999 V2000
   -1.9833   -0.0509   -3.3423 C   0  0  0  0  0  0  0  0  0  0  0  0
   -1.6199   -1.0613   -2.7518 O   0  0  0  0  0  0  0  0  0  0  0  0
   -3.3243   -0.0235   -3.9975 C   0  0  0  0  0  0  0  0  0  0  0  0
   -3.2886   -0.3689   -5.0432 H   0  0  0  0  0  0  0  0  0  0  0  0
   -4.0503   -0.6845   -3.4973 H   0  0  0  0  0  0  0  0  0  0  0  0
   -3.8104    0.9645   -4.0351 H   0  0  0  0  0  0  0  0  0  0  0  0
   -1.2607    1.1231   -3.4768 N   0  0  0  0  0  0  0  0  0  0  0  0
    0.0536    1.3115   -2.9213 C   0  0  2  0  0  0  0  0  0  0  0  0
    0.0266    0.8315   -1.4761 C   0  0  0  0  0  0  0  0  0  0  0  0
   -1.0065    0.7530   -0.8146 O   0  0  0  0  0  0  0  0  0  0  0  0
    0.4852    2.7674   -3.0025 C   0  0  0  0  0  0  0  0  0  0  0  0
   -1.6809    1.8924   -3.9952 H   0  0  0  0  0  0  0  0  0  0  0  0
    0.7360    0.6822   -3.5030 H   0  0  0  0  0  0  0  0  0  0  0  0
   -0.1867    3.4133   -2.4256 H   0  0  0  0  0  0  0  0  0  0  0  0
    1.4966    2.9042   -2.6056 H   0  0  0  0  0  0  0  0  0  0  0  0
    0.4754    3.1196   -4.0397 H   0  0  0  0  0  0  0  0  0  0  0  0
    1.2978    0.5411   -0.9947 N   0  0  0  0  0  0  0  0  0  0  0  0
    1.5371    0.0807    0.3489 C   0  0  2  0  0  0  0  0  0  0  0  0
    0.2701    0.3530    1.1520 C   0  0  0  0  0  0  0  0  0  0  0  0
   -0.1024   -0.3650    2.0776 O   0  0  0  0  0  0  0  0  0  0  0  0
    2.7391    0.7808    0.9954 C   0  0  0  0  0  0  0  0  0  0  0  0
    4.0747    0.4274    0.3381 C   0  0  0  0  0  0  0  0  0  0  0  0
    5.2628    1.1372    0.9603 C   0  0  0  0  0  0  0  0  0  0  0  0
    5.1714    1.9746    1.8532 O   0  0  0  0  0  0  0  0  0  0  0  0
    6.4586    0.7545    0.3915 N   0  0  0  0  0  0  0  0  0  0  0  0
    2.0949    0.6178   -1.6227 H   0  0  0  0  0  0  0  0  0  0  0  0
    1.6942   -1.0014    0.2868 H   0  0  0  0  0  0  0  0  0  0  0  0
    2.5996    1.8683    0.9327 H   0  0  0  0  0  0  0  0  0  0  0  0
    2.7834    0.5407    2.0652 H   0  0  0  0  0  0  0  0  0  0  0  0
    4.0395    0.7294   -0.7160 H   0  0  0  0  0  0  0  0  0  0  0  0
    4.2458   -0.6546    0.3610 H   0  0  0  0  0  0  0  0  0  0  0  0
    6.4474    0.0678   -0.3553 H   0  0  0  0  0  0  0  0  0  0  0  0
    7.3500    1.1351    0.6928 H   0  0  0  0  0  0  0  0  0  0  0  0
   -0.4175    1.4618    0.6784 N   0  0  0  0  0  0  0  0  0  0  0  0
   -1.6622    1.9261    1.2474 C   0  0  2  0  0  0  0  0  0  0  0  0
   -1.4879    2.0059    2.7582 C   0  0  0  0  0  0  0  0  0  0  0  0
   -0.6369    1.3636    3.3701 O   0  0  0  0  0  0  0  0  0  0  0  0
   -2.8156    1.0051    0.8812 C   0  0  0  0  0  0  0  0  0  0  0  0
   -0.0261    1.9725   -0.1075 H   0  0  0  0  0  0  0  0  0  0  0  0
   -1.8384    2.9301    0.8459 H   0  0  0  0  0  0  0  0  0  0  0  0
   -2.6569   -0.0055    1.2749 H   0  0  0  0  0  0  0  0  0  0  0  0
   -3.7626    1.3738    1.2891 H   0  0  0  0  0  0  0  0  0  0  0  0
   -2.9207    0.9255   -0.2062 H   0  0  0  0  0  0  0  0  0  0  0  0
   -2.4224    2.8458    3.3478 N   0  0  0  0  0  0  0  0  0  0  0  0
   -2.4725    3.0783    4.7723 C   0  0  0  0  0  0  0  0  0  0  0  0
   -3.0788    3.3527    2.7614 H   0  0  0  0  0  0  0  0  0  0  0  0
   -3.1714    2.3667    5.2362 H   0  0  0  0  0  0  0  0  0  0  0  0
   -1.4694    2.9397    5.2019 H   0  0  0  0  0  0  0  0  0  0  0  0
   -2.8147    4.1060    4.9641 H   0  0  0  0  0  0  0  0  0  0  0  0
  1  3  1  0  0  0  0
  1  7  1  0  0  0  0
  1  2  2  0  0  0  0
 22 23  1  0  0  0  0
 23 25  1  0  0  0  0
 23 24  2  0  0  0  0
 35 36  1  0  0  0  0
 36 44  1  0  0  0  0
 36 37  2  0  0  0  0
  8  9  1  0  0  0  0
  9 17  1  0  0  0  0
  9 10  2  0  0  0  0
 18 19  1  0  0  0  0
 19 34  1  0  0  0  0
 19 20  2  0  0  0  0
 35 38  1  0  0  0  0
  8 11  1  0  0  0  0
 44 45  1  0  0  0  0
 21 22  1  0  0  0  0
 18 21  1  0  0  0  0
 34 35  1  0  0  0  0
  7  8  1  0  0  0  0
 17 18  1  0  0  0  0
  3  4  1  0  0  0  0
  3  5  1  0  0  0  0
  3  6  1  0  0  0  0
 38 41  1  0  0  0  0
 38 42  1  0  0  0  0
 38 43  1  0  0  0  0
 11 14  1  0  0  0  0
 11 15  1  0  0  0  0
 11 16  1  0  0  0  0
 45 47  1  0  0  0  0
 45 48  1  0  0  0  0
 45 49  1  0  0  0  0
 22 30  1  0  0  0  0
 22 31  1  0  0  0  0
 21 28  1  0  0  0  0
 21 29  1  0  0  0  0
 35 40  1  0  0  0  0
  8 13  1  0  0  0  0
 18 27  1  0  0  0  0
 25 32  1  0  0  0  0
 25 33  1  0  0  0  0
 44 46  1  0  0  0  0
  7 12  1  0  0  0  0
 34 39  1  0  0  0  0
 17 26  1  0  0  0  0
M  END
$$$$

  -OEChem-05262214473D

 49 48  0     1  0  0  0  0  0999 V2000
   -1.9833   -0.0509   -3.3423 C   0  0  0  0  0  0  0  0  0  0  0  0
   -1.6199   -1.0613   -2.7518 O   0  0  0  0  0  0  0  0  0  0  0  0
   -3.3243   -0.0235   -3.9975 C   0  0  0  0  0  0  0  0  0  0  0  0
   -3.2886   -0.3689   -5.0432 H   0  0  0  0  0  0  0  0  0  0  0  0
   -4.0503   -0.6845   -3.4973 H   0  0  0  0  0  0  0  0  0  0  0  0
   -3.8104    0.9645   -4.0351 H   0  0  0  0  0  0  0  0  0  0  0  0
   -1.2607    1.1231   -3.4768 N   0  0  0  0  0  0  0  0  0  0  0  0
    0.0536    1.3115   -2.9213 C   0  0  2  0  0  0  0  0  0  0  0  0
    0.0266    0.8315   -1.4761 C   0  0  0  0  0  0  0  0  0  0  0  0
   -1.0065    0.7530   -0.8146 O   0  0  0  0  0  0  0  0  0  0  0  0
    0.4852    2.7674   -3.0025 C   0  0  0  0  0  0  0  0  0  0  0  0
   -1.6809    1.8924   -3.9952 H   0  0  0  0  0  0  0  0  0  0  0  0
    0.7360    0.6822   -3.5030 H   0  0  0  0  0  0  0  0  0  0  0  0
   -0.1867    3.4133   -2.4256 H   0  0  0  0  0  0  0  0  0  0  0  0
    1.4966    2.9042   -2.6056 H   0  0  0  0  0  0  0  0  0  0  0  0
    0.4754    3.1196   -4.0397 H   0  0  0  0  0  0  0  0  0  0  0  0
    1.2978    0.5411   -0.9947 N   0  0  0  0  0  0  0  0  0  0  0  0
    1.5371    0.0807    0.3489 C   0  0  2  0  0  0  0  0  0  0  0  0
    0.2701    0.3530    1.1520 C   0  0  0  0  0  0  0  0  0  0  0  0
    0.0320   -0.1882    2.2297 O   0  0  0  0  0  0  0  0  0  0  0  0
    2.7391    0.7808    0.9954 C   0  0  0  0  0  0  0  0  0  0  0  0
    4.0747    0.4274    0.3381 C   0  0  0  0  0  0  0  0  0  0  0  0
    5.2628    1.1372    0.9603 C   0  0  0  0  0  0  0  0  0  0  0  0
    5.1714    1.9746    1.8532 O   0  0  0  0  0  0  0  0  0  0  0  0
    6.4586    0.7545    0.3915 N   0  0  0  0  0  0  0  0  0  0  0  0
    2.0949    0.6178   -1.6227 H   0  0  0  0  0  0  0  0  0  0  0  0
    1.6942   -1.0014    0.2868 H   0  0  0  0  0  0  0  0  0  0  0  0
    2.5996    1.8683    0.9327 H   0  0  0  0  0  0  0  0  0  0  0  0
    2.7834    0.5407    2.0652 H   0  0  0  0  0  0  0  0  0  0  0  0
    4.0395    0.7294   -0.7160 H   0  0  0  0  0  0  0  0  0  0  0  0
    4.2458   -0.6546    0.3610 H   0  0  0  0  0  0  0  0  0  0  0  0
    6.4474    0.0678   -0.3553 H   0  0  0  0  0  0  0  0  0  0  0  0
    7.3500    1.1351    0.6928 H   0  0  0  0  0  0  0  0  0  0  0  0
   -0.5818    1.2316    0.4972 N   0  0  0  0  0  0  0  0  0  0  0  0
   -1.8613    1.6414    1.0298 C   0  0  2  0  0  0  0  0  0  0  0  0
   -1.6528    2.0713    2.4759 C   0  0  0  0  0  0  0  0  0  0  0  0
   -0.7008    1.6954    3.1568 O   0  0  0  0  0  0  0  0  0  0  0  0
   -2.8838    0.5194    0.9383 C   0  0  0  0  0  0  0  0  0  0  0  0
   -0.2914    1.6052   -0.4016 H   0  0  0  0  0  0  0  0  0  0  0  0
   -2.1901    2.5014    0.4363 H   0  0  0  0  0  0  0  0  0  0  0  0
   -2.5715   -0.3510    1.5267 H   0  0  0  0  0  0  0  0  0  0  0  0
   -3.8601    0.8406    1.3160 H   0  0  0  0  0  0  0  0  0  0  0  0
   -3.0105    0.1913   -0.0990 H   0  0  0  0  0  0  0  0  0  0  0  0
   -2.6777    2.8894    2.9301 N   0  0  0  0  0  0  0  0  0  0  0  0
   -2.7156    3.4187    4.2734 C   0  0  0  0  0  0  0  0  0  0  0  0
   -3.4172    3.1655    2.2909 H   0  0  0  0  0  0  0  0  0  0  0  0
   -3.2920    2.7401    4.9194 H   0  0  0  0  0  0  0  0  0  0  0  0
   -1.6900    3.5101    4.6604 H   0  0  0  0  0  0  0  0  0  0  0  0
   -3.1935    4.4094    4.2637 H   0  0  0  0  0  0  0  0  0  0  0  0
  1  3  1  0  0  0  0
  1  7  1  0  0  0  0
  1  2  2  0  0  0  0
 22 23  1  0  0  0  0
 23 25  1  0  0  0  0
 23 24  2  0  0  0  0
 35 36  1  0  0  0  0
 36 44  1  0  0  0  0
 36 37  2  0  0  0  0
  8  9  1  0  0  0  0
  9 17  1  0  0  0  0
  9 10  2  0  0  0  0
 18 19  1  0  0  0  0
 19 34  1  0  0  0  0
 19 20  2  0  0  0  0
 35 38  1  0  0  0  0
  8 11  1  0  0  0  0
 44 45  1  0  0  0  0
 21 22  1  0  0  0  0
 18 21  1  0  0  0  0
 34 35  1  0  0  0  0
  7  8  1  0  0  0  0
 17 18  1  0  0  0  0
  3  4  1  0  0  0  0
  3  5  1  0  0  0  0
  3  6  1  0  0  0  0
 38 41  1  0  0  0  0
 38 42  1  0  0  0  0
 38 43  1  0  0  0  0
 11 14  1  0  0  0  0
 11 15  1  0  0  0  0
 11 16  1  0  0  0  0
 45 47  1  0  0  0  0
 45 48  1  0  0  0  0
 45 49  1  0  0  0  0
 22 30  1  0  0  0  0
 22 31  1  0  0  0  0
 21 28  1  0  0  0  0
 21 29  1  0  0  0  0
 35 40  1  0  0  0  0
  8 13  1  0  0  0  0
 18 27  1  0  0  0  0
 25 32  1  0  0  0  0
 25 33  1  0  0  0  0
 44 46  1  0  0  0  0
  7 12  1  0  0  0  0
 34 39  1  0  0  0  0
 17 26  1  0  0  0  0
M  END
$$$$

  -OEChem-05262214473D

 49 48  0     1  0  0  0  0  0999 V2000
   -1.9833   -0.0509   -3.3423 C   0  0  0  0  0  0  0  0  0  0  0  0
   -1.6199   -1.0613   -2.7518 O   0  0  0  0  0  0  0  0  0  0  0  0
   -3.3243   -0.0235   -3.9975 C   0  0  0  0  0  0  0  0  0  0  0  0
   -3.2886   -0.3689   -5.0432 H   0  0  0  0  0  0  0  0  0  0  0  0
   -4.0503   -0.6845   -3.4973 H   0  0  0  0  0  0  0  0  0  0  0  0
   -3.8104    0.9645   -4.0351 H   0  0  0  0  0  0  0  0  0  0  0  0
   -1.2607    1.1231   -3.4768 N   0  0  0  0  0  0  0  0  0  0  0  0
    0.0536    1.3115   -2.9213 C   0  0  2  0  0  0  0  0  0  0  0  0
    0.0266    0.8315   -1.4761 C   0  0  0  0  0  0  0  0  0  0  0  0
   -1.0065    0.7530   -0.8146 O   0  0  0  0  0  0  0  0  0  0  0  0
    0.4852    2.7674   -3.0025 C   0  0  0  0  0  0  0  0  0  0  0  0
   -1.6809    1.8924   -3.9952 H   0  0  0  0  0  0  0  0  0  0  0  0
    0.7360    0.6822   -3.5030 H   0  0  0  0  0  0  0  0  0  0  0  0
   -0.1867    3.4133   -2.4256 H   0  0  0  0  0  0  0  0  0  0  0  0
    1.4966    2.9042   -2.6056 H   0  0  0  0  0  0  0  0  0  0  0  0
    0.4754    3.1196   -4.0397 H   0  0  0  0  0  0  0  0  0  0  0  0
    1.2978    0.5411   -0.9947 N   0  0  0  0  0  0  0  0  0  0  0  0
    1.5371    0.0807    0.3489 C   0  0  2  0  0  0  0  0  0  0  0  0
    0.2701    0.3530    1.1520 C   0  0  0  0  0  0  0  0  0  0  0  0
    0.1448    0.0337    2.3324 O   0  0  0  0  0  0  0  0  0  0  0  0
    2.7391    0.7808    0.9954 C   0  0  0  0  0  0  0  0  0  0  0  0
    4.0747    0.4274    0.3381 C   0  0  0  0  0  0  0  0  0  0  0  0
    5.2628    1.1372    0.9603 C   0  0  0  0  0  0  0  0  0  0  0  0
    5.1714    1.9746    1.8532 O   0  0  0  0  0  0  0  0  0  0  0  0
    6.4586    0.7545    0.3915 N   0  0  0  0  0  0  0  0  0  0  0  0
    2.0949    0.6178   -1.6227 H   0  0  0  0  0  0  0  0  0  0  0  0
    1.6942   -1.0014    0.2868 H   0  0  0  0  0  0  0  0  0  0  0  0
    2.5996    1.8683    0.9327 H   0  0  0  0  0  0  0  0  0  0  0  0
    2.7834    0.5407    2.0652 H   0  0  0  0  0  0  0  0  0  0  0  0
    4.0395    0.7294   -0.7160 H   0  0  0  0  0  0  0  0  0  0  0  0
    4.2458   -0.6546    0.3610 H   0  0  0  0  0  0  0  0  0  0  0  0
    6.4474    0.0678   -0.3553 H   0  0  0  0  0  0  0  0  0  0  0  0
    7.3500    1.1351    0.6928 H   0  0  0  0  0  0  0  0  0  0  0  0
   -0.7176    0.9478    0.3792 N   0  0  0  0  0  0  0  0  0  0  0  0
   -2.0248    1.2924    0.8901 C   0  0  2  0  0  0  0  0  0  0  0  0
   -1.8340    2.0512    2.1968 C   0  0  0  0  0  0  0  0  0  0  0  0
   -0.8176    1.9614    2.8824 O   0  0  0  0  0  0  0  0  0  0  0  0
   -2.8808    0.0533    1.1011 C   0  0  0  0  0  0  0  0  0  0  0  0
   -0.5112    1.1511   -0.5943 H   0  0  0  0  0  0  0  0  0  0  0  0
   -2.4903    1.9514    0.1491 H   0  0  0  0  0  0  0  0  0  0  0  0
   -2.4303   -0.6190    1.8404 H   0  0  0  0  0  0  0  0  0  0  0  0
   -3.8804    0.3181    1.4611 H   0  0  0  0  0  0  0  0  0  0  0  0
   -2.9922   -0.5072    0.1666 H   0  0  0  0  0  0  0  0  0  0  0  0
   -2.9496    2.8069    2.5292 N   0  0  0  0  0  0  0  0  0  0  0  0
   -3.0199    3.6070    3.7295 C   0  0  0  0  0  0  0  0  0  0  0  0
   -3.7404    2.8373    1.8924 H   0  0  0  0  0  0  0  0  0  0  0  0
   -3.4740    3.0161    4.5386 H   0  0  0  0  0  0  0  0  0  0  0  0
   -2.0059    3.9146    4.0249 H   0  0  0  0  0  0  0  0  0  0  0  0
   -3.6331    4.5002    3.5393 H   0  0  0  0  0  0  0  0  0  0  0  0
  1  3  1  0  0  0  0
  1  7  1  0  0  0  0
  1  2  2  0  0  0  0
 22 23  1  0  0  0  0
 23 25  1  0  0  0  0
 23 24  2  0  0  0  0
 35 36  1  0  0  0  0
 36 44  1  0  0  0  0
 36 37  2  0  0  0  0
  8  9  1  0  0  0  0
  9 17  1  0  0  0  0
  9 10  2  0  0  0  0
 18 19  1  0  0  0  0
 19 34  1  0  0  0  0
 19 20  2  0  0  0  0
 35 38  1  0  0  0  0
  8 11  1  0  0  0  0
 44 45  1  0  0  0  0
 21 22  1  0  0  0  0
 18 21  1  0  0  0  0
 34 35  1  0  0  0  0
  7  8  1  0  0  0  0
 17 18  1  0  0  0  0
  3  4  1  0  0  0  0
  3  5  1  0  0  0  0
  3  6  1  0  0  0  0
 38 41  1  0  0  0  0
 38 42  1  0  0  0  0
 38 43  1  0  0  0  0
 11 14  1  0  0  0  0
 11 15  1  0  0  0  0
 11 16  1  0  0  0  0
 45 47  1  0  0  0  0
 45 48  1  0  0  0  0
 45 49  1  0  0  0  0
 22 30  1  0  0  0  0
 22 31  1  0  0  0  0
 21 28  1  0  0  0  0
 21 29  1  0  0  0  0
 35 40  1  0  0  0  0
  8 13  1  0  0  0  0
 18 27  1  0  0  0  0
 25 32  1  0  0  0  0
 25 33  1  0  0  0  0
 44 46  1  0  0  0  0
  7 12  1  0  0  0  0
 34 39  1  0  0  0  0
 17 26  1  0  0  0  0
M  END
$$$$

  -OEChem-05262214473D

 49 48  0     1  0  0  0  0  0999 V2000
   -1.9833   -0.0509   -3.3423 C   0  0  0  0  0  0  0  0  0  0  0  0
   -1.6199   -1.0613   -2.7518 O   0  0  0  0  0  0  0  0  0  0  0  0
   -3.3243   -0.0235   -3.9975 C   0  0  0  0  0  0  0  0  0  0  0  0
   -3.2886   -0.3689   -5.0432 H   0  0  0  0  0  0  0  0  0  0  0  0
   -4.0503   -0.6845   -3.4973 H   0  0  0  0  0  0  0  0  0  0  0  0
   -3.8104    0.9645   -4.0351 H   0  0  0  0  0  0  0  0  0  0  0  0
   -1.2607    1.1231   -3.4768 N   0  0  0  0  0  0  0  0  0  0  0  0
    0.0536    1.3115   -2.9213 C   0  0  2  0  0  0  0  0  0  0  0  0
    0.0266    0.8315   -1.4761 C   0  0  0  0  0  0  0  0  0  0  0  0
   -1.0065    0.7530   -0.8146 O   0  0  0  0  0  0  0  0  0  0  0  0
    0.4852    2.7674   -3.0025 C   0  0  0  0  0  0  0  0  0  0  0  0
   -1.6809    1.8924   -3.9952 H   0  0  0  0  0  0  0  0  0  0  0  0
    0.7360    0.6822   -3.5030 H   0  0  0  0  0  0  0  0  0  0  0  0
   -0.1867    3.4133   -2.4256 H   0  0  0  0  0  0  0  0  0  0  0  0
    1.4966    2.9042   -2.6056 H   0  0  0  0  0  0  0  0  0  0  0  0
    0.4754    3.1196   -4.0397 H   0  0  0  0  0  0  0  0  0  0  0  0
    1.2978    0.5411   -0.9947 N   0  0  0  0  0  0  0  0  0  0  0  0
    1.5371    0.0807    0.3489 C   0  0  2  0  0  0  0  0  0  0  0  0
    0.2701    0.3530    1.1520 C   0  0  0  0  0  0  0  0  0  0  0  0
    0.2282    0.2855    2.3786 O   0  0  0  0  0  0  0  0  0  0  0  0
    2.7391    0.7808    0.9954 C   0  0  0  0  0  0  0  0  0  0  0  0
    4.0747    0.4274    0.3381 C   0  0  0  0  0  0  0  0  0  0  0  0
    5.2628    1.1372    0.9603 C   0  0  0  0  0  0  0  0  0  0  0  0
    5.1714    1.9746    1.8532 O   0  0  0  0  0  0  0  0  0  0  0  0
    6.4586    0.7545    0.3915 N   0  0  0  0  0  0  0  0  0  0  0  0
    2.0949    0.6178   -1.6227 H   0  0  0  0  0  0  0  0  0  0  0  0
    1.6942   -1.0014    0.2868 H   0  0  0  0  0  0  0  0  0  0  0  0
    2.5996    1.8683    0.9327 H   0  0  0  0  0  0  0  0  0  0  0  0
    2.7834    0.5407    2.0652 H   0  0  0  0  0  0  0  0  0  0  0  0
    4.0395    0.7294   -0.7160 H   0  0  0  0  0  0  0  0  0  0  0  0
    4.2458   -0.6546    0.3610 H   0  0  0  0  0  0  0  0  0  0  0  0
    6.4474    0.0678   -0.3553 H   0  0  0  0  0  0  0  0  0  0  0  0
    7.3500    1.1351    0.6928 H   0  0  0  0  0  0  0  0  0  0  0  0
   -0.8154    0.6298    0.3326 N   0  0  0  0  0  0  0  0  0  0  0  0
   -2.1416    0.9030    0.8378 C   0  0  2  0  0  0  0  0  0  0  0  0
   -2.0192    1.9470    1.9399 C   0  0  0  0  0  0  0  0  0  0  0  0
   -0.9794    2.1432    2.5655 O   0  0  0  0  0  0  0  0  0  0  0  0
   -2.8068   -0.3616    1.3585 C   0  0  0  0  0  0  0  0  0  0  0  0
   -0.6705    0.6410   -0.6727 H   0  0  0  0  0  0  0  0  0  0  0  0
   -2.7186    1.3174    0.0039 H   0  0  0  0  0  0  0  0  0  0  0  0
   -2.2428   -0.7912    2.1945 H   0  0  0  0  0  0  0  0  0  0  0  0
   -3.8220   -0.1581    1.7147 H   0  0  0  0  0  0  0  0  0  0  0  0
   -2.8671   -1.1221    0.5726 H   0  0  0  0  0  0  0  0  0  0  0  0
   -3.2195    2.6040    2.1721 N   0  0  0  0  0  0  0  0  0  0  0  0
   -3.3646    3.6305    3.1777 C   0  0  0  0  0  0  0  0  0  0  0  0
   -4.0262    2.3905    1.5930 H   0  0  0  0  0  0  0  0  0  0  0  0
   -3.7050    3.1761    4.1199 H   0  0  0  0  0  0  0  0  0  0  0  0
   -2.3955    4.1255    3.3387 H   0  0  0  0  0  0  0  0  0  0  0  0
   -4.1036    4.3721    2.8404 H   0  0  0  0  0  0  0  0  0  0  0  0
  1  3  1  0  0  0  0
  1  7  1  0  0  0  0
  1  2  2  0  0  0  0
 22 23  1  0  0  0  0
 23 25  1  0  0  0  0
 23 24  2  0  0  0  0
 35 36  1  0  0  0  0
 36 44  1  0  0  0  0
 36 37  2  0  0  0  0
  8  9  1  0  0  0  0
  9 17  1  0  0  0  0
  9 10  2  0  0  0  0
 18 19  1  0  0  0  0
 19 34  1  0  0  0  0
 19 20  2  0  0  0  0
 35 38  1  0  0  0  0
  8 11  1  0  0  0  0
 44 45  1  0  0  0  0
 21 22  1  0  0  0  0
 18 21  1  0  0  0  0
 34 35  1  0  0  0  0
  7  8  1  0  0  0  0
 17 18  1  0  0  0  0
  3  4  1  0  0  0  0
  3  5  1  0  0  0  0
  3  6  1  0  0  0  0
 38 41  1  0  0  0  0
 38 42  1  0  0  0  0
 38 43  1  0  0  0  0
 11 14  1  0  0  0  0
 11 15  1  0  0  0  0
 11 16  1  0  0  0  0
 45 47  1  0  0  0  0
 45 48  1  0  0  0  0
 45 49  1  0  0  0  0
 22 30  1  0  0  0  0
 22 31  1  0  0  0  0
 21 28  1  0  0  0  0
 21 29  1  0  0  0  0
 35 40  1  0  0  0  0
  8 13  1  0  0  0  0
 18 27  1  0  0  0  0
 25 32  1  0  0  0  0
 25 33  1  0  0  0  0
 44 46  1  0  0  0  0
  7 12  1  0  0  0  0
 34 39  1  0  0  0  0
 17 26  1  0  0  0  0
M  END
$$$$

  -OEChem-05262214473D

 49 48  0     1  0  0  0  0  0999 V2000
   -1.9833   -0.0509   -3.3423 C   0  0  0  0  0  0  0  0  0  0  0  0
   -1.6199   -1.0613   -2.7518 O   0  0  0  0  0  0  0  0  0  0  0  0
   -3.3243   -0.0235   -3.9975 C   0  0  0  0  0  0  0  0  0  0  0  0
   -3.2886   -0.3689   -5.0432 H   0  0  0  0  0  0  0  0  0  0  0  0
   -4.0503   -0.6845   -3.4973 H   0  0  0  0  0  0  0  0  0  0  0  0
   -3.8104    0.9645   -4.0351 H   0  0  0  0  0  0  0  0  0  0  0  0
   -1.2607    1.1231   -3.4768 N   0  0  0  0  0  0  0  0  0  0  0  0
    0.0536    1.3115   -2.9213 C   0  0  2  0  0  0  0  0  0  0  0  0
    0.0266    0.8315   -1.4761 C   0  0  0  0  0  0  0  0  0  0  0  0
   -1.0065    0.7530   -0.8146 O   0  0  0  0  0  0  0  0  0  0  0  0
    0.4852    2.7674   -3.0025 C   0  0  0  0  0  0  0  0  0  0  0  0
   -1.6809    1.8924   -3.9952 H   0  0  0  0  0  0  0  0  0  0  0  0
    0.7360    0.6822   -3.5030 H   0  0  0  0  0  0  0  0  0  0  0  0
   -0.1867    3.4133   -2.4256 H   0  0  0  0  0  0  0  0  0  0  0  0
    1.4966    2.9042   -2.6056 H   0  0  0  0  0  0  0  0  0  0  0  0
    0.4754    3.1196   -4.0397 H   0  0  0  0  0  0  0  0  0  0  0  0
    1.2978    0.5411   -0.9947 N   0  0  0  0  0  0  0  0  0  0  0  0
    1.5371    0.0807    0.3489 C   0  0  2  0  0  0  0  0  0  0  0  0
    0.2701    0.3530    1.1520 C   0  0  0  0  0  0  0  0  0  0  0  0
    0.2766    0.5500    2.3653 O   0  0  0  0  0  0  0  0  0  0  0  0
    2.7391    0.7808    0.9954 C   0  0  0  0  0  0  0  0  0  0  0  0
    4.0747    0.4274    0.3381 C   0  0  0  0  0  0  0  0  0  0  0  0
    5.2628    1.1372    0.9603 C   0  0  0  0  0  0  0  0  0  0  0  0
    5.1714    1.9746    1.8532 O   0  0  0  0  0  0  0  0  0  0  0  0
    6.4586    0.7545    0.3915 N   0  0  0  0  0  0  0  0  0  0  0  0
    2.0949    0.6178   -1.6227 H   0  0  0  0  0  0  0  0  0  0  0  0
    1.6942   -1.0014    0.2868 H   0  0  0  0  0  0  0  0  0  0  0  0
    2.5996    1.8683    0.9327 H   0  0  0  0  0  0  0  0  0  0  0  0
    2.7834    0.5407    2.0652 H   0  0  0  0  0  0  0  0  0  0  0  0
    4.0395    0.7294   -0.7160 H   0  0  0  0  0  0  0  0  0  0  0  0
    4.2458   -0.6546    0.3610 H   0  0  0  0  0  0  0  0  0  0  0  0
    6.4474    0.0678   -0.3553 H   0  0  0  0  0  0  0  0  0  0  0  0
    7.3500    1.1351    0.6928 H   0  0  0  0  0  0  0  0  0  0  0  0
   -0.8688    0.2993    0.3605 N   0  0  0  0  0  0  0  0  0  0  0  0
   -2.2038    0.4997    0.8765 C   0  0  2  0  0  0  0  0  0  0  0  0
   -2.1958    1.7659    1.7227 C   0  0  0  0  0  0  0  0  0  0  0  0
   -1.1751    2.2287    2.2278 O   0  0  0  0  0  0  0  0  0  0  0  0
   -2.6668   -0.6968    1.6930 C   0  0  0  0  0  0  0  0  0  0  0  0
   -0.7584    0.1097   -0.6313 H   0  0  0  0  0  0  0  0  0  0  0  0
   -2.8594    0.6426    0.0106 H   0  0  0  0  0  0  0  0  0  0  0  0
   -2.0219   -0.8557    2.5649 H   0  0  0  0  0  0  0  0  0  0  0  0
   -3.6890   -0.5556    2.0593 H   0  0  0  0  0  0  0  0  0  0  0  0
   -2.6436   -1.6118    1.0912 H   0  0  0  0  0  0  0  0  0  0  0  0
   -3.4690    2.2943    1.8834 N   0  0  0  0  0  0  0  0  0  0  0  0
   -3.7262    3.4874    2.6556 C   0  0  0  0  0  0  0  0  0  0  0  0
   -4.2551    1.8555    1.4131 H   0  0  0  0  0  0  0  0  0  0  0  0
   -3.9694    3.2090    3.6917 H   0  0  0  0  0  0  0  0  0  0  0  0
   -2.8323    4.1284    2.6485 H   0  0  0  0  0  0  0  0  0  0  0  0
   -4.5729    4.0340    2.2147 H   0  0  0  0  0  0  0  0  0  0  0  0
  1  3  1  0  0  0  0
  1  7  1  0  0  0  0
  1  2  2  0  0  0  0
 22 23  1  0  0  0  0
 23 25  1  0  0  0  0
 23 24  2  0  0  0  0
 35 36  1  0  0  0  0
 36 44  1  0  0  0  0
 36 37  2  0  0  0  0
  8  9  1  0  0  0  0
  9 17  1  0  0  0  0
  9 10  2  0  0  0  0
 18 19  1  0  0  0  0
 19 34  1  0  0  0  0
 19 20  2  0  0  0  0
 35 38  1  0  0  0  0
  8 11  1  0  0  0  0
 44 45  1  0  0  0  0
 21 22  1  0  0  0  0
 18 21  1  0  0  0  0
 34 35  1  0  0  0  0
  7  8  1  0  0  0  0
 17 18  1  0  0  0  0
  3  4  1  0  0  0  0
  3  5  1  0  0  0  0
  3  6  1  0  0  0  0
 38 41  1  0  0  0  0
 38 42  1  0  0  0  0
 38 43  1  0  0  0  0
 11 14  1  0  0  0  0
 11 15  1  0  0  0  0
 11 16  1  0  0  0  0
 45 47  1  0  0  0  0
 45 48  1  0  0  0  0
 45 49  1  0  0  0  0
 22 30  1  0  0  0  0
 22 31  1  0  0  0  0
 21 28  1  0  0  0  0
 21 29  1  0  0  0  0
 35 40  1  0  0  0  0
  8 13  1  0  0  0  0
 18 27  1  0  0  0  0
 25 32  1  0  0  0  0
 25 33  1  0  0  0  0
 44 46  1  0  0  0  0
  7 12  1  0  0  0  0
 34 39  1  0  0  0  0
 17 26  1  0  0  0  0
M  END
$$$$

  -OEChem-05262214473D

 49 48  0     1  0  0  0  0  0999 V2000
   -1.9833   -0.0509   -3.3423 C   0  0  0  0  0  0  0  0  0  0  0  0
   -1.6199   -1.0613   -2.7518 O   0  0  0  0  0  0  0  0  0  0  0  0
   -3.3243   -0.0235   -3.9975 C   0  0  0  0  0  0  0  0  0  0  0  0
   -3.2886   -0.3689   -5.0432 H   0  0  0  0  0  0  0  0  0  0  0  0
   -4.0503   -0.6845   -3.4973 H   0  0  0  0  0  0  0  0  0  0  0  0
   -3.8104    0.9645   -4.0351 H   0  0  0  0  0  0  0  0  0  0  0  0
   -1.2607    1.1231   -3.4768 N   0  0  0  0  0  0  0  0  0  0  0  0
    0.0536    1.3115   -2.9213 C   0  0  2  0  0  0  0  0  0  0  0  0
    0.0266    0.8315   -1.4761 C   0  0  0  0  0  0  0  0  0  0  0  0
   -1.0065    0.7530   -0.8146 O   0  0  0  0  0  0  0  0  0  0  0  0
    0.4852    2.7674   -3.0025 C   0  0  0  0  0  0  0  0  0  0  0  0
   -1.6809    1.8924   -3.9952 H   0  0  0  0  0  0  0  0  0  0  0  0
    0.7360    0.6822   -3.5030 H   0  0  0  0  0  0  0  0  0  0  0  0
   -0.1867    3.4133   -2.4256 H   0  0  0  0  0  0  0  0  0  0  0  0
    1.4966    2.9042   -2.6056 H   0  0  0  0  0  0  0  0  0  0  0  0
    0.4754    3.1196   -4.0397 H   0  0  0  0  0  0  0  0  0  0  0  0
    1.2978    0.5411   -0.9947 N   0  0  0  0  0  0  0  0  0  0  0  0
    1.5371    0.0807    0.3489 C   0  0  2  0  0  0  0  0  0  0  0  0
    0.2701    0.3530    1.1520 C   0  0  0  0  0  0  0  0  0  0  0  0
    0.2866    0.8092    2.2933 O   0  0  0  0  0  0  0  0  0  0  0  0
    2.7391    0.7808    0.9954 C   0  0  0  0  0  0  0  0  0  0  0  0
    4.0747    0.4274    0.3381 C   0  0  0  0  0  0  0  0  0  0  0  0
    5.2628    1.1372    0.9603 C   0  0  0  0  0  0  0  0  0  0  0  0
    5.1714    1.9746    1.8532 O   0  0  0  0  0  0  0  0  0  0  0  0
    6.4586    0.7545    0.3915 N   0  0  0  0  0  0  0  0  0  0  0  0
    2.0949    0.6178   -1.6227 H   0  0  0  0  0  0  0  0  0  0  0  0
    1.6942   -1.0014    0.2868 H   0  0  0  0  0  0  0  0  0  0  0  0
    2.5996    1.8683    0.9327 H   0  0  0  0  0  0  0  0  0  0  0  0
    2.7834    0.5407    2.0652 H   0  0  0  0  0  0  0  0  0  0  0  0
    4.0395    0.7294   -0.7160 H   0  0  0  0  0  0  0  0  0  0  0  0
    4.2458   -0.6546    0.3610 H   0  0  0  0  0  0  0  0  0  0  0  0
    6.4474    0.0678   -0.3553 H   0  0  0  0  0  0  0  0  0  0  0  0
    7.3500    1.1351    0.6928 H   0  0  0  0  0  0  0  0  0  0  0  0
   -0.8740   -0.0212    0.4610 N   0  0  0  0  0  0  0  0  0  0  0  0
   -2.2071    0.1100    1.0034 C   0  0  2  0  0  0  0  0  0  0  0  0
   -2.3517    1.5202    1.5601 C   0  0  0  0  0  0  0  0  0  0  0  0
   -1.3914    2.2120    1.8922 O   0  0  0  0  0  0  0  0  0  0  0  0
   -2.4705   -0.9296    2.0817 C   0  0  0  0  0  0  0  0  0  0  0  0
   -0.7690   -0.4066   -0.4729 H   0  0  0  0  0  0  0  0  0  0  0  0
   -2.9031   -0.0269    0.1687 H   0  0  0  0  0  0  0  0  0  0  0  0
   -1.7826   -0.8083    2.9264 H   0  0  0  0  0  0  0  0  0  0  0  0
   -3.4904   -0.8473    2.4715 H   0  0  0  0  0  0  0  0  0  0  0  0
   -2.3370   -1.9427    1.6872 H   0  0  0  0  0  0  0  0  0  0  0  0
   -3.6812    1.8991    1.6827 N   0  0  0  0  0  0  0  0  0  0  0  0
   -4.0802    3.1877    2.1988 C   0  0  0  0  0  0  0  0  0  0  0  0
   -4.4117    1.2689    1.3649 H   0  0  0  0  0  0  0  0  0  0  0  0
   -4.2490    3.1127    3.2832 H   0  0  0  0  0  0  0  0  0  0  0  0
   -3.2866    3.9233    2.0014 H   0  0  0  0  0  0  0  0  0  0  0  0
   -5.0090    3.5088    1.7047 H   0  0  0  0  0  0  0  0  0  0  0  0
  1  3  1  0  0  0  0
  1  7  1  0  0  0  0
  1  2  2  0  0  0  0
 22 23  1  0  0  0  0
 23 25  1  0  0  0  0
 23 24  2  0  0  0  0
 35 36  1  0  0  0  0
 36 44  1  0  0  0  0
 36 37  2  0  0  0  0
  8  9  1  0  0  0  0
  9 17  1  0  0  0  0
  9 10  2  0  0  0  0
 18 19  1  0  0  0  0
 19 34  1  0  0  0  0
 19 20  2  0  0  0  0
 35 38  1  0  0  0  0
  8 11  1  0  0  0  0
 44 45  1  0  0  0  0
 21 22  1  0  0  0  0
 18 21  1  0  0  0  0
 34 35  1  0  0  0  0
  7  8  1  0  0  0  0
 17 18  1  0  0  0  0
  3  4  1  0  0  0  0
  3  5  1  0  0  0  0
  3  6  1  0  0  0  0
 38 41  1  0  0  0  0
 38 42  1  0  0  0  0
 38 43  1  0  0  0  0
 11 14  1  0  0  0  0
 11 15  1  0  0  0  0
 11 16  1  0  0  0  0
 45 47  1  0  0  0  0
 45 48  1  0  0  0  0
 45 49  1  0  0  0  0
 22 30  1  0  0  0  0
 22 31  1  0  0  0  0
 21 28  1  0  0  0  0
 21 29  1  0  0  0  0
 35 40  1  0  0  0  0
  8 13  1  0  0  0  0
 18 27  1  0  0  0  0
 25 32  1  0  0  0  0
 25 33  1  0  0  0  0
 44 46  1  0  0  0  0
  7 12  1  0  0  0  0
 34 39  1  0  0  0  0
 17 26  1  0  0  0  0
M  END
$$$$

  -OEChem-05262214473D

 49 48  0     1  0  0  0  0  0999 V2000
   -1.9833   -0.0509   -3.3423 C   0  0  0  0  0  0  0  0  0  0  0  0
   -1.6199   -1.0613   -2.7518 O   0  0  0  0  0  0  0  0  0  0  0  0
   -3.3243   -0.0235   -3.9975 C   0  0  0  0  0  0  0  0  0  0  0  0
   -3.2886   -0.3689   -5.0432 H   0  0  0  0  0  0  0  0  0  0  0  0
   -4.0503   -0.6845   -3.4973 H   0  0  0  0  0  0  0  0  0  0  0  0
   -3.8104    0.9645   -4.0351 H   0  0  0  0  0  0  0  0  0  0  0  0
   -1.2607    1.1231   -3.4768 N   0  0  0  0  0  0  0  0  0  0  0  0
    0.0536    1.3115   -2.9213 C   0  0  2  0  0  0  0  0  0  0  0  0
    0.0266    0.8315   -1.4761 C   0  0  0  0  0  0  0  0  0  0  0  0
   -1.0065    0.7530   -0.8146 O   0  0  0  0  0  0  0  0  0  0  0  0
    0.4852    2.7674   -3.0025 C   0  0  0  0  0  0  0  0  0  0  0  0
   -1.6809    1.8924   -3.9952 H   0  0  0  0  0  0  0  0  0  0  0  0
    0.7360    0.6822   -3.5030 H   0  0  0  0  0  0  0  0  0  0  0  0
   -0.1867    3.4133   -2.4256 H   0  0  0  0  0  0  0  0  0  0  0  0
    1.4966    2.9042   -2.6056 H   0  0  0  0  0  0  0  0  0  0  0  0
    0.4754    3.1196   -4.0397 H   0  0  0  0  0  0  0  0  0  0  0  0
    1.2978    0.5411   -0.9947 N   0  0  0  0  0  0  0  0  0  0  0  0
    1.5371    0.0807    0.3489 C   0  0  2  0  0  0  0  0  0  0  0  0
    0.2701    0.3530    1.1520 C   0  0  0  0  0  0  0  0  0  0  0  0
    0.2577    1.0454    2.1675 O   0  0  0  0  0  0  0  0  0  0  0  0
    2.7391    0.7808    0.9954 C   0  0  0  0  0  0  0  0  0  0  0  0
    4.0747    0.4274    0.3381 C   0  0  0  0  0  0  0  0  0  0  0  0
    5.2628    1.1372    0.9603 C   0  0  0  0  0  0  0  0  0  0  0  0
    5.1714    1.9746    1.8532 O   0  0  0  0  0  0  0  0  0  0  0  0
    6.4586    0.7545    0.3915 N   0  0  0  0  0  0  0  0  0  0  0  0
    2.0949    0.6178   -1.6227 H   0  0  0  0  0  0  0  0  0  0  0  0
    1.6942   -1.0014    0.2868 H   0  0  0  0  0  0  0  0  0  0  0  0
    2.5996    1.8683    0.9327 H   0  0  0  0  0  0  0  0  0  0  0  0
    2.7834    0.5407    2.0652 H   0  0  0  0  0  0  0  0  0  0  0  0
    4.0395    0.7294   -0.7160 H   0  0  0  0  0  0  0  0  0  0  0  0
    4.2458   -0.6546    0.3610 H   0  0  0  0  0  0  0  0  0  0  0  0
    6.4474    0.0678   -0.3553 H   0  0  0  0  0  0  0  0  0  0  0  0
    7.3500    1.1351    0.6928 H   0  0  0  0  0  0  0  0  0  0  0  0
   -0.8307   -0.3099    0.6272 N   0  0  0  0  0  0  0  0  0  0  0  0
   -2.1513   -0.2396    1.2100 C   0  0  2  0  0  0  0  0  0  0  0  0
   -2.4763    1.2266    1.4630 C   0  0  0  0  0  0  0  0  0  0  0  0
   -1.6135    2.0941    1.5816 O   0  0  0  0  0  0  0  0  0  0  0  0
   -2.2312   -1.0441    2.4981 C   0  0  0  0  0  0  0  0  0  0  0  0
   -0.7015   -0.8727   -0.2084 H   0  0  0  0  0  0  0  0  0  0  0  0
   -2.8468   -0.6456    0.4674 H   0  0  0  0  0  0  0  0  0  0  0  0
   -1.5413   -0.6521    3.2543 H   0  0  0  0  0  0  0  0  0  0  0  0
   -3.2398   -1.0133    2.9233 H   0  0  0  0  0  0  0  0  0  0  0  0
   -1.9682   -2.0924    2.3198 H   0  0  0  0  0  0  0  0  0  0  0  0
   -3.8415    1.4452    1.5836 N   0  0  0  0  0  0  0  0  0  0  0  0
   -4.4024    2.7516    1.8384 C   0  0  0  0  0  0  0  0  0  0  0  0
   -4.4852    0.6706    1.4519 H   0  0  0  0  0  0  0  0  0  0  0  0
   -4.5248    2.8936    2.9223 H   0  0  0  0  0  0  0  0  0  0  0  0
   -3.7273    3.5241    1.4414 H   0  0  0  0  0  0  0  0  0  0  0  0
   -5.3823    2.8323    1.3451 H   0  0  0  0  0  0  0  0  0  0  0  0
  1  3  1  0  0  0  0
  1  7  1  0  0  0  0
  1  2  2  0  0  0  0
 22 23  1  0  0  0  0
 23 25  1  0  0  0  0
 23 24  2  0  0  0  0
 35 36  1  0  0  0  0
 36 44  1  0  0  0  0
 36 37  2  0  0  0  0
  8  9  1  0  0  0  0
  9 17  1  0  0  0  0
  9 10  2  0  0  0  0
 18 19  1  0  0  0  0
 19 34  1  0  0  0  0
 19 20  2  0  0  0  0
 35 38  1  0  0  0  0
  8 11  1  0  0  0  0
 44 45  1  0  0  0  0
 21 22  1  0  0  0  0
 18 21  1  0  0  0  0
 34 35  1  0  0  0  0
  7  8  1  0  0  0  0
 17 18  1  0  0  0  0
  3  4  1  0  0  0  0
  3  5  1  0  0  0  0
  3  6  1  0  0  0  0
 38 41  1  0  0  0  0
 38 42  1  0  0  0  0
 38 43  1  0  0  0  0
 11 14  1  0  0  0  0
 11 15  1  0  0  0  0
 11 16  1  0  0  0  0
 45 47  1  0  0  0  0
 45 48  1  0  0  0  0
 45 49  1  0  0  0  0
 22 30  1  0  0  0  0
 22 31  1  0  0  0  0
 21 28  1  0  0  0  0
 21 29  1  0  0  0  0
 35 40  1  0  0  0  0
  8 13  1  0  0  0  0
 18 27  1  0  0  0  0
 25 32  1  0  0  0  0
 25 33  1  0  0  0  0
 44 46  1  0  0  0  0
  7 12  1  0  0  0  0
 34 39  1  0  0  0  0
 17 26  1  0  0  0  0
M  END
$$$$

  -OEChem-05262214473D

 49 48  0     1  0  0  0  0  0999 V2000
   -1.9833   -0.0509   -3.3423 C   0  0  0  0  0  0  0  0  0  0  0  0
   -1.6199   -1.0613   -2.7518 O   0  0  0  0  0  0  0  0  0  0  0  0
   -3.3243   -0.0235   -3.9975 C   0  0  0  0  0  0  0  0  0  0  0  0
   -3.2886   -0.3689   -5.0432 H   0  0  0  0  0  0  0  0  0  0  0  0
   -4.0503   -0.6845   -3.4973 H   0  0  0  0  0  0  0  0  0  0  0  0
   -3.8104    0.9645   -4.0351 H   0  0  0  0  0  0  0  0  0  0  0  0
   -1.2607    1.1231   -3.4768 N   0  0  0  0  0  0  0  0  0  0  0  0
    0.0536    1.3115   -2.9213 C   0  0  2  0  0  0  0  0  0  0  0  0
    0.0266    0.8315   -1.4761 C   0  0  0  0  0  0  0  0  0  0  0  0
   -1.0065    0.7530   -0.8146 O   0  0  0  0  0  0  0  0  0  0  0  0
    0.4852    2.7674   -3.0025 C   0  0  0  0  0  0  0  0  0  0  0  0
   -1.6809    1.8924   -3.9952 H   0  0  0  0  0  0  0  0  0  0  0  0
    0.7360    0.6822   -3.5030 H   0  0  0  0  0  0  0  0  0  0  0  0
   -0.1867    3.4133   -2.4256 H   0  0  0  0  0  0  0  0  0  0  0  0
    1.4966    2.9042   -2.6056 H   0  0  0  0  0  0  0  0  0  0  0  0
    0.4754    3.1196   -4.0397 H   0  0  0  0  0  0  0  0  0  0  0  0
    1.2978    0.5411   -0.9947 N   0  0  0  0  0  0  0  0  0  0  0  0
    1.5371    0.0807    0.3489 C   0  0  2  0  0  0  0  0  0  0  0  0
    0.2701    0.3530    1.1520 C   0  0  0  0  0  0  0  0  0  0  0  0
    0.1917    1.2427    1.9966 O   0  0  0  0  0  0  0  0  0  0  0  0
    2.7391    0.7808    0.9954 C   0  0  0  0  0  0  0  0  0  0  0  0
    4.0747    0.4274    0.3381 C   0  0  0  0  0  0  0  0  0  0  0  0
    5.2628    1.1372    0.9603 C   0  0  0  0  0  0  0  0  0  0  0  0
    5.1714    1.9746    1.8532 O   0  0  0  0  0  0  0  0  0  0  0  0
    6.4586    0.7545    0.3915 N   0  0  0  0  0  0  0  0  0  0  0  0
    2.0949    0.6178   -1.6227 H   0  0  0  0  0  0  0  0  0  0  0  0
    1.6942   -1.0014    0.2868 H   0  0  0  0  0  0  0  0  0  0  0  0
    2.5996    1.8683    0.9327 H   0  0  0  0  0  0  0  0  0  0  0  0
    2.7834    0.5407    2.0652 H   0  0  0  0  0  0  0  0  0  0  0  0
    4.0395    0.7294   -0.7160 H   0  0  0  0  0  0  0  0  0  0  0  0
    4.2458   -0.6546    0.3610 H   0  0  0  0  0  0  0  0  0  0  0  0
    6.4474    0.0678   -0.3553 H   0  0  0  0  0  0  0  0  0  0  0  0
    7.3500    1.1351    0.6928 H   0  0  0  0  0  0  0  0  0  0  0  0
   -0.7418   -0.5471    0.8479 N   0  0  0  0  0  0  0  0  0  0  0  0
   -2.0402   -0.5253    1.4822 C   0  0  2  0  0  0  0  0  0  0  0  0
   -2.5612    0.9051    1.4381 C   0  0  0  0  0  0  0  0  0  0  0  0
   -1.8264    1.8832    1.3173 O   0  0  0  0  0  0  0  0  0  0  0  0
   -1.9651   -1.0326    2.9139 C   0  0  0  0  0  0  0  0  0  0  0  0
   -0.5606   -1.2568    0.1442 H   0  0  0  0  0  0  0  0  0  0  0  0
   -2.6941   -1.1713    0.8864 H   0  0  0  0  0  0  0  0  0  0  0  0
   -1.3142   -0.3978    3.5262 H   0  0  0  0  0  0  0  0  0  0  0  0
   -2.9542   -1.0423    3.3838 H   0  0  0  0  0  0  0  0  0  0  0  0
   -1.5622   -2.0506    2.9461 H   0  0  0  0  0  0  0  0  0  0  0  0
   -3.9391    0.9637    1.5929 N   0  0  0  0  0  0  0  0  0  0  0  0
   -4.6708    2.2089    1.5989 C   0  0  0  0  0  0  0  0  0  0  0  0
   -4.4706    0.1013    1.6679 H   0  0  0  0  0  0  0  0  0  0  0  0
   -4.7780    2.5668    2.6335 H   0  0  0  0  0  0  0  0  0  0  0  0
   -4.1245    2.9579    1.0068 H   0  0  0  0  0  0  0  0  0  0  0  0
   -5.6672    2.0507    1.1606 H   0  0  0  0  0  0  0  0  0  0  0  0
  1  3  1  0  0  0  0
  1  7  1  0  0  0  0
  1  2  2  0  0  0  0
 22 23  1  0  0  0  0
 23 25  1  0  0  0  0
 23 24  2  0  0  0  0
 35 36  1  0  0  0  0
 36 44  1  0  0  0  0
 36 37  2  0  0  0  0
  8  9  1  0  0  0  0
  9 17  1  0  0  0  0
  9 10  2  0  0  0  0
 18 19  1  0  0  0  0
 19 34  1  0  0  0  0
 19 20  2  0  0  0  0
 35 38  1  0  0  0  0
  8 11  1  0  0  0  0
 44 45  1  0  0  0  0
 21 22  1  0  0  0  0
 18 21  1  0  0  0  0
 34 35  1  0  0  0  0
  7  8  1  0  0  0  0
 17 18  1  0  0  0  0
  3  4  1  0  0  0  0
  3  5  1  0  0  0  0
  3  6  1  0  0  0  0
 38 41  1  0  0  0  0
 38 42  1  0  0  0  0
 38 43  1  0  0  0  0
 11 14  1  0  0  0  0
 11 15  1  0  0  0  0
 11 16  1  0  0  0  0
 45 47  1  0  0  0  0
 45 48  1  0  0  0  0
 45 49  1  0  0  0  0
 22 30  1  0  0  0  0
 22 31  1  0  0  0  0
 21 28  1  0  0  0  0
 21 29  1  0  0  0  0
 35 40  1  0  0  0  0
  8 13  1  0  0  0  0
 18 27  1  0  0  0  0
 25 32  1  0  0  0  0
 25 33  1  0  0  0  0
 44 46  1  0  0  0  0
  7 12  1  0  0  0  0
 34 39  1  0  0  0  0
 17 26  1  0  0  0  0
M  END
$$$$

  -OEChem-05262214473D

 49 48  0     1  0  0  0  0  0999 V2000
   -1.9833   -0.0509   -3.3423 C   0  0  0  0  0  0  0  0  0  0  0  0
   -1.6199   -1.0613   -2.7518 O   0  0  0  0  0  0  0  0  0  0  0  0
   -3.3243   -0.0235   -3.9975 C   0  0  0  0  0  0  0  0  0  0  0  0
   -3.2886   -0.3689   -5.0432 H   0  0  0  0  0  0  0  0  0  0  0  0
   -4.0503   -0.6845   -3.4973 H   0  0  0  0  0  0  0  0  0  0  0  0
   -3.8104    0.9645   -4.0351 H   0  0  0  0  0  0  0  0  0  0  0  0
   -1.2607    1.1231   -3.4768 N   0  0  0  0  0  0  0  0  0  0  0  0
    0.0536    1.3115   -2.9213 C   0  0  2  0  0  0  0  0  0  0  0  0
    0.0266    0.8315   -1.4761 C   0  0  0  0  0  0  0  0  0  0  0  0
   -1.0065    0.7530   -0.8146 O   0  0  0  0  0  0  0  0  0  0  0  0
    0.4852    2.7674   -3.0025 C   0  0  0  0  0  0  0  0  0  0  0  0
   -1.6809    1.8924   -3.9952 H   0  0  0  0  0  0  0  0  0  0  0  0
    0.7360    0.6822   -3.5030 H   0  0  0  0  0  0  0  0  0  0  0  0
   -0.1867    3.4133   -2.4256 H   0  0  0  0  0  0  0  0  0  0  0  0
    1.4966    2.9042   -2.6056 H   0  0  0  0  0  0  0  0  0  0  0  0
    0.4754    3.1196   -4.0397 H   0  0  0  0  0  0  0  0  0  0  0  0
    1.2978    0.5411   -0.9947 N   0  0  0  0  0  0  0  0  0  0  0  0
    1.5371    0.0807    0.3489 C   0  0  2  0  0  0  0  0  0  0  0  0
    0.2701    0.3530    1.1520 C   0  0  0  0  0  0  0  0  0  0  0  0
    0.0932    1.3874    1.7921 O   0  0  0  0  0  0  0  0  0  0  0  0
    2.7391    0.7808    0.9954 C   0  0  0  0  0  0  0  0  0  0  0  0
    4.0747    0.4274    0.3381 C   0  0  0  0  0  0  0  0  0  0  0  0
    5.2628    1.1372    0.9603 C   0  0  0  0  0  0  0  0  0  0  0  0
    5.1714    1.9746    1.8532 O   0  0  0  0  0  0  0  0  0  0  0  0
    6.4586    0.7545    0.3915 N   0  0  0  0  0  0  0  0  0  0  0  0
    2.0949    0.6178   -1.6227 H   0  0  0  0  0  0  0  0  0  0  0  0
    1.6942   -1.0014    0.2868 H   0  0  0  0  0  0  0  0  0  0  0  0
    2.5996    1.8683    0.9327 H   0  0  0  0  0  0  0  0  0  0  0  0
    2.7834    0.5407    2.0652 H   0  0  0  0  0  0  0  0  0  0  0  0
    4.0395    0.7294   -0.7160 H   0  0  0  0  0  0  0  0  0  0  0  0
    4.2458   -0.6546    0.3610 H   0  0  0  0  0  0  0  0  0  0  0  0
    6.4474    0.0678   -0.3553 H   0  0  0  0  0  0  0  0  0  0  0  0
    7.3500    1.1351    0.6928 H   0  0  0  0  0  0  0  0  0  0  0  0
   -0.6134   -0.7166    1.1080 N   0  0  0  0  0  0  0  0  0  0  0  0
   -1.8813   -0.7275    1.8014 C   0  0  2  0  0  0  0  0  0  0  0  0
   -2.6004    0.5777    1.4872 C   0  0  0  0  0  0  0  0  0  0  0  0
   -2.0155    1.5936    1.1172 O   0  0  0  0  0  0  0  0  0  0  0  0
   -1.6905   -0.8957    3.3008 C   0  0  0  0  0  0  0  0  0  0  0  0
   -0.3558   -1.5327    0.5608 H   0  0  0  0  0  0  0  0  0  0  0  0
   -2.4557   -1.5681    1.3971 H   0  0  0  0  0  0  0  0  0  0  0  0
   -1.1170   -0.0628    3.7237 H   0  0  0  0  0  0  0  0  0  0  0  0
   -2.6530   -0.9324    3.8216 H   0  0  0  0  0  0  0  0  0  0  0  0
   -1.1469   -1.8202    3.5232 H   0  0  0  0  0  0  0  0  0  0  0  0
   -3.9673    0.4872    1.7100 N   0  0  0  0  0  0  0  0  0  0  0  0
   -4.8671    1.5967    1.4968 C   0  0  0  0  0  0  0  0  0  0  0  0
   -4.3689   -0.4001    1.9984 H   0  0  0  0  0  0  0  0  0  0  0  0
   -4.9915    2.1545    2.4366 H   0  0  0  0  0  0  0  0  0  0  0  0
   -4.4510    2.2634    0.7271 H   0  0  0  0  0  0  0  0  0  0  0  0
   -5.8444    1.2172    1.1637 H   0  0  0  0  0  0  0  0  0  0  0  0
  1  3  1  0  0  0  0
  1  7  1  0  0  0  0
  1  2  2  0  0  0  0
 22 23  1  0  0  0  0
 23 25  1  0  0  0  0
 23 24  2  0  0  0  0
 35 36  1  0  0  0  0
 36 44  1  0  0  0  0
 36 37  2  0  0  0  0
  8  9  1  0  0  0  0
  9 17  1  0  0  0  0
  9 10  2  0  0  0  0
 18 19  1  0  0  0  0
 19 34  1  0  0  0  0
 19 20  2  0  0  0  0
 35 38  1  0  0  0  0
  8 11  1  0  0  0  0
 44 45  1  0  0  0  0
 21 22  1  0  0  0  0
 18 21  1  0  0  0  0
 34 35  1  0  0  0  0
  7  8  1  0  0  0  0
 17 18  1  0  0  0  0
  3  4  1  0  0  0  0
  3  5  1  0  0  0  0
  3  6  1  0  0  0  0
 38 41  1  0  0  0  0
 38 42  1  0  0  0  0
 38 43  1  0  0  0  0
 11 14  1  0  0  0  0
 11 15  1  0  0  0  0
 11 16  1  0  0  0  0
 45 47  1  0  0  0  0
 45 48  1  0  0  0  0
 45 49  1  0  0  0  0
 22 30  1  0  0  0  0
 22 31  1  0  0  0  0
 21 28  1  0  0  0  0
 21 29  1  0  0  0  0
 35 40  1  0  0  0  0
  8 13  1  0  0  0  0
 18 27  1  0  0  0  0
 25 32  1  0  0  0  0
 25 33  1  0  0  0  0
 44 46  1  0  0  0  0
  7 12  1  0  0  0  0
 34 39  1  0  0  0  0
 17 26  1  0  0  0  0
M  END
$$$$

  -OEChem-05262214473D

 49 48  0     1  0  0  0  0  0999 V2000
   -1.9833   -0.0509   -3.3423 C   0  0  0  0  0  0  0  0  0  0  0  0
   -1.6199   -1.0613   -2.7518 O   0  0  0  0  0  0  0  0  0  0  0  0
   -3.3243   -0.0235   -3.9975 C   0  0  0  0  0  0  0  0  0  0  0  0
   -3.2886   -0.3689   -5.0432 H   0  0  0  0  0  0  0  0  0  0  0  0
   -4.0503   -0.6845   -3.4973 H   0  0  0  0  0  0  0  0  0  0  0  0
   -3.8104    0.9645   -4.0351 H   0  0  0  0  0  0  0  0  0  0  0  0
   -1.2607    1.1231   -3.4768 N   0  0  0  0  0  0  0  0  0  0  0  0
    0.0536    1.3115   -2.9213 C   0  0  2  0  0  0  0  0  0  0  0  0
    0.0266    0.8315   -1.4761 C   0  0  0  0  0  0  0  0  0  0  0  0
   -1.0065    0.7530   -0.8146 O   0  0  0  0  0  0  0  0  0  0  0  0
    0.4852    2.7674   -3.0025 C   0  0  0  0  0  0  0  0  0  0  0  0
   -1.6809    1.8924   -3.9952 H   0  0  0  0  0  0  0  0  0  0  0  0
    0.7360    0.6822   -3.5030 H   0  0  0  0  0  0  0  0  0  0  0  0
   -0.1867    3.4133   -2.4256 H   0  0  0  0  0  0  0  0  0  0  0  0
    1.4966    2.9042   -2.6056 H   0  0  0  0  0  0  0  0  0  0  0  0
    0.4754    3.1196   -4.0397 H   0  0  0  0  0  0  0  0  0  0  0  0
    1.2978    0.5411   -0.9947 N   0  0  0  0  0  0  0  0  0  0  0  0
    1.5371    0.0807    0.3489 C   0  0  2  0  0  0  0  0  0  0  0  0
    0.2701    0.3530    1.1520 C   0  0  0  0  0  0  0  0  0  0  0  0
   -0.0312    1.4698    1.5679 O   0  0  0  0  0  0  0  0  0  0  0  0
    2.7391    0.7808    0.9954 C   0  0  0  0  0  0  0  0  0  0  0  0
    4.0747    0.4274    0.3381 C   0  0  0  0  0  0  0  0  0  0  0  0
    5.2628    1.1372    0.9603 C   0  0  0  0  0  0  0  0  0  0  0  0
    5.1714    1.9746    1.8532 O   0  0  0  0  0  0  0  0  0  0  0  0
    6.4586    0.7545    0.3915 N   0  0  0  0  0  0  0  0  0  0  0  0
    2.0949    0.6178   -1.6227 H   0  0  0  0  0  0  0  0  0  0  0  0
    1.6942   -1.0014    0.2868 H   0  0  0  0  0  0  0  0  0  0  0  0
    2.5996    1.8683    0.9327 H   0  0  0  0  0  0  0  0  0  0  0  0
    2.7834    0.5407    2.0652 H   0  0  0  0  0  0  0  0  0  0  0  0
    4.0395    0.7294   -0.7160 H   0  0  0  0  0  0  0  0  0  0  0  0
    4.2458   -0.6546    0.3610 H   0  0  0  0  0  0  0  0  0  0  0  0
    6.4474    0.0678   -0.3553 H   0  0  0  0  0  0  0  0  0  0  0  0
    7.3500    1.1351    0.6928 H   0  0  0  0  0  0  0  0  0  0  0  0
   -0.4542   -0.8069    1.3897 N   0  0  0  0  0  0  0  0  0  0  0  0
   -1.6855   -0.8325    2.1459 C   0  0  2  0  0  0  0  0  0  0  0  0
   -2.5914    0.2667    1.6068 C   0  0  0  0  0  0  0  0  0  0  0  0
   -2.1679    1.2450    0.9949 O   0  0  0  0  0  0  0  0  0  0  0  0
   -1.4260   -0.6428    3.6323 C   0  0  0  0  0  0  0  0  0  0  0  0
   -0.1011   -1.6817    1.0132 H   0  0  0  0  0  0  0  0  0  0  0  0
   -2.1477   -1.8091    1.9648 H   0  0  0  0  0  0  0  0  0  0  0  0
   -0.9631    0.3303    3.8333 H   0  0  0  0  0  0  0  0  0  0  0  0
   -2.3569   -0.6909    4.2069 H   0  0  0  0  0  0  0  0  0  0  0  0
   -0.7505   -1.4169    4.0120 H   0  0  0  0  0  0  0  0  0  0  0  0
   -3.9241    0.0484    1.9269 N   0  0  0  0  0  0  0  0  0  0  0  0
   -4.9780    0.9565    1.5388 C   0  0  0  0  0  0  0  0  0  0  0  0
   -4.1870   -0.7994    2.4207 H   0  0  0  0  0  0  0  0  0  0  0  0
   -5.1505    1.6848    2.3450 H   0  0  0  0  0  0  0  0  0  0  0  0
   -4.6846    1.4878    0.6214 H   0  0  0  0  0  0  0  0  0  0  0  0
   -5.9017    0.3885    1.3542 H   0  0  0  0  0  0  0  0  0  0  0  0
  1  3  1  0  0  0  0
  1  7  1  0  0  0  0
  1  2  2  0  0  0  0
 22 23  1  0  0  0  0
 23 25  1  0  0  0  0
 23 24  2  0  0  0  0
 35 36  1  0  0  0  0
 36 44  1  0  0  0  0
 36 37  2  0  0  0  0
  8  9  1  0  0  0  0
  9 17  1  0  0  0  0
  9 10  2  0  0  0  0
 18 19  1  0  0  0  0
 19 34  1  0  0  0  0
 19 20  2  0  0  0  0
 35 38  1  0  0  0  0
  8 11  1  0  0  0  0
 44 45  1  0  0  0  0
 21 22  1  0  0  0  0
 18 21  1  0  0  0  0
 34 35  1  0  0  0  0
  7  8  1  0  0  0  0
 17 18  1  0  0  0  0
  3  4  1  0  0  0  0
  3  5  1  0  0  0  0
  3  6  1  0  0  0  0
 38 41  1  0  0  0  0
 38 42  1  0  0  0  0
 38 43  1  0  0  0  0
 11 14  1  0  0  0  0
 11 15  1  0  0  0  0
 11 16  1  0  0  0  0
 45 47  1  0  0  0  0
 45 48  1  0  0  0  0
 45 49  1  0  0  0  0
 22 30  1  0  0  0  0
 22 31  1  0  0  0  0
 21 28  1  0  0  0  0
 21 29  1  0  0  0  0
 35 40  1  0  0  0  0
  8 13  1  0  0  0  0
 18 27  1  0  0  0  0
 25 32  1  0  0  0  0
 25 33  1  0  0  0  0
 44 46  1  0  0  0  0
  7 12  1  0  0  0  0
 34 39  1  0  0  0  0
 17 26  1  0  0  0  0
M  END
$$$$

  -OEChem-05262214473D

 49 48  0     1  0  0  0  0  0999 V2000
   -1.9833   -0.0509   -3.3423 C   0  0  0  0  0  0  0  0  0  0  0  0
   -1.6199   -1.0613   -2.7518 O   0  0  0  0  0  0  0  0  0  0  0  0
   -3.3243   -0.0235   -3.9975 C   0  0  0  0  0  0  0  0  0  0  0  0
   -3.2886   -0.3689   -5.0432 H   0  0  0  0  0  0  0  0  0  0  0  0
   -4.0503   -0.6845   -3.4973 H   0  0  0  0  0  0  0  0  0  0  0  0
   -3.8104    0.9645   -4.0351 H   0  0  0  0  0  0  0  0  0  0  0  0
   -1.2607    1.1231   -3.4768 N   0  0  0  0  0  0  0  0  0  0  0  0
    0.0536    1.3115   -2.9213 C   0  0  2  0  0  0  0  0  0  0  0  0
    0.0266    0.8315   -1.4761 C   0  0  0  0  0  0  0  0  0  0  0  0
   -1.0065    0.7530   -0.8146 O   0  0  0  0  0  0  0  0  0  0  0  0
    0.4852    2.7674   -3.0025 C   0  0  0  0  0  0  0  0  0  0  0  0
   -1.6809    1.8924   -3.9952 H   0  0  0  0  0  0  0  0  0  0  0  0
    0.7360    0.6822   -3.5030 H   0  0  0  0  0  0  0  0  0  0  0  0
   -0.1867    3.4133   -2.4256 H   0  0  0  0  0  0  0  0  0  0  0  0
    1.4966    2.9042   -2.6056 H   0  0  0  0  0  0  0  0  0  0  0  0
    0.4754    3.1196   -4.0397 H   0  0  0  0  0  0  0  0  0  0  0  0
    1.2978    0.5411   -0.9947 N   0  0  0  0  0  0  0  0  0  0  0  0
    1.5371    0.0807    0.3489 C   0  0  2  0  0  0  0  0  0  0  0  0
    0.2701    0.3530    1.1520 C   0  0  0  0  0  0  0  0  0  0  0  0
   -0.1729    1.4842    1.3395 O   0  0  0  0  0  0  0  0  0  0  0  0
    2.7391    0.7808    0.9954 C   0  0  0  0  0  0  0  0  0  0  0  0
    4.0747    0.4274    0.3381 C   0  0  0  0  0  0  0  0  0  0  0  0
    5.2628    1.1372    0.9603 C   0  0  0  0  0  0  0  0  0  0  0  0
    5.1714    1.9746    1.8532 O   0  0  0  0  0  0  0  0  0  0  0  0
    6.4586    0.7545    0.3915 N   0  0  0  0  0  0  0  0  0  0  0  0
    2.0949    0.6178   -1.6227 H   0  0  0  0  0  0  0  0  0  0  0  0
    1.6942   -1.0014    0.2868 H   0  0  0  0  0  0  0  0  0  0  0  0
    2.5996    1.8683    0.9327 H   0  0  0  0  0  0  0  0  0  0  0  0
    2.7834    0.5407    2.0652 H   0  0  0  0  0  0  0  0  0  0  0  0
    4.0395    0.7294   -0.7160 H   0  0  0  0  0  0  0  0  0  0  0  0
    4.2458   -0.6546    0.3610 H   0  0  0  0  0  0  0  0  0  0  0  0
    6.4474    0.0678   -0.3553 H   0  0  0  0  0  0  0  0  0  0  0  0
    7.3500    1.1351    0.6928 H   0  0  0  0  0  0  0  0  0  0  0  0
   -0.2751   -0.8119    1.6739 N   0  0  0  0  0  0  0  0  0  0  0  0
   -1.4662   -0.8332    2.4922 C   0  0  2  0  0  0  0  0  0  0  0  0
   -2.5348   -0.0068    1.7889 C   0  0  0  0  0  0  0  0  0  0  0  0
   -2.2732    0.8613    0.9588 O   0  0  0  0  0  0  0  0  0  0  0  0
   -1.1897   -0.2911    3.8859 C   0  0  0  0  0  0  0  0  0  0  0  0
    0.1862   -1.6936    1.4704 H   0  0  0  0  0  0  0  0  0  0  0  0
   -1.7910   -1.8777    2.5507 H   0  0  0  0  0  0  0  0  0  0  0  0
   -0.8630    0.7545    3.8475 H   0  0  0  0  0  0  0  0  0  0  0  0
   -2.0860   -0.3345    4.5135 H   0  0  0  0  0  0  0  0  0  0  0  0
   -0.3999   -0.8682    4.3790 H   0  0  0  0  0  0  0  0  0  0  0  0
   -3.8126   -0.3230    2.2288 N   0  0  0  0  0  0  0  0  0  0  0  0
   -4.9959    0.3321    1.7223 C   0  0  0  0  0  0  0  0  0  0  0  0
   -3.9374   -1.0696    2.9062 H   0  0  0  0  0  0  0  0  0  0  0  0
   -5.2443    1.1897    2.3648 H   0  0  0  0  0  0  0  0  0  0  0  0
   -4.8095    0.6842    0.6970 H   0  0  0  0  0  0  0  0  0  0  0  0
   -5.8354   -0.3787    1.7190 H   0  0  0  0  0  0  0  0  0  0  0  0
  1  3  1  0  0  0  0
  1  7  1  0  0  0  0
  1  2  2  0  0  0  0
 22 23  1  0  0  0  0
 23 25  1  0  0  0  0
 23 24  2  0  0  0  0
 35 36  1  0  0  0  0
 36 44  1  0  0  0  0
 36 37  2  0  0  0  0
  8  9  1  0  0  0  0
  9 17  1  0  0  0  0
  9 10  2  0  0  0  0
 18 19  1  0  0  0  0
 19 34  1  0  0  0  0
 19 20  2  0  0  0  0
 35 38  1  0  0  0  0
  8 11  1  0  0  0  0
 44 45  1  0  0  0  0
 21 22  1  0  0  0  0
 18 21  1  0  0  0  0
 34 35  1  0  0  0  0
  7  8  1  0  0  0  0
 17 18  1  0  0  0  0
  3  4  1  0  0  0  0
  3  5  1  0  0  0  0
  3  6  1  0  0  0  0
 38 41  1  0  0  0  0
 38 42  1  0  0  0  0
 38 43  1  0  0  0  0
 11 14  1  0  0  0  0
 11 15  1  0  0  0  0
 11 16  1  0  0  0  0
 45 47  1  0  0  0  0
 45 48  1  0  0  0  0
 45 49  1  0  0  0  0
 22 30  1  0  0  0  0
 22 31  1  0  0  0  0
 21 28  1  0  0  0  0
 21 29  1  0  0  0  0
 35 40  1  0  0  0  0
  8 13  1  0  0  0  0
 18 27  1  0  0  0  0
 25 32  1  0  0  0  0
 25 33  1  0  0  0  0
 44 46  1  0  0  0  0
  7 12  1  0  0  0  0
 34 39  1  0  0  0  0
 17 26  1  0  0  0  0
M  END
$$$$

  -OEChem-05262214473D

 49 48  0     1  0  0  0  0  0999 V2000
   -1.9833   -0.0509   -3.3423 C   0  0  0  0  0  0  0  0  0  0  0  0
   -1.6199   -1.0613   -2.7518 O   0  0  0  0  0  0  0  0  0  0  0  0
   -3.3243   -0.0235   -3.9975 C   0  0  0  0  0  0  0  0  0  0  0  0
   -3.2886   -0.3689   -5.0432 H   0  0  0  0  0  0  0  0  0  0  0  0
   -4.0503   -0.6845   -3.4973 H   0  0  0  0  0  0  0  0  0  0  0  0
   -3.8104    0.9645   -4.0351 H   0  0  0  0  0  0  0  0  0  0  0  0
   -1.2607    1.1231   -3.4768 N   0  0  0  0  0  0  0  0  0  0  0  0
    0.0536    1.3115   -2.9213 C   0  0  2  0  0  0  0  0  0  0  0  0
    0.0266    0.8315   -1.4761 C   0  0  0  0  0  0  0  0  0  0  0  0
   -1.0065    0.7530   -0.8146 O   0  0  0  0  0  0  0  0  0  0  0  0
    0.4852    2.7674   -3.0025 C   0  0  0  0  0  0  0  0  0  0  0  0
   -1.6809    1.8924   -3.9952 H   0  0  0  0  0  0  0  0  0  0  0  0
    0.7360    0.6822   -3.5030 H   0  0  0  0  0  0  0  0  0  0  0  0
   -0.1867    3.4133   -2.4256 H   0  0  0  0  0  0  0  0  0  0  0  0
    1.4966    2.9042   -2.6056 H   0  0  0  0  0  0  0  0  0  0  0  0
    0.4754    3.1196   -4.0397 H   0  0  0  0  0  0  0  0  0  0  0  0
    1.2978    0.5411   -0.9947 N   0  0  0  0  0  0  0  0  0  0  0  0
    1.5371    0.0807    0.3489 C   0  0  2  0  0  0  0  0  0  0  0  0
    0.2701    0.3530    1.1520 C   0  0  0  0  0  0  0  0  0  0  0  0
   -0.3223    1.4296    1.1223 O   0  0  0  0  0  0  0  0  0  0  0  0
    2.7391    0.7808    0.9954 C   0  0  0  0  0  0  0  0  0  0  0  0
    4.0747    0.4274    0.3381 C   0  0  0  0  0  0  0  0  0  0  0  0
    5.2628    1.1372    0.9603 C   0  0  0  0  0  0  0  0  0  0  0  0
    5.1714    1.9746    1.8532 O   0  0  0  0  0  0  0  0  0  0  0  0
    6.4586    0.7545    0.3915 N   0  0  0  0  0  0  0  0  0  0  0  0
    2.0949    0.6178   -1.6227 H   0  0  0  0  0  0  0  0  0  0  0  0
    1.6942   -1.0014    0.2868 H   0  0  0  0  0  0  0  0  0  0  0  0
    2.5996    1.8683    0.9327 H   0  0  0  0  0  0  0  0  0  0  0  0
    2.7834    0.5407    2.0652 H   0  0  0  0  0  0  0  0  0  0  0  0
    4.0395    0.7294   -0.7160 H   0  0  0  0  0  0  0  0  0  0  0  0
    4.2458   -0.6546    0.3610 H   0  0  0  0  0  0  0  0  0  0  0  0
    6.4474    0.0678   -0.3553 H   0  0  0  0  0  0  0  0  0  0  0  0
    7.3500    1.1351    0.6928 H   0  0  0  0  0  0  0  0  0  0  0  0
   -0.0883   -0.7311    1.9412 N   0  0  0  0  0  0  0  0  0  0  0  0
   -1.2382   -0.7294    2.8167 C   0  0  2  0  0  0  0  0  0  0  0  0
   -2.4344   -0.2242    2.0209 C   0  0  0  0  0  0  0  0  0  0  0  0
   -2.3243    0.4685    1.0114 O   0  0  0  0  0  0  0  0  0  0  0  0
   -0.9976    0.1353    4.0444 C   0  0  0  0  0  0  0  0  0  0  0  0
    0.4864   -1.5676    1.9014 H   0  0  0  0  0  0  0  0  0  0  0  0
   -1.4101   -1.7693    3.1150 H   0  0  0  0  0  0  0  0  0  0  0  0
   -0.8234    1.1809    3.7654 H   0  0  0  0  0  0  0  0  0  0  0  0
   -1.8587    0.1127    4.7205 H   0  0  0  0  0  0  0  0  0  0  0  0
   -0.1192   -0.2114    4.5992 H   0  0  0  0  0  0  0  0  0  0  0  0
   -3.6403   -0.6016    2.5952 N   0  0  0  0  0  0  0  0  0  0  0  0
   -4.9196   -0.2340    2.0346 C   0  0  0  0  0  0  0  0  0  0  0  0
   -3.6370   -1.1920    3.4217 H   0  0  0  0  0  0  0  0  0  0  0  0
   -5.2665    0.7030    2.4948 H   0  0  0  0  0  0  0  0  0  0  0  0
   -4.8170   -0.0929    0.9486 H   0  0  0  0  0  0  0  0  0  0  0  0
   -5.6498   -1.0323    2.2334 H   0  0  0  0  0  0  0  0  0  0  0  0
  1  3  1  0  0  0  0
  1  7  1  0  0  0  0
  1  2  2  0  0  0  0
 22 23  1  0  0  0  0
 23 25  1  0  0  0  0
 23 24  2  0  0  0  0
 35 36  1  0  0  0  0
 36 44  1  0  0  0  0
 36 37  2  0  0  0  0
  8  9  1  0  0  0  0
  9 17  1  0  0  0  0
  9 10  2  0  0  0  0
 18 19  1  0  0  0  0
 19 34  1  0  0  0  0
 19 20  2  0  0  0  0
 35 38  1  0  0  0  0
  8 11  1  0  0  0  0
 44 45  1  0  0  0  0
 21 22  1  0  0  0  0
 18 21  1  0  0  0  0
 34 35  1  0  0  0  0
  7  8  1  0  0  0  0
 17 18  1  0  0  0  0
  3  4  1  0  0  0  0
  3  5  1  0  0  0  0
  3  6  1  0  0  0  0
 38 41  1  0  0  0  0
 38 42  1  0  0  0  0
 38 43  1  0  0  0  0
 11 14  1  0  0  0  0
 11 15  1  0  0  0  0
 11 16  1  0  0  0  0
 45 47  1  0  0  0  0
 45 48  1  0  0  0  0
 45 49  1  0  0  0  0
 22 30  1  0  0  0  0
 22 31  1  0  0  0  0
 21 28  1  0  0  0  0
 21 29  1  0  0  0  0
 35 40  1  0  0  0  0
  8 13  1  0  0  0  0
 18 27  1  0  0  0  0
 25 32  1  0  0  0  0
 25 33  1  0  0  0  0
 44 46  1  0  0  0  0
  7 12  1  0  0  0  0
 34 39  1  0  0  0  0
 17 26  1  0  0  0  0
M  END
$$$$

  -OEChem-05262214473D

 49 48  0     1  0  0  0  0  0999 V2000
   -1.9833   -0.0509   -3.3423 C   0  0  0  0  0  0  0  0  0  0  0  0
   -1.6199   -1.0613   -2.7518 O   0  0  0  0  0  0  0  0  0  0  0  0
   -3.3243   -0.0235   -3.9975 C   0  0  0  0  0  0  0  0  0  0  0  0
   -3.2886   -0.3689   -5.0432 H   0  0  0  0  0  0  0  0  0  0  0  0
   -4.0503   -0.6845   -3.4973 H   0  0  0  0  0  0  0  0  0  0  0  0
   -3.8104    0.9645   -4.0351 H   0  0  0  0  0  0  0  0  0  0  0  0
   -1.2607    1.1231   -3.4768 N   0  0  0  0  0  0  0  0  0  0  0  0
    0.0536    1.3115   -2.9213 C   0  0  2  0  0  0  0  0  0  0  0  0
    0.0266    0.8315   -1.4761 C   0  0  0  0  0  0  0  0  0  0  0  0
   -1.0065    0.7530   -0.8146 O   0  0  0  0  0  0  0  0  0  0  0  0
    0.4852    2.7674   -3.0025 C   0  0  0  0  0  0  0  0  0  0  0  0
   -1.6809    1.8924   -3.9952 H   0  0  0  0  0  0  0  0  0  0  0  0
    0.7360    0.6822   -3.5030 H   0  0  0  0  0  0  0  0  0  0  0  0
   -0.1867    3.4133   -2.4256 H   0  0  0  0  0  0  0  0  0  0  0  0
    1.4966    2.9042   -2.6056 H   0  0  0  0  0  0  0  0  0  0  0  0
    0.4754    3.1196   -4.0397 H   0  0  0  0  0  0  0  0  0  0  0  0
    1.2978    0.5411   -0.9947 N   0  0  0  0  0  0  0  0  0  0  0  0
    1.5371    0.0807    0.3489 C   0  0  2  0  0  0  0  0  0  0  0  0
    0.2701    0.3530    1.1520 C   0  0  0  0  0  0  0  0  0  0  0  0
   -0.4692    1.3099    0.9311 O   0  0  0  0  0  0  0  0  0  0  0  0
    2.7391    0.7808    0.9954 C   0  0  0  0  0  0  0  0  0  0  0  0
    4.0747    0.4274    0.3381 C   0  0  0  0  0  0  0  0  0  0  0  0
    5.2628    1.1372    0.9603 C   0  0  0  0  0  0  0  0  0  0  0  0
    5.1714    1.9746    1.8532 O   0  0  0  0  0  0  0  0  0  0  0  0
    6.4586    0.7545    0.3915 N   0  0  0  0  0  0  0  0  0  0  0  0
    2.0949    0.6178   -1.6227 H   0  0  0  0  0  0  0  0  0  0  0  0
    1.6942   -1.0014    0.2868 H   0  0  0  0  0  0  0  0  0  0  0  0
    2.5996    1.8683    0.9327 H   0  0  0  0  0  0  0  0  0  0  0  0
    2.7834    0.5407    2.0652 H   0  0  0  0  0  0  0  0  0  0  0  0
    4.0395    0.7294   -0.7160 H   0  0  0  0  0  0  0  0  0  0  0  0
    4.2458   -0.6546    0.3610 H   0  0  0  0  0  0  0  0  0  0  0  0
    6.4474    0.0678   -0.3553 H   0  0  0  0  0  0  0  0  0  0  0  0
    7.3500    1.1351    0.6928 H   0  0  0  0  0  0  0  0  0  0  0  0
    0.0934   -0.5701    2.1734 N   0  0  0  0  0  0  0  0  0  0  0  0
   -1.0171   -0.5283    3.0973 C   0  0  2  0  0  0  0  0  0  0  0  0
   -2.2971   -0.3705    2.2872 C   0  0  0  0  0  0  0  0  0  0  0  0
   -2.3177    0.0934    1.1490 O   0  0  0  0  0  0  0  0  0  0  0  0
   -0.8629    0.6075    4.0968 C   0  0  0  0  0  0  0  0  0  0  0  0
    0.7791   -1.3123    2.2767 H   0  0  0  0  0  0  0  0  0  0  0  0
   -1.0309   -1.4914    3.6191 H   0  0  0  0  0  0  0  0  0  0  0  0
   -0.8471    1.5805    3.5925 H   0  0  0  0  0  0  0  0  0  0  0  0
   -1.6906    0.6202    4.8137 H   0  0  0  0  0  0  0  0  0  0  0  0
    0.0727    0.5086    4.6577 H   0  0  0  0  0  0  0  0  0  0  0  0
   -3.4189   -0.7684    3.0010 N   0  0  0  0  0  0  0  0  0  0  0  0
   -4.7543   -0.7032    2.4546 C   0  0  0  0  0  0  0  0  0  0  0  0
   -3.3063   -1.1585    3.9320 H   0  0  0  0  0  0  0  0  0  0  0  0
   -5.2156    0.2578    2.7261 H   0  0  0  0  0  0  0  0  0  0  0  0
   -4.7067   -0.7904    1.3591 H   0  0  0  0  0  0  0  0  0  0  0  0
   -5.3577   -1.5276    2.8622 H   0  0  0  0  0  0  0  0  0  0  0  0
  1  3  1  0  0  0  0
  1  7  1  0  0  0  0
  1  2  2  0  0  0  0
 22 23  1  0  0  0  0
 23 25  1  0  0  0  0
 23 24  2  0  0  0  0
 35 36  1  0  0  0  0
 36 44  1  0  0  0  0
 36 37  2  0  0  0  0
  8  9  1  0  0  0  0
  9 17  1  0  0  0  0
  9 10  2  0  0  0  0
 18 19  1  0  0  0  0
 19 34  1  0  0  0  0
 19 20  2  0  0  0  0
 35 38  1  0  0  0  0
  8 11  1  0  0  0  0
 44 45  1  0  0  0  0
 21 22  1  0  0  0  0
 18 21  1  0  0  0  0
 34 35  1  0  0  0  0
  7  8  1  0  0  0  0
 17 18  1  0  0  0  0
  3  4  1  0  0  0  0
  3  5  1  0  0  0  0
  3  6  1  0  0  0  0
 38 41  1  0  0  0  0
 38 42  1  0  0  0  0
 38 43  1  0  0  0  0
 11 14  1  0  0  0  0
 11 15  1  0  0  0  0
 11 16  1  0  0  0  0
 45 47  1  0  0  0  0
 45 48  1  0  0  0  0
 45 49  1  0  0  0  0
 22 30  1  0  0  0  0
 22 31  1  0  0  0  0
 21 28  1  0  0  0  0
 21 29  1  0  0  0  0
 35 40  1  0  0  0  0
  8 13  1  0  0  0  0
 18 27  1  0  0  0  0
 25 32  1  0  0  0  0
 25 33  1  0  0  0  0
 44 46  1  0  0  0  0
  7 12  1  0  0  0  0
 34 39  1  0  0  0  0
 17 26  1  0  0  0  0
M  END
$$$$

  -OEChem-05262214473D

 49 48  0     1  0  0  0  0  0999 V2000
   -1.9833   -0.0509   -3.3423 C   0  0  0  0  0  0  0  0  0  0  0  0
   -1.6199   -1.0613   -2.7518 O   0  0  0  0  0  0  0  0  0  0  0  0
   -3.3243   -0.0235   -3.9975 C   0  0  0  0  0  0  0  0  0  0  0  0
   -3.2886   -0.3689   -5.0432 H   0  0  0  0  0  0  0  0  0  0  0  0
   -4.0503   -0.6845   -3.4973 H   0  0  0  0  0  0  0  0  0  0  0  0
   -3.8104    0.9645   -4.0351 H   0  0  0  0  0  0  0  0  0  0  0  0
   -1.2607    1.1231   -3.4768 N   0  0  0  0  0  0  0  0  0  0  0  0
    0.0536    1.3115   -2.9213 C   0  0  2  0  0  0  0  0  0  0  0  0
    0.0266    0.8315   -1.4761 C   0  0  0  0  0  0  0  0  0  0  0  0
   -1.0065    0.7530   -0.8146 O   0  0  0  0  0  0  0  0  0  0  0  0
    0.4852    2.7674   -3.0025 C   0  0  0  0  0  0  0  0  0  0  0  0
   -1.6809    1.8924   -3.9952 H   0  0  0  0  0  0  0  0  0  0  0  0
    0.7360    0.6822   -3.5030 H   0  0  0  0  0  0  0  0  0  0  0  0
   -0.1867    3.4133   -2.4256 H   0  0  0  0  0  0  0  0  0  0  0  0
    1.4966    2.9042   -2.6056 H   0  0  0  0  0  0  0  0  0  0  0  0
    0.4754    3.1196   -4.0397 H   0  0  0  0  0  0  0  0  0  0  0  0
    1.2978    0.5411   -0.9947 N   0  0  0  0  0  0  0  0  0  0  0  0
    1.5371    0.0807    0.3489 C   0  0  2  0  0  0  0  0  0  0  0  0
    0.2701    0.3530    1.1520 C   0  0  0  0  0  0  0  0  0  0  0  0
   -0.6036    1.1330    0.7790 O   0  0  0  0  0  0  0  0  0  0  0  0
    2.7391    0.7808    0.9954 C   0  0  0  0  0  0  0  0  0  0  0  0
    4.0747    0.4274    0.3381 C   0  0  0  0  0  0  0  0  0  0  0  0
    5.2628    1.1372    0.9603 C   0  0  0  0  0  0  0  0  0  0  0  0
    5.1714    1.9746    1.8532 O   0  0  0  0  0  0  0  0  0  0  0  0
    6.4586    0.7545    0.3915 N   0  0  0  0  0  0  0  0  0  0  0  0
    2.0949    0.6178   -1.6227 H   0  0  0  0  0  0  0  0  0  0  0  0
    1.6942   -1.0014    0.2868 H   0  0  0  0  0  0  0  0  0  0  0  0
    2.5996    1.8683    0.9327 H   0  0  0  0  0  0  0  0  0  0  0  0
    2.7834    0.5407    2.0652 H   0  0  0  0  0  0  0  0  0  0  0  0
    4.0395    0.7294   -0.7160 H   0  0  0  0  0  0  0  0  0  0  0  0
    4.2458   -0.6546    0.3610 H   0  0  0  0  0  0  0  0  0  0  0  0
    6.4474    0.0678   -0.3553 H   0  0  0  0  0  0  0  0  0  0  0  0
    7.3500    1.1351    0.6928 H   0  0  0  0  0  0  0  0  0  0  0  0
    0.2578   -0.3399    2.3546 N   0  0  0  0  0  0  0  0  0  0  0  0
   -0.8181   -0.2435    3.3148 C   0  0  2  0  0  0  0  0  0  0  0  0
   -2.1322   -0.4358    2.5695 C   0  0  0  0  0  0  0  0  0  0  0  0
   -2.2538   -0.2384    1.3623 O   0  0  0  0  0  0  0  0  0  0  0  0
   -0.7948    1.0932    4.0396 C   0  0  0  0  0  0  0  0  0  0  0  0
    1.0444   -0.9450    2.5707 H   0  0  0  0  0  0  0  0  0  0  0  0
   -0.6792   -1.0628    4.0287 H   0  0  0  0  0  0  0  0  0  0  0  0
   -0.9325    1.9261    3.3406 H   0  0  0  0  0  0  0  0  0  0  0  0
   -1.5930    1.1533    4.7868 H   0  0  0  0  0  0  0  0  0  0  0  0
    0.1625    1.2428    4.5505 H   0  0  0  0  0  0  0  0  0  0  0  0
   -3.1636   -0.8120    3.4186 N   0  0  0  0  0  0  0  0  0  0  0  0
   -4.5112   -1.0436    2.9535 C   0  0  0  0  0  0  0  0  0  0  0  0
   -2.9678   -0.9712    4.4025 H   0  0  0  0  0  0  0  0  0  0  0  0
   -5.0950   -0.1156    3.0429 H   0  0  0  0  0  0  0  0  0  0  0  0
   -4.4861   -1.3608    1.9005 H   0  0  0  0  0  0  0  0  0  0  0  0
   -4.9789   -1.8311    3.5627 H   0  0  0  0  0  0  0  0  0  0  0  0
  1  3  1  0  0  0  0
  1  7  1  0  0  0  0
  1  2  2  0  0  0  0
 22 23  1  0  0  0  0
 23 25  1  0  0  0  0
 23 24  2  0  0  0  0
 35 36  1  0  0  0  0
 36 44  1  0  0  0  0
 36 37  2  0  0  0  0
  8  9  1  0  0  0  0
  9 17  1  0  0  0  0
  9 10  2  0  0  0  0
 18 19  1  0  0  0  0
 19 34  1  0  0  0  0
 19 20  2  0  0  0  0
 35 38  1  0  0  0  0
  8 11  1  0  0  0  0
 44 45  1  0  0  0  0
 21 22  1  0  0  0  0
 18 21  1  0  0  0  0
 34 35  1  0  0  0  0
  7  8  1  0  0  0  0
 17 18  1  0  0  0  0
  3  4  1  0  0  0  0
  3  5  1  0  0  0  0
  3  6  1  0  0  0  0
 38 41  1  0  0  0  0
 38 42  1  0  0  0  0
 38 43  1  0  0  0  0
 11 14  1  0  0  0  0
 11 15  1  0  0  0  0
 11 16  1  0  0  0  0
 45 47  1  0  0  0  0
 45 48  1  0  0  0  0
 45 49  1  0  0  0  0
 22 30  1  0  0  0  0
 22 31  1  0  0  0  0
 21 28  1  0  0  0  0
 21 29  1  0  0  0  0
 35 40  1  0  0  0  0
  8 13  1  0  0  0  0
 18 27  1  0  0  0  0
 25 32  1  0  0  0  0
 25 33  1  0  0  0  0
 44 46  1  0  0  0  0
  7 12  1  0  0  0  0
 34 39  1  0  0  0  0
 17 26  1  0  0  0  0
M  END
$$$$

  -OEChem-05262214473D

 49 48  0     1  0  0  0  0  0999 V2000
   -1.9833   -0.0509   -3.3423 C   0  0  0  0  0  0  0  0  0  0  0  0
   -1.6199   -1.0613   -2.7518 O   0  0  0  0  0  0  0  0  0  0  0  0
   -3.3243   -0.0235   -3.9975 C   0  0  0  0  0  0  0  0  0  0  0  0
   -3.2886   -0.3689   -5.0432 H   0  0  0  0  0  0  0  0  0  0  0  0
   -4.0503   -0.6845   -3.4973 H   0  0  0  0  0  0  0  0  0  0  0  0
   -3.8104    0.9645   -4.0351 H   0  0  0  0  0  0  0  0  0  0  0  0
   -1.2607    1.1231   -3.4768 N   0  0  0  0  0  0  0  0  0  0  0  0
    0.0536    1.3115   -2.9213 C   0  0  2  0  0  0  0  0  0  0  0  0
    0.0266    0.8315   -1.4761 C   0  0  0  0  0  0  0  0  0  0  0  0
   -1.0065    0.7530   -0.8146 O   0  0  0  0  0  0  0  0  0  0  0  0
    0.4852    2.7674   -3.0025 C   0  0  0  0  0  0  0  0  0  0  0  0
   -1.6809    1.8924   -3.9952 H   0  0  0  0  0  0  0  0  0  0  0  0
    0.7360    0.6822   -3.5030 H   0  0  0  0  0  0  0  0  0  0  0  0
   -0.1867    3.4133   -2.4256 H   0  0  0  0  0  0  0  0  0  0  0  0
    1.4966    2.9042   -2.6056 H   0  0  0  0  0  0  0  0  0  0  0  0
    0.4754    3.1196   -4.0397 H   0  0  0  0  0  0  0  0  0  0  0  0
    1.2978    0.5411   -0.9947 N   0  0  0  0  0  0  0  0  0  0  0  0
    1.5371    0.0807    0.3489 C   0  0  2  0  0  0  0  0  0  0  0  0
    0.1836   -0.0017    1.0459 C   0  0  0  0  0  0  0  0  0  0  0  0
   -0.8691    0.3284    0.5038 O   0  0  0  0  0  0  0  0  0  0  0  0
    2.4789    1.0130    1.1213 C   0  0  0  0  0  0  0  0  0  0  0  0
    3.9071    1.0255    0.5729 C   0  0  0  0  0  0  0  0  0  0  0  0
    4.8350    1.9652    1.3202 C   0  0  0  0  0  0  0  0  0  0  0  0
    4.4738    2.7076    2.2286 O   0  0  0  0  0  0  0  0  0  0  0  0
    6.1284    1.9110    0.8466 N   0  0  0  0  0  0  0  0  0  0  0  0
    2.0949    0.6178   -1.6227 H   0  0  0  0  0  0  0  0  0  0  0  0
    1.9570   -0.9274    0.2653 H   0  0  0  0  0  0  0  0  0  0  0  0
    2.0844    2.0372    1.0823 H   0  0  0  0  0  0  0  0  0  0  0  0
    2.4972    0.7340    2.1824 H   0  0  0  0  0  0  0  0  0  0  0  0
    3.8812    1.3658   -0.4697 H   0  0  0  0  0  0  0  0  0  0  0  0
    4.3340    0.0163    0.5752 H   0  0  0  0  0  0  0  0  0  0  0  0
    6.3424    1.2823    0.0796 H   0  0  0  0  0  0  0  0  0  0  0  0
    6.8743    2.4776    1.2375 H   0  0  0  0  0  0  0  0  0  0  0  0
    0.3002   -0.4389    2.3580 N   0  0  0  0  0  0  0  0  0  0  0  0
   -0.8285   -0.5856    3.2487 C   0  0  2  0  0  0  0  0  0  0  0  0
   -1.9083   -1.3693    2.5143 C   0  0  0  0  0  0  0  0  0  0  0  0
   -1.9727   -1.4353    1.2885 O   0  0  0  0  0  0  0  0  0  0  0  0
   -1.3533    0.7670    3.7043 C   0  0  0  0  0  0  0  0  0  0  0  0
    1.2253   -0.6671    2.7100 H   0  0  0  0  0  0  0  0  0  0  0  0
   -0.4783   -1.1646    4.1102 H   0  0  0  0  0  0  0  0  0  0  0  0
   -1.7087    1.3615    2.8547 H   0  0  0  0  0  0  0  0  0  0  0  0
   -2.1902    0.6536    4.4013 H   0  0  0  0  0  0  0  0  0  0  0  0
   -0.5670    1.3413    4.2060 H   0  0  0  0  0  0  0  0  0  0  0  0
   -2.8166   -1.9506    3.3878 N   0  0  0  0  0  0  0  0  0  0  0  0
   -3.9411   -2.7356    2.9348 C   0  0  0  0  0  0  0  0  0  0  0  0
   -2.6749   -1.8597    4.3895 H   0  0  0  0  0  0  0  0  0  0  0  0
   -4.8225   -2.0863    2.8269 H   0  0  0  0  0  0  0  0  0  0  0  0
   -3.7015   -3.1927    1.9634 H   0  0  0  0  0  0  0  0  0  0  0  0
   -4.1559   -3.5260    3.6690 H   0  0  0  0  0  0  0  0  0  0  0  0
  1  3  1  0  0  0  0
  1  7  1  0  0  0  0
  1  2  2  0  0  0  0
 22 23  1  0  0  0  0
 23 25  1  0  0  0  0
 23 24  2  0  0  0  0
 35 36  1  0  0  0  0
 36 44  1  0  0  0  0
 36 37  2  0  0  0  0
  8  9  1  0  0  0  0
  9 17  1  0  0  0  0
  9 10  2  0  0  0  0
 18 19  1  0  0  0  0
 19 34  1  0  0  0  0
 19 20  2  0  0  0  0
 35 38  1  0  0  0  0
  8 11  1  0  0  0  0
 44 45  1  0  0  0  0
 21 22  1  0  0  0  0
 18 21  1  0  0  0  0
 34 35  1  0  0  0  0
  7  8  1  0  0  0  0
 17 18  1  0  0  0  0
  3  4  1  0  0  0  0
  3  5  1  0  0  0  0
  3  6  1  0  0  0  0
 38 41  1  0  0  0  0
 38 42  1  0  0  0  0
 38 43  1  0  0  0  0
 11 14  1  0  0  0  0
 11 15  1  0  0  0  0
 11 16  1  0  0  0  0
 45 47  1  0  0  0  0
 45 48  1  0  0  0  0
 45 49  1  0  0  0  0
 22 30  1  0  0  0  0
 22 31  1  0  0  0  0
 21 28  1  0  0  0  0
 21 29  1  0  0  0  0
 35 40  1  0  0  0  0
  8 13  1  0  0  0  0
 18 27  1  0  0  0  0
 25 32  1  0  0  0  0
 25 33  1  0  0  0  0
 44 46  1  0  0  0  0
  7 12  1  0  0  0  0
 34 39  1  0  0  0  0
 17 26  1  0  0  0  0
M  END
$$$$

  -OEChem-05262214473D

 49 48  0     1  0  0  0  0  0999 V2000
   -1.9833   -0.0509   -3.3423 C   0  0  0  0  0  0  0  0  0  0  0  0
   -1.6199   -1.0613   -2.7518 O   0  0  0  0  0  0  0  0  0  0  0  0
   -3.3243   -0.0235   -3.9975 C   0  0  0  0  0  0  0  0  0  0  0  0
   -3.2886   -0.3689   -5.0432 H   0  0  0  0  0  0  0  0  0  0  0  0
   -4.0503   -0.6845   -3.4973 H   0  0  0  0  0  0  0  0  0  0  0  0
   -3.8104    0.9645   -4.0351 H   0  0  0  0  0  0  0  0  0  0  0  0
   -1.2607    1.1231   -3.4768 N   0  0  0  0  0  0  0  0  0  0  0  0
    0.0536    1.3115   -2.9213 C   0  0  2  0  0  0  0  0  0  0  0  0
    0.0266    0.8315   -1.4761 C   0  0  0  0  0  0  0  0  0  0  0  0
   -1.0065    0.7530   -0.8146 O   0  0  0  0  0  0  0  0  0  0  0  0
    0.4852    2.7674   -3.0025 C   0  0  0  0  0  0  0  0  0  0  0  0
   -1.6809    1.8924   -3.9952 H   0  0  0  0  0  0  0  0  0  0  0  0
    0.7360    0.6822   -3.5030 H   0  0  0  0  0  0  0  0  0  0  0  0
   -0.1867    3.4133   -2.4256 H   0  0  0  0  0  0  0  0  0  0  0  0
    1.4966    2.9042   -2.6056 H   0  0  0  0  0  0  0  0  0  0  0  0
    0.4754    3.1196   -4.0397 H   0  0  0  0  0  0  0  0  0  0  0  0
    1.2978    0.5411   -0.9947 N   0  0  0  0  0  0  0  0  0  0  0  0
    1.5371    0.0807    0.3489 C   0  0  2  0  0  0  0  0  0  0  0  0
    0.1836   -0.0017    1.0459 C   0  0  0  0  0  0  0  0  0  0  0  0
   -0.8849    0.0668    0.4421 O   0  0  0  0  0  0  0  0  0  0  0  0
    2.4789    1.0130    1.1213 C   0  0  0  0  0  0  0  0  0  0  0  0
    3.9071    1.0255    0.5729 C   0  0  0  0  0  0  0  0  0  0  0  0
    4.8350    1.9652    1.3202 C   0  0  0  0  0  0  0  0  0  0  0  0
    4.4738    2.7076    2.2286 O   0  0  0  0  0  0  0  0  0  0  0  0
    6.1284    1.9110    0.8466 N   0  0  0  0  0  0  0  0  0  0  0  0
    2.0949    0.6178   -1.6227 H   0  0  0  0  0  0  0  0  0  0  0  0
    1.9570   -0.9274    0.2653 H   0  0  0  0  0  0  0  0  0  0  0  0
    2.0844    2.0372    1.0823 H   0  0  0  0  0  0  0  0  0  0  0  0
    2.4972    0.7340    2.1824 H   0  0  0  0  0  0  0  0  0  0  0  0
    3.8812    1.3658   -0.4697 H   0  0  0  0  0  0  0  0  0  0  0  0
    4.3340    0.0163    0.5752 H   0  0  0  0  0  0  0  0  0  0  0  0
    6.3424    1.2823    0.0796 H   0  0  0  0  0  0  0  0  0  0  0  0
    6.8743    2.4776    1.2375 H   0  0  0  0  0  0  0  0  0  0  0  0
    0.3139   -0.1096    2.4235 N   0  0  0  0  0  0  0  0  0  0  0  0
   -0.8143   -0.1829    3.3238 C   0  0  2  0  0  0  0  0  0  0  0  0
   -1.7744   -1.2376    2.7897 C   0  0  0  0  0  0  0  0  0  0  0  0
   -1.7966   -1.5898    1.6122 O   0  0  0  0  0  0  0  0  0  0  0  0
   -1.5059    1.1651    3.4551 C   0  0  0  0  0  0  0  0  0  0  0  0
    1.2491   -0.1386    2.8187 H   0  0  0  0  0  0  0  0  0  0  0  0
   -0.4231   -0.5030    4.2957 H   0  0  0  0  0  0  0  0  0  0  0  0
   -1.9044    1.5023    2.4913 H   0  0  0  0  0  0  0  0  0  0  0  0
   -2.3428    1.1147    4.1594 H   0  0  0  0  0  0  0  0  0  0  0  0
   -0.8062    1.9291    3.8110 H   0  0  0  0  0  0  0  0  0  0  0  0
   -2.6327   -1.7081    3.7737 N   0  0  0  0  0  0  0  0  0  0  0  0
   -3.6449   -2.7050    3.5138 C   0  0  0  0  0  0  0  0  0  0  0  0
   -2.5305   -1.3740    4.7275 H   0  0  0  0  0  0  0  0  0  0  0  0
   -4.5927   -2.2083    3.2589 H   0  0  0  0  0  0  0  0  0  0  0  0
   -3.3266   -3.3403    2.6740 H   0  0  0  0  0  0  0  0  0  0  0  0
   -3.7863   -3.3263    4.4104 H   0  0  0  0  0  0  0  0  0  0  0  0
  1  3  1  0  0  0  0
  1  7  1  0  0  0  0
  1  2  2  0  0  0  0
 22 23  1  0  0  0  0
 23 25  1  0  0  0  0
 23 24  2  0  0  0  0
 35 36  1  0  0  0  0
 36 44  1  0  0  0  0
 36 37  2  0  0  0  0
  8  9  1  0  0  0  0
  9 17  1  0  0  0  0
  9 10  2  0  0  0  0
 18 19  1  0  0  0  0
 19 34  1  0  0  0  0
 19 20  2  0  0  0  0
 35 38  1  0  0  0  0
  8 11  1  0  0  0  0
 44 45  1  0  0  0  0
 21 22  1  0  0  0  0
 18 21  1  0  0  0  0
 34 35  1  0  0  0  0
  7  8  1  0  0  0  0
 17 18  1  0  0  0  0
  3  4  1  0  0  0  0
  3  5  1  0  0  0  0
  3  6  1  0  0  0  0
 38 41  1  0  0  0  0
 38 42  1  0  0  0  0
 38 43  1  0  0  0  0
 11 14  1  0  0  0  0
 11 15  1  0  0  0  0
 11 16  1  0  0  0  0
 45 47  1  0  0  0  0
 45 48  1  0  0  0  0
 45 49  1  0  0  0  0
 22 30  1  0  0  0  0
 22 31  1  0  0  0  0
 21 28  1  0  0  0  0
 21 29  1  0  0  0  0
 35 40  1  0  0  0  0
  8 13  1  0  0  0  0
 18 27  1  0  0  0  0
 25 32  1  0  0  0  0
 25 33  1  0  0  0  0
 44 46  1  0  0  0  0
  7 12  1  0  0  0  0
 34 39  1  0  0  0  0
 17 26  1  0  0  0  0
M  END
$$$$

  -OEChem-05262214473D

 49 48  0     1  0  0  0  0  0999 V2000
   -1.9833   -0.0509   -3.3423 C   0  0  0  0  0  0  0  0  0  0  0  0
   -1.6199   -1.0613   -2.7518 O   0  0  0  0  0  0  0  0  0  0  0  0
   -3.3243   -0.0235   -3.9975 C   0  0  0  0  0  0  0  0  0  0  0  0
   -3.2886   -0.3689   -5.0432 H   0  0  0  0  0  0  0  0  0  0  0  0
   -4.0503   -0.6845   -3.4973 H   0  0  0  0  0  0  0  0  0  0  0  0
   -3.8104    0.9645   -4.0351 H   0  0  0  0  0  0  0  0  0  0  0  0
   -1.2607    1.1231   -3.4768 N   0  0  0  0  0  0  0  0  0  0  0  0
    0.0536    1.3115   -2.9213 C   0  0  2  0  0  0  0  0  0  0  0  0
    0.0266    0.8315   -1.4761 C   0  0  0  0  0  0  0  0  0  0  0  0
   -1.0065    0.7530   -0.8146 O   0  0  0  0  0  0  0  0  0  0  0  0
    0.4852    2.7674   -3.0025 C   0  0  0  0  0  0  0  0  0  0  0  0
   -1.6809    1.8924   -3.9952 H   0  0  0  0  0  0  0  0  0  0  0  0
    0.7360    0.6822   -3.5030 H   0  0  0  0  0  0  0  0  0  0  0  0
   -0.1867    3.4133   -2.4256 H   0  0  0  0  0  0  0  0  0  0  0  0
    1.4966    2.9042   -2.6056 H   0  0  0  0  0  0  0  0  0  0  0  0
    0.4754    3.1196   -4.0397 H   0  0  0  0  0  0  0  0  0  0  0  0
    1.2978    0.5411   -0.9947 N   0  0  0  0  0  0  0  0  0  0  0  0
    1.5371    0.0807    0.3489 C   0  0  2  0  0  0  0  0  0  0  0  0
    0.1836   -0.0017    1.0459 C   0  0  0  0  0  0  0  0  0  0  0  0
   -0.8684   -0.2019    0.4424 O   0  0  0  0  0  0  0  0  0  0  0  0
    2.4789    1.0130    1.1213 C   0  0  0  0  0  0  0  0  0  0  0  0
    3.9071    1.0255    0.5729 C   0  0  0  0  0  0  0  0  0  0  0  0
    4.8350    1.9652    1.3202 C   0  0  0  0  0  0  0  0  0  0  0  0
    4.4738    2.7076    2.2286 O   0  0  0  0  0  0  0  0  0  0  0  0
    6.1284    1.9110    0.8466 N   0  0  0  0  0  0  0  0  0  0  0  0
    2.0949    0.6178   -1.6227 H   0  0  0  0  0  0  0  0  0  0  0  0
    1.9570   -0.9274    0.2653 H   0  0  0  0  0  0  0  0  0  0  0  0
    2.0844    2.0372    1.0823 H   0  0  0  0  0  0  0  0  0  0  0  0
    2.4972    0.7340    2.1824 H   0  0  0  0  0  0  0  0  0  0  0  0
    3.8812    1.3658   -0.4697 H   0  0  0  0  0  0  0  0  0  0  0  0
    4.3340    0.0163    0.5752 H   0  0  0  0  0  0  0  0  0  0  0  0
    6.3424    1.2823    0.0796 H   0  0  0  0  0  0  0  0  0  0  0  0
    6.8743    2.4776    1.2375 H   0  0  0  0  0  0  0  0  0  0  0  0
    0.2873    0.2250    2.4113 N   0  0  0  0  0  0  0  0  0  0  0  0
   -0.8493    0.2250    3.3041 C   0  0  2  0  0  0  0  0  0  0  0  0
   -1.6646   -1.0313    3.0275 C   0  0  0  0  0  0  0  0  0  0  0  0
   -1.6128   -1.6437    1.9629 O   0  0  0  0  0  0  0  0  0  0  0  0
   -1.6968    1.4744    3.1209 C   0  0  0  0  0  0  0  0  0  0  0  0
    1.2081    0.3997    2.8027 H   0  0  0  0  0  0  0  0  0  0  0  0
   -0.4506    0.1852    4.3236 H   0  0  0  0  0  0  0  0  0  0  0  0
   -2.1050    1.5316    2.1052 H   0  0  0  0  0  0  0  0  0  0  0  0
   -2.5414    1.4865    3.8177 H   0  0  0  0  0  0  0  0  0  0  0  0
   -1.1012    2.3778    3.2911 H   0  0  0  0  0  0  0  0  0  0  0  0
   -2.4891   -1.3635    4.0933 N   0  0  0  0  0  0  0  0  0  0  0  0
   -3.3704   -2.5075    4.0701 C   0  0  0  0  0  0  0  0  0  0  0  0
   -2.4531   -0.8101    4.9443 H   0  0  0  0  0  0  0  0  0  0  0  0
   -4.3622   -2.1996    3.7074 H   0  0  0  0  0  0  0  0  0  0  0  0
   -2.9570   -3.2752    3.3995 H   0  0  0  0  0  0  0  0  0  0  0  0
   -3.4632   -2.9193    5.0858 H   0  0  0  0  0  0  0  0  0  0  0  0
  1  3  1  0  0  0  0
  1  7  1  0  0  0  0
  1  2  2  0  0  0  0
 22 23  1  0  0  0  0
 23 25  1  0  0  0  0
 23 24  2  0  0  0  0
 35 36  1  0  0  0  0
 36 44  1  0  0  0  0
 36 37  2  0  0  0  0
  8  9  1  0  0  0  0
  9 17  1  0  0  0  0
  9 10  2  0  0  0  0
 18 19  1  0  0  0  0
 19 34  1  0  0  0  0
 19 20  2  0  0  0  0
 35 38  1  0  0  0  0
  8 11  1  0  0  0  0
 44 45  1  0  0  0  0
 21 22  1  0  0  0  0
 18 21  1  0  0  0  0
 34 35  1  0  0  0  0
  7  8  1  0  0  0  0
 17 18  1  0  0  0  0
  3  4  1  0  0  0  0
  3  5  1  0  0  0  0
  3  6  1  0  0  0  0
 38 41  1  0  0  0  0
 38 42  1  0  0  0  0
 38 43  1  0  0  0  0
 11 14  1  0  0  0  0
 11 15  1  0  0  0  0
 11 16  1  0  0  0  0
 45 47  1  0  0  0  0
 45 48  1  0  0  0  0
 45 49  1  0  0  0  0
 22 30  1  0  0  0  0
 22 31  1  0  0  0  0
 21 28  1  0  0  0  0
 21 29  1  0  0  0  0
 35 40  1  0  0  0  0
  8 13  1  0  0  0  0
 18 27  1  0  0  0  0
 25 32  1  0  0  0  0
 25 33  1  0  0  0  0
 44 46  1  0  0  0  0
  7 12  1  0  0  0  0
 34 39  1  0  0  0  0
 17 26  1  0  0  0  0
M  END
$$$$

  -OEChem-05262214473D

 49 48  0     1  0  0  0  0  0999 V2000
   -1.9833   -0.0509   -3.3423 C   0  0  0  0  0  0  0  0  0  0  0  0
   -1.6199   -1.0613   -2.7518 O   0  0  0  0  0  0  0  0  0  0  0  0
   -3.3243   -0.0235   -3.9975 C   0  0  0  0  0  0  0  0  0  0  0  0
   -3.2886   -0.3689   -5.0432 H   0  0  0  0  0  0  0  0  0  0  0  0
   -4.0503   -0.6845   -3.4973 H   0  0  0  0  0  0  0  0  0  0  0  0
   -3.8104    0.9645   -4.0351 H   0  0  0  0  0  0  0  0  0  0  0  0
   -1.2607    1.1231   -3.4768 N   0  0  0  0  0  0  0  0  0  0  0  0
    0.0536    1.3115   -2.9213 C   0  0  2  0  0  0  0  0  0  0  0  0
    0.0266    0.8315   -1.4761 C   0  0  0  0  0  0  0  0  0  0  0  0
   -1.0065    0.7530   -0.8146 O   0  0  0  0  0  0  0  0  0  0  0  0
    0.4852    2.7674   -3.0025 C   0  0  0  0  0  0  0  0  0  0  0  0
   -1.6809    1.8924   -3.9952 H   0  0  0  0  0  0  0  0  0  0  0  0
    0.7360    0.6822   -3.5030 H   0  0  0  0  0  0  0  0  0  0  0  0
   -0.1867    3.4133   -2.4256 H   0  0  0  0  0  0  0  0  0  0  0  0
    1.4966    2.9042   -2.6056 H   0  0  0  0  0  0  0  0  0  0  0  0
    0.4754    3.1196   -4.0397 H   0  0  0  0  0  0  0  0  0  0  0  0
    1.2978    0.5411   -0.9947 N   0  0  0  0  0  0  0  0  0  0  0  0
    1.5371    0.0807    0.3489 C   0  0  2  0  0  0  0  0  0  0  0  0
    0.1836   -0.0017    1.0459 C   0  0  0  0  0  0  0  0  0  0  0  0
   -0.8206   -0.4595    0.5047 O   0  0  0  0  0  0  0  0  0  0  0  0
    2.4789    1.0130    1.1213 C   0  0  0  0  0  0  0  0  0  0  0  0
    3.9071    1.0255    0.5729 C   0  0  0  0  0  0  0  0  0  0  0  0
    4.8350    1.9652    1.3202 C   0  0  0  0  0  0  0  0  0  0  0  0
    4.4738    2.7076    2.2286 O   0  0  0  0  0  0  0  0  0  0  0  0
    6.1284    1.9110    0.8466 N   0  0  0  0  0  0  0  0  0  0  0  0
    2.0949    0.6178   -1.6227 H   0  0  0  0  0  0  0  0  0  0  0  0
    1.9570   -0.9274    0.2653 H   0  0  0  0  0  0  0  0  0  0  0  0
    2.0844    2.0372    1.0823 H   0  0  0  0  0  0  0  0  0  0  0  0
    2.4972    0.7340    2.1824 H   0  0  0  0  0  0  0  0  0  0  0  0
    3.8812    1.3658   -0.4697 H   0  0  0  0  0  0  0  0  0  0  0  0
    4.3340    0.0163    0.5752 H   0  0  0  0  0  0  0  0  0  0  0  0
    6.3424    1.2823    0.0796 H   0  0  0  0  0  0  0  0  0  0  0  0
    6.8743    2.4776    1.2375 H   0  0  0  0  0  0  0  0  0  0  0  0
    0.2221    0.5423    2.3222 N   0  0  0  0  0  0  0  0  0  0  0  0
   -0.9311    0.6104    3.1908 C   0  0  2  0  0  0  0  0  0  0  0  0
   -1.5862   -0.7643    3.2112 C   0  0  0  0  0  0  0  0  0  0  0  0
   -1.4337   -1.5934    2.3166 O   0  0  0  0  0  0  0  0  0  0  0  0
   -1.9132    1.6737    2.7243 C   0  0  0  0  0  0  0  0  0  0  0  0
    1.1050    0.9111    2.6629 H   0  0  0  0  0  0  0  0  0  0  0  0
   -0.5589    0.8532    4.1921 H   0  0  0  0  0  0  0  0  0  0  0  0
   -2.2968    1.4475    1.7227 H   0  0  0  0  0  0  0  0  0  0  0  0
   -2.7725    1.7436    3.3993 H   0  0  0  0  0  0  0  0  0  0  0  0
   -1.4320    2.6568    2.6817 H   0  0  0  0  0  0  0  0  0  0  0  0
   -2.3957   -0.9402    4.3248 N   0  0  0  0  0  0  0  0  0  0  0  0
   -3.1365   -2.1563    4.5659 C   0  0  0  0  0  0  0  0  0  0  0  0
   -2.4482   -0.2065    5.0252 H   0  0  0  0  0  0  0  0  0  0  0  0
   -4.1470   -2.0609    4.1418 H   0  0  0  0  0  0  0  0  0  0  0  0
   -2.6178   -3.0019    4.0905 H   0  0  0  0  0  0  0  0  0  0  0  0
   -3.2088   -2.3328    5.6492 H   0  0  0  0  0  0  0  0  0  0  0  0
  1  3  1  0  0  0  0
  1  7  1  0  0  0  0
  1  2  2  0  0  0  0
 22 23  1  0  0  0  0
 23 25  1  0  0  0  0
 23 24  2  0  0  0  0
 35 36  1  0  0  0  0
 36 44  1  0  0  0  0
 36 37  2  0  0  0  0
  8  9  1  0  0  0  0
  9 17  1  0  0  0  0
  9 10  2  0  0  0  0
 18 19  1  0  0  0  0
 19 34  1  0  0  0  0
 19 20  2  0  0  0  0
 35 38  1  0  0  0  0
  8 11  1  0  0  0  0
 44 45  1  0  0  0  0
 21 22  1  0  0  0  0
 18 21  1  0  0  0  0
 34 35  1  0  0  0  0
  7  8  1  0  0  0  0
 17 18  1  0  0  0  0
  3  4  1  0  0  0  0
  3  5  1  0  0  0  0
  3  6  1  0  0  0  0
 38 41  1  0  0  0  0
 38 42  1  0  0  0  0
 38 43  1  0  0  0  0
 11 14  1  0  0  0  0
 11 15  1  0  0  0  0
 11 16  1  0  0  0  0
 45 47  1  0  0  0  0
 45 48  1  0  0  0  0
 45 49  1  0  0  0  0
 22 30  1  0  0  0  0
 22 31  1  0  0  0  0
 21 28  1  0  0  0  0
 21 29  1  0  0  0  0
 35 40  1  0  0  0  0
  8 13  1  0  0  0  0
 18 27  1  0  0  0  0
 25 32  1  0  0  0  0
 25 33  1  0  0  0  0
 44 46  1  0  0  0  0
  7 12  1  0  0  0  0
 34 39  1  0  0  0  0
 17 26  1  0  0  0  0
M  END
$$$$

  -OEChem-05262214473D

 49 48  0     1  0  0  0  0  0999 V2000
   -1.9833   -0.0509   -3.3423 C   0  0  0  0  0  0  0  0  0  0  0  0
   -1.6199   -1.0613   -2.7518 O   0  0  0  0  0  0  0  0  0  0  0  0
   -3.3243   -0.0235   -3.9975 C   0  0  0  0  0  0  0  0  0  0  0  0
   -3.2886   -0.3689   -5.0432 H   0  0  0  0  0  0  0  0  0  0  0  0
   -4.0503   -0.6845   -3.4973 H   0  0  0  0  0  0  0  0  0  0  0  0
   -3.8104    0.9645   -4.0351 H   0  0  0  0  0  0  0  0  0  0  0  0
   -1.2607    1.1231   -3.4768 N   0  0  0  0  0  0  0  0  0  0  0  0
    0.0536    1.3115   -2.9213 C   0  0  2  0  0  0  0  0  0  0  0  0
    0.0266    0.8315   -1.4761 C   0  0  0  0  0  0  0  0  0  0  0  0
   -1.0065    0.7530   -0.8146 O   0  0  0  0  0  0  0  0  0  0  0  0
    0.4852    2.7674   -3.0025 C   0  0  0  0  0  0  0  0  0  0  0  0
   -1.6809    1.8924   -3.9952 H   0  0  0  0  0  0  0  0  0  0  0  0
    0.7360    0.6822   -3.5030 H   0  0  0  0  0  0  0  0  0  0  0  0
   -0.1867    3.4133   -2.4256 H   0  0  0  0  0  0  0  0  0  0  0  0
    1.4966    2.9042   -2.6056 H   0  0  0  0  0  0  0  0  0  0  0  0
    0.4754    3.1196   -4.0397 H   0  0  0  0  0  0  0  0  0  0  0  0
    1.2978    0.5411   -0.9947 N   0  0  0  0  0  0  0  0  0  0  0  0
    1.5371    0.0807    0.3489 C   0  0  2  0  0  0  0  0  0  0  0  0
    0.1836   -0.0017    1.0459 C   0  0  0  0  0  0  0  0  0  0  0  0
   -0.7449   -0.6882    0.6247 O   0  0  0  0  0  0  0  0  0  0  0  0
    2.4789    1.0130    1.1213 C   0  0  0  0  0  0  0  0  0  0  0  0
    3.9071    1.0255    0.5729 C   0  0  0  0  0  0  0  0  0  0  0  0
    4.8350    1.9652    1.3202 C   0  0  0  0  0  0  0  0  0  0  0  0
    4.4738    2.7076    2.2286 O   0  0  0  0  0  0  0  0  0  0  0  0
    6.1284    1.9110    0.8466 N   0  0  0  0  0  0  0  0  0  0  0  0
    2.0949    0.6178   -1.6227 H   0  0  0  0  0  0  0  0  0  0  0  0
    1.9570   -0.9274    0.2653 H   0  0  0  0  0  0  0  0  0  0  0  0
    2.0844    2.0372    1.0823 H   0  0  0  0  0  0  0  0  0  0  0  0
    2.4972    0.7340    2.1824 H   0  0  0  0  0  0  0  0  0  0  0  0
    3.8812    1.3658   -0.4697 H   0  0  0  0  0  0  0  0  0  0  0  0
    4.3340    0.0163    0.5752 H   0  0  0  0  0  0  0  0  0  0  0  0
    6.3424    1.2823    0.0796 H   0  0  0  0  0  0  0  0  0  0  0  0
    6.8743    2.4776    1.2375 H   0  0  0  0  0  0  0  0  0  0  0  0
    0.1228    0.8206    2.1624 N   0  0  0  0  0  0  0  0  0  0  0  0
   -1.0541    0.9469    2.9916 C   0  0  2  0  0  0  0  0  0  0  0  0
   -1.5447   -0.4550    3.3284 C   0  0  0  0  0  0  0  0  0  0  0  0
   -1.2716   -1.4425    2.6491 O   0  0  0  0  0  0  0  0  0  0  0  0
   -2.1402    1.7495    2.2924 C   0  0  0  0  0  0  0  0  0  0  0  0
    0.9469    1.3608    2.4090 H   0  0  0  0  0  0  0  0  0  0  0  0
   -0.7408    1.4553    3.9100 H   0  0  0  0  0  0  0  0  0  0  0  0
   -2.4668    1.2557    1.3699 H   0  0  0  0  0  0  0  0  0  0  0  0
   -3.0202    1.8685    2.9330 H   0  0  0  0  0  0  0  0  0  0  0  0
   -1.7760    2.7471    2.0243 H   0  0  0  0  0  0  0  0  0  0  0  0
   -2.3587   -0.4671    4.4524 N   0  0  0  0  0  0  0  0  0  0  0  0
   -2.9590   -1.6755    4.9674 C   0  0  0  0  0  0  0  0  0  0  0  0
   -2.5159    0.3958    4.9648 H   0  0  0  0  0  0  0  0  0  0  0  0
   -3.9615   -1.8017    4.5326 H   0  0  0  0  0  0  0  0  0  0  0  0
   -2.3322   -2.5390    4.6999 H   0  0  0  0  0  0  0  0  0  0  0  0
   -3.0403   -1.6067    6.0622 H   0  0  0  0  0  0  0  0  0  0  0  0
  1  3  1  0  0  0  0
  1  7  1  0  0  0  0
  1  2  2  0  0  0  0
 22 23  1  0  0  0  0
 23 25  1  0  0  0  0
 23 24  2  0  0  0  0
 35 36  1  0  0  0  0
 36 44  1  0  0  0  0
 36 37  2  0  0  0  0
  8  9  1  0  0  0  0
  9 17  1  0  0  0  0
  9 10  2  0  0  0  0
 18 19  1  0  0  0  0
 19 34  1  0  0  0  0
 19 20  2  0  0  0  0
 35 38  1  0  0  0  0
  8 11  1  0  0  0  0
 44 45  1  0  0  0  0
 21 22  1  0  0  0  0
 18 21  1  0  0  0  0
 34 35  1  0  0  0  0
  7  8  1  0  0  0  0
 17 18  1  0  0  0  0
  3  4  1  0  0  0  0
  3  5  1  0  0  0  0
  3  6  1  0  0  0  0
 38 41  1  0  0  0  0
 38 42  1  0  0  0  0
 38 43  1  0  0  0  0
 11 14  1  0  0  0  0
 11 15  1  0  0  0  0
 11 16  1  0  0  0  0
 45 47  1  0  0  0  0
 45 48  1  0  0  0  0
 45 49  1  0  0  0  0
 22 30  1  0  0  0  0
 22 31  1  0  0  0  0
 21 28  1  0  0  0  0
 21 29  1  0  0  0  0
 35 40  1  0  0  0  0
  8 13  1  0  0  0  0
 18 27  1  0  0  0  0
 25 32  1  0  0  0  0
 25 33  1  0  0  0  0
 44 46  1  0  0  0  0
  7 12  1  0  0  0  0
 34 39  1  0  0  0  0
 17 26  1  0  0  0  0
M  END
$$$$

  -OEChem-05262214473D

 49 48  0     1  0  0  0  0  0999 V2000
   -1.9833   -0.0509   -3.3423 C   0  0  0  0  0  0  0  0  0  0  0  0
   -1.6199   -1.0613   -2.7518 O   0  0  0  0  0  0  0  0  0  0  0  0
   -3.3243   -0.0235   -3.9975 C   0  0  0  0  0  0  0  0  0  0  0  0
   -3.2886   -0.3689   -5.0432 H   0  0  0  0  0  0  0  0  0  0  0  0
   -4.0503   -0.6845   -3.4973 H   0  0  0  0  0  0  0  0  0  0  0  0
   -3.8104    0.9645   -4.0351 H   0  0  0  0  0  0  0  0  0  0  0  0
   -1.2607    1.1231   -3.4768 N   0  0  0  0  0  0  0  0  0  0  0  0
    0.0536    1.3115   -2.9213 C   0  0  2  0  0  0  0  0  0  0  0  0
    0.0266    0.8315   -1.4761 C   0  0  0  0  0  0  0  0  0  0  0  0
   -1.0065    0.7530   -0.8146 O   0  0  0  0  0  0  0  0  0  0  0  0
    0.4852    2.7674   -3.0025 C   0  0  0  0  0  0  0  0  0  0  0  0
   -1.6809    1.8924   -3.9952 H   0  0  0  0  0  0  0  0  0  0  0  0
    0.7360    0.6822   -3.5030 H   0  0  0  0  0  0  0  0  0  0  0  0
   -0.1867    3.4133   -2.4256 H   0  0  0  0  0  0  0  0  0  0  0  0
    1.4966    2.9042   -2.6056 H   0  0  0  0  0  0  0  0  0  0  0  0
    0.4754    3.1196   -4.0397 H   0  0  0  0  0  0  0  0  0  0  0  0
    1.2978    0.5411   -0.9947 N   0  0  0  0  0  0  0  0  0  0  0  0
    1.5371    0.0807    0.3489 C   0  0  2  0  0  0  0  0  0  0  0  0
    0.1836   -0.0017    1.0459 C   0  0  0  0  0  0  0  0  0  0  0  0
   -0.6464   -0.8727    0.7943 O   0  0  0  0  0  0  0  0  0  0  0  0
    2.4789    1.0130    1.1213 C   0  0  0  0  0  0  0  0  0  0  0  0
    3.9071    1.0255    0.5729 C   0  0  0  0  0  0  0  0  0  0  0  0
    4.8350    1.9652    1.3202 C   0  0  0  0  0  0  0  0  0  0  0  0
    4.4738    2.7076    2.2286 O   0  0  0  0  0  0  0  0  0  0  0  0
    6.1284    1.9110    0.8466 N   0  0  0  0  0  0  0  0  0  0  0  0
    2.0949    0.6178   -1.6227 H   0  0  0  0  0  0  0  0  0  0  0  0
    1.9570   -0.9274    0.2653 H   0  0  0  0  0  0  0  0  0  0  0  0
    2.0844    2.0372    1.0823 H   0  0  0  0  0  0  0  0  0  0  0  0
    2.4972    0.7340    2.1824 H   0  0  0  0  0  0  0  0  0  0  0  0
    3.8812    1.3658   -0.4697 H   0  0  0  0  0  0  0  0  0  0  0  0
    4.3340    0.0163    0.5752 H   0  0  0  0  0  0  0  0  0  0  0  0
    6.3424    1.2823    0.0796 H   0  0  0  0  0  0  0  0  0  0  0  0
    6.8743    2.4776    1.2375 H   0  0  0  0  0  0  0  0  0  0  0  0
   -0.0037    1.0410    1.9426 N   0  0  0  0  0  0  0  0  0  0  0  0
   -1.2099    1.2116    2.7203 C   0  0  2  0  0  0  0  0  0  0  0  0
   -1.5428   -0.1244    3.3712 C   0  0  0  0  0  0  0  0  0  0  0  0
   -1.1376   -1.2011    2.9380 O   0  0  0  0  0  0  0  0  0  0  0  0
   -2.3624    1.6966    1.8546 C   0  0  0  0  0  0  0  0  0  0  0  0
    0.7445    1.7181    2.0582 H   0  0  0  0  0  0  0  0  0  0  0  0
   -0.9838    1.9506    3.4967 H   0  0  0  0  0  0  0  0  0  0  0  0
   -2.6034    0.9692    1.0708 H   0  0  0  0  0  0  0  0  0  0  0  0
   -3.2678    1.8527    2.4503 H   0  0  0  0  0  0  0  0  0  0  0  0
   -2.1098    2.6427    1.3637 H   0  0  0  0  0  0  0  0  0  0  0  0
   -2.3808    0.0236    4.4675 N   0  0  0  0  0  0  0  0  0  0  0  0
   -2.8500   -1.0979    5.2472 C   0  0  0  0  0  0  0  0  0  0  0  0
   -2.6518    0.9556    4.7671 H   0  0  0  0  0  0  0  0  0  0  0  0
   -3.8185   -1.4395    4.8531 H   0  0  0  0  0  0  0  0  0  0  0  0
   -2.1195   -1.9180    5.1861 H   0  0  0  0  0  0  0  0  0  0  0  0
   -2.9693   -0.7905    6.2966 H   0  0  0  0  0  0  0  0  0  0  0  0
  1  3  1  0  0  0  0
  1  7  1  0  0  0  0
  1  2  2  0  0  0  0
 22 23  1  0  0  0  0
 23 25  1  0  0  0  0
 23 24  2  0  0  0  0
 35 36  1  0  0  0  0
 36 44  1  0  0  0  0
 36 37  2  0  0  0  0
  8  9  1  0  0  0  0
  9 17  1  0  0  0  0
  9 10  2  0  0  0  0
 18 19  1  0  0  0  0
 19 34  1  0  0  0  0
 19 20  2  0  0  0  0
 35 38  1  0  0  0  0
  8 11  1  0  0  0  0
 44 45  1  0  0  0  0
 21 22  1  0  0  0  0
 18 21  1  0  0  0  0
 34 35  1  0  0  0  0
  7  8  1  0  0  0  0
 17 18  1  0  0  0  0
  3  4  1  0  0  0  0
  3  5  1  0  0  0  0
  3  6  1  0  0  0  0
 38 41  1  0  0  0  0
 38 42  1  0  0  0  0
 38 43  1  0  0  0  0
 11 14  1  0  0  0  0
 11 15  1  0  0  0  0
 11 16  1  0  0  0  0
 45 47  1  0  0  0  0
 45 48  1  0  0  0  0
 45 49  1  0  0  0  0
 22 30  1  0  0  0  0
 22 31  1  0  0  0  0
 21 28  1  0  0  0  0
 21 29  1  0  0  0  0
 35 40  1  0  0  0  0
  8 13  1  0  0  0  0
 18 27  1  0  0  0  0
 25 32  1  0  0  0  0
 25 33  1  0  0  0  0
 44 46  1  0  0  0  0
  7 12  1  0  0  0  0
 34 39  1  0  0  0  0
 17 26  1  0  0  0  0
M  END
$$$$

  -OEChem-05262214473D

 49 48  0     1  0  0  0  0  0999 V2000
   -1.9833   -0.0509   -3.3423 C   0  0  0  0  0  0  0  0  0  0  0  0
   -1.6199   -1.0613   -2.7518 O   0  0  0  0  0  0  0  0  0  0  0  0
   -3.3243   -0.0235   -3.9975 C   0  0  0  0  0  0  0  0  0  0  0  0
   -3.2886   -0.3689   -5.0432 H   0  0  0  0  0  0  0  0  0  0  0  0
   -4.0503   -0.6845   -3.4973 H   0  0  0  0  0  0  0  0  0  0  0  0
   -3.8104    0.9645   -4.0351 H   0  0  0  0  0  0  0  0  0  0  0  0
   -1.2607    1.1231   -3.4768 N   0  0  0  0  0  0  0  0  0  0  0  0
    0.0536    1.3115   -2.9213 C   0  0  2  0  0  0  0  0  0  0  0  0
    0.0266    0.8315   -1.4761 C   0  0  0  0  0  0  0  0  0  0  0  0
   -1.0065    0.7530   -0.8146 O   0  0  0  0  0  0  0  0  0  0  0  0
    0.4852    2.7674   -3.0025 C   0  0  0  0  0  0  0  0  0  0  0  0
   -1.6809    1.8924   -3.9952 H   0  0  0  0  0  0  0  0  0  0  0  0
    0.7360    0.6822   -3.5030 H   0  0  0  0  0  0  0  0  0  0  0  0
   -0.1867    3.4133   -2.4256 H   0  0  0  0  0  0  0  0  0  0  0  0
    1.4966    2.9042   -2.6056 H   0  0  0  0  0  0  0  0  0  0  0  0
    0.4754    3.1196   -4.0397 H   0  0  0  0  0  0  0  0  0  0  0  0
    1.2978    0.5411   -0.9947 N   0  0  0  0  0  0  0  0  0  0  0  0
    1.5371    0.0807    0.3489 C   0  0  2  0  0  0  0  0  0  0  0  0
    0.1836   -0.0017    1.0459 C   0  0  0  0  0  0  0  0  0  0  0  0
   -0.5318   -1.0003    1.0018 O   0  0  0  0  0  0  0  0  0  0  0  0
    2.4789    1.0130    1.1213 C   0  0  0  0  0  0  0  0  0  0  0  0
    3.9071    1.0255    0.5729 C   0  0  0  0  0  0  0  0  0  0  0  0
    4.8350    1.9652    1.3202 C   0  0  0  0  0  0  0  0  0  0  0  0
    4.4738    2.7076    2.2286 O   0  0  0  0  0  0  0  0  0  0  0  0
    6.1284    1.9110    0.8466 N   0  0  0  0  0  0  0  0  0  0  0  0
    2.0949    0.6178   -1.6227 H   0  0  0  0  0  0  0  0  0  0  0  0
    1.9570   -0.9274    0.2653 H   0  0  0  0  0  0  0  0  0  0  0  0
    2.0844    2.0372    1.0823 H   0  0  0  0  0  0  0  0  0  0  0  0
    2.4972    0.7340    2.1824 H   0  0  0  0  0  0  0  0  0  0  0  0
    3.8812    1.3658   -0.4697 H   0  0  0  0  0  0  0  0  0  0  0  0
    4.3340    0.0163    0.5752 H   0  0  0  0  0  0  0  0  0  0  0  0
    6.3424    1.2823    0.0796 H   0  0  0  0  0  0  0  0  0  0  0  0
    6.8743    2.4776    1.2375 H   0  0  0  0  0  0  0  0  0  0  0  0
   -0.1490    1.1884    1.6780 N   0  0  0  0  0  0  0  0  0  0  0  0
   -1.3880    1.3866    2.3951 C   0  0  2  0  0  0  0  0  0  0  0  0
   -1.5806    0.2050    3.3366 C   0  0  0  0  0  0  0  0  0  0  0  0
   -1.0407   -0.8856    3.1634 O   0  0  0  0  0  0  0  0  0  0  0  0
   -2.5646    1.5186    1.4408 C   0  0  0  0  0  0  0  0  0  0  0  0
    0.5116    1.9587    1.6344 H   0  0  0  0  0  0  0  0  0  0  0  0
   -1.2713    2.3053    2.9802 H   0  0  0  0  0  0  0  0  0  0  0  0
   -2.6973    0.6076    0.8458 H   0  0  0  0  0  0  0  0  0  0  0  0
   -3.4983    1.6972    1.9843 H   0  0  0  0  0  0  0  0  0  0  0  0
   -2.4107    2.3505    0.7450 H   0  0  0  0  0  0  0  0  0  0  0  0
   -2.4604    0.4985    4.3691 N   0  0  0  0  0  0  0  0  0  0  0  0
   -2.8171   -0.4628    5.3863 C   0  0  0  0  0  0  0  0  0  0  0  0
   -2.8465    1.4349    4.4456 H   0  0  0  0  0  0  0  0  0  0  0  0
   -3.7277   -0.9992    5.0814 H   0  0  0  0  0  0  0  0  0  0  0  0
   -1.9944   -1.1814    5.5161 H   0  0  0  0  0  0  0  0  0  0  0  0
   -3.0005    0.0601    6.3366 H   0  0  0  0  0  0  0  0  0  0  0  0
  1  3  1  0  0  0  0
  1  7  1  0  0  0  0
  1  2  2  0  0  0  0
 22 23  1  0  0  0  0
 23 25  1  0  0  0  0
 23 24  2  0  0  0  0
 35 36  1  0  0  0  0
 36 44  1  0  0  0  0
 36 37  2  0  0  0  0
  8  9  1  0  0  0  0
  9 17  1  0  0  0  0
  9 10  2  0  0  0  0
 18 19  1  0  0  0  0
 19 34  1  0  0  0  0
 19 20  2  0  0  0  0
 35 38  1  0  0  0  0
  8 11  1  0  0  0  0
 44 45  1  0  0  0  0
 21 22  1  0  0  0  0
 18 21  1  0  0  0  0
 34 35  1  0  0  0  0
  7  8  1  0  0  0  0
 17 18  1  0  0  0  0
  3  4  1  0  0  0  0
  3  5  1  0  0  0  0
  3  6  1  0  0  0  0
 38 41  1  0  0  0  0
 38 42  1  0  0  0  0
 38 43  1  0  0  0  0
 11 14  1  0  0  0  0
 11 15  1  0  0  0  0
 11 16  1  0  0  0  0
 45 47  1  0  0  0  0
 45 48  1  0  0  0  0
 45 49  1  0  0  0  0
 22 30  1  0  0  0  0
 22 31  1  0  0  0  0
 21 28  1  0  0  0  0
 21 29  1  0  0  0  0
 35 40  1  0  0  0  0
  8 13  1  0  0  0  0
 18 27  1  0  0  0  0
 25 32  1  0  0  0  0
 25 33  1  0  0  0  0
 44 46  1  0  0  0  0
  7 12  1  0  0  0  0
 34 39  1  0  0  0  0
 17 26  1  0  0  0  0
M  END
$$$$

  -OEChem-05262214473D

 49 48  0     1  0  0  0  0  0999 V2000
   -1.9833   -0.0509   -3.3423 C   0  0  0  0  0  0  0  0  0  0  0  0
   -1.6199   -1.0613   -2.7518 O   0  0  0  0  0  0  0  0  0  0  0  0
   -3.3243   -0.0235   -3.9975 C   0  0  0  0  0  0  0  0  0  0  0  0
   -3.2886   -0.3689   -5.0432 H   0  0  0  0  0  0  0  0  0  0  0  0
   -4.0503   -0.6845   -3.4973 H   0  0  0  0  0  0  0  0  0  0  0  0
   -3.8104    0.9645   -4.0351 H   0  0  0  0  0  0  0  0  0  0  0  0
   -1.2607    1.1231   -3.4768 N   0  0  0  0  0  0  0  0  0  0  0  0
    0.0536    1.3115   -2.9213 C   0  0  2  0  0  0  0  0  0  0  0  0
    0.0266    0.8315   -1.4761 C   0  0  0  0  0  0  0  0  0  0  0  0
   -1.0065    0.7530   -0.8146 O   0  0  0  0  0  0  0  0  0  0  0  0
    0.4852    2.7674   -3.0025 C   0  0  0  0  0  0  0  0  0  0  0  0
   -1.6809    1.8924   -3.9952 H   0  0  0  0  0  0  0  0  0  0  0  0
    0.7360    0.6822   -3.5030 H   0  0  0  0  0  0  0  0  0  0  0  0
   -0.1867    3.4133   -2.4256 H   0  0  0  0  0  0  0  0  0  0  0  0
    1.4966    2.9042   -2.6056 H   0  0  0  0  0  0  0  0  0  0  0  0
    0.4754    3.1196   -4.0397 H   0  0  0  0  0  0  0  0  0  0  0  0
    1.2978    0.5411   -0.9947 N   0  0  0  0  0  0  0  0  0  0  0  0
    1.5371    0.0807    0.3489 C   0  0  2  0  0  0  0  0  0  0  0  0
    0.1836   -0.0017    1.0459 C   0  0  0  0  0  0  0  0  0  0  0  0
   -0.4089   -1.0622    1.2332 O   0  0  0  0  0  0  0  0  0  0  0  0
    2.4789    1.0130    1.1213 C   0  0  0  0  0  0  0  0  0  0  0  0
    3.9071    1.0255    0.5729 C   0  0  0  0  0  0  0  0  0  0  0  0
    4.8350    1.9652    1.3202 C   0  0  0  0  0  0  0  0  0  0  0  0
    4.4738    2.7076    2.2286 O   0  0  0  0  0  0  0  0  0  0  0  0
    6.1284    1.9110    0.8466 N   0  0  0  0  0  0  0  0  0  0  0  0
    2.0949    0.6178   -1.6227 H   0  0  0  0  0  0  0  0  0  0  0  0
    1.9570   -0.9274    0.2653 H   0  0  0  0  0  0  0  0  0  0  0  0
    2.0844    2.0372    1.0823 H   0  0  0  0  0  0  0  0  0  0  0  0
    2.4972    0.7340    2.1824 H   0  0  0  0  0  0  0  0  0  0  0  0
    3.8812    1.3658   -0.4697 H   0  0  0  0  0  0  0  0  0  0  0  0
    4.3340    0.0163    0.5752 H   0  0  0  0  0  0  0  0  0  0  0  0
    6.3424    1.2823    0.0796 H   0  0  0  0  0  0  0  0  0  0  0  0
    6.8743    2.4776    1.2375 H   0  0  0  0  0  0  0  0  0  0  0  0
   -0.3030    1.2528    1.3865 N   0  0  0  0  0  0  0  0  0  0  0  0
   -1.5761    1.4598    2.0384 C   0  0  2  0  0  0  0  0  0  0  0  0
   -1.6557    0.5108    3.2269 C   0  0  0  0  0  0  0  0  0  0  0  0
   -0.9876   -0.5177    3.3100 O   0  0  0  0  0  0  0  0  0  0  0  0
   -2.7332    1.2277    1.0791 C   0  0  0  0  0  0  0  0  0  0  0  0
    0.2641    2.0662    1.1665 H   0  0  0  0  0  0  0  0  0  0  0  0
   -1.5838    2.4952    2.3959 H   0  0  0  0  0  0  0  0  0  0  0  0
   -2.7420    0.1956    0.7103 H   0  0  0  0  0  0  0  0  0  0  0  0
   -3.6960    1.4127    1.5667 H   0  0  0  0  0  0  0  0  0  0  0  0
   -2.6580    1.8905    0.2103 H   0  0  0  0  0  0  0  0  0  0  0  0
   -2.5921    0.9251    4.1638 N   0  0  0  0  0  0  0  0  0  0  0  0
   -2.8623    0.1866    5.3752 C   0  0  0  0  0  0  0  0  0  0  0  0
   -3.0868    1.8009    4.0223 H   0  0  0  0  0  0  0  0  0  0  0  0
   -3.6953   -0.5106    5.2021 H   0  0  0  0  0  0  0  0  0  0  0  0
   -1.9654   -0.3792    5.6673 H   0  0  0  0  0  0  0  0  0  0  0  0
   -3.1318    0.8873    6.1792 H   0  0  0  0  0  0  0  0  0  0  0  0
  1  3  1  0  0  0  0
  1  7  1  0  0  0  0
  1  2  2  0  0  0  0
 22 23  1  0  0  0  0
 23 25  1  0  0  0  0
 23 24  2  0  0  0  0
 35 36  1  0  0  0  0
 36 44  1  0  0  0  0
 36 37  2  0  0  0  0
  8  9  1  0  0  0  0
  9 17  1  0  0  0  0
  9 10  2  0  0  0  0
 18 19  1  0  0  0  0
 19 34  1  0  0  0  0
 19 20  2  0  0  0  0
 35 38  1  0  0  0  0
  8 11  1  0  0  0  0
 44 45  1  0  0  0  0
 21 22  1  0  0  0  0
 18 21  1  0  0  0  0
 34 35  1  0  0  0  0
  7  8  1  0  0  0  0
 17 18  1  0  0  0  0
  3  4  1  0  0  0  0
  3  5  1  0  0  0  0
  3  6  1  0  0  0  0
 38 41  1  0  0  0  0
 38 42  1  0  0  0  0
 38 43  1  0  0  0  0
 11 14  1  0  0  0  0
 11 15  1  0  0  0  0
 11 16  1  0  0  0  0
 45 47  1  0  0  0  0
 45 48  1  0  0  0  0
 45 49  1  0  0  0  0
 22 30  1  0  0  0  0
 22 31  1  0  0  0  0
 21 28  1  0  0  0  0
 21 29  1  0  0  0  0
 35 40  1  0  0  0  0
  8 13  1  0  0  0  0
 18 27  1  0  0  0  0
 25 32  1  0  0  0  0
 25 33  1  0  0  0  0
 44 46  1  0  0  0  0
  7 12  1  0  0  0  0
 34 39  1  0  0  0  0
 17 26  1  0  0  0  0
M  END
$$$$

  -OEChem-05262214473D

 49 48  0     1  0  0  0  0  0999 V2000
   -1.9833   -0.0509   -3.3423 C   0  0  0  0  0  0  0  0  0  0  0  0
   -1.6199   -1.0613   -2.7518 O   0  0  0  0  0  0  0  0  0  0  0  0
   -3.3243   -0.0235   -3.9975 C   0  0  0  0  0  0  0  0  0  0  0  0
   -3.2886   -0.3689   -5.0432 H   0  0  0  0  0  0  0  0  0  0  0  0
   -4.0503   -0.6845   -3.4973 H   0  0  0  0  0  0  0  0  0  0  0  0
   -3.8104    0.9645   -4.0351 H   0  0  0  0  0  0  0  0  0  0  0  0
   -1.2607    1.1231   -3.4768 N   0  0  0  0  0  0  0  0  0  0  0  0
    0.0536    1.3115   -2.9213 C   0  0  2  0  0  0  0  0  0  0  0  0
    0.0266    0.8315   -1.4761 C   0  0  0  0  0  0  0  0  0  0  0  0
   -1.0065    0.7530   -0.8146 O   0  0  0  0  0  0  0  0  0  0  0  0
    0.4852    2.7674   -3.0025 C   0  0  0  0  0  0  0  0  0  0  0  0
   -1.6809    1.8924   -3.9952 H   0  0  0  0  0  0  0  0  0  0  0  0
    0.7360    0.6822   -3.5030 H   0  0  0  0  0  0  0  0  0  0  0  0
   -0.1867    3.4133   -2.4256 H   0  0  0  0  0  0  0  0  0  0  0  0
    1.4966    2.9042   -2.6056 H   0  0  0  0  0  0  0  0  0  0  0  0
    0.4754    3.1196   -4.0397 H   0  0  0  0  0  0  0  0  0  0  0  0
    1.2978    0.5411   -0.9947 N   0  0  0  0  0  0  0  0  0  0  0  0
    1.5371    0.0807    0.3489 C   0  0  2  0  0  0  0  0  0  0  0  0
    0.1836   -0.0017    1.0459 C   0  0  0  0  0  0  0  0  0  0  0  0
   -0.2860   -1.0544    1.4726 O   0  0  0  0  0  0  0  0  0  0  0  0
    2.4789    1.0130    1.1213 C   0  0  0  0  0  0  0  0  0  0  0  0
    3.9071    1.0255    0.5729 C   0  0  0  0  0  0  0  0  0  0  0  0
    4.8350    1.9652    1.3202 C   0  0  0  0  0  0  0  0  0  0  0  0
    4.4738    2.7076    2.2286 O   0  0  0  0  0  0  0  0  0  0  0  0
    6.1284    1.9110    0.8466 N   0  0  0  0  0  0  0  0  0  0  0  0
    2.0949    0.6178   -1.6227 H   0  0  0  0  0  0  0  0  0  0  0  0
    1.9570   -0.9274    0.2653 H   0  0  0  0  0  0  0  0  0  0  0  0
    2.0844    2.0372    1.0823 H   0  0  0  0  0  0  0  0  0  0  0  0
    2.4972    0.7340    2.1824 H   0  0  0  0  0  0  0  0  0  0  0  0
    3.8812    1.3658   -0.4697 H   0  0  0  0  0  0  0  0  0  0  0  0
    4.3340    0.0163    0.5752 H   0  0  0  0  0  0  0  0  0  0  0  0
    6.3424    1.2823    0.0796 H   0  0  0  0  0  0  0  0  0  0  0  0
    6.8743    2.4776    1.2375 H   0  0  0  0  0  0  0  0  0  0  0  0
   -0.4553    1.2298    1.0879 N   0  0  0  0  0  0  0  0  0  0  0  0
   -1.7616    1.4262    1.6743 C   0  0  2  0  0  0  0  0  0  0  0  0
   -1.7629    0.7720    3.0497 C   0  0  0  0  0  0  0  0  0  0  0  0
   -0.9819   -0.1224    3.3678 O   0  0  0  0  0  0  0  0  0  0  0  0
   -2.8565    0.8437    0.7943 C   0  0  0  0  0  0  0  0  0  0  0  0
    0.0189    2.0332    0.6864 H   0  0  0  0  0  0  0  0  0  0  0  0
   -1.8999    2.5074    1.7834 H   0  0  0  0  0  0  0  0  0  0  0  0
   -2.7345   -0.2389    0.6734 H   0  0  0  0  0  0  0  0  0  0  0  0
   -3.8475    1.0185    1.2259 H   0  0  0  0  0  0  0  0  0  0  0  0
   -2.8350    1.2941   -0.2040 H   0  0  0  0  0  0  0  0  0  0  0  0
   -2.7669    1.2745    3.8656 N   0  0  0  0  0  0  0  0  0  0  0  0
   -2.9827    0.8060    5.2146 C   0  0  0  0  0  0  0  0  0  0  0  0
   -3.3563    2.0287    3.5258 H   0  0  0  0  0  0  0  0  0  0  0  0
   -3.7235   -0.0071    5.2069 H   0  0  0  0  0  0  0  0  0  0  0  0
   -2.0343    0.4338    5.6295 H   0  0  0  0  0  0  0  0  0  0  0  0
   -3.3544    1.6346    5.8354 H   0  0  0  0  0  0  0  0  0  0  0  0
  1  3  1  0  0  0  0
  1  7  1  0  0  0  0
  1  2  2  0  0  0  0
 22 23  1  0  0  0  0
 23 25  1  0  0  0  0
 23 24  2  0  0  0  0
 35 36  1  0  0  0  0
 36 44  1  0  0  0  0
 36 37  2  0  0  0  0
  8  9  1  0  0  0  0
  9 17  1  0  0  0  0
  9 10  2  0  0  0  0
 18 19  1  0  0  0  0
 19 34  1  0  0  0  0
 19 20  2  0  0  0  0
 35 38  1  0  0  0  0
  8 11  1  0  0  0  0
 44 45  1  0  0  0  0
 21 22  1  0  0  0  0
 18 21  1  0  0  0  0
 34 35  1  0  0  0  0
  7  8  1  0  0  0  0
 17 18  1  0  0  0  0
  3  4  1  0  0  0  0
  3  5  1  0  0  0  0
  3  6  1  0  0  0  0
 38 41  1  0  0  0  0
 38 42  1  0  0  0  0
 38 43  1  0  0  0  0
 11 14  1  0  0  0  0
 11 15  1  0  0  0  0
 11 16  1  0  0  0  0
 45 47  1  0  0  0  0
 45 48  1  0  0  0  0
 45 49  1  0  0  0  0
 22 30  1  0  0  0  0
 22 31  1  0  0  0  0
 21 28  1  0  0  0  0
 21 29  1  0  0  0  0
 35 40  1  0  0  0  0
  8 13  1  0  0  0  0
 18 27  1  0  0  0  0
 25 32  1  0  0  0  0
 25 33  1  0  0  0  0
 44 46  1  0  0  0  0
  7 12  1  0  0  0  0
 34 39  1  0  0  0  0
 17 26  1  0  0  0  0
M  END
$$$$

  -OEChem-05262214473D

 49 48  0     1  0  0  0  0  0999 V2000
   -1.9833   -0.0509   -3.3423 C   0  0  0  0  0  0  0  0  0  0  0  0
   -1.6199   -1.0613   -2.7518 O   0  0  0  0  0  0  0  0  0  0  0  0
   -3.3243   -0.0235   -3.9975 C   0  0  0  0  0  0  0  0  0  0  0  0
   -3.2886   -0.3689   -5.0432 H   0  0  0  0  0  0  0  0  0  0  0  0
   -4.0503   -0.6845   -3.4973 H   0  0  0  0  0  0  0  0  0  0  0  0
   -3.8104    0.9645   -4.0351 H   0  0  0  0  0  0  0  0  0  0  0  0
   -1.2607    1.1231   -3.4768 N   0  0  0  0  0  0  0  0  0  0  0  0
    0.0536    1.3115   -2.9213 C   0  0  2  0  0  0  0  0  0  0  0  0
    0.0266    0.8315   -1.4761 C   0  0  0  0  0  0  0  0  0  0  0  0
   -1.0065    0.7530   -0.8146 O   0  0  0  0  0  0  0  0  0  0  0  0
    0.4852    2.7674   -3.0025 C   0  0  0  0  0  0  0  0  0  0  0  0
   -1.6809    1.8924   -3.9952 H   0  0  0  0  0  0  0  0  0  0  0  0
    0.7360    0.6822   -3.5030 H   0  0  0  0  0  0  0  0  0  0  0  0
   -0.1867    3.4133   -2.4256 H   0  0  0  0  0  0  0  0  0  0  0  0
    1.4966    2.9042   -2.6056 H   0  0  0  0  0  0  0  0  0  0  0  0
    0.4754    3.1196   -4.0397 H   0  0  0  0  0  0  0  0  0  0  0  0
    1.2978    0.5411   -0.9947 N   0  0  0  0  0  0  0  0  0  0  0  0
    1.5371    0.0807    0.3489 C   0  0  2  0  0  0  0  0  0  0  0  0
    0.1836   -0.0017    1.0459 C   0  0  0  0  0  0  0  0  0  0  0  0
   -0.1717   -0.9773    1.7038 O   0  0  0  0  0  0  0  0  0  0  0  0
    2.4789    1.0130    1.1213 C   0  0  0  0  0  0  0  0  0  0  0  0
    3.9071    1.0255    0.5729 C   0  0  0  0  0  0  0  0  0  0  0  0
    4.8350    1.9652    1.3202 C   0  0  0  0  0  0  0  0  0  0  0  0
    4.4738    2.7076    2.2286 O   0  0  0  0  0  0  0  0  0  0  0  0
    6.1284    1.9110    0.8466 N   0  0  0  0  0  0  0  0  0  0  0  0
    2.0949    0.6178   -1.6227 H   0  0  0  0  0  0  0  0  0  0  0  0
    1.9570   -0.9274    0.2653 H   0  0  0  0  0  0  0  0  0  0  0  0
    2.0844    2.0372    1.0823 H   0  0  0  0  0  0  0  0  0  0  0  0
    2.4972    0.7340    2.1824 H   0  0  0  0  0  0  0  0  0  0  0  0
    3.8812    1.3658   -0.4697 H   0  0  0  0  0  0  0  0  0  0  0  0
    4.3340    0.0163    0.5752 H   0  0  0  0  0  0  0  0  0  0  0  0
    6.3424    1.2823    0.0796 H   0  0  0  0  0  0  0  0  0  0  0  0
    6.8743    2.4776    1.2375 H   0  0  0  0  0  0  0  0  0  0  0  0
   -0.5956    1.1209    0.8027 N   0  0  0  0  0  0  0  0  0  0  0  0
   -1.9316    1.2883    1.3278 C   0  0  2  0  0  0  0  0  0  0  0  0
   -1.8948    0.9710    2.8169 C   0  0  0  0  0  0  0  0  0  0  0  0
   -1.0240    0.2735    3.3328 O   0  0  0  0  0  0  0  0  0  0  0  0
   -2.9262    0.3927    0.6056 C   0  0  0  0  0  0  0  0  0  0  0  0
   -0.2073    1.8620    0.2268 H   0  0  0  0  0  0  0  0  0  0  0  0
   -2.1981    2.3411    1.1846 H   0  0  0  0  0  0  0  0  0  0  0  0
   -2.6754   -0.6661    0.7377 H   0  0  0  0  0  0  0  0  0  0  0  0
   -3.9425    0.5415    0.9852 H   0  0  0  0  0  0  0  0  0  0  0  0
   -2.9297    0.6018   -0.4696 H   0  0  0  0  0  0  0  0  0  0  0  0
   -2.9729    1.5227    3.4949 N   0  0  0  0  0  0  0  0  0  0  0  0
   -3.1700    1.3531    4.9155 C   0  0  0  0  0  0  0  0  0  0  0  0
   -3.6366    2.1029    2.9902 H   0  0  0  0  0  0  0  0  0  0  0  0
   -3.8104    0.4769    5.0954 H   0  0  0  0  0  0  0  0  0  0  0  0
   -2.1966    1.2023    5.4052 H   0  0  0  0  0  0  0  0  0  0  0  0
   -3.6529    2.2510    5.3284 H   0  0  0  0  0  0  0  0  0  0  0  0
  1  3  1  0  0  0  0
  1  7  1  0  0  0  0
  1  2  2  0  0  0  0
 22 23  1  0  0  0  0
 23 25  1  0  0  0  0
 23 24  2  0  0  0  0
 35 36  1  0  0  0  0
 36 44  1  0  0  0  0
 36 37  2  0  0  0  0
  8  9  1  0  0  0  0
  9 17  1  0  0  0  0
  9 10  2  0  0  0  0
 18 19  1  0  0  0  0
 19 34  1  0  0  0  0
 19 20  2  0  0  0  0
 35 38  1  0  0  0  0
  8 11  1  0  0  0  0
 44 45  1  0  0  0  0
 21 22  1  0  0  0  0
 18 21  1  0  0  0  0
 34 35  1  0  0  0  0
  7  8  1  0  0  0  0
 17 18  1  0  0  0  0
  3  4  1  0  0  0  0
  3  5  1  0  0  0  0
  3  6  1  0  0  0  0
 38 41  1  0  0  0  0
 38 42  1  0  0  0  0
 38 43  1  0  0  0  0
 11 14  1  0  0  0  0
 11 15  1  0  0  0  0
 11 16  1  0  0  0  0
 45 47  1  0  0  0  0
 45 48  1  0  0  0  0
 45 49  1  0  0  0  0
 22 30  1  0  0  0  0
 22 31  1  0  0  0  0
 21 28  1  0  0  0  0
 21 29  1  0  0  0  0
 35 40  1  0  0  0  0
  8 13  1  0  0  0  0
 18 27  1  0  0  0  0
 25 32  1  0  0  0  0
 25 33  1  0  0  0  0
 44 46  1  0  0  0  0
  7 12  1  0  0  0  0
 34 39  1  0  0  0  0
 17 26  1  0  0  0  0
M  END
$$$$

  -OEChem-05262214473D

 49 48  0     1  0  0  0  0  0999 V2000
   -1.9833   -0.0509   -3.3423 C   0  0  0  0  0  0  0  0  0  0  0  0
   -1.6199   -1.0613   -2.7518 O   0  0  0  0  0  0  0  0  0  0  0  0
   -3.3243   -0.0235   -3.9975 C   0  0  0  0  0  0  0  0  0  0  0  0
   -3.2886   -0.3689   -5.0432 H   0  0  0  0  0  0  0  0  0  0  0  0
   -4.0503   -0.6845   -3.4973 H   0  0  0  0  0  0  0  0  0  0  0  0
   -3.8104    0.9645   -4.0351 H   0  0  0  0  0  0  0  0  0  0  0  0
   -1.2607    1.1231   -3.4768 N   0  0  0  0  0  0  0  0  0  0  0  0
    0.0536    1.3115   -2.9213 C   0  0  2  0  0  0  0  0  0  0  0  0
    0.0266    0.8315   -1.4761 C   0  0  0  0  0  0  0  0  0  0  0  0
   -1.0065    0.7530   -0.8146 O   0  0  0  0  0  0  0  0  0  0  0  0
    0.4852    2.7674   -3.0025 C   0  0  0  0  0  0  0  0  0  0  0  0
   -1.6809    1.8924   -3.9952 H   0  0  0  0  0  0  0  0  0  0  0  0
    0.7360    0.6822   -3.5030 H   0  0  0  0  0  0  0  0  0  0  0  0
   -0.1867    3.4133   -2.4256 H   0  0  0  0  0  0  0  0  0  0  0  0
    1.4966    2.9042   -2.6056 H   0  0  0  0  0  0  0  0  0  0  0  0
    0.4754    3.1196   -4.0397 H   0  0  0  0  0  0  0  0  0  0  0  0
    1.2978    0.5411   -0.9947 N   0  0  0  0  0  0  0  0  0  0  0  0
    1.5371    0.0807    0.3489 C   0  0  2  0  0  0  0  0  0  0  0  0
    0.1836   -0.0017    1.0459 C   0  0  0  0  0  0  0  0  0  0  0  0
   -0.0736   -0.8361    1.9110 O   0  0  0  0  0  0  0  0  0  0  0  0
    2.4789    1.0130    1.1213 C   0  0  0  0  0  0  0  0  0  0  0  0
    3.9071    1.0255    0.5729 C   0  0  0  0  0  0  0  0  0  0  0  0
    4.8350    1.9652    1.3202 C   0  0  0  0  0  0  0  0  0  0  0  0
    4.4738    2.7076    2.2286 O   0  0  0  0  0  0  0  0  0  0  0  0
    6.1284    1.9110    0.8466 N   0  0  0  0  0  0  0  0  0  0  0  0
    2.0949    0.6178   -1.6227 H   0  0  0  0  0  0  0  0  0  0  0  0
    1.9570   -0.9274    0.2653 H   0  0  0  0  0  0  0  0  0  0  0  0
    2.0844    2.0372    1.0823 H   0  0  0  0  0  0  0  0  0  0  0  0
    2.4972    0.7340    2.1824 H   0  0  0  0  0  0  0  0  0  0  0  0
    3.8812    1.3658   -0.4697 H   0  0  0  0  0  0  0  0  0  0  0  0
    4.3340    0.0163    0.5752 H   0  0  0  0  0  0  0  0  0  0  0  0
    6.3424    1.2823    0.0796 H   0  0  0  0  0  0  0  0  0  0  0  0
    6.8743    2.4776    1.2375 H   0  0  0  0  0  0  0  0  0  0  0  0
   -0.7142    0.9336    0.5503 N   0  0  0  0  0  0  0  0  0  0  0  0
   -2.0747    1.0553    1.0224 C   0  0  2  0  0  0  0  0  0  0  0  0
   -2.0426    1.0941    2.5446 C   0  0  0  0  0  0  0  0  0  0  0  0
   -1.1110    0.6428    3.2076 O   0  0  0  0  0  0  0  0  0  0  0  0
   -2.9375   -0.0945    0.5261 C   0  0  0  0  0  0  0  0  0  0  0  0
   -0.3992    1.5643   -0.1810 H   0  0  0  0  0  0  0  0  0  0  0  0
   -2.4581    2.0076    0.6402 H   0  0  0  0  0  0  0  0  0  0  0  0
   -2.5687   -1.0571    0.8988 H   0  0  0  0  0  0  0  0  0  0  0  0
   -3.9744    0.0142    0.8610 H   0  0  0  0  0  0  0  0  0  0  0  0
   -2.9355   -0.1391   -0.5684 H   0  0  0  0  0  0  0  0  0  0  0  0
   -3.1960    1.6529    3.0768 N   0  0  0  0  0  0  0  0  0  0  0  0
   -3.4114    1.7906    4.4983 C   0  0  0  0  0  0  0  0  0  0  0  0
   -3.9086    2.0183    2.4519 H   0  0  0  0  0  0  0  0  0  0  0  0
   -3.9500    0.9086    4.8753 H   0  0  0  0  0  0  0  0  0  0  0  0
   -2.4411    1.8738    5.0097 H   0  0  0  0  0  0  0  0  0  0  0  0
   -4.0072    2.6947    4.6929 H   0  0  0  0  0  0  0  0  0  0  0  0
  1  3  1  0  0  0  0
  1  7  1  0  0  0  0
  1  2  2  0  0  0  0
 22 23  1  0  0  0  0
 23 25  1  0  0  0  0
 23 24  2  0  0  0  0
 35 36  1  0  0  0  0
 36 44  1  0  0  0  0
 36 37  2  0  0  0  0
  8  9  1  0  0  0  0
  9 17  1  0  0  0  0
  9 10  2  0  0  0  0
 18 19  1  0  0  0  0
 19 34  1  0  0  0  0
 19 20  2  0  0  0  0
 35 38  1  0  0  0  0
  8 11  1  0  0  0  0
 44 45  1  0  0  0  0
 21 22  1  0  0  0  0
 18 21  1  0  0  0  0
 34 35  1  0  0  0  0
  7  8  1  0  0  0  0
 17 18  1  0  0  0  0
  3  4  1  0  0  0  0
  3  5  1  0  0  0  0
  3  6  1  0  0  0  0
 38 41  1  0  0  0  0
 38 42  1  0  0  0  0
 38 43  1  0  0  0  0
 11 14  1  0  0  0  0
 11 15  1  0  0  0  0
 11 16  1  0  0  0  0
 45 47  1  0  0  0  0
 45 48  1  0  0  0  0
 45 49  1  0  0  0  0
 22 30  1  0  0  0  0
 22 31  1  0  0  0  0
 21 28  1  0  0  0  0
 21 29  1  0  0  0  0
 35 40  1  0  0  0  0
  8 13  1  0  0  0  0
 18 27  1  0  0  0  0
 25 32  1  0  0  0  0
 25 33  1  0  0  0  0
 44 46  1  0  0  0  0
  7 12  1  0  0  0  0
 34 39  1  0  0  0  0
 17 26  1  0  0  0  0
M  END
$$$$

  -OEChem-05262214473D

 49 48  0     1  0  0  0  0  0999 V2000
   -1.9833   -0.0509   -3.3423 C   0  0  0  0  0  0  0  0  0  0  0  0
   -1.6199   -1.0613   -2.7518 O   0  0  0  0  0  0  0  0  0  0  0  0
   -3.3243   -0.0235   -3.9975 C   0  0  0  0  0  0  0  0  0  0  0  0
   -3.2886   -0.3689   -5.0432 H   0  0  0  0  0  0  0  0  0  0  0  0
   -4.0503   -0.6845   -3.4973 H   0  0  0  0  0  0  0  0  0  0  0  0
   -3.8104    0.9645   -4.0351 H   0  0  0  0  0  0  0  0  0  0  0  0
   -1.2607    1.1231   -3.4768 N   0  0  0  0  0  0  0  0  0  0  0  0
    0.0536    1.3115   -2.9213 C   0  0  2  0  0  0  0  0  0  0  0  0
    0.0266    0.8315   -1.4761 C   0  0  0  0  0  0  0  0  0  0  0  0
   -1.0065    0.7530   -0.8146 O   0  0  0  0  0  0  0  0  0  0  0  0
    0.4852    2.7674   -3.0025 C   0  0  0  0  0  0  0  0  0  0  0  0
   -1.6809    1.8924   -3.9952 H   0  0  0  0  0  0  0  0  0  0  0  0
    0.7360    0.6822   -3.5030 H   0  0  0  0  0  0  0  0  0  0  0  0
   -0.1867    3.4133   -2.4256 H   0  0  0  0  0  0  0  0  0  0  0  0
    1.4966    2.9042   -2.6056 H   0  0  0  0  0  0  0  0  0  0  0  0
    0.4754    3.1196   -4.0397 H   0  0  0  0  0  0  0  0  0  0  0  0
    1.2978    0.5411   -0.9947 N   0  0  0  0  0  0  0  0  0  0  0  0
    1.5371    0.0807    0.3489 C   0  0  2  0  0  0  0  0  0  0  0  0
    0.1836   -0.0017    1.0459 C   0  0  0  0  0  0  0  0  0  0  0  0
    0.0016   -0.6406    2.0801 O   0  0  0  0  0  0  0  0  0  0  0  0
    2.4789    1.0130    1.1213 C   0  0  0  0  0  0  0  0  0  0  0  0
    3.9071    1.0255    0.5729 C   0  0  0  0  0  0  0  0  0  0  0  0
    4.8350    1.9652    1.3202 C   0  0  0  0  0  0  0  0  0  0  0  0
    4.4738    2.7076    2.2286 O   0  0  0  0  0  0  0  0  0  0  0  0
    6.1284    1.9110    0.8466 N   0  0  0  0  0  0  0  0  0  0  0  0
    2.0949    0.6178   -1.6227 H   0  0  0  0  0  0  0  0  0  0  0  0
    1.9570   -0.9274    0.2653 H   0  0  0  0  0  0  0  0  0  0  0  0
    2.0844    2.0372    1.0823 H   0  0  0  0  0  0  0  0  0  0  0  0
    2.4972    0.7340    2.1824 H   0  0  0  0  0  0  0  0  0  0  0  0
    3.8812    1.3658   -0.4697 H   0  0  0  0  0  0  0  0  0  0  0  0
    4.3340    0.0163    0.5752 H   0  0  0  0  0  0  0  0  0  0  0  0
    6.3424    1.2823    0.0796 H   0  0  0  0  0  0  0  0  0  0  0  0
    6.8743    2.4776    1.2375 H   0  0  0  0  0  0  0  0  0  0  0  0
   -0.8030    0.6807    0.3478 N   0  0  0  0  0  0  0  0  0  0  0  0
   -2.1811    0.7431    0.7790 C   0  0  2  0  0  0  0  0  0  0  0  0
   -2.1960    1.1329    2.2512 C   0  0  0  0  0  0  0  0  0  0  0  0
   -1.2369    0.9605    3.0005 O   0  0  0  0  0  0  0  0  0  0  0  0
   -2.8897   -0.5847    0.5610 C   0  0  0  0  0  0  0  0  0  0  0  0
   -0.5436    1.1603   -0.5091 H   0  0  0  0  0  0  0  0  0  0  0  0
   -2.6622    1.5296    0.1874 H   0  0  0  0  0  0  0  0  0  0  0  0
   -2.4216   -1.3850    1.1457 H   0  0  0  0  0  0  0  0  0  0  0  0
   -3.9410   -0.5274    0.8616 H   0  0  0  0  0  0  0  0  0  0  0  0
   -2.8520   -0.8781   -0.4936 H   0  0  0  0  0  0  0  0  0  0  0  0
   -3.4212    1.6562    2.6400 N   0  0  0  0  0  0  0  0  0  0  0  0
   -3.6906    2.0889    3.9914 C   0  0  0  0  0  0  0  0  0  0  0  0
   -4.1539    1.7806    1.9476 H   0  0  0  0  0  0  0  0  0  0  0  0
   -4.1328    1.2585    4.5615 H   0  0  0  0  0  0  0  0  0  0  0  0
   -2.7512    2.4027    4.4700 H   0  0  0  0  0  0  0  0  0  0  0  0
   -4.3929    2.9353    3.9722 H   0  0  0  0  0  0  0  0  0  0  0  0
  1  3  1  0  0  0  0
  1  7  1  0  0  0  0
  1  2  2  0  0  0  0
 22 23  1  0  0  0  0
 23 25  1  0  0  0  0
 23 24  2  0  0  0  0
 35 36  1  0  0  0  0
 36 44  1  0  0  0  0
 36 37  2  0  0  0  0
  8  9  1  0  0  0  0
  9 17  1  0  0  0  0
  9 10  2  0  0  0  0
 18 19  1  0  0  0  0
 19 34  1  0  0  0  0
 19 20  2  0  0  0  0
 35 38  1  0  0  0  0
  8 11  1  0  0  0  0
 44 45  1  0  0  0  0
 21 22  1  0  0  0  0
 18 21  1  0  0  0  0
 34 35  1  0  0  0  0
  7  8  1  0  0  0  0
 17 18  1  0  0  0  0
  3  4  1  0  0  0  0
  3  5  1  0  0  0  0
  3  6  1  0  0  0  0
 38 41  1  0  0  0  0
 38 42  1  0  0  0  0
 38 43  1  0  0  0  0
 11 14  1  0  0  0  0
 11 15  1  0  0  0  0
 11 16  1  0  0  0  0
 45 47  1  0  0  0  0
 45 48  1  0  0  0  0
 45 49  1  0  0  0  0
 22 30  1  0  0  0  0
 22 31  1  0  0  0  0
 21 28  1  0  0  0  0
 21 29  1  0  0  0  0
 35 40  1  0  0  0  0
  8 13  1  0  0  0  0
 18 27  1  0  0  0  0
 25 32  1  0  0  0  0
 25 33  1  0  0  0  0
 44 46  1  0  0  0  0
  7 12  1  0  0  0  0
 34 39  1  0  0  0  0
 17 26  1  0  0  0  0
M  END
$$$$

  -OEChem-05262214473D

 49 48  0     1  0  0  0  0  0999 V2000
   -1.9833   -0.0509   -3.3423 C   0  0  0  0  0  0  0  0  0  0  0  0
   -1.6199   -1.0613   -2.7518 O   0  0  0  0  0  0  0  0  0  0  0  0
   -3.3243   -0.0235   -3.9975 C   0  0  0  0  0  0  0  0  0  0  0  0
   -3.2886   -0.3689   -5.0432 H   0  0  0  0  0  0  0  0  0  0  0  0
   -4.0503   -0.6845   -3.4973 H   0  0  0  0  0  0  0  0  0  0  0  0
   -3.8104    0.9645   -4.0351 H   0  0  0  0  0  0  0  0  0  0  0  0
   -1.2607    1.1231   -3.4768 N   0  0  0  0  0  0  0  0  0  0  0  0
    0.0536    1.3115   -2.9213 C   0  0  2  0  0  0  0  0  0  0  0  0
    0.0266    0.8315   -1.4761 C   0  0  0  0  0  0  0  0  0  0  0  0
   -1.0065    0.7530   -0.8146 O   0  0  0  0  0  0  0  0  0  0  0  0
    0.4852    2.7674   -3.0025 C   0  0  0  0  0  0  0  0  0  0  0  0
   -1.6809    1.8924   -3.9952 H   0  0  0  0  0  0  0  0  0  0  0  0
    0.7360    0.6822   -3.5030 H   0  0  0  0  0  0  0  0  0  0  0  0
   -0.1867    3.4133   -2.4256 H   0  0  0  0  0  0  0  0  0  0  0  0
    1.4966    2.9042   -2.6056 H   0  0  0  0  0  0  0  0  0  0  0  0
    0.4754    3.1196   -4.0397 H   0  0  0  0  0  0  0  0  0  0  0  0
    1.2978    0.5411   -0.9947 N   0  0  0  0  0  0  0  0  0  0  0  0
    1.5371    0.0807    0.3489 C   0  0  2  0  0  0  0  0  0  0  0  0
    0.1836   -0.0017    1.0459 C   0  0  0  0  0  0  0  0  0  0  0  0
    0.0487   -0.4040    2.1995 O   0  0  0  0  0  0  0  0  0  0  0  0
    2.4789    1.0130    1.1213 C   0  0  0  0  0  0  0  0  0  0  0  0
    3.9071    1.0255    0.5729 C   0  0  0  0  0  0  0  0  0  0  0  0
    4.8350    1.9652    1.3202 C   0  0  0  0  0  0  0  0  0  0  0  0
    4.4738    2.7076    2.2286 O   0  0  0  0  0  0  0  0  0  0  0  0
    6.1284    1.9110    0.8466 N   0  0  0  0  0  0  0  0  0  0  0  0
    2.0949    0.6178   -1.6227 H   0  0  0  0  0  0  0  0  0  0  0  0
    1.9570   -0.9274    0.2653 H   0  0  0  0  0  0  0  0  0  0  0  0
    2.0844    2.0372    1.0823 H   0  0  0  0  0  0  0  0  0  0  0  0
    2.4972    0.7340    2.1824 H   0  0  0  0  0  0  0  0  0  0  0  0
    3.8812    1.3658   -0.4697 H   0  0  0  0  0  0  0  0  0  0  0  0
    4.3340    0.0163    0.5752 H   0  0  0  0  0  0  0  0  0  0  0  0
    6.3424    1.2823    0.0796 H   0  0  0  0  0  0  0  0  0  0  0  0
    6.8743    2.4776    1.2375 H   0  0  0  0  0  0  0  0  0  0  0  0
   -0.8561    0.3794    0.2091 N   0  0  0  0  0  0  0  0  0  0  0  0
   -2.2435    0.3730    0.6141 C   0  0  2  0  0  0  0  0  0  0  0  0
   -2.3447    1.0848    1.9567 C   0  0  0  0  0  0  0  0  0  0  0  0
   -1.3933    1.2049    2.7257 O   0  0  0  0  0  0  0  0  0  0  0  0
   -2.7860   -1.0445    0.7081 C   0  0  0  0  0  0  0  0  0  0  0  0
   -0.6307    0.6776   -0.7353 H   0  0  0  0  0  0  0  0  0  0  0  0
   -2.7965    0.9397   -0.1430 H   0  0  0  0  0  0  0  0  0  0  0  0
   -2.2441   -1.6277    1.4617 H   0  0  0  0  0  0  0  0  0  0  0  0
   -3.8448   -1.0465    0.9872 H   0  0  0  0  0  0  0  0  0  0  0  0
   -2.6850   -1.5649   -0.2505 H   0  0  0  0  0  0  0  0  0  0  0  0
   -3.6329    1.5325    2.2142 N   0  0  0  0  0  0  0  0  0  0  0  0
   -3.9885    2.2274    3.4293 C   0  0  0  0  0  0  0  0  0  0  0  0
   -4.3556    1.4062    1.5116 H   0  0  0  0  0  0  0  0  0  0  0  0
   -4.3465    1.5028    4.1755 H   0  0  0  0  0  0  0  0  0  0  0  0
   -3.1058    2.7528    3.8228 H   0  0  0  0  0  0  0  0  0  0  0  0
   -4.7839    2.9564    3.2153 H   0  0  0  0  0  0  0  0  0  0  0  0
  1  3  1  0  0  0  0
  1  7  1  0  0  0  0
  1  2  2  0  0  0  0
 22 23  1  0  0  0  0
 23 25  1  0  0  0  0
 23 24  2  0  0  0  0
 35 36  1  0  0  0  0
 36 44  1  0  0  0  0
 36 37  2  0  0  0  0
  8  9  1  0  0  0  0
  9 17  1  0  0  0  0
  9 10  2  0  0  0  0
 18 19  1  0  0  0  0
 19 34  1  0  0  0  0
 19 20  2  0  0  0  0
 35 38  1  0  0  0  0
  8 11  1  0  0  0  0
 44 45  1  0  0  0  0
 21 22  1  0  0  0  0
 18 21  1  0  0  0  0
 34 35  1  0  0  0  0
  7  8  1  0  0  0  0
 17 18  1  0  0  0  0
  3  4  1  0  0  0  0
  3  5  1  0  0  0  0
  3  6  1  0  0  0  0
 38 41  1  0  0  0  0
 38 42  1  0  0  0  0
 38 43  1  0  0  0  0
 11 14  1  0  0  0  0
 11 15  1  0  0  0  0
 11 16  1  0  0  0  0
 45 47  1  0  0  0  0
 45 48  1  0  0  0  0
 45 49  1  0  0  0  0
 22 30  1  0  0  0  0
 22 31  1  0  0  0  0
 21 28  1  0  0  0  0
 21 29  1  0  0  0  0
 35 40  1  0  0  0  0
  8 13  1  0  0  0  0
 18 27  1  0  0  0  0
 25 32  1  0  0  0  0
 25 33  1  0  0  0  0
 44 46  1  0  0  0  0
  7 12  1  0  0  0  0
 34 39  1  0  0  0  0
 17 26  1  0  0  0  0
M  END
$$$$

  -OEChem-05262214473D

 49 48  0     1  0  0  0  0  0999 V2000
   -1.9833   -0.0509   -3.3423 C   0  0  0  0  0  0  0  0  0  0  0  0
   -1.6199   -1.0613   -2.7518 O   0  0  0  0  0  0  0  0  0  0  0  0
   -3.3243   -0.0235   -3.9975 C   0  0  0  0  0  0  0  0  0  0  0  0
   -3.2886   -0.3689   -5.0432 H   0  0  0  0  0  0  0  0  0  0  0  0
   -4.0503   -0.6845   -3.4973 H   0  0  0  0  0  0  0  0  0  0  0  0
   -3.8104    0.9645   -4.0351 H   0  0  0  0  0  0  0  0  0  0  0  0
   -1.2607    1.1231   -3.4768 N   0  0  0  0  0  0  0  0  0  0  0  0
    0.0536    1.3115   -2.9213 C   0  0  2  0  0  0  0  0  0  0  0  0
    0.0266    0.8315   -1.4761 C   0  0  0  0  0  0  0  0  0  0  0  0
   -1.0065    0.7530   -0.8146 O   0  0  0  0  0  0  0  0  0  0  0  0
    0.4852    2.7674   -3.0025 C   0  0  0  0  0  0  0  0  0  0  0  0
   -1.6809    1.8924   -3.9952 H   0  0  0  0  0  0  0  0  0  0  0  0
    0.7360    0.6822   -3.5030 H   0  0  0  0  0  0  0  0  0  0  0  0
   -0.1867    3.4133   -2.4256 H   0  0  0  0  0  0  0  0  0  0  0  0
    1.4966    2.9042   -2.6056 H   0  0  0  0  0  0  0  0  0  0  0  0
    0.4754    3.1196   -4.0397 H   0  0  0  0  0  0  0  0  0  0  0  0
    1.2978    0.5411   -0.9947 N   0  0  0  0  0  0  0  0  0  0  0  0
    1.5371    0.0807    0.3489 C   0  0  2  0  0  0  0  0  0  0  0  0
    0.1836   -0.0017    1.0459 C   0  0  0  0  0  0  0  0  0  0  0  0
    0.0645   -0.1424    2.2612 O   0  0  0  0  0  0  0  0  0  0  0  0
    2.4789    1.0130    1.1213 C   0  0  0  0  0  0  0  0  0  0  0  0
    3.9071    1.0255    0.5729 C   0  0  0  0  0  0  0  0  0  0  0  0
    4.8350    1.9652    1.3202 C   0  0  0  0  0  0  0  0  0  0  0  0
    4.4738    2.7076    2.2286 O   0  0  0  0  0  0  0  0  0  0  0  0
    6.1284    1.9110    0.8466 N   0  0  0  0  0  0  0  0  0  0  0  0
    2.0949    0.6178   -1.6227 H   0  0  0  0  0  0  0  0  0  0  0  0
    1.9570   -0.9274    0.2653 H   0  0  0  0  0  0  0  0  0  0  0  0
    2.0844    2.0372    1.0823 H   0  0  0  0  0  0  0  0  0  0  0  0
    2.4972    0.7340    2.1824 H   0  0  0  0  0  0  0  0  0  0  0  0
    3.8812    1.3658   -0.4697 H   0  0  0  0  0  0  0  0  0  0  0  0
    4.3340    0.0163    0.5752 H   0  0  0  0  0  0  0  0  0  0  0  0
    6.3424    1.2823    0.0796 H   0  0  0  0  0  0  0  0  0  0  0  0
    6.8743    2.4776    1.2375 H   0  0  0  0  0  0  0  0  0  0  0  0
   -0.8698    0.0501    0.1436 N   0  0  0  0  0  0  0  0  0  0  0  0
   -2.2576   -0.0297    0.5389 C   0  0  2  0  0  0  0  0  0  0  0  0
   -2.4786    0.9531    1.6812 C   0  0  0  0  0  0  0  0  0  0  0  0
   -1.5694    1.3593    2.4020 O   0  0  0  0  0  0  0  0  0  0  0  0
   -2.6335   -1.4426    0.9572 C   0  0  0  0  0  0  0  0  0  0  0  0
   -0.6545    0.1491   -0.8440 H   0  0  0  0  0  0  0  0  0  0  0  0
   -2.8517    0.2781   -0.3285 H   0  0  0  0  0  0  0  0  0  0  0  0
   -2.0484   -1.7684    1.8251 H   0  0  0  0  0  0  0  0  0  0  0  0
   -3.6922   -1.5076    1.2291 H   0  0  0  0  0  0  0  0  0  0  0  0
   -2.4459   -2.1526    0.1445 H   0  0  0  0  0  0  0  0  0  0  0  0
   -3.8169    1.2900    1.8283 N   0  0  0  0  0  0  0  0  0  0  0  0
   -4.2847    2.1969    2.8504 C   0  0  0  0  0  0  0  0  0  0  0  0
   -4.5000    0.9205    1.1737 H   0  0  0  0  0  0  0  0  0  0  0  0
   -4.5763    1.6247    3.7435 H   0  0  0  0  0  0  0  0  0  0  0  0
   -3.4807    2.9004    3.1122 H   0  0  0  0  0  0  0  0  0  0  0  0
   -5.1536    2.7567    2.4739 H   0  0  0  0  0  0  0  0  0  0  0  0
  1  3  1  0  0  0  0
  1  7  1  0  0  0  0
  1  2  2  0  0  0  0
 22 23  1  0  0  0  0
 23 25  1  0  0  0  0
 23 24  2  0  0  0  0
 35 36  1  0  0  0  0
 36 44  1  0  0  0  0
 36 37  2  0  0  0  0
  8  9  1  0  0  0  0
  9 17  1  0  0  0  0
  9 10  2  0  0  0  0
 18 19  1  0  0  0  0
 19 34  1  0  0  0  0
 19 20  2  0  0  0  0
 35 38  1  0  0  0  0
  8 11  1  0  0  0  0
 44 45  1  0  0  0  0
 21 22  1  0  0  0  0
 18 21  1  0  0  0  0
 34 35  1  0  0  0  0
  7  8  1  0  0  0  0
 17 18  1  0  0  0  0
  3  4  1  0  0  0  0
  3  5  1  0  0  0  0
  3  6  1  0  0  0  0
 38 41  1  0  0  0  0
 38 42  1  0  0  0  0
 38 43  1  0  0  0  0
 11 14  1  0  0  0  0
 11 15  1  0  0  0  0
 11 16  1  0  0  0  0
 45 47  1  0  0  0  0
 45 48  1  0  0  0  0
 45 49  1  0  0  0  0
 22 30  1  0  0  0  0
 22 31  1  0  0  0  0
 21 28  1  0  0  0  0
 21 29  1  0  0  0  0
 35 40  1  0  0  0  0
  8 13  1  0  0  0  0
 18 27  1  0  0  0  0
 25 32  1  0  0  0  0
 25 33  1  0  0  0  0
 44 46  1  0  0  0  0
  7 12  1  0  0  0  0
 34 39  1  0  0  0  0
 17 26  1  0  0  0  0
M  END
$$$$

  -OEChem-05262214473D

 49 48  0     1  0  0  0  0  0999 V2000
   -1.9833   -0.0509   -3.3423 C   0  0  0  0  0  0  0  0  0  0  0  0
   -1.6199   -1.0613   -2.7518 O   0  0  0  0  0  0  0  0  0  0  0  0
   -3.3243   -0.0235   -3.9975 C   0  0  0  0  0  0  0  0  0  0  0  0
   -3.2886   -0.3689   -5.0432 H   0  0  0  0  0  0  0  0  0  0  0  0
   -4.0503   -0.6845   -3.4973 H   0  0  0  0  0  0  0  0  0  0  0  0
   -3.8104    0.9645   -4.0351 H   0  0  0  0  0  0  0  0  0  0  0  0
   -1.2607    1.1231   -3.4768 N   0  0  0  0  0  0  0  0  0  0  0  0
    0.0536    1.3115   -2.9213 C   0  0  2  0  0  0  0  0  0  0  0  0
    0.0266    0.8315   -1.4761 C   0  0  0  0  0  0  0  0  0  0  0  0
   -1.0065    0.7530   -0.8146 O   0  0  0  0  0  0  0  0  0  0  0  0
    0.4852    2.7674   -3.0025 C   0  0  0  0  0  0  0  0  0  0  0  0
   -1.6809    1.8924   -3.9952 H   0  0  0  0  0  0  0  0  0  0  0  0
    0.7360    0.6822   -3.5030 H   0  0  0  0  0  0  0  0  0  0  0  0
   -0.1867    3.4133   -2.4256 H   0  0  0  0  0  0  0  0  0  0  0  0
    1.4966    2.9042   -2.6056 H   0  0  0  0  0  0  0  0  0  0  0  0
    0.4754    3.1196   -4.0397 H   0  0  0  0  0  0  0  0  0  0  0  0
    1.2978    0.5411   -0.9947 N   0  0  0  0  0  0  0  0  0  0  0  0
    1.5371    0.0807    0.3489 C   0  0  2  0  0  0  0  0  0  0  0  0
    0.1836   -0.0017    1.0459 C   0  0  0  0  0  0  0  0  0  0  0  0
    0.0480    0.1263    2.2609 O   0  0  0  0  0  0  0  0  0  0  0  0
    2.4789    1.0130    1.1213 C   0  0  0  0  0  0  0  0  0  0  0  0
    3.9071    1.0255    0.5729 C   0  0  0  0  0  0  0  0  0  0  0  0
    4.8350    1.9652    1.3202 C   0  0  0  0  0  0  0  0  0  0  0  0
    4.4738    2.7076    2.2286 O   0  0  0  0  0  0  0  0  0  0  0  0
    6.1284    1.9110    0.8466 N   0  0  0  0  0  0  0  0  0  0  0  0
    2.0949    0.6178   -1.6227 H   0  0  0  0  0  0  0  0  0  0  0  0
    1.9570   -0.9274    0.2653 H   0  0  0  0  0  0  0  0  0  0  0  0
    2.0844    2.0372    1.0823 H   0  0  0  0  0  0  0  0  0  0  0  0
    2.4972    0.7340    2.1824 H   0  0  0  0  0  0  0  0  0  0  0  0
    3.8812    1.3658   -0.4697 H   0  0  0  0  0  0  0  0  0  0  0  0
    4.3340    0.0163    0.5752 H   0  0  0  0  0  0  0  0  0  0  0  0
    6.3424    1.2823    0.0796 H   0  0  0  0  0  0  0  0  0  0  0  0
    6.8743    2.4776    1.2375 H   0  0  0  0  0  0  0  0  0  0  0  0
   -0.8432   -0.2845    0.1559 N   0  0  0  0  0  0  0  0  0  0  0  0
   -2.2227   -0.4376    0.5587 C   0  0  2  0  0  0  0  0  0  0  0  0
   -2.5884    0.7468    1.4435 C   0  0  0  0  0  0  0  0  0  0  0  0
   -1.7532    1.4132    2.0513 O   0  0  0  0  0  0  0  0  0  0  0  0
   -2.4425   -1.7519    1.2915 C   0  0  0  0  0  0  0  0  0  0  0  0
   -0.6135   -0.3892   -0.8280 H   0  0  0  0  0  0  0  0  0  0  0  0
   -2.8242   -0.4102   -0.3564 H   0  0  0  0  0  0  0  0  0  0  0  0
   -1.8479   -1.7978    2.2112 H   0  0  0  0  0  0  0  0  0  0  0  0
   -3.4936   -1.8794    1.5709 H   0  0  0  0  0  0  0  0  0  0  0  0
   -2.1509   -2.6013    0.6644 H   0  0  0  0  0  0  0  0  0  0  0  0
   -3.9605    0.9454    1.5088 N   0  0  0  0  0  0  0  0  0  0  0  0
   -4.5592    1.9993    2.2941 C   0  0  0  0  0  0  0  0  0  0  0  0
   -4.5774    0.3567    0.9569 H   0  0  0  0  0  0  0  0  0  0  0  0
   -4.8068    1.6161    3.2950 H   0  0  0  0  0  0  0  0  0  0  0  0
   -3.8503    2.8353    2.3867 H   0  0  0  0  0  0  0  0  0  0  0  0
   -5.4766    2.3497    1.7985 H   0  0  0  0  0  0  0  0  0  0  0  0
  1  3  1  0  0  0  0
  1  7  1  0  0  0  0
  1  2  2  0  0  0  0
 22 23  1  0  0  0  0
 23 25  1  0  0  0  0
 23 24  2  0  0  0  0
 35 36  1  0  0  0  0
 36 44  1  0  0  0  0
 36 37  2  0  0  0  0
  8  9  1  0  0  0  0
  9 17  1  0  0  0  0
  9 10  2  0  0  0  0
 18 19  1  0  0  0  0
 19 34  1  0  0  0  0
 19 20  2  0  0  0  0
 35 38  1  0  0  0  0
  8 11  1  0  0  0  0
 44 45  1  0  0  0  0
 21 22  1  0  0  0  0
 18 21  1  0  0  0  0
 34 35  1  0  0  0  0
  7  8  1  0  0  0  0
 17 18  1  0  0  0  0
  3  4  1  0  0  0  0
  3  5  1  0  0  0  0
  3  6  1  0  0  0  0
 38 41  1  0  0  0  0
 38 42  1  0  0  0  0
 38 43  1  0  0  0  0
 11 14  1  0  0  0  0
 11 15  1  0  0  0  0
 11 16  1  0  0  0  0
 45 47  1  0  0  0  0
 45 48  1  0  0  0  0
 45 49  1  0  0  0  0
 22 30  1  0  0  0  0
 22 31  1  0  0  0  0
 21 28  1  0  0  0  0
 21 29  1  0  0  0  0
 35 40  1  0  0  0  0
  8 13  1  0  0  0  0
 18 27  1  0  0  0  0
 25 32  1  0  0  0  0
 25 33  1  0  0  0  0
 44 46  1  0  0  0  0
  7 12  1  0  0  0  0
 34 39  1  0  0  0  0
 17 26  1  0  0  0  0
M  END
$$$$

  -OEChem-05262214473D

 49 48  0     1  0  0  0  0  0999 V2000
   -1.9833   -0.0509   -3.3423 C   0  0  0  0  0  0  0  0  0  0  0  0
   -1.6199   -1.0613   -2.7518 O   0  0  0  0  0  0  0  0  0  0  0  0
   -3.3243   -0.0235   -3.9975 C   0  0  0  0  0  0  0  0  0  0  0  0
   -3.2886   -0.3689   -5.0432 H   0  0  0  0  0  0  0  0  0  0  0  0
   -4.0503   -0.6845   -3.4973 H   0  0  0  0  0  0  0  0  0  0  0  0
   -3.8104    0.9645   -4.0351 H   0  0  0  0  0  0  0  0  0  0  0  0
   -1.2607    1.1231   -3.4768 N   0  0  0  0  0  0  0  0  0  0  0  0
    0.0536    1.3115   -2.9213 C   0  0  2  0  0  0  0  0  0  0  0  0
    0.0266    0.8315   -1.4761 C   0  0  0  0  0  0  0  0  0  0  0  0
   -1.0065    0.7530   -0.8146 O   0  0  0  0  0  0  0  0  0  0  0  0
    0.4852    2.7674   -3.0025 C   0  0  0  0  0  0  0  0  0  0  0  0
   -1.6809    1.8924   -3.9952 H   0  0  0  0  0  0  0  0  0  0  0  0
    0.7360    0.6822   -3.5030 H   0  0  0  0  0  0  0  0  0  0  0  0
   -0.1867    3.4133   -2.4256 H   0  0  0  0  0  0  0  0  0  0  0  0
    1.4966    2.9042   -2.6056 H   0  0  0  0  0  0  0  0  0  0  0  0
    0.4754    3.1196   -4.0397 H   0  0  0  0  0  0  0  0  0  0  0  0
    1.2978    0.5411   -0.9947 N   0  0  0  0  0  0  0  0  0  0  0  0
    1.5371    0.0807    0.3489 C   0  0  2  0  0  0  0  0  0  0  0  0
    0.1836   -0.0017    1.0459 C   0  0  0  0  0  0  0  0  0  0  0  0
    0.0003    0.3839    2.1986 O   0  0  0  0  0  0  0  0  0  0  0  0
    2.4789    1.0130    1.1213 C   0  0  0  0  0  0  0  0  0  0  0  0
    3.9071    1.0255    0.5729 C   0  0  0  0  0  0  0  0  0  0  0  0
    4.8350    1.9652    1.3202 C   0  0  0  0  0  0  0  0  0  0  0  0
    4.4738    2.7076    2.2286 O   0  0  0  0  0  0  0  0  0  0  0  0
    6.1284    1.9110    0.8466 N   0  0  0  0  0  0  0  0  0  0  0  0
    2.0949    0.6178   -1.6227 H   0  0  0  0  0  0  0  0  0  0  0  0
    1.9570   -0.9274    0.2653 H   0  0  0  0  0  0  0  0  0  0  0  0
    2.0844    2.0372    1.0823 H   0  0  0  0  0  0  0  0  0  0  0  0
    2.4972    0.7340    2.1824 H   0  0  0  0  0  0  0  0  0  0  0  0
    3.8812    1.3658   -0.4697 H   0  0  0  0  0  0  0  0  0  0  0  0
    4.3340    0.0163    0.5752 H   0  0  0  0  0  0  0  0  0  0  0  0
    6.3424    1.2823    0.0796 H   0  0  0  0  0  0  0  0  0  0  0  0
    6.8743    2.4776    1.2375 H   0  0  0  0  0  0  0  0  0  0  0  0
   -0.7780   -0.6018    0.2449 N   0  0  0  0  0  0  0  0  0  0  0  0
   -2.1409   -0.8230    0.6720 C   0  0  2  0  0  0  0  0  0  0  0  0
   -2.6668    0.4799    1.2597 C   0  0  0  0  0  0  0  0  0  0  0  0
   -1.9323    1.3630    1.6976 O   0  0  0  0  0  0  0  0  0  0  0  0
   -2.2262   -1.9512    1.6881 C   0  0  0  0  0  0  0  0  0  0  0  0
   -0.5104   -0.9006   -0.6882 H   0  0  0  0  0  0  0  0  0  0  0  0
   -2.7159   -1.0781   -0.2249 H   0  0  0  0  0  0  0  0  0  0  0  0
   -1.6560   -1.7137    2.5936 H   0  0  0  0  0  0  0  0  0  0  0  0
   -3.2625   -2.1365    1.9892 H   0  0  0  0  0  0  0  0  0  0  0  0
   -1.8201   -2.8803    1.2739 H   0  0  0  0  0  0  0  0  0  0  0  0
   -4.0539    0.5221    1.2773 N   0  0  0  0  0  0  0  0  0  0  0  0
   -4.7931    1.6482    1.7983 C   0  0  0  0  0  0  0  0  0  0  0  0
   -4.5823   -0.2470    0.8759 H   0  0  0  0  0  0  0  0  0  0  0  0
   -5.0220    1.4774    2.8606 H   0  0  0  0  0  0  0  0  0  0  0  0
   -4.1895    2.5620    1.6957 H   0  0  0  0  0  0  0  0  0  0  0  0
   -5.7310    1.7632    1.2351 H   0  0  0  0  0  0  0  0  0  0  0  0
  1  3  1  0  0  0  0
  1  7  1  0  0  0  0
  1  2  2  0  0  0  0
 22 23  1  0  0  0  0
 23 25  1  0  0  0  0
 23 24  2  0  0  0  0
 35 36  1  0  0  0  0
 36 44  1  0  0  0  0
 36 37  2  0  0  0  0
  8  9  1  0  0  0  0
  9 17  1  0  0  0  0
  9 10  2  0  0  0  0
 18 19  1  0  0  0  0
 19 34  1  0  0  0  0
 19 20  2  0  0  0  0
 35 38  1  0  0  0  0
  8 11  1  0  0  0  0
 44 45  1  0  0  0  0
 21 22  1  0  0  0  0
 18 21  1  0  0  0  0
 34 35  1  0  0  0  0
  7  8  1  0  0  0  0
 17 18  1  0  0  0  0
  3  4  1  0  0  0  0
  3  5  1  0  0  0  0
  3  6  1  0  0  0  0
 38 41  1  0  0  0  0
 38 42  1  0  0  0  0
 38 43  1  0  0  0  0
 11 14  1  0  0  0  0
 11 15  1  0  0  0  0
 11 16  1  0  0  0  0
 45 47  1  0  0  0  0
 45 48  1  0  0  0  0
 45 49  1  0  0  0  0
 22 30  1  0  0  0  0
 22 31  1  0  0  0  0
 21 28  1  0  0  0  0
 21 29  1  0  0  0  0
 35 40  1  0  0  0  0
  8 13  1  0  0  0  0
 18 27  1  0  0  0  0
 25 32  1  0  0  0  0
 25 33  1  0  0  0  0
 44 46  1  0  0  0  0
  7 12  1  0  0  0  0
 34 39  1  0  0  0  0
 17 26  1  0  0  0  0
M  END
$$$$

  -OEChem-05262214473D

 49 48  0     1  0  0  0  0  0999 V2000
   -1.9833   -0.0509   -3.3423 C   0  0  0  0  0  0  0  0  0  0  0  0
   -1.6199   -1.0613   -2.7518 O   0  0  0  0  0  0  0  0  0  0  0  0
   -3.3243   -0.0235   -3.9975 C   0  0  0  0  0  0  0  0  0  0  0  0
   -3.2886   -0.3689   -5.0432 H   0  0  0  0  0  0  0  0  0  0  0  0
   -4.0503   -0.6845   -3.4973 H   0  0  0  0  0  0  0  0  0  0  0  0
   -3.8104    0.9645   -4.0351 H   0  0  0  0  0  0  0  0  0  0  0  0
   -1.2607    1.1231   -3.4768 N   0  0  0  0  0  0  0  0  0  0  0  0
    0.0536    1.3115   -2.9213 C   0  0  2  0  0  0  0  0  0  0  0  0
    0.0266    0.8315   -1.4761 C   0  0  0  0  0  0  0  0  0  0  0  0
   -1.0065    0.7530   -0.8146 O   0  0  0  0  0  0  0  0  0  0  0  0
    0.4852    2.7674   -3.0025 C   0  0  0  0  0  0  0  0  0  0  0  0
   -1.6809    1.8924   -3.9952 H   0  0  0  0  0  0  0  0  0  0  0  0
    0.7360    0.6822   -3.5030 H   0  0  0  0  0  0  0  0  0  0  0  0
   -0.1867    3.4133   -2.4256 H   0  0  0  0  0  0  0  0  0  0  0  0
    1.4966    2.9042   -2.6056 H   0  0  0  0  0  0  0  0  0  0  0  0
    0.4754    3.1196   -4.0397 H   0  0  0  0  0  0  0  0  0  0  0  0
    1.2978    0.5411   -0.9947 N   0  0  0  0  0  0  0  0  0  0  0  0
    1.5371    0.0807    0.3489 C   0  0  2  0  0  0  0  0  0  0  0  0
    0.1836   -0.0017    1.0459 C   0  0  0  0  0  0  0  0  0  0  0  0
   -0.0754    0.6127    2.0786 O   0  0  0  0  0  0  0  0  0  0  0  0
    2.4789    1.0130    1.1213 C   0  0  0  0  0  0  0  0  0  0  0  0
    3.9071    1.0255    0.5729 C   0  0  0  0  0  0  0  0  0  0  0  0
    4.8350    1.9652    1.3202 C   0  0  0  0  0  0  0  0  0  0  0  0
    4.4738    2.7076    2.2286 O   0  0  0  0  0  0  0  0  0  0  0  0
    6.1284    1.9110    0.8466 N   0  0  0  0  0  0  0  0  0  0  0  0
    2.0949    0.6178   -1.6227 H   0  0  0  0  0  0  0  0  0  0  0  0
    1.9570   -0.9274    0.2653 H   0  0  0  0  0  0  0  0  0  0  0  0
    2.0844    2.0372    1.0823 H   0  0  0  0  0  0  0  0  0  0  0  0
    2.4972    0.7340    2.1824 H   0  0  0  0  0  0  0  0  0  0  0  0
    3.8812    1.3658   -0.4697 H   0  0  0  0  0  0  0  0  0  0  0  0
    4.3340    0.0163    0.5752 H   0  0  0  0  0  0  0  0  0  0  0  0
    6.3424    1.2823    0.0796 H   0  0  0  0  0  0  0  0  0  0  0  0
    6.8743    2.4776    1.2375 H   0  0  0  0  0  0  0  0  0  0  0  0
   -0.6787   -0.8801    0.4048 N   0  0  0  0  0  0  0  0  0  0  0  0
   -2.0179   -1.1595    0.8711 C   0  0  2  0  0  0  0  0  0  0  0  0
   -2.7084    0.1706    1.1425 C   0  0  0  0  0  0  0  0  0  0  0  0
   -2.0944    1.2120    1.3650 O   0  0  0  0  0  0  0  0  0  0  0  0
   -1.9991   -2.0270    2.1200 C   0  0  0  0  0  0  0  0  0  0  0  0
   -0.3523   -1.3503   -0.4343 H   0  0  0  0  0  0  0  0  0  0  0  0
   -2.5340   -1.6802    0.0572 H   0  0  0  0  0  0  0  0  0  0  0  0
   -1.4860   -1.5218    2.9464 H   0  0  0  0  0  0  0  0  0  0  0  0
   -3.0148   -2.2614    2.4555 H   0  0  0  0  0  0  0  0  0  0  0  0
   -1.4760   -2.9707    1.9312 H   0  0  0  0  0  0  0  0  0  0  0  0
   -4.0909    0.0490    1.1496 N   0  0  0  0  0  0  0  0  0  0  0  0
   -4.9706    1.1674    1.3968 C   0  0  0  0  0  0  0  0  0  0  0  0
   -4.5146   -0.8492    0.9363 H   0  0  0  0  0  0  0  0  0  0  0  0
   -5.2075    1.2181    2.4698 H   0  0  0  0  0  0  0  0  0  0  0  0
   -4.4751    2.0991    1.0863 H   0  0  0  0  0  0  0  0  0  0  0  0
   -5.8995    1.0371    0.8221 H   0  0  0  0  0  0  0  0  0  0  0  0
  1  3  1  0  0  0  0
  1  7  1  0  0  0  0
  1  2  2  0  0  0  0
 22 23  1  0  0  0  0
 23 25  1  0  0  0  0
 23 24  2  0  0  0  0
 35 36  1  0  0  0  0
 36 44  1  0  0  0  0
 36 37  2  0  0  0  0
  8  9  1  0  0  0  0
  9 17  1  0  0  0  0
  9 10  2  0  0  0  0
 18 19  1  0  0  0  0
 19 34  1  0  0  0  0
 19 20  2  0  0  0  0
 35 38  1  0  0  0  0
  8 11  1  0  0  0  0
 44 45  1  0  0  0  0
 21 22  1  0  0  0  0
 18 21  1  0  0  0  0
 34 35  1  0  0  0  0
  7  8  1  0  0  0  0
 17 18  1  0  0  0  0
  3  4  1  0  0  0  0
  3  5  1  0  0  0  0
  3  6  1  0  0  0  0
 38 41  1  0  0  0  0
 38 42  1  0  0  0  0
 38 43  1  0  0  0  0
 11 14  1  0  0  0  0
 11 15  1  0  0  0  0
 11 16  1  0  0  0  0
 45 47  1  0  0  0  0
 45 48  1  0  0  0  0
 45 49  1  0  0  0  0
 22 30  1  0  0  0  0
 22 31  1  0  0  0  0
 21 28  1  0  0  0  0
 21 29  1  0  0  0  0
 35 40  1  0  0  0  0
  8 13  1  0  0  0  0
 18 27  1  0  0  0  0
 25 32  1  0  0  0  0
 25 33  1  0  0  0  0
 44 46  1  0  0  0  0
  7 12  1  0  0  0  0
 34 39  1  0  0  0  0
 17 26  1  0  0  0  0
M  END
$$$$

  -OEChem-05262214473D

 49 48  0     1  0  0  0  0  0999 V2000
   -1.9833   -0.0509   -3.3423 C   0  0  0  0  0  0  0  0  0  0  0  0
   -1.6199   -1.0613   -2.7518 O   0  0  0  0  0  0  0  0  0  0  0  0
   -3.3243   -0.0235   -3.9975 C   0  0  0  0  0  0  0  0  0  0  0  0
   -3.2886   -0.3689   -5.0432 H   0  0  0  0  0  0  0  0  0  0  0  0
   -4.0503   -0.6845   -3.4973 H   0  0  0  0  0  0  0  0  0  0  0  0
   -3.8104    0.9645   -4.0351 H   0  0  0  0  0  0  0  0  0  0  0  0
   -1.2607    1.1231   -3.4768 N   0  0  0  0  0  0  0  0  0  0  0  0
    0.0536    1.3115   -2.9213 C   0  0  2  0  0  0  0  0  0  0  0  0
    0.0266    0.8315   -1.4761 C   0  0  0  0  0  0  0  0  0  0  0  0
   -1.0065    0.7530   -0.8146 O   0  0  0  0  0  0  0  0  0  0  0  0
    0.4852    2.7674   -3.0025 C   0  0  0  0  0  0  0  0  0  0  0  0
   -1.6809    1.8924   -3.9952 H   0  0  0  0  0  0  0  0  0  0  0  0
    0.7360    0.6822   -3.5030 H   0  0  0  0  0  0  0  0  0  0  0  0
   -0.1867    3.4133   -2.4256 H   0  0  0  0  0  0  0  0  0  0  0  0
    1.4966    2.9042   -2.6056 H   0  0  0  0  0  0  0  0  0  0  0  0
    0.4754    3.1196   -4.0397 H   0  0  0  0  0  0  0  0  0  0  0  0
    1.2978    0.5411   -0.9947 N   0  0  0  0  0  0  0  0  0  0  0  0
    1.5371    0.0807    0.3489 C   0  0  2  0  0  0  0  0  0  0  0  0
    0.1836   -0.0017    1.0459 C   0  0  0  0  0  0  0  0  0  0  0  0
   -0.1740    0.7971    1.9090 O   0  0  0  0  0  0  0  0  0  0  0  0
    2.4789    1.0130    1.1213 C   0  0  0  0  0  0  0  0  0  0  0  0
    3.9071    1.0255    0.5729 C   0  0  0  0  0  0  0  0  0  0  0  0
    4.8350    1.9652    1.3202 C   0  0  0  0  0  0  0  0  0  0  0  0
    4.4738    2.7076    2.2286 O   0  0  0  0  0  0  0  0  0  0  0  0
    6.1284    1.9110    0.8466 N   0  0  0  0  0  0  0  0  0  0  0  0
    2.0949    0.6178   -1.6227 H   0  0  0  0  0  0  0  0  0  0  0  0
    1.9570   -0.9274    0.2653 H   0  0  0  0  0  0  0  0  0  0  0  0
    2.0844    2.0372    1.0823 H   0  0  0  0  0  0  0  0  0  0  0  0
    2.4972    0.7340    2.1824 H   0  0  0  0  0  0  0  0  0  0  0  0
    3.8812    1.3658   -0.4697 H   0  0  0  0  0  0  0  0  0  0  0  0
    4.3340    0.0163    0.5752 H   0  0  0  0  0  0  0  0  0  0  0  0
    6.3424    1.2823    0.0796 H   0  0  0  0  0  0  0  0  0  0  0  0
    6.8743    2.4776    1.2375 H   0  0  0  0  0  0  0  0  0  0  0  0
   -0.5522   -1.1005    0.6245 N   0  0  0  0  0  0  0  0  0  0  0  0
   -1.8620   -1.4242    1.1425 C   0  0  2  0  0  0  0  0  0  0  0  0
   -2.7103   -0.1601    1.0997 C   0  0  0  0  0  0  0  0  0  0  0  0
   -2.2284    0.9706    1.0762 O   0  0  0  0  0  0  0  0  0  0  0  0
   -1.7769   -1.9741    2.5578 C   0  0  0  0  0  0  0  0  0  0  0  0
   -0.1499   -1.7076   -0.0835 H   0  0  0  0  0  0  0  0  0  0  0  0
   -2.2910   -2.1755    0.4705 H   0  0  0  0  0  0  0  0  0  0  0  0
   -1.3494   -1.2354    3.2455 H   0  0  0  0  0  0  0  0  0  0  0  0
   -2.7672   -2.2456    2.9382 H   0  0  0  0  0  0  0  0  0  0  0  0
   -1.1422   -2.8662    2.5918 H   0  0  0  0  0  0  0  0  0  0  0  0
   -4.0688   -0.4417    1.1345 N   0  0  0  0  0  0  0  0  0  0  0  0
   -5.0796    0.5898    1.1169 C   0  0  0  0  0  0  0  0  0  0  0  0
   -4.3787   -1.4091    1.1340 H   0  0  0  0  0  0  0  0  0  0  0  0
   -5.3505    0.8560    2.1493 H   0  0  0  0  0  0  0  0  0  0  0  0
   -4.6877    1.4782    0.6001 H   0  0  0  0  0  0  0  0  0  0  0  0
   -5.9706    0.2209    0.5877 H   0  0  0  0  0  0  0  0  0  0  0  0
  1  3  1  0  0  0  0
  1  7  1  0  0  0  0
  1  2  2  0  0  0  0
 22 23  1  0  0  0  0
 23 25  1  0  0  0  0
 23 24  2  0  0  0  0
 35 36  1  0  0  0  0
 36 44  1  0  0  0  0
 36 37  2  0  0  0  0
  8  9  1  0  0  0  0
  9 17  1  0  0  0  0
  9 10  2  0  0  0  0
 18 19  1  0  0  0  0
 19 34  1  0  0  0  0
 19 20  2  0  0  0  0
 35 38  1  0  0  0  0
  8 11  1  0  0  0  0
 44 45  1  0  0  0  0
 21 22  1  0  0  0  0
 18 21  1  0  0  0  0
 34 35  1  0  0  0  0
  7  8  1  0  0  0  0
 17 18  1  0  0  0  0
  3  4  1  0  0  0  0
  3  5  1  0  0  0  0
  3  6  1  0  0  0  0
 38 41  1  0  0  0  0
 38 42  1  0  0  0  0
 38 43  1  0  0  0  0
 11 14  1  0  0  0  0
 11 15  1  0  0  0  0
 11 16  1  0  0  0  0
 45 47  1  0  0  0  0
 45 48  1  0  0  0  0
 45 49  1  0  0  0  0
 22 30  1  0  0  0  0
 22 31  1  0  0  0  0
 21 28  1  0  0  0  0
 21 29  1  0  0  0  0
 35 40  1  0  0  0  0
  8 13  1  0  0  0  0
 18 27  1  0  0  0  0
 25 32  1  0  0  0  0
 25 33  1  0  0  0  0
 44 46  1  0  0  0  0
  7 12  1  0  0  0  0
 34 39  1  0  0  0  0
 17 26  1  0  0  0  0
M  END
$$$$

  -OEChem-05262214473D

 49 48  0     1  0  0  0  0  0999 V2000
   -1.9833   -0.0509   -3.3423 C   0  0  0  0  0  0  0  0  0  0  0  0
   -1.6199   -1.0613   -2.7518 O   0  0  0  0  0  0  0  0  0  0  0  0
   -3.3243   -0.0235   -3.9975 C   0  0  0  0  0  0  0  0  0  0  0  0
   -3.2886   -0.3689   -5.0432 H   0  0  0  0  0  0  0  0  0  0  0  0
   -4.0503   -0.6845   -3.4973 H   0  0  0  0  0  0  0  0  0  0  0  0
   -3.8104    0.9645   -4.0351 H   0  0  0  0  0  0  0  0  0  0  0  0
   -1.2607    1.1231   -3.4768 N   0  0  0  0  0  0  0  0  0  0  0  0
    0.0536    1.3115   -2.9213 C   0  0  2  0  0  0  0  0  0  0  0  0
    0.0266    0.8315   -1.4761 C   0  0  0  0  0  0  0  0  0  0  0  0
   -1.0065    0.7530   -0.8146 O   0  0  0  0  0  0  0  0  0  0  0  0
    0.4852    2.7674   -3.0025 C   0  0  0  0  0  0  0  0  0  0  0  0
   -1.6809    1.8924   -3.9952 H   0  0  0  0  0  0  0  0  0  0  0  0
    0.7360    0.6822   -3.5030 H   0  0  0  0  0  0  0  0  0  0  0  0
   -0.1867    3.4133   -2.4256 H   0  0  0  0  0  0  0  0  0  0  0  0
    1.4966    2.9042   -2.6056 H   0  0  0  0  0  0  0  0  0  0  0  0
    0.4754    3.1196   -4.0397 H   0  0  0  0  0  0  0  0  0  0  0  0
    1.2978    0.5411   -0.9947 N   0  0  0  0  0  0  0  0  0  0  0  0
    1.5371    0.0807    0.3489 C   0  0  2  0  0  0  0  0  0  0  0  0
    0.1836   -0.0017    1.0459 C   0  0  0  0  0  0  0  0  0  0  0  0
   -0.2886    0.9247    1.7015 O   0  0  0  0  0  0  0  0  0  0  0  0
    2.4789    1.0130    1.1213 C   0  0  0  0  0  0  0  0  0  0  0  0
    3.9071    1.0255    0.5729 C   0  0  0  0  0  0  0  0  0  0  0  0
    4.8350    1.9652    1.3202 C   0  0  0  0  0  0  0  0  0  0  0  0
    4.4738    2.7076    2.2286 O   0  0  0  0  0  0  0  0  0  0  0  0
    6.1284    1.9110    0.8466 N   0  0  0  0  0  0  0  0  0  0  0  0
    2.0949    0.6178   -1.6227 H   0  0  0  0  0  0  0  0  0  0  0  0
    1.9570   -0.9274    0.2653 H   0  0  0  0  0  0  0  0  0  0  0  0
    2.0844    2.0372    1.0823 H   0  0  0  0  0  0  0  0  0  0  0  0
    2.4972    0.7340    2.1824 H   0  0  0  0  0  0  0  0  0  0  0  0
    3.8812    1.3658   -0.4697 H   0  0  0  0  0  0  0  0  0  0  0  0
    4.3340    0.0163    0.5752 H   0  0  0  0  0  0  0  0  0  0  0  0
    6.3424    1.2823    0.0796 H   0  0  0  0  0  0  0  0  0  0  0  0
    6.8743    2.4776    1.2375 H   0  0  0  0  0  0  0  0  0  0  0  0
   -0.4069   -1.2479    0.8891 N   0  0  0  0  0  0  0  0  0  0  0  0
   -1.6839   -1.5992    1.4676 C   0  0  2  0  0  0  0  0  0  0  0  0
   -2.6724   -0.4895    1.1344 C   0  0  0  0  0  0  0  0  0  0  0  0
   -2.3253    0.6552    0.8508 O   0  0  0  0  0  0  0  0  0  0  0  0
   -1.5747   -1.7962    2.9716 C   0  0  0  0  0  0  0  0  0  0  0  0
    0.0830   -1.9482    0.3403 H   0  0  0  0  0  0  0  0  0  0  0  0
   -2.0035   -2.5302    0.9870 H   0  0  0  0  0  0  0  0  0  0  0  0
   -1.2556   -0.8738    3.4705 H   0  0  0  0  0  0  0  0  0  0  0  0
   -2.5367   -2.0901    3.4042 H   0  0  0  0  0  0  0  0  0  0  0  0
   -0.8414   -2.5740    3.2105 H   0  0  0  0  0  0  0  0  0  0  0  0
   -3.9892   -0.9166    1.2329 N   0  0  0  0  0  0  0  0  0  0  0  0
   -5.1126   -0.0454    0.9778 C   0  0  0  0  0  0  0  0  0  0  0  0
   -4.1840   -1.8883    1.4555 H   0  0  0  0  0  0  0  0  0  0  0  0
   -5.4413    0.4156    1.9209 H   0  0  0  0  0  0  0  0  0  0  0  0
   -4.8128    0.7415    0.2701 H   0  0  0  0  0  0  0  0  0  0  0  0
   -5.9394   -0.6298    0.5478 H   0  0  0  0  0  0  0  0  0  0  0  0
  1  3  1  0  0  0  0
  1  7  1  0  0  0  0
  1  2  2  0  0  0  0
 22 23  1  0  0  0  0
 23 25  1  0  0  0  0
 23 24  2  0  0  0  0
 35 36  1  0  0  0  0
 36 44  1  0  0  0  0
 36 37  2  0  0  0  0
  8  9  1  0  0  0  0
  9 17  1  0  0  0  0
  9 10  2  0  0  0  0
 18 19  1  0  0  0  0
 19 34  1  0  0  0  0
 19 20  2  0  0  0  0
 35 38  1  0  0  0  0
  8 11  1  0  0  0  0
 44 45  1  0  0  0  0
 21 22  1  0  0  0  0
 18 21  1  0  0  0  0
 34 35  1  0  0  0  0
  7  8  1  0  0  0  0
 17 18  1  0  0  0  0
  3  4  1  0  0  0  0
  3  5  1  0  0  0  0
  3  6  1  0  0  0  0
 38 41  1  0  0  0  0
 38 42  1  0  0  0  0
 38 43  1  0  0  0  0
 11 14  1  0  0  0  0
 11 15  1  0  0  0  0
 11 16  1  0  0  0  0
 45 47  1  0  0  0  0
 45 48  1  0  0  0  0
 45 49  1  0  0  0  0
 22 30  1  0  0  0  0
 22 31  1  0  0  0  0
 21 28  1  0  0  0  0
 21 29  1  0  0  0  0
 35 40  1  0  0  0  0
  8 13  1  0  0  0  0
 18 27  1  0  0  0  0
 25 32  1  0  0  0  0
 25 33  1  0  0  0  0
 44 46  1  0  0  0  0
  7 12  1  0  0  0  0
 34 39  1  0  0  0  0
 17 26  1  0  0  0  0
M  END
$$$$

  -OEChem-05262214473D

 49 48  0     1  0  0  0  0  0999 V2000
   -1.9833   -0.0509   -3.3423 C   0  0  0  0  0  0  0  0  0  0  0  0
   -1.6199   -1.0613   -2.7518 O   0  0  0  0  0  0  0  0  0  0  0  0
   -3.3243   -0.0235   -3.9975 C   0  0  0  0  0  0  0  0  0  0  0  0
   -3.2886   -0.3689   -5.0432 H   0  0  0  0  0  0  0  0  0  0  0  0
   -4.0503   -0.6845   -3.4973 H   0  0  0  0  0  0  0  0  0  0  0  0
   -3.8104    0.9645   -4.0351 H   0  0  0  0  0  0  0  0  0  0  0  0
   -1.2607    1.1231   -3.4768 N   0  0  0  0  0  0  0  0  0  0  0  0
    0.0536    1.3115   -2.9213 C   0  0  2  0  0  0  0  0  0  0  0  0
    0.0266    0.8315   -1.4761 C   0  0  0  0  0  0  0  0  0  0  0  0
   -1.0065    0.7530   -0.8146 O   0  0  0  0  0  0  0  0  0  0  0  0
    0.4852    2.7674   -3.0025 C   0  0  0  0  0  0  0  0  0  0  0  0
   -1.6809    1.8924   -3.9952 H   0  0  0  0  0  0  0  0  0  0  0  0
    0.7360    0.6822   -3.5030 H   0  0  0  0  0  0  0  0  0  0  0  0
   -0.1867    3.4133   -2.4256 H   0  0  0  0  0  0  0  0  0  0  0  0
    1.4966    2.9042   -2.6056 H   0  0  0  0  0  0  0  0  0  0  0  0
    0.4754    3.1196   -4.0397 H   0  0  0  0  0  0  0  0  0  0  0  0
    1.2978    0.5411   -0.9947 N   0  0  0  0  0  0  0  0  0  0  0  0
    1.5371    0.0807    0.3489 C   0  0  2  0  0  0  0  0  0  0  0  0
    0.1836   -0.0017    1.0459 C   0  0  0  0  0  0  0  0  0  0  0  0
   -0.4115    0.9867    1.4701 O   0  0  0  0  0  0  0  0  0  0  0  0
    2.4789    1.0130    1.1213 C   0  0  0  0  0  0  0  0  0  0  0  0
    3.9071    1.0255    0.5729 C   0  0  0  0  0  0  0  0  0  0  0  0
    4.8350    1.9652    1.3202 C   0  0  0  0  0  0  0  0  0  0  0  0
    4.4738    2.7076    2.2286 O   0  0  0  0  0  0  0  0  0  0  0  0
    6.1284    1.9110    0.8466 N   0  0  0  0  0  0  0  0  0  0  0  0
    2.0949    0.6178   -1.6227 H   0  0  0  0  0  0  0  0  0  0  0  0
    1.9570   -0.9274    0.2653 H   0  0  0  0  0  0  0  0  0  0  0  0
    2.0844    2.0372    1.0823 H   0  0  0  0  0  0  0  0  0  0  0  0
    2.4972    0.7340    2.1824 H   0  0  0  0  0  0  0  0  0  0  0  0
    3.8812    1.3658   -0.4697 H   0  0  0  0  0  0  0  0  0  0  0  0
    4.3340    0.0163    0.5752 H   0  0  0  0  0  0  0  0  0  0  0  0
    6.3424    1.2823    0.0796 H   0  0  0  0  0  0  0  0  0  0  0  0
    6.8743    2.4776    1.2375 H   0  0  0  0  0  0  0  0  0  0  0  0
   -0.2529   -1.3123    1.1807 N   0  0  0  0  0  0  0  0  0  0  0  0
   -1.4958   -1.6724    1.8244 C   0  0  2  0  0  0  0  0  0  0  0  0
   -2.5973   -0.7952    1.2440 C   0  0  0  0  0  0  0  0  0  0  0  0
   -2.3784    0.2872    0.7042 O   0  0  0  0  0  0  0  0  0  0  0  0
   -1.4061   -1.5052    3.3333 C   0  0  0  0  0  0  0  0  0  0  0  0
    0.3305   -2.0557    0.8082 H   0  0  0  0  0  0  0  0  0  0  0  0
   -1.6910   -2.7201    1.5713 H   0  0  0  0  0  0  0  0  0  0  0  0
   -1.2108   -0.4617    3.6061 H   0  0  0  0  0  0  0  0  0  0  0  0
   -2.3390   -1.8055    3.8218 H   0  0  0  0  0  0  0  0  0  0  0  0
   -0.5941   -2.1140    3.7452 H   0  0  0  0  0  0  0  0  0  0  0  0
   -3.8575   -1.3432    1.4382 N   0  0  0  0  0  0  0  0  0  0  0  0
   -5.0673   -0.6948    0.9889 C   0  0  0  0  0  0  0  0  0  0  0  0
   -3.9437   -2.2543    1.8789 H   0  0  0  0  0  0  0  0  0  0  0  0
   -5.4737   -0.0729    1.8002 H   0  0  0  0  0  0  0  0  0  0  0  0
   -4.8419   -0.0606    0.1189 H   0  0  0  0  0  0  0  0  0  0  0  0
   -5.8080   -1.4569    0.7051 H   0  0  0  0  0  0  0  0  0  0  0  0
  1  3  1  0  0  0  0
  1  7  1  0  0  0  0
  1  2  2  0  0  0  0
 22 23  1  0  0  0  0
 23 25  1  0  0  0  0
 23 24  2  0  0  0  0
 35 36  1  0  0  0  0
 36 44  1  0  0  0  0
 36 37  2  0  0  0  0
  8  9  1  0  0  0  0
  9 17  1  0  0  0  0
  9 10  2  0  0  0  0
 18 19  1  0  0  0  0
 19 34  1  0  0  0  0
 19 20  2  0  0  0  0
 35 38  1  0  0  0  0
  8 11  1  0  0  0  0
 44 45  1  0  0  0  0
 21 22  1  0  0  0  0
 18 21  1  0  0  0  0
 34 35  1  0  0  0  0
  7  8  1  0  0  0  0
 17 18  1  0  0  0  0
  3  4  1  0  0  0  0
  3  5  1  0  0  0  0
  3  6  1  0  0  0  0
 38 41  1  0  0  0  0
 38 42  1  0  0  0  0
 38 43  1  0  0  0  0
 11 14  1  0  0  0  0
 11 15  1  0  0  0  0
 11 16  1  0  0  0  0
 45 47  1  0  0  0  0
 45 48  1  0  0  0  0
 45 49  1  0  0  0  0
 22 30  1  0  0  0  0
 22 31  1  0  0  0  0
 21 28  1  0  0  0  0
 21 29  1  0  0  0  0
 35 40  1  0  0  0  0
  8 13  1  0  0  0  0
 18 27  1  0  0  0  0
 25 32  1  0  0  0  0
 25 33  1  0  0  0  0
 44 46  1  0  0  0  0
  7 12  1  0  0  0  0
 34 39  1  0  0  0  0
 17 26  1  0  0  0  0
M  END
$$$$

  -OEChem-05262214473D

 49 48  0     1  0  0  0  0  0999 V2000
   -1.9833   -0.0509   -3.3423 C   0  0  0  0  0  0  0  0  0  0  0  0
   -1.6199   -1.0613   -2.7518 O   0  0  0  0  0  0  0  0  0  0  0  0
   -3.3243   -0.0235   -3.9975 C   0  0  0  0  0  0  0  0  0  0  0  0
   -3.2886   -0.3689   -5.0432 H   0  0  0  0  0  0  0  0  0  0  0  0
   -4.0503   -0.6845   -3.4973 H   0  0  0  0  0  0  0  0  0  0  0  0
   -3.8104    0.9645   -4.0351 H   0  0  0  0  0  0  0  0  0  0  0  0
   -1.2607    1.1231   -3.4768 N   0  0  0  0  0  0  0  0  0  0  0  0
    0.0536    1.3115   -2.9213 C   0  0  2  0  0  0  0  0  0  0  0  0
    0.0266    0.8315   -1.4761 C   0  0  0  0  0  0  0  0  0  0  0  0
   -1.0065    0.7530   -0.8146 O   0  0  0  0  0  0  0  0  0  0  0  0
    0.4852    2.7674   -3.0025 C   0  0  0  0  0  0  0  0  0  0  0  0
   -1.6809    1.8924   -3.9952 H   0  0  0  0  0  0  0  0  0  0  0  0
    0.7360    0.6822   -3.5030 H   0  0  0  0  0  0  0  0  0  0  0  0
   -0.1867    3.4133   -2.4256 H   0  0  0  0  0  0  0  0  0  0  0  0
    1.4966    2.9042   -2.6056 H   0  0  0  0  0  0  0  0  0  0  0  0
    0.4754    3.1196   -4.0397 H   0  0  0  0  0  0  0  0  0  0  0  0
    1.2978    0.5411   -0.9947 N   0  0  0  0  0  0  0  0  0  0  0  0
    1.5371    0.0807    0.3489 C   0  0  2  0  0  0  0  0  0  0  0  0
    0.1836   -0.0017    1.0459 C   0  0  0  0  0  0  0  0  0  0  0  0
   -0.5343    0.9788    1.2307 O   0  0  0  0  0  0  0  0  0  0  0  0
    2.4789    1.0130    1.1213 C   0  0  0  0  0  0  0  0  0  0  0  0
    3.9071    1.0255    0.5729 C   0  0  0  0  0  0  0  0  0  0  0  0
    4.8350    1.9652    1.3202 C   0  0  0  0  0  0  0  0  0  0  0  0
    4.4738    2.7076    2.2286 O   0  0  0  0  0  0  0  0  0  0  0  0
    6.1284    1.9110    0.8466 N   0  0  0  0  0  0  0  0  0  0  0  0
    2.0949    0.6178   -1.6227 H   0  0  0  0  0  0  0  0  0  0  0  0
    1.9570   -0.9274    0.2653 H   0  0  0  0  0  0  0  0  0  0  0  0
    2.0844    2.0372    1.0823 H   0  0  0  0  0  0  0  0  0  0  0  0
    2.4972    0.7340    2.1824 H   0  0  0  0  0  0  0  0  0  0  0  0
    3.8812    1.3658   -0.4697 H   0  0  0  0  0  0  0  0  0  0  0  0
    4.3340    0.0163    0.5752 H   0  0  0  0  0  0  0  0  0  0  0  0
    6.3424    1.2823    0.0796 H   0  0  0  0  0  0  0  0  0  0  0  0
    6.8743    2.4776    1.2375 H   0  0  0  0  0  0  0  0  0  0  0  0
   -0.1006   -1.2893    1.4792 N   0  0  0  0  0  0  0  0  0  0  0  0
   -1.3104   -1.6388    2.1884 C   0  0  2  0  0  0  0  0  0  0  0  0
   -2.4901   -1.0565    1.4213 C   0  0  0  0  0  0  0  0  0  0  0  0
   -2.3841   -0.1081    0.6464 O   0  0  0  0  0  0  0  0  0  0  0  0
   -1.2828   -1.1212    3.6181 C   0  0  0  0  0  0  0  0  0  0  0  0
    0.5757   -2.0227    1.2883 H   0  0  0  0  0  0  0  0  0  0  0  0
   -1.3749   -2.7324    2.1838 H   0  0  0  0  0  0  0  0  0  0  0  0
   -1.2183   -0.0273    3.6429 H   0  0  0  0  0  0  0  0  0  0  0  0
   -2.1875   -1.4114    4.1626 H   0  0  0  0  0  0  0  0  0  0  0  0
   -0.4170   -1.5176    4.1595 H   0  0  0  0  0  0  0  0  0  0  0  0
   -3.6827   -1.6926    1.7364 N   0  0  0  0  0  0  0  0  0  0  0  0
   -4.9470   -1.3141    1.1495 C   0  0  0  0  0  0  0  0  0  0  0  0
   -3.6742   -2.4822    2.3753 H   0  0  0  0  0  0  0  0  0  0  0  0
   -5.4455   -0.5764    1.7955 H   0  0  0  0  0  0  0  0  0  0  0  0
   -4.7729   -0.8737    0.1567 H   0  0  0  0  0  0  0  0  0  0  0  0
   -5.5855   -2.2042    1.0490 H   0  0  0  0  0  0  0  0  0  0  0  0
  1  3  1  0  0  0  0
  1  7  1  0  0  0  0
  1  2  2  0  0  0  0
 22 23  1  0  0  0  0
 23 25  1  0  0  0  0
 23 24  2  0  0  0  0
 35 36  1  0  0  0  0
 36 44  1  0  0  0  0
 36 37  2  0  0  0  0
  8  9  1  0  0  0  0
  9 17  1  0  0  0  0
  9 10  2  0  0  0  0
 18 19  1  0  0  0  0
 19 34  1  0  0  0  0
 19 20  2  0  0  0  0
 35 38  1  0  0  0  0
  8 11  1  0  0  0  0
 44 45  1  0  0  0  0
 21 22  1  0  0  0  0
 18 21  1  0  0  0  0
 34 35  1  0  0  0  0
  7  8  1  0  0  0  0
 17 18  1  0  0  0  0
  3  4  1  0  0  0  0
  3  5  1  0  0  0  0
  3  6  1  0  0  0  0
 38 41  1  0  0  0  0
 38 42  1  0  0  0  0
 38 43  1  0  0  0  0
 11 14  1  0  0  0  0
 11 15  1  0  0  0  0
 11 16  1  0  0  0  0
 45 47  1  0  0  0  0
 45 48  1  0  0  0  0
 45 49  1  0  0  0  0
 22 30  1  0  0  0  0
 22 31  1  0  0  0  0
 21 28  1  0  0  0  0
 21 29  1  0  0  0  0
 35 40  1  0  0  0  0
  8 13  1  0  0  0  0
 18 27  1  0  0  0  0
 25 32  1  0  0  0  0
 25 33  1  0  0  0  0
 44 46  1  0  0  0  0
  7 12  1  0  0  0  0
 34 39  1  0  0  0  0
 17 26  1  0  0  0  0
M  END
$$$$

  -OEChem-05262214473D

 49 48  0     1  0  0  0  0  0999 V2000
   -1.9833   -0.0509   -3.3423 C   0  0  0  0  0  0  0  0  0  0  0  0
   -1.6199   -1.0613   -2.7518 O   0  0  0  0  0  0  0  0  0  0  0  0
   -3.3243   -0.0235   -3.9975 C   0  0  0  0  0  0  0  0  0  0  0  0
   -3.2886   -0.3689   -5.0432 H   0  0  0  0  0  0  0  0  0  0  0  0
   -4.0503   -0.6845   -3.4973 H   0  0  0  0  0  0  0  0  0  0  0  0
   -3.8104    0.9645   -4.0351 H   0  0  0  0  0  0  0  0  0  0  0  0
   -1.2607    1.1231   -3.4768 N   0  0  0  0  0  0  0  0  0  0  0  0
    0.0536    1.3115   -2.9213 C   0  0  2  0  0  0  0  0  0  0  0  0
    0.0266    0.8315   -1.4761 C   0  0  0  0  0  0  0  0  0  0  0  0
   -1.0065    0.7530   -0.8146 O   0  0  0  0  0  0  0  0  0  0  0  0
    0.4852    2.7674   -3.0025 C   0  0  0  0  0  0  0  0  0  0  0  0
   -1.6809    1.8924   -3.9952 H   0  0  0  0  0  0  0  0  0  0  0  0
    0.7360    0.6822   -3.5030 H   0  0  0  0  0  0  0  0  0  0  0  0
   -0.1867    3.4133   -2.4256 H   0  0  0  0  0  0  0  0  0  0  0  0
    1.4966    2.9042   -2.6056 H   0  0  0  0  0  0  0  0  0  0  0  0
    0.4754    3.1196   -4.0397 H   0  0  0  0  0  0  0  0  0  0  0  0
    1.2978    0.5411   -0.9947 N   0  0  0  0  0  0  0  0  0  0  0  0
    1.5371    0.0807    0.3489 C   0  0  2  0  0  0  0  0  0  0  0  0
    0.1836   -0.0017    1.0459 C   0  0  0  0  0  0  0  0  0  0  0  0
   -0.6487    0.9017    0.9995 O   0  0  0  0  0  0  0  0  0  0  0  0
    2.4789    1.0130    1.1213 C   0  0  0  0  0  0  0  0  0  0  0  0
    3.9071    1.0255    0.5729 C   0  0  0  0  0  0  0  0  0  0  0  0
    4.8350    1.9652    1.3202 C   0  0  0  0  0  0  0  0  0  0  0  0
    4.4738    2.7076    2.2286 O   0  0  0  0  0  0  0  0  0  0  0  0
    6.1284    1.9110    0.8466 N   0  0  0  0  0  0  0  0  0  0  0  0
    2.0949    0.6178   -1.6227 H   0  0  0  0  0  0  0  0  0  0  0  0
    1.9570   -0.9274    0.2653 H   0  0  0  0  0  0  0  0  0  0  0  0
    2.0844    2.0372    1.0823 H   0  0  0  0  0  0  0  0  0  0  0  0
    2.4972    0.7340    2.1824 H   0  0  0  0  0  0  0  0  0  0  0  0
    3.8812    1.3658   -0.4697 H   0  0  0  0  0  0  0  0  0  0  0  0
    4.3340    0.0163    0.5752 H   0  0  0  0  0  0  0  0  0  0  0  0
    6.3424    1.2823    0.0796 H   0  0  0  0  0  0  0  0  0  0  0  0
    6.8743    2.4776    1.2375 H   0  0  0  0  0  0  0  0  0  0  0  0
    0.0397   -1.1804    1.7644 N   0  0  0  0  0  0  0  0  0  0  0  0
   -1.1403   -1.5008    2.5349 C   0  0  2  0  0  0  0  0  0  0  0  0
   -2.3582   -1.2554    1.6540 C   0  0  0  0  0  0  0  0  0  0  0  0
   -2.3420   -0.5039    0.6813 O   0  0  0  0  0  0  0  0  0  0  0  0
   -1.2131   -0.6702    3.8067 C   0  0  0  0  0  0  0  0  0  0  0  0
    0.8019   -1.8515    1.7479 H   0  0  0  0  0  0  0  0  0  0  0  0
   -1.0767   -2.5660    2.7826 H   0  0  0  0  0  0  0  0  0  0  0  0
   -1.2774    0.4000    3.5786 H   0  0  0  0  0  0  0  0  0  0  0  0
   -2.0925   -0.9344    4.4033 H   0  0  0  0  0  0  0  0  0  0  0  0
   -0.3224   -0.8254    4.4251 H   0  0  0  0  0  0  0  0  0  0  0  0
   -3.4767   -1.9408    2.1072 N   0  0  0  0  0  0  0  0  0  0  0  0
   -4.7597   -1.8612    1.4486 C   0  0  0  0  0  0  0  0  0  0  0  0
   -3.3939   -2.5563    2.9109 H   0  0  0  0  0  0  0  0  0  0  0  0
   -5.3586   -1.0605    1.9070 H   0  0  0  0  0  0  0  0  0  0  0  0
   -4.6107   -1.6421    0.3810 H   0  0  0  0  0  0  0  0  0  0  0  0
   -5.2869   -2.8206    1.5560 H   0  0  0  0  0  0  0  0  0  0  0  0
  1  3  1  0  0  0  0
  1  7  1  0  0  0  0
  1  2  2  0  0  0  0
 22 23  1  0  0  0  0
 23 25  1  0  0  0  0
 23 24  2  0  0  0  0
 35 36  1  0  0  0  0
 36 44  1  0  0  0  0
 36 37  2  0  0  0  0
  8  9  1  0  0  0  0
  9 17  1  0  0  0  0
  9 10  2  0  0  0  0
 18 19  1  0  0  0  0
 19 34  1  0  0  0  0
 19 20  2  0  0  0  0
 35 38  1  0  0  0  0
  8 11  1  0  0  0  0
 44 45  1  0  0  0  0
 21 22  1  0  0  0  0
 18 21  1  0  0  0  0
 34 35  1  0  0  0  0
  7  8  1  0  0  0  0
 17 18  1  0  0  0  0
  3  4  1  0  0  0  0
  3  5  1  0  0  0  0
  3  6  1  0  0  0  0
 38 41  1  0  0  0  0
 38 42  1  0  0  0  0
 38 43  1  0  0  0  0
 11 14  1  0  0  0  0
 11 15  1  0  0  0  0
 11 16  1  0  0  0  0
 45 47  1  0  0  0  0
 45 48  1  0  0  0  0
 45 49  1  0  0  0  0
 22 30  1  0  0  0  0
 22 31  1  0  0  0  0
 21 28  1  0  0  0  0
 21 29  1  0  0  0  0
 35 40  1  0  0  0  0
  8 13  1  0  0  0  0
 18 27  1  0  0  0  0
 25 32  1  0  0  0  0
 25 33  1  0  0  0  0
 44 46  1  0  0  0  0
  7 12  1  0  0  0  0
 34 39  1  0  0  0  0
 17 26  1  0  0  0  0
M  END
$$$$

  -OEChem-05262214473D

 49 48  0     1  0  0  0  0  0999 V2000
   -1.9833   -0.0509   -3.3423 C   0  0  0  0  0  0  0  0  0  0  0  0
   -1.6199   -1.0613   -2.7518 O   0  0  0  0  0  0  0  0  0  0  0  0
   -3.3243   -0.0235   -3.9975 C   0  0  0  0  0  0  0  0  0  0  0  0
   -3.2886   -0.3689   -5.0432 H   0  0  0  0  0  0  0  0  0  0  0  0
   -4.0503   -0.6845   -3.4973 H   0  0  0  0  0  0  0  0  0  0  0  0
   -3.8104    0.9645   -4.0351 H   0  0  0  0  0  0  0  0  0  0  0  0
   -1.2607    1.1231   -3.4768 N   0  0  0  0  0  0  0  0  0  0  0  0
    0.0536    1.3115   -2.9213 C   0  0  2  0  0  0  0  0  0  0  0  0
    0.0266    0.8315   -1.4761 C   0  0  0  0  0  0  0  0  0  0  0  0
   -1.0065    0.7530   -0.8146 O   0  0  0  0  0  0  0  0  0  0  0  0
    0.4852    2.7674   -3.0025 C   0  0  0  0  0  0  0  0  0  0  0  0
   -1.6809    1.8924   -3.9952 H   0  0  0  0  0  0  0  0  0  0  0  0
    0.7360    0.6822   -3.5030 H   0  0  0  0  0  0  0  0  0  0  0  0
   -0.1867    3.4133   -2.4256 H   0  0  0  0  0  0  0  0  0  0  0  0
    1.4966    2.9042   -2.6056 H   0  0  0  0  0  0  0  0  0  0  0  0
    0.4754    3.1196   -4.0397 H   0  0  0  0  0  0  0  0  0  0  0  0
    1.2978    0.5411   -0.9947 N   0  0  0  0  0  0  0  0  0  0  0  0
    1.5371    0.0807    0.3489 C   0  0  2  0  0  0  0  0  0  0  0  0
    0.1836   -0.0017    1.0459 C   0  0  0  0  0  0  0  0  0  0  0  0
   -0.7468    0.7606    0.7923 O   0  0  0  0  0  0  0  0  0  0  0  0
    2.4789    1.0130    1.1213 C   0  0  0  0  0  0  0  0  0  0  0  0
    3.9071    1.0255    0.5729 C   0  0  0  0  0  0  0  0  0  0  0  0
    4.8350    1.9652    1.3202 C   0  0  0  0  0  0  0  0  0  0  0  0
    4.4738    2.7076    2.2286 O   0  0  0  0  0  0  0  0  0  0  0  0
    6.1284    1.9110    0.8466 N   0  0  0  0  0  0  0  0  0  0  0  0
    2.0949    0.6178   -1.6227 H   0  0  0  0  0  0  0  0  0  0  0  0
    1.9570   -0.9274    0.2653 H   0  0  0  0  0  0  0  0  0  0  0  0
    2.0844    2.0372    1.0823 H   0  0  0  0  0  0  0  0  0  0  0  0
    2.4972    0.7340    2.1824 H   0  0  0  0  0  0  0  0  0  0  0  0
    3.8812    1.3658   -0.4697 H   0  0  0  0  0  0  0  0  0  0  0  0
    4.3340    0.0163    0.5752 H   0  0  0  0  0  0  0  0  0  0  0  0
    6.3424    1.2823    0.0796 H   0  0  0  0  0  0  0  0  0  0  0  0
    6.8743    2.4776    1.2375 H   0  0  0  0  0  0  0  0  0  0  0  0
    0.1583   -0.9931    2.0169 N   0  0  0  0  0  0  0  0  0  0  0  0
   -0.9972   -1.2678    2.8403 C   0  0  2  0  0  0  0  0  0  0  0  0
   -2.2105   -1.3785    1.9264 C   0  0  0  0  0  0  0  0  0  0  0  0
   -2.2551   -0.8733    0.8066 O   0  0  0  0  0  0  0  0  0  0  0  0
   -1.2018   -0.1830    3.8863 C   0  0  0  0  0  0  0  0  0  0  0  0
    0.9938   -1.5538    2.1557 H   0  0  0  0  0  0  0  0  0  0  0  0
   -0.8167   -2.2325    3.3270 H   0  0  0  0  0  0  0  0  0  0  0  0
   -1.3841    0.7909    3.4175 H   0  0  0  0  0  0  0  0  0  0  0  0
   -2.0606   -0.4071    4.5276 H   0  0  0  0  0  0  0  0  0  0  0  0
   -0.3166   -0.0845    4.5239 H   0  0  0  0  0  0  0  0  0  0  0  0
   -3.2535   -2.0710    2.5252 N   0  0  0  0  0  0  0  0  0  0  0  0
   -4.5182   -2.2988    1.8658 C   0  0  0  0  0  0  0  0  0  0  0  0
   -3.1219   -2.4717    3.4492 H   0  0  0  0  0  0  0  0  0  0  0  0
   -5.2190   -1.4922    2.1271 H   0  0  0  0  0  0  0  0  0  0  0  0
   -4.3662   -2.3137    0.7765 H   0  0  0  0  0  0  0  0  0  0  0  0
   -4.9327   -3.2643    2.1915 H   0  0  0  0  0  0  0  0  0  0  0  0
  1  3  1  0  0  0  0
  1  7  1  0  0  0  0
  1  2  2  0  0  0  0
 22 23  1  0  0  0  0
 23 25  1  0  0  0  0
 23 24  2  0  0  0  0
 35 36  1  0  0  0  0
 36 44  1  0  0  0  0
 36 37  2  0  0  0  0
  8  9  1  0  0  0  0
  9 17  1  0  0  0  0
  9 10  2  0  0  0  0
 18 19  1  0  0  0  0
 19 34  1  0  0  0  0
 19 20  2  0  0  0  0
 35 38  1  0  0  0  0
  8 11  1  0  0  0  0
 44 45  1  0  0  0  0
 21 22  1  0  0  0  0
 18 21  1  0  0  0  0
 34 35  1  0  0  0  0
  7  8  1  0  0  0  0
 17 18  1  0  0  0  0
  3  4  1  0  0  0  0
  3  5  1  0  0  0  0
  3  6  1  0  0  0  0
 38 41  1  0  0  0  0
 38 42  1  0  0  0  0
 38 43  1  0  0  0  0
 11 14  1  0  0  0  0
 11 15  1  0  0  0  0
 11 16  1  0  0  0  0
 45 47  1  0  0  0  0
 45 48  1  0  0  0  0
 45 49  1  0  0  0  0
 22 30  1  0  0  0  0
 22 31  1  0  0  0  0
 21 28  1  0  0  0  0
 21 29  1  0  0  0  0
 35 40  1  0  0  0  0
  8 13  1  0  0  0  0
 18 27  1  0  0  0  0
 25 32  1  0  0  0  0
 25 33  1  0  0  0  0
 44 46  1  0  0  0  0
  7 12  1  0  0  0  0
 34 39  1  0  0  0  0
 17 26  1  0  0  0  0
M  END
$$$$

  -OEChem-05262214473D

 49 48  0     1  0  0  0  0  0999 V2000
   -1.9833   -0.0509   -3.3423 C   0  0  0  0  0  0  0  0  0  0  0  0
   -1.6199   -1.0613   -2.7518 O   0  0  0  0  0  0  0  0  0  0  0  0
   -3.3243   -0.0235   -3.9975 C   0  0  0  0  0  0  0  0  0  0  0  0
   -3.2886   -0.3689   -5.0432 H   0  0  0  0  0  0  0  0  0  0  0  0
   -4.0503   -0.6845   -3.4973 H   0  0  0  0  0  0  0  0  0  0  0  0
   -3.8104    0.9645   -4.0351 H   0  0  0  0  0  0  0  0  0  0  0  0
   -1.2607    1.1231   -3.4768 N   0  0  0  0  0  0  0  0  0  0  0  0
    0.0536    1.3115   -2.9213 C   0  0  2  0  0  0  0  0  0  0  0  0
    0.0266    0.8315   -1.4761 C   0  0  0  0  0  0  0  0  0  0  0  0
   -1.0065    0.7530   -0.8146 O   0  0  0  0  0  0  0  0  0  0  0  0
    0.4852    2.7674   -3.0025 C   0  0  0  0  0  0  0  0  0  0  0  0
   -1.6809    1.8924   -3.9952 H   0  0  0  0  0  0  0  0  0  0  0  0
    0.7360    0.6822   -3.5030 H   0  0  0  0  0  0  0  0  0  0  0  0
   -0.1867    3.4133   -2.4256 H   0  0  0  0  0  0  0  0  0  0  0  0
    1.4966    2.9042   -2.6056 H   0  0  0  0  0  0  0  0  0  0  0  0
    0.4754    3.1196   -4.0397 H   0  0  0  0  0  0  0  0  0  0  0  0
    1.2978    0.5411   -0.9947 N   0  0  0  0  0  0  0  0  0  0  0  0
    1.5371    0.0807    0.3489 C   0  0  2  0  0  0  0  0  0  0  0  0
    0.1836   -0.0017    1.0459 C   0  0  0  0  0  0  0  0  0  0  0  0
   -0.8220    0.5650    0.6232 O   0  0  0  0  0  0  0  0  0  0  0  0
    2.4789    1.0130    1.1213 C   0  0  0  0  0  0  0  0  0  0  0  0
    3.9071    1.0255    0.5729 C   0  0  0  0  0  0  0  0  0  0  0  0
    4.8350    1.9652    1.3202 C   0  0  0  0  0  0  0  0  0  0  0  0
    4.4738    2.7076    2.2286 O   0  0  0  0  0  0  0  0  0  0  0  0
    6.1284    1.9110    0.8466 N   0  0  0  0  0  0  0  0  0  0  0  0
    2.0949    0.6178   -1.6227 H   0  0  0  0  0  0  0  0  0  0  0  0
    1.9570   -0.9274    0.2653 H   0  0  0  0  0  0  0  0  0  0  0  0
    2.0844    2.0372    1.0823 H   0  0  0  0  0  0  0  0  0  0  0  0
    2.4972    0.7340    2.1824 H   0  0  0  0  0  0  0  0  0  0  0  0
    3.8812    1.3658   -0.4697 H   0  0  0  0  0  0  0  0  0  0  0  0
    4.3340    0.0163    0.5752 H   0  0  0  0  0  0  0  0  0  0  0  0
    6.3424    1.2823    0.0796 H   0  0  0  0  0  0  0  0  0  0  0  0
    6.8743    2.4776    1.2375 H   0  0  0  0  0  0  0  0  0  0  0  0
    0.2471   -0.7402    2.2193 N   0  0  0  0  0  0  0  0  0  0  0  0
   -0.8909   -0.9557    3.0838 C   0  0  2  0  0  0  0  0  0  0  0  0
   -2.0570   -1.4173    2.2198 C   0  0  0  0  0  0  0  0  0  0  0  0
   -2.1291   -1.1910    1.0137 O   0  0  0  0  0  0  0  0  0  0  0  0
   -1.2496    0.3072    3.8513 C   0  0  0  0  0  0  0  0  0  0  0  0
    1.1382   -1.1498    2.4838 H   0  0  0  0  0  0  0  0  0  0  0  0
   -0.6126   -1.7545    3.7798 H   0  0  0  0  0  0  0  0  0  0  0  0
   -1.5313    1.1188    3.1706 H   0  0  0  0  0  0  0  0  0  0  0  0
   -2.0939    0.1345    4.5269 H   0  0  0  0  0  0  0  0  0  0  0  0
   -0.4001    0.6545    4.4491 H   0  0  0  0  0  0  0  0  0  0  0  0
   -3.0284   -2.0743    2.9620 N   0  0  0  0  0  0  0  0  0  0  0  0
   -4.2390   -2.5970    2.3728 C   0  0  0  0  0  0  0  0  0  0  0  0
   -2.8766   -2.2341    3.9536 H   0  0  0  0  0  0  0  0  0  0  0  0
   -5.0362   -1.8421    2.4409 H   0  0  0  0  0  0  0  0  0  0  0  0
   -4.0560   -2.8426    1.3162 H   0  0  0  0  0  0  0  0  0  0  0  0
   -4.5469   -3.5049    2.9122 H   0  0  0  0  0  0  0  0  0  0  0  0
  1  3  1  0  0  0  0
  1  7  1  0  0  0  0
  1  2  2  0  0  0  0
 22 23  1  0  0  0  0
 23 25  1  0  0  0  0
 23 24  2  0  0  0  0
 35 36  1  0  0  0  0
 36 44  1  0  0  0  0
 36 37  2  0  0  0  0
  8  9  1  0  0  0  0
  9 17  1  0  0  0  0
  9 10  2  0  0  0  0
 18 19  1  0  0  0  0
 19 34  1  0  0  0  0
 19 20  2  0  0  0  0
 35 38  1  0  0  0  0
  8 11  1  0  0  0  0
 44 45  1  0  0  0  0
 21 22  1  0  0  0  0
 18 21  1  0  0  0  0
 34 35  1  0  0  0  0
  7  8  1  0  0  0  0
 17 18  1  0  0  0  0
  3  4  1  0  0  0  0
  3  5  1  0  0  0  0
  3  6  1  0  0  0  0
 38 41  1  0  0  0  0
 38 42  1  0  0  0  0
 38 43  1  0  0  0  0
 11 14  1  0  0  0  0
 11 15  1  0  0  0  0
 11 16  1  0  0  0  0
 45 47  1  0  0  0  0
 45 48  1  0  0  0  0
 45 49  1  0  0  0  0
 22 30  1  0  0  0  0
 22 31  1  0  0  0  0
 21 28  1  0  0  0  0
 21 29  1  0  0  0  0
 35 40  1  0  0  0  0
  8 13  1  0  0  0  0
 18 27  1  0  0  0  0
 25 32  1  0  0  0  0
 25 33  1  0  0  0  0
 44 46  1  0  0  0  0
  7 12  1  0  0  0  0
 34 39  1  0  0  0  0
 17 26  1  0  0  0  0
M  END
$$$$

  -OEChem-05262214473D

 49 48  0     1  0  0  0  0  0999 V2000
   -1.9833   -0.0509   -3.3423 C   0  0  0  0  0  0  0  0  0  0  0  0
   -1.6199   -1.0613   -2.7518 O   0  0  0  0  0  0  0  0  0  0  0  0
   -3.3243   -0.0235   -3.9975 C   0  0  0  0  0  0  0  0  0  0  0  0
   -3.2886   -0.3689   -5.0432 H   0  0  0  0  0  0  0  0  0  0  0  0
   -4.0503   -0.6845   -3.4973 H   0  0  0  0  0  0  0  0  0  0  0  0
   -3.8104    0.9645   -4.0351 H   0  0  0  0  0  0  0  0  0  0  0  0
   -1.2607    1.1231   -3.4768 N   0  0  0  0  0  0  0  0  0  0  0  0
    0.0536    1.3115   -2.9213 C   0  0  2  0  0  0  0  0  0  0  0  0
    0.0266    0.8315   -1.4761 C   0  0  0  0  0  0  0  0  0  0  0  0
   -1.0065    0.7530   -0.8146 O   0  0  0  0  0  0  0  0  0  0  0  0
    0.4852    2.7674   -3.0025 C   0  0  0  0  0  0  0  0  0  0  0  0
   -1.6809    1.8924   -3.9952 H   0  0  0  0  0  0  0  0  0  0  0  0
    0.7360    0.6822   -3.5030 H   0  0  0  0  0  0  0  0  0  0  0  0
   -0.1867    3.4133   -2.4256 H   0  0  0  0  0  0  0  0  0  0  0  0
    1.4966    2.9042   -2.6056 H   0  0  0  0  0  0  0  0  0  0  0  0
    0.4754    3.1196   -4.0397 H   0  0  0  0  0  0  0  0  0  0  0  0
    1.2978    0.5411   -0.9947 N   0  0  0  0  0  0  0  0  0  0  0  0
    1.5371    0.0807    0.3489 C   0  0  2  0  0  0  0  0  0  0  0  0
    0.1945   -0.3605    0.9210 C   0  0  0  0  0  0  0  0  0  0  0  0
   -0.8616   -0.2640    0.2995 O   0  0  0  0  0  0  0  0  0  0  0  0
    2.1611    1.1691    1.2314 C   0  0  0  0  0  0  0  0  0  0  0  0
    3.5814    1.5526    0.8115 C   0  0  0  0  0  0  0  0  0  0  0  0
    4.1921    2.6462    1.6681 C   0  0  0  0  0  0  0  0  0  0  0  0
    3.5920    3.2310    2.5650 O   0  0  0  0  0  0  0  0  0  0  0  0
    5.4925    2.9288    1.3085 N   0  0  0  0  0  0  0  0  0  0  0  0
    2.0949    0.6178   -1.6227 H   0  0  0  0  0  0  0  0  0  0  0  0
    2.1948   -0.7915    0.2695 H   0  0  0  0  0  0  0  0  0  0  0  0
    1.5335    2.0695    1.1915 H   0  0  0  0  0  0  0  0  0  0  0  0
    2.1645    0.8466    2.2803 H   0  0  0  0  0  0  0  0  0  0  0  0
    3.5544    1.9317   -0.2176 H   0  0  0  0  0  0  0  0  0  0  0  0
    4.2394    0.6765    0.8182 H   0  0  0  0  0  0  0  0  0  0  0  0
    5.9117    2.4113    0.5431 H   0  0  0  0  0  0  0  0  0  0  0  0
    6.0456    3.6360    1.7820 H   0  0  0  0  0  0  0  0  0  0  0  0
    0.3120   -0.8262    2.2232 N   0  0  0  0  0  0  0  0  0  0  0  0
   -0.8126   -1.2863    3.0058 C   0  0  2  0  0  0  0  0  0  0  0  0
   -1.6091   -2.2657    2.1538 C   0  0  0  0  0  0  0  0  0  0  0  0
   -1.5604   -2.2800    0.9256 O   0  0  0  0  0  0  0  0  0  0  0  0
   -1.6844   -0.1250    3.4576 C   0  0  0  0  0  0  0  0  0  0  0  0
    1.2346   -0.8445    2.6475 H   0  0  0  0  0  0  0  0  0  0  0  0
   -0.3999   -1.8094    3.8753 H   0  0  0  0  0  0  0  0  0  0  0  0
   -2.1068    0.4113    2.6000 H   0  0  0  0  0  0  0  0  0  0  0  0
   -2.5199   -0.4726    4.0742 H   0  0  0  0  0  0  0  0  0  0  0  0
   -1.1027    0.5935    4.0452 H   0  0  0  0  0  0  0  0  0  0  0  0
   -2.4136   -3.0933    2.9245 N   0  0  0  0  0  0  0  0  0  0  0  0
   -3.2748   -4.0997    2.3488 C   0  0  0  0  0  0  0  0  0  0  0  0
   -2.3763   -3.0245    3.9373 H   0  0  0  0  0  0  0  0  0  0  0  0
   -4.2766   -3.6757    2.1851 H   0  0  0  0  0  0  0  0  0  0  0  0
   -2.8567   -4.4337    1.3878 H   0  0  0  0  0  0  0  0  0  0  0  0
   -3.3470   -4.9564    3.0349 H   0  0  0  0  0  0  0  0  0  0  0  0
  1  3  1  0  0  0  0
  1  7  1  0  0  0  0
  1  2  2  0  0  0  0
 22 23  1  0  0  0  0
 23 25  1  0  0  0  0
 23 24  2  0  0  0  0
 35 36  1  0  0  0  0
 36 44  1  0  0  0  0
 36 37  2  0  0  0  0
  8  9  1  0  0  0  0
  9 17  1  0  0  0  0
  9 10  2  0  0  0  0
 18 19  1  0  0  0  0
 19 34  1  0  0  0  0
 19 20  2  0  0  0  0
 35 38  1  0  0  0  0
  8 11  1  0  0  0  0
 44 45  1  0  0  0  0
 21 22  1  0  0  0  0
 18 21  1  0  0  0  0
 34 35  1  0  0  0  0
  7  8  1  0  0  0  0
 17 18  1  0  0  0  0
  3  4  1  0  0  0  0
  3  5  1  0  0  0  0
  3  6  1  0  0  0  0
 38 41  1  0  0  0  0
 38 42  1  0  0  0  0
 38 43  1  0  0  0  0
 11 14  1  0  0  0  0
 11 15  1  0  0  0  0
 11 16  1  0  0  0  0
 45 47  1  0  0  0  0
 45 48  1  0  0  0  0
 45 49  1  0  0  0  0
 22 30  1  0  0  0  0
 22 31  1  0  0  0  0
 21 28  1  0  0  0  0
 21 29  1  0  0  0  0
 35 40  1  0  0  0  0
  8 13  1  0  0  0  0
 18 27  1  0  0  0  0
 25 32  1  0  0  0  0
 25 33  1  0  0  0  0
 44 46  1  0  0  0  0
  7 12  1  0  0  0  0
 34 39  1  0  0  0  0
 17 26  1  0  0  0  0
M  END
$$$$

  -OEChem-05262214473D

 49 48  0     1  0  0  0  0  0999 V2000
   -1.9833   -0.0509   -3.3423 C   0  0  0  0  0  0  0  0  0  0  0  0
   -1.6199   -1.0613   -2.7518 O   0  0  0  0  0  0  0  0  0  0  0  0
   -3.3243   -0.0235   -3.9975 C   0  0  0  0  0  0  0  0  0  0  0  0
   -3.2886   -0.3689   -5.0432 H   0  0  0  0  0  0  0  0  0  0  0  0
   -4.0503   -0.6845   -3.4973 H   0  0  0  0  0  0  0  0  0  0  0  0
   -3.8104    0.9645   -4.0351 H   0  0  0  0  0  0  0  0  0  0  0  0
   -1.2607    1.1231   -3.4768 N   0  0  0  0  0  0  0  0  0  0  0  0
    0.0536    1.3115   -2.9213 C   0  0  2  0  0  0  0  0  0  0  0  0
    0.0266    0.8315   -1.4761 C   0  0  0  0  0  0  0  0  0  0  0  0
   -1.0065    0.7530   -0.8146 O   0  0  0  0  0  0  0  0  0  0  0  0
    0.4852    2.7674   -3.0025 C   0  0  0  0  0  0  0  0  0  0  0  0
   -1.6809    1.8924   -3.9952 H   0  0  0  0  0  0  0  0  0  0  0  0
    0.7360    0.6822   -3.5030 H   0  0  0  0  0  0  0  0  0  0  0  0
   -0.1867    3.4133   -2.4256 H   0  0  0  0  0  0  0  0  0  0  0  0
    1.4966    2.9042   -2.6056 H   0  0  0  0  0  0  0  0  0  0  0  0
    0.4754    3.1196   -4.0397 H   0  0  0  0  0  0  0  0  0  0  0  0
    1.2978    0.5411   -0.9947 N   0  0  0  0  0  0  0  0  0  0  0  0
    1.5371    0.0807    0.3489 C   0  0  2  0  0  0  0  0  0  0  0  0
    0.1945   -0.3605    0.9210 C   0  0  0  0  0  0  0  0  0  0  0  0
   -0.8085   -0.5181    0.2281 O   0  0  0  0  0  0  0  0  0  0  0  0
    2.1611    1.1691    1.2314 C   0  0  0  0  0  0  0  0  0  0  0  0
    3.5814    1.5526    0.8115 C   0  0  0  0  0  0  0  0  0  0  0  0
    4.1921    2.6462    1.6681 C   0  0  0  0  0  0  0  0  0  0  0  0
    3.5920    3.2310    2.5650 O   0  0  0  0  0  0  0  0  0  0  0  0
    5.4925    2.9288    1.3085 N   0  0  0  0  0  0  0  0  0  0  0  0
    2.0949    0.6178   -1.6227 H   0  0  0  0  0  0  0  0  0  0  0  0
    2.1948   -0.7915    0.2695 H   0  0  0  0  0  0  0  0  0  0  0  0
    1.5335    2.0695    1.1915 H   0  0  0  0  0  0  0  0  0  0  0  0
    2.1645    0.8466    2.2803 H   0  0  0  0  0  0  0  0  0  0  0  0
    3.5544    1.9317   -0.2176 H   0  0  0  0  0  0  0  0  0  0  0  0
    4.2394    0.6765    0.8182 H   0  0  0  0  0  0  0  0  0  0  0  0
    5.9117    2.4113    0.5431 H   0  0  0  0  0  0  0  0  0  0  0  0
    6.0456    3.6360    1.7820 H   0  0  0  0  0  0  0  0  0  0  0  0
    0.2401   -0.5072    2.3004 N   0  0  0  0  0  0  0  0  0  0  0  0
   -0.9026   -0.8965    3.0951 C   0  0  2  0  0  0  0  0  0  0  0  0
   -1.5331   -2.1206    2.4442 C   0  0  0  0  0  0  0  0  0  0  0  0
   -1.3777   -2.4047    1.2584 O   0  0  0  0  0  0  0  0  0  0  0  0
   -1.9094    0.2376    3.2092 C   0  0  0  0  0  0  0  0  0  0  0  0
    1.1207   -0.3322    2.7753 H   0  0  0  0  0  0  0  0  0  0  0  0
   -0.5218   -1.1647    4.0865 H   0  0  0  0  0  0  0  0  0  0  0  0
   -2.3021    0.5202    2.2256 H   0  0  0  0  0  0  0  0  0  0  0  0
   -2.7609   -0.0492    3.8350 H   0  0  0  0  0  0  0  0  0  0  0  0
   -1.4463    1.1269    3.6502 H   0  0  0  0  0  0  0  0  0  0  0  0
   -2.3247   -2.8347    3.3328 N   0  0  0  0  0  0  0  0  0  0  0  0
   -3.0407   -4.0298    2.9522 C   0  0  0  0  0  0  0  0  0  0  0  0
   -2.3809   -2.5370    4.3023 H   0  0  0  0  0  0  0  0  0  0  0  0
   -4.0581   -3.7618    2.6314 H   0  0  0  0  0  0  0  0  0  0  0  0
   -2.5134   -4.5247    2.1233 H   0  0  0  0  0  0  0  0  0  0  0  0
   -3.0957   -4.7137    3.8121 H   0  0  0  0  0  0  0  0  0  0  0  0
  1  3  1  0  0  0  0
  1  7  1  0  0  0  0
  1  2  2  0  0  0  0
 22 23  1  0  0  0  0
 23 25  1  0  0  0  0
 23 24  2  0  0  0  0
 35 36  1  0  0  0  0
 36 44  1  0  0  0  0
 36 37  2  0  0  0  0
  8  9  1  0  0  0  0
  9 17  1  0  0  0  0
  9 10  2  0  0  0  0
 18 19  1  0  0  0  0
 19 34  1  0  0  0  0
 19 20  2  0  0  0  0
 35 38  1  0  0  0  0
  8 11  1  0  0  0  0
 44 45  1  0  0  0  0
 21 22  1  0  0  0  0
 18 21  1  0  0  0  0
 34 35  1  0  0  0  0
  7  8  1  0  0  0  0
 17 18  1  0  0  0  0
  3  4  1  0  0  0  0
  3  5  1  0  0  0  0
  3  6  1  0  0  0  0
 38 41  1  0  0  0  0
 38 42  1  0  0  0  0
 38 43  1  0  0  0  0
 11 14  1  0  0  0  0
 11 15  1  0  0  0  0
 11 16  1  0  0  0  0
 45 47  1  0  0  0  0
 45 48  1  0  0  0  0
 45 49  1  0  0  0  0
 22 30  1  0  0  0  0
 22 31  1  0  0  0  0
 21 28  1  0  0  0  0
 21 29  1  0  0  0  0
 35 40  1  0  0  0  0
  8 13  1  0  0  0  0
 18 27  1  0  0  0  0
 25 32  1  0  0  0  0
 25 33  1  0  0  0  0
 44 46  1  0  0  0  0
  7 12  1  0  0  0  0
 34 39  1  0  0  0  0
 17 26  1  0  0  0  0
M  END
$$$$

  -OEChem-05262214473D

 49 48  0     1  0  0  0  0  0999 V2000
   -1.9833   -0.0509   -3.3423 C   0  0  0  0  0  0  0  0  0  0  0  0
   -1.6199   -1.0613   -2.7518 O   0  0  0  0  0  0  0  0  0  0  0  0
   -3.3243   -0.0235   -3.9975 C   0  0  0  0  0  0  0  0  0  0  0  0
   -3.2886   -0.3689   -5.0432 H   0  0  0  0  0  0  0  0  0  0  0  0
   -4.0503   -0.6845   -3.4973 H   0  0  0  0  0  0  0  0  0  0  0  0
   -3.8104    0.9645   -4.0351 H   0  0  0  0  0  0  0  0  0  0  0  0
   -1.2607    1.1231   -3.4768 N   0  0  0  0  0  0  0  0  0  0  0  0
    0.0536    1.3115   -2.9213 C   0  0  2  0  0  0  0  0  0  0  0  0
    0.0266    0.8315   -1.4761 C   0  0  0  0  0  0  0  0  0  0  0  0
   -1.0065    0.7530   -0.8146 O   0  0  0  0  0  0  0  0  0  0  0  0
    0.4852    2.7674   -3.0025 C   0  0  0  0  0  0  0  0  0  0  0  0
   -1.6809    1.8924   -3.9952 H   0  0  0  0  0  0  0  0  0  0  0  0
    0.7360    0.6822   -3.5030 H   0  0  0  0  0  0  0  0  0  0  0  0
   -0.1867    3.4133   -2.4256 H   0  0  0  0  0  0  0  0  0  0  0  0
    1.4966    2.9042   -2.6056 H   0  0  0  0  0  0  0  0  0  0  0  0
    0.4754    3.1196   -4.0397 H   0  0  0  0  0  0  0  0  0  0  0  0
    1.2978    0.5411   -0.9947 N   0  0  0  0  0  0  0  0  0  0  0  0
    1.5371    0.0807    0.3489 C   0  0  2  0  0  0  0  0  0  0  0  0
    0.1945   -0.3605    0.9210 C   0  0  0  0  0  0  0  0  0  0  0  0
   -0.7272   -0.7747    0.2210 O   0  0  0  0  0  0  0  0  0  0  0  0
    2.1611    1.1691    1.2314 C   0  0  0  0  0  0  0  0  0  0  0  0
    3.5814    1.5526    0.8115 C   0  0  0  0  0  0  0  0  0  0  0  0
    4.1921    2.6462    1.6681 C   0  0  0  0  0  0  0  0  0  0  0  0
    3.5920    3.2310    2.5650 O   0  0  0  0  0  0  0  0  0  0  0  0
    5.4925    2.9288    1.3085 N   0  0  0  0  0  0  0  0  0  0  0  0
    2.0949    0.6178   -1.6227 H   0  0  0  0  0  0  0  0  0  0  0  0
    2.1948   -0.7915    0.2695 H   0  0  0  0  0  0  0  0  0  0  0  0
    1.5335    2.0695    1.1915 H   0  0  0  0  0  0  0  0  0  0  0  0
    2.1645    0.8466    2.2803 H   0  0  0  0  0  0  0  0  0  0  0  0
    3.5544    1.9317   -0.2176 H   0  0  0  0  0  0  0  0  0  0  0  0
    4.2394    0.6765    0.8182 H   0  0  0  0  0  0  0  0  0  0  0  0
    5.9117    2.4113    0.5431 H   0  0  0  0  0  0  0  0  0  0  0  0
    6.0456    3.6360    1.7820 H   0  0  0  0  0  0  0  0  0  0  0  0
    0.1338   -0.1885    2.2969 N   0  0  0  0  0  0  0  0  0  0  0  0
   -1.0342   -0.5083    3.0857 C   0  0  2  0  0  0  0  0  0  0  0  0
   -1.4955   -1.9069    2.6973 C   0  0  0  0  0  0  0  0  0  0  0  0
   -1.2140   -2.4315    1.6219 O   0  0  0  0  0  0  0  0  0  0  0  0
   -2.1433    0.5094    2.8698 C   0  0  0  0  0  0  0  0  0  0  0  0
    0.9514    0.1806    2.7734 H   0  0  0  0  0  0  0  0  0  0  0  0
   -0.7180   -0.5056    4.1345 H   0  0  0  0  0  0  0  0  0  0  0  0
   -2.4733    0.5211    1.8245 H   0  0  0  0  0  0  0  0  0  0  0  0
   -3.0169    0.2818    3.4895 H   0  0  0  0  0  0  0  0  0  0  0  0
   -1.8004    1.5188    3.1213 H   0  0  0  0  0  0  0  0  0  0  0  0
   -2.2944   -2.4832    3.6749 N   0  0  0  0  0  0  0  0  0  0  0  0
   -2.8665   -3.8021    3.5367 C   0  0  0  0  0  0  0  0  0  0  0  0
   -2.4601   -1.9833    4.5435 H   0  0  0  0  0  0  0  0  0  0  0  0
   -3.8722   -3.7221    3.0984 H   0  0  0  0  0  0  0  0  0  0  0  0
   -2.2280   -4.4116    2.8803 H   0  0  0  0  0  0  0  0  0  0  0  0
   -2.9347   -4.2776    4.5263 H   0  0  0  0  0  0  0  0  0  0  0  0
  1  3  1  0  0  0  0
  1  7  1  0  0  0  0
  1  2  2  0  0  0  0
 22 23  1  0  0  0  0
 23 25  1  0  0  0  0
 23 24  2  0  0  0  0
 35 36  1  0  0  0  0
 36 44  1  0  0  0  0
 36 37  2  0  0  0  0
  8  9  1  0  0  0  0
  9 17  1  0  0  0  0
  9 10  2  0  0  0  0
 18 19  1  0  0  0  0
 19 34  1  0  0  0  0
 19 20  2  0  0  0  0
 35 38  1  0  0  0  0
  8 11  1  0  0  0  0
 44 45  1  0  0  0  0
 21 22  1  0  0  0  0
 18 21  1  0  0  0  0
 34 35  1  0  0  0  0
  7  8  1  0  0  0  0
 17 18  1  0  0  0  0
  3  4  1  0  0  0  0
  3  5  1  0  0  0  0
  3  6  1  0  0  0  0
 38 41  1  0  0  0  0
 38 42  1  0  0  0  0
 38 43  1  0  0  0  0
 11 14  1  0  0  0  0
 11 15  1  0  0  0  0
 11 16  1  0  0  0  0
 45 47  1  0  0  0  0
 45 48  1  0  0  0  0
 45 49  1  0  0  0  0
 22 30  1  0  0  0  0
 22 31  1  0  0  0  0
 21 28  1  0  0  0  0
 21 29  1  0  0  0  0
 35 40  1  0  0  0  0
  8 13  1  0  0  0  0
 18 27  1  0  0  0  0
 25 32  1  0  0  0  0
 25 33  1  0  0  0  0
 44 46  1  0  0  0  0
  7 12  1  0  0  0  0
 34 39  1  0  0  0  0
 17 26  1  0  0  0  0
M  END
$$$$

  -OEChem-05262214473D

 49 48  0     1  0  0  0  0  0999 V2000
   -1.9833   -0.0509   -3.3423 C   0  0  0  0  0  0  0  0  0  0  0  0
   -1.6199   -1.0613   -2.7518 O   0  0  0  0  0  0  0  0  0  0  0  0
   -3.3243   -0.0235   -3.9975 C   0  0  0  0  0  0  0  0  0  0  0  0
   -3.2886   -0.3689   -5.0432 H   0  0  0  0  0  0  0  0  0  0  0  0
   -4.0503   -0.6845   -3.4973 H   0  0  0  0  0  0  0  0  0  0  0  0
   -3.8104    0.9645   -4.0351 H   0  0  0  0  0  0  0  0  0  0  0  0
   -1.2607    1.1231   -3.4768 N   0  0  0  0  0  0  0  0  0  0  0  0
    0.0536    1.3115   -2.9213 C   0  0  2  0  0  0  0  0  0  0  0  0
    0.0266    0.8315   -1.4761 C   0  0  0  0  0  0  0  0  0  0  0  0
   -1.0065    0.7530   -0.8146 O   0  0  0  0  0  0  0  0  0  0  0  0
    0.4852    2.7674   -3.0025 C   0  0  0  0  0  0  0  0  0  0  0  0
   -1.6809    1.8924   -3.9952 H   0  0  0  0  0  0  0  0  0  0  0  0
    0.7360    0.6822   -3.5030 H   0  0  0  0  0  0  0  0  0  0  0  0
   -0.1867    3.4133   -2.4256 H   0  0  0  0  0  0  0  0  0  0  0  0
    1.4966    2.9042   -2.6056 H   0  0  0  0  0  0  0  0  0  0  0  0
    0.4754    3.1196   -4.0397 H   0  0  0  0  0  0  0  0  0  0  0  0
    1.2978    0.5411   -0.9947 N   0  0  0  0  0  0  0  0  0  0  0  0
    1.5371    0.0807    0.3489 C   0  0  2  0  0  0  0  0  0  0  0  0
    0.1945   -0.3605    0.9210 C   0  0  0  0  0  0  0  0  0  0  0  0
   -0.6232   -1.0162    0.2788 O   0  0  0  0  0  0  0  0  0  0  0  0
    2.1611    1.1691    1.2314 C   0  0  0  0  0  0  0  0  0  0  0  0
    3.5814    1.5526    0.8115 C   0  0  0  0  0  0  0  0  0  0  0  0
    4.1921    2.6462    1.6681 C   0  0  0  0  0  0  0  0  0  0  0  0
    3.5920    3.2310    2.5650 O   0  0  0  0  0  0  0  0  0  0  0  0
    5.4925    2.9288    1.3085 N   0  0  0  0  0  0  0  0  0  0  0  0
    2.0949    0.6178   -1.6227 H   0  0  0  0  0  0  0  0  0  0  0  0
    2.1948   -0.7915    0.2695 H   0  0  0  0  0  0  0  0  0  0  0  0
    1.5335    2.0695    1.1915 H   0  0  0  0  0  0  0  0  0  0  0  0
    2.1645    0.8466    2.2803 H   0  0  0  0  0  0  0  0  0  0  0  0
    3.5544    1.9317   -0.2176 H   0  0  0  0  0  0  0  0  0  0  0  0
    4.2394    0.6765    0.8182 H   0  0  0  0  0  0  0  0  0  0  0  0
    5.9117    2.4113    0.5431 H   0  0  0  0  0  0  0  0  0  0  0  0
    6.0456    3.6360    1.7820 H   0  0  0  0  0  0  0  0  0  0  0  0
    0.0005    0.1082    2.2129 N   0  0  0  0  0  0  0  0  0  0  0  0
   -1.1982   -0.1483    2.9784 C   0  0  2  0  0  0  0  0  0  0  0  0
   -1.4989   -1.6391    2.8959 C   0  0  0  0  0  0  0  0  0  0  0  0
   -1.0804   -2.3587    1.9914 O   0  0  0  0  0  0  0  0  0  0  0  0
   -2.3703    0.6719    2.4624 C   0  0  0  0  0  0  0  0  0  0  0  0
    0.7381    0.6592    2.6419 H   0  0  0  0  0  0  0  0  0  0  0  0
   -0.9750    0.1230    4.0160 H   0  0  0  0  0  0  0  0  0  0  0  0
   -2.6087    0.4139    1.4241 H   0  0  0  0  0  0  0  0  0  0  0  0
   -3.2704    0.4979    3.0612 H   0  0  0  0  0  0  0  0  0  0  0  0
   -2.1410    1.7425    2.4946 H   0  0  0  0  0  0  0  0  0  0  0  0
   -2.3250   -2.0627    3.9275 N   0  0  0  0  0  0  0  0  0  0  0  0
   -2.7641   -3.4320    4.0624 C   0  0  0  0  0  0  0  0  0  0  0  0
   -2.6084   -1.4013    4.6444 H   0  0  0  0  0  0  0  0  0  0  0  0
   -3.7314   -3.5591    3.5544 H   0  0  0  0  0  0  0  0  0  0  0  0
   -2.0201   -4.1021    3.6070 H   0  0  0  0  0  0  0  0  0  0  0  0
   -2.8750   -3.6780    5.1288 H   0  0  0  0  0  0  0  0  0  0  0  0
  1  3  1  0  0  0  0
  1  7  1  0  0  0  0
  1  2  2  0  0  0  0
 22 23  1  0  0  0  0
 23 25  1  0  0  0  0
 23 24  2  0  0  0  0
 35 36  1  0  0  0  0
 36 44  1  0  0  0  0
 36 37  2  0  0  0  0
  8  9  1  0  0  0  0
  9 17  1  0  0  0  0
  9 10  2  0  0  0  0
 18 19  1  0  0  0  0
 19 34  1  0  0  0  0
 19 20  2  0  0  0  0
 35 38  1  0  0  0  0
  8 11  1  0  0  0  0
 44 45  1  0  0  0  0
 21 22  1  0  0  0  0
 18 21  1  0  0  0  0
 34 35  1  0  0  0  0
  7  8  1  0  0  0  0
 17 18  1  0  0  0  0
  3  4  1  0  0  0  0
  3  5  1  0  0  0  0
  3  6  1  0  0  0  0
 38 41  1  0  0  0  0
 38 42  1  0  0  0  0
 38 43  1  0  0  0  0
 11 14  1  0  0  0  0
 11 15  1  0  0  0  0
 11 16  1  0  0  0  0
 45 47  1  0  0  0  0
 45 48  1  0  0  0  0
 45 49  1  0  0  0  0
 22 30  1  0  0  0  0
 22 31  1  0  0  0  0
 21 28  1  0  0  0  0
 21 29  1  0  0  0  0
 35 40  1  0  0  0  0
  8 13  1  0  0  0  0
 18 27  1  0  0  0  0
 25 32  1  0  0  0  0
 25 33  1  0  0  0  0
 44 46  1  0  0  0  0
  7 12  1  0  0  0  0
 34 39  1  0  0  0  0
 17 26  1  0  0  0  0
M  END
$$$$

  -OEChem-05262214473D

 49 48  0     1  0  0  0  0  0999 V2000
   -1.9833   -0.0509   -3.3423 C   0  0  0  0  0  0  0  0  0  0  0  0
   -1.6199   -1.0613   -2.7518 O   0  0  0  0  0  0  0  0  0  0  0  0
   -3.3243   -0.0235   -3.9975 C   0  0  0  0  0  0  0  0  0  0  0  0
   -3.2886   -0.3689   -5.0432 H   0  0  0  0  0  0  0  0  0  0  0  0
   -4.0503   -0.6845   -3.4973 H   0  0  0  0  0  0  0  0  0  0  0  0
   -3.8104    0.9645   -4.0351 H   0  0  0  0  0  0  0  0  0  0  0  0
   -1.2607    1.1231   -3.4768 N   0  0  0  0  0  0  0  0  0  0  0  0
    0.0536    1.3115   -2.9213 C   0  0  2  0  0  0  0  0  0  0  0  0
    0.0266    0.8315   -1.4761 C   0  0  0  0  0  0  0  0  0  0  0  0
   -1.0065    0.7530   -0.8146 O   0  0  0  0  0  0  0  0  0  0  0  0
    0.4852    2.7674   -3.0025 C   0  0  0  0  0  0  0  0  0  0  0  0
   -1.6809    1.8924   -3.9952 H   0  0  0  0  0  0  0  0  0  0  0  0
    0.7360    0.6822   -3.5030 H   0  0  0  0  0  0  0  0  0  0  0  0
   -0.1867    3.4133   -2.4256 H   0  0  0  0  0  0  0  0  0  0  0  0
    1.4966    2.9042   -2.6056 H   0  0  0  0  0  0  0  0  0  0  0  0
    0.4754    3.1196   -4.0397 H   0  0  0  0  0  0  0  0  0  0  0  0
    1.2978    0.5411   -0.9947 N   0  0  0  0  0  0  0  0  0  0  0  0
    1.5371    0.0807    0.3489 C   0  0  2  0  0  0  0  0  0  0  0  0
    0.1945   -0.3605    0.9210 C   0  0  0  0  0  0  0  0  0  0  0  0
   -0.5036   -1.2262    0.3974 O   0  0  0  0  0  0  0  0  0  0  0  0
    2.1611    1.1691    1.2314 C   0  0  0  0  0  0  0  0  0  0  0  0
    3.5814    1.5526    0.8115 C   0  0  0  0  0  0  0  0  0  0  0  0
    4.1921    2.6462    1.6681 C   0  0  0  0  0  0  0  0  0  0  0  0
    3.5920    3.2310    2.5650 O   0  0  0  0  0  0  0  0  0  0  0  0
    5.4925    2.9288    1.3085 N   0  0  0  0  0  0  0  0  0  0  0  0
    2.0949    0.6178   -1.6227 H   0  0  0  0  0  0  0  0  0  0  0  0
    2.1948   -0.7915    0.2695 H   0  0  0  0  0  0  0  0  0  0  0  0
    1.5335    2.0695    1.1915 H   0  0  0  0  0  0  0  0  0  0  0  0
    2.1645    0.8466    2.2803 H   0  0  0  0  0  0  0  0  0  0  0  0
    3.5544    1.9317   -0.2176 H   0  0  0  0  0  0  0  0  0  0  0  0
    4.2394    0.6765    0.8182 H   0  0  0  0  0  0  0  0  0  0  0  0
    5.9117    2.4113    0.5431 H   0  0  0  0  0  0  0  0  0  0  0  0
    6.0456    3.6360    1.7820 H   0  0  0  0  0  0  0  0  0  0  0  0
   -0.1507    0.3627    2.0542 N   0  0  0  0  0  0  0  0  0  0  0  0
   -1.3836    0.1590    2.7803 C   0  0  2  0  0  0  0  0  0  0  0  0
   -1.5430   -1.3355    3.0265 C   0  0  0  0  0  0  0  0  0  0  0  0
   -0.9862   -2.1912    2.3418 O   0  0  0  0  0  0  0  0  0  0  0  0
   -2.5748    0.7139    2.0149 C   0  0  0  0  0  0  0  0  0  0  0  0
    0.4955    1.0707    2.3900 H   0  0  0  0  0  0  0  0  0  0  0  0
   -1.2755    0.6781    3.7389 H   0  0  0  0  0  0  0  0  0  0  0  0
   -2.6991    0.2060    1.0516 H   0  0  0  0  0  0  0  0  0  0  0  0
   -3.5042    0.5844    2.5792 H   0  0  0  0  0  0  0  0  0  0  0  0
   -2.4446    1.7826    1.8128 H   0  0  0  0  0  0  0  0  0  0  0  0
   -2.4142   -1.6020    4.0734 N   0  0  0  0  0  0  0  0  0  0  0  0
   -2.7405   -2.9448    4.4936 C   0  0  0  0  0  0  0  0  0  0  0  0
   -2.8158   -0.8305    4.5980 H   0  0  0  0  0  0  0  0  0  0  0  0
   -3.6454   -3.2842    3.9683 H   0  0  0  0  0  0  0  0  0  0  0  0
   -1.9037   -3.6173    4.2541 H   0  0  0  0  0  0  0  0  0  0  0  0
   -2.9207   -2.9557    5.5787 H   0  0  0  0  0  0  0  0  0  0  0  0
  1  3  1  0  0  0  0
  1  7  1  0  0  0  0
  1  2  2  0  0  0  0
 22 23  1  0  0  0  0
 23 25  1  0  0  0  0
 23 24  2  0  0  0  0
 35 36  1  0  0  0  0
 36 44  1  0  0  0  0
 36 37  2  0  0  0  0
  8  9  1  0  0  0  0
  9 17  1  0  0  0  0
  9 10  2  0  0  0  0
 18 19  1  0  0  0  0
 19 34  1  0  0  0  0
 19 20  2  0  0  0  0
 35 38  1  0  0  0  0
  8 11  1  0  0  0  0
 44 45  1  0  0  0  0
 21 22  1  0  0  0  0
 18 21  1  0  0  0  0
 34 35  1  0  0  0  0
  7  8  1  0  0  0  0
 17 18  1  0  0  0  0
  3  4  1  0  0  0  0
  3  5  1  0  0  0  0
  3  6  1  0  0  0  0
 38 41  1  0  0  0  0
 38 42  1  0  0  0  0
 38 43  1  0  0  0  0
 11 14  1  0  0  0  0
 11 15  1  0  0  0  0
 11 16  1  0  0  0  0
 45 47  1  0  0  0  0
 45 48  1  0  0  0  0
 45 49  1  0  0  0  0
 22 30  1  0  0  0  0
 22 31  1  0  0  0  0
 21 28  1  0  0  0  0
 21 29  1  0  0  0  0
 35 40  1  0  0  0  0
  8 13  1  0  0  0  0
 18 27  1  0  0  0  0
 25 32  1  0  0  0  0
 25 33  1  0  0  0  0
 44 46  1  0  0  0  0
  7 12  1  0  0  0  0
 34 39  1  0  0  0  0
 17 26  1  0  0  0  0
M  END
$$$$

  -OEChem-05262214473D

 49 48  0     1  0  0  0  0  0999 V2000
   -1.9833   -0.0509   -3.3423 C   0  0  0  0  0  0  0  0  0  0  0  0
   -1.6199   -1.0613   -2.7518 O   0  0  0  0  0  0  0  0  0  0  0  0
   -3.3243   -0.0235   -3.9975 C   0  0  0  0  0  0  0  0  0  0  0  0
   -3.2886   -0.3689   -5.0432 H   0  0  0  0  0  0  0  0  0  0  0  0
   -4.0503   -0.6845   -3.4973 H   0  0  0  0  0  0  0  0  0  0  0  0
   -3.8104    0.9645   -4.0351 H   0  0  0  0  0  0  0  0  0  0  0  0
   -1.2607    1.1231   -3.4768 N   0  0  0  0  0  0  0  0  0  0  0  0
    0.0536    1.3115   -2.9213 C   0  0  2  0  0  0  0  0  0  0  0  0
    0.0266    0.8315   -1.4761 C   0  0  0  0  0  0  0  0  0  0  0  0
   -1.0065    0.7530   -0.8146 O   0  0  0  0  0  0  0  0  0  0  0  0
    0.4852    2.7674   -3.0025 C   0  0  0  0  0  0  0  0  0  0  0  0
   -1.6809    1.8924   -3.9952 H   0  0  0  0  0  0  0  0  0  0  0  0
    0.7360    0.6822   -3.5030 H   0  0  0  0  0  0  0  0  0  0  0  0
   -0.1867    3.4133   -2.4256 H   0  0  0  0  0  0  0  0  0  0  0  0
    1.4966    2.9042   -2.6056 H   0  0  0  0  0  0  0  0  0  0  0  0
    0.4754    3.1196   -4.0397 H   0  0  0  0  0  0  0  0  0  0  0  0
    1.2978    0.5411   -0.9947 N   0  0  0  0  0  0  0  0  0  0  0  0
    1.5371    0.0807    0.3489 C   0  0  2  0  0  0  0  0  0  0  0  0
    0.1945   -0.3605    0.9210 C   0  0  0  0  0  0  0  0  0  0  0  0
   -0.3766   -1.3905    0.5688 O   0  0  0  0  0  0  0  0  0  0  0  0
    2.1611    1.1691    1.2314 C   0  0  0  0  0  0  0  0  0  0  0  0
    3.5814    1.5526    0.8115 C   0  0  0  0  0  0  0  0  0  0  0  0
    4.1921    2.6462    1.6681 C   0  0  0  0  0  0  0  0  0  0  0  0
    3.5920    3.2310    2.5650 O   0  0  0  0  0  0  0  0  0  0  0  0
    5.4925    2.9288    1.3085 N   0  0  0  0  0  0  0  0  0  0  0  0
    2.0949    0.6178   -1.6227 H   0  0  0  0  0  0  0  0  0  0  0  0
    2.1948   -0.7915    0.2695 H   0  0  0  0  0  0  0  0  0  0  0  0
    1.5335    2.0695    1.1915 H   0  0  0  0  0  0  0  0  0  0  0  0
    2.1645    0.8466    2.2803 H   0  0  0  0  0  0  0  0  0  0  0  0
    3.5544    1.9317   -0.2176 H   0  0  0  0  0  0  0  0  0  0  0  0
    4.2394    0.6765    0.8182 H   0  0  0  0  0  0  0  0  0  0  0  0
    5.9117    2.4113    0.5431 H   0  0  0  0  0  0  0  0  0  0  0  0
    6.0456    3.6360    1.7820 H   0  0  0  0  0  0  0  0  0  0  0  0
   -0.3097    0.5577    1.8315 N   0  0  0  0  0  0  0  0  0  0  0  0
   -1.5777    0.3927    2.5051 C   0  0  2  0  0  0  0  0  0  0  0  0
   -1.6249   -1.0168    3.0801 C   0  0  0  0  0  0  0  0  0  0  0  0
   -0.9377   -1.9404    2.6490 O   0  0  0  0  0  0  0  0  0  0  0  0
   -2.7429    0.6327    1.5578 C   0  0  0  0  0  0  0  0  0  0  0  0
    0.2401    1.3872    2.0346 H   0  0  0  0  0  0  0  0  0  0  0  0
   -1.5989    1.1220    3.3223 H   0  0  0  0  0  0  0  0  0  0  0  0
   -2.7383   -0.0886    0.7324 H   0  0  0  0  0  0  0  0  0  0  0  0
   -3.7024    0.5353    2.0764 H   0  0  0  0  0  0  0  0  0  0  0  0
   -2.6908    1.6364    1.1224 H   0  0  0  0  0  0  0  0  0  0  0  0
   -2.5561   -1.1324    4.1026 N   0  0  0  0  0  0  0  0  0  0  0  0
   -2.7973   -2.3736    4.8007 C   0  0  0  0  0  0  0  0  0  0  0  0
   -3.0680   -0.3098    4.4076 H   0  0  0  0  0  0  0  0  0  0  0  0
   -3.6201   -2.9159    4.3119 H   0  0  0  0  0  0  0  0  0  0  0  0
   -1.8868   -2.9903    4.7773 H   0  0  0  0  0  0  0  0  0  0  0  0
   -3.0687   -2.1599    5.8451 H   0  0  0  0  0  0  0  0  0  0  0  0
  1  3  1  0  0  0  0
  1  7  1  0  0  0  0
  1  2  2  0  0  0  0
 22 23  1  0  0  0  0
 23 25  1  0  0  0  0
 23 24  2  0  0  0  0
 35 36  1  0  0  0  0
 36 44  1  0  0  0  0
 36 37  2  0  0  0  0
  8  9  1  0  0  0  0
  9 17  1  0  0  0  0
  9 10  2  0  0  0  0
 18 19  1  0  0  0  0
 19 34  1  0  0  0  0
 19 20  2  0  0  0  0
 35 38  1  0  0  0  0
  8 11  1  0  0  0  0
 44 45  1  0  0  0  0
 21 22  1  0  0  0  0
 18 21  1  0  0  0  0
 34 35  1  0  0  0  0
  7  8  1  0  0  0  0
 17 18  1  0  0  0  0
  3  4  1  0  0  0  0
  3  5  1  0  0  0  0
  3  6  1  0  0  0  0
 38 41  1  0  0  0  0
 38 42  1  0  0  0  0
 38 43  1  0  0  0  0
 11 14  1  0  0  0  0
 11 15  1  0  0  0  0
 11 16  1  0  0  0  0
 45 47  1  0  0  0  0
 45 48  1  0  0  0  0
 45 49  1  0  0  0  0
 22 30  1  0  0  0  0
 22 31  1  0  0  0  0
 21 28  1  0  0  0  0
 21 29  1  0  0  0  0
 35 40  1  0  0  0  0
  8 13  1  0  0  0  0
 18 27  1  0  0  0  0
 25 32  1  0  0  0  0
 25 33  1  0  0  0  0
 44 46  1  0  0  0  0
  7 12  1  0  0  0  0
 34 39  1  0  0  0  0
 17 26  1  0  0  0  0
M  END
$$$$

  -OEChem-05262214473D

 49 48  0     1  0  0  0  0  0999 V2000
   -1.9833   -0.0509   -3.3423 C   0  0  0  0  0  0  0  0  0  0  0  0
   -1.6199   -1.0613   -2.7518 O   0  0  0  0  0  0  0  0  0  0  0  0
   -3.3243   -0.0235   -3.9975 C   0  0  0  0  0  0  0  0  0  0  0  0
   -3.2886   -0.3689   -5.0432 H   0  0  0  0  0  0  0  0  0  0  0  0
   -4.0503   -0.6845   -3.4973 H   0  0  0  0  0  0  0  0  0  0  0  0
   -3.8104    0.9645   -4.0351 H   0  0  0  0  0  0  0  0  0  0  0  0
   -1.2607    1.1231   -3.4768 N   0  0  0  0  0  0  0  0  0  0  0  0
    0.0536    1.3115   -2.9213 C   0  0  2  0  0  0  0  0  0  0  0  0
    0.0266    0.8315   -1.4761 C   0  0  0  0  0  0  0  0  0  0  0  0
   -1.0065    0.7530   -0.8146 O   0  0  0  0  0  0  0  0  0  0  0  0
    0.4852    2.7674   -3.0025 C   0  0  0  0  0  0  0  0  0  0  0  0
   -1.6809    1.8924   -3.9952 H   0  0  0  0  0  0  0  0  0  0  0  0
    0.7360    0.6822   -3.5030 H   0  0  0  0  0  0  0  0  0  0  0  0
   -0.1867    3.4133   -2.4256 H   0  0  0  0  0  0  0  0  0  0  0  0
    1.4966    2.9042   -2.6056 H   0  0  0  0  0  0  0  0  0  0  0  0
    0.4754    3.1196   -4.0397 H   0  0  0  0  0  0  0  0  0  0  0  0
    1.2978    0.5411   -0.9947 N   0  0  0  0  0  0  0  0  0  0  0  0
    1.5371    0.0807    0.3489 C   0  0  2  0  0  0  0  0  0  0  0  0
    0.1945   -0.3605    0.9210 C   0  0  0  0  0  0  0  0  0  0  0  0
   -0.2508   -1.4977    0.7813 O   0  0  0  0  0  0  0  0  0  0  0  0
    2.1611    1.1691    1.2314 C   0  0  0  0  0  0  0  0  0  0  0  0
    3.5814    1.5526    0.8115 C   0  0  0  0  0  0  0  0  0  0  0  0
    4.1921    2.6462    1.6681 C   0  0  0  0  0  0  0  0  0  0  0  0
    3.5920    3.2310    2.5650 O   0  0  0  0  0  0  0  0  0  0  0  0
    5.4925    2.9288    1.3085 N   0  0  0  0  0  0  0  0  0  0  0  0
    2.0949    0.6178   -1.6227 H   0  0  0  0  0  0  0  0  0  0  0  0
    2.1948   -0.7915    0.2695 H   0  0  0  0  0  0  0  0  0  0  0  0
    1.5335    2.0695    1.1915 H   0  0  0  0  0  0  0  0  0  0  0  0
    2.1645    0.8466    2.2803 H   0  0  0  0  0  0  0  0  0  0  0  0
    3.5544    1.9317   -0.2176 H   0  0  0  0  0  0  0  0  0  0  0  0
    4.2394    0.6765    0.8182 H   0  0  0  0  0  0  0  0  0  0  0  0
    5.9117    2.4113    0.5431 H   0  0  0  0  0  0  0  0  0  0  0  0
    6.0456    3.6360    1.7820 H   0  0  0  0  0  0  0  0  0  0  0  0
   -0.4655    0.6798    1.5601 N   0  0  0  0  0  0  0  0  0  0  0  0
   -1.7672    0.5369    2.1715 C   0  0  2  0  0  0  0  0  0  0  0  0
   -1.7390   -0.7047    3.0531 C   0  0  0  0  0  0  0  0  0  0  0  0
   -0.9382   -1.6234    2.8923 O   0  0  0  0  0  0  0  0  0  0  0  0
   -2.8631    0.4337    1.1222 C   0  0  0  0  0  0  0  0  0  0  0  0
   -0.0108    1.5872    1.6001 H   0  0  0  0  0  0  0  0  0  0  0  0
   -1.9232    1.4244    2.7945 H   0  0  0  0  0  0  0  0  0  0  0  0
   -2.7236   -0.4496    0.4883 H   0  0  0  0  0  0  0  0  0  0  0  0
   -3.8513    0.3542    1.5870 H   0  0  0  0  0  0  0  0  0  0  0  0
   -2.8627    1.3140    0.4703 H   0  0  0  0  0  0  0  0  0  0  0  0
   -2.7409   -0.6859    4.0132 N   0  0  0  0  0  0  0  0  0  0  0  0
   -2.9307   -1.7573    4.9630 C   0  0  0  0  0  0  0  0  0  0  0  0
   -3.3479    0.1252    4.0862 H   0  0  0  0  0  0  0  0  0  0  0  0
   -3.6571   -2.4794    4.5617 H   0  0  0  0  0  0  0  0  0  0  0  0
   -1.9706   -2.2638    5.1410 H   0  0  0  0  0  0  0  0  0  0  0  0
   -3.3089   -1.3449    5.9101 H   0  0  0  0  0  0  0  0  0  0  0  0
  1  3  1  0  0  0  0
  1  7  1  0  0  0  0
  1  2  2  0  0  0  0
 22 23  1  0  0  0  0
 23 25  1  0  0  0  0
 23 24  2  0  0  0  0
 35 36  1  0  0  0  0
 36 44  1  0  0  0  0
 36 37  2  0  0  0  0
  8  9  1  0  0  0  0
  9 17  1  0  0  0  0
  9 10  2  0  0  0  0
 18 19  1  0  0  0  0
 19 34  1  0  0  0  0
 19 20  2  0  0  0  0
 35 38  1  0  0  0  0
  8 11  1  0  0  0  0
 44 45  1  0  0  0  0
 21 22  1  0  0  0  0
 18 21  1  0  0  0  0
 34 35  1  0  0  0  0
  7  8  1  0  0  0  0
 17 18  1  0  0  0  0
  3  4  1  0  0  0  0
  3  5  1  0  0  0  0
  3  6  1  0  0  0  0
 38 41  1  0  0  0  0
 38 42  1  0  0  0  0
 38 43  1  0  0  0  0
 11 14  1  0  0  0  0
 11 15  1  0  0  0  0
 11 16  1  0  0  0  0
 45 47  1  0  0  0  0
 45 48  1  0  0  0  0
 45 49  1  0  0  0  0
 22 30  1  0  0  0  0
 22 31  1  0  0  0  0
 21 28  1  0  0  0  0
 21 29  1  0  0  0  0
 35 40  1  0  0  0  0
  8 13  1  0  0  0  0
 18 27  1  0  0  0  0
 25 32  1  0  0  0  0
 25 33  1  0  0  0  0
 44 46  1  0  0  0  0
  7 12  1  0  0  0  0
 34 39  1  0  0  0  0
 17 26  1  0  0  0  0
M  END
$$$$

  -OEChem-05262214473D

 49 48  0     1  0  0  0  0  0999 V2000
   -1.9833   -0.0509   -3.3423 C   0  0  0  0  0  0  0  0  0  0  0  0
   -1.6199   -1.0613   -2.7518 O   0  0  0  0  0  0  0  0  0  0  0  0
   -3.3243   -0.0235   -3.9975 C   0  0  0  0  0  0  0  0  0  0  0  0
   -3.2886   -0.3689   -5.0432 H   0  0  0  0  0  0  0  0  0  0  0  0
   -4.0503   -0.6845   -3.4973 H   0  0  0  0  0  0  0  0  0  0  0  0
   -3.8104    0.9645   -4.0351 H   0  0  0  0  0  0  0  0  0  0  0  0
   -1.2607    1.1231   -3.4768 N   0  0  0  0  0  0  0  0  0  0  0  0
    0.0536    1.3115   -2.9213 C   0  0  2  0  0  0  0  0  0  0  0  0
    0.0266    0.8315   -1.4761 C   0  0  0  0  0  0  0  0  0  0  0  0
   -1.0065    0.7530   -0.8146 O   0  0  0  0  0  0  0  0  0  0  0  0
    0.4852    2.7674   -3.0025 C   0  0  0  0  0  0  0  0  0  0  0  0
   -1.6809    1.8924   -3.9952 H   0  0  0  0  0  0  0  0  0  0  0  0
    0.7360    0.6822   -3.5030 H   0  0  0  0  0  0  0  0  0  0  0  0
   -0.1867    3.4133   -2.4256 H   0  0  0  0  0  0  0  0  0  0  0  0
    1.4966    2.9042   -2.6056 H   0  0  0  0  0  0  0  0  0  0  0  0
    0.4754    3.1196   -4.0397 H   0  0  0  0  0  0  0  0  0  0  0  0
    1.2978    0.5411   -0.9947 N   0  0  0  0  0  0  0  0  0  0  0  0
    1.5371    0.0807    0.3489 C   0  0  2  0  0  0  0  0  0  0  0  0
    0.1945   -0.3605    0.9210 C   0  0  0  0  0  0  0  0  0  0  0  0
   -0.1348   -1.5406    1.0205 O   0  0  0  0  0  0  0  0  0  0  0  0
    2.1611    1.1691    1.2314 C   0  0  0  0  0  0  0  0  0  0  0  0
    3.5814    1.5526    0.8115 C   0  0  0  0  0  0  0  0  0  0  0  0
    4.1921    2.6462    1.6681 C   0  0  0  0  0  0  0  0  0  0  0  0
    3.5920    3.2310    2.5650 O   0  0  0  0  0  0  0  0  0  0  0  0
    5.4925    2.9288    1.3085 N   0  0  0  0  0  0  0  0  0  0  0  0
    2.0949    0.6178   -1.6227 H   0  0  0  0  0  0  0  0  0  0  0  0
    2.1948   -0.7915    0.2695 H   0  0  0  0  0  0  0  0  0  0  0  0
    1.5335    2.0695    1.1915 H   0  0  0  0  0  0  0  0  0  0  0  0
    2.1645    0.8466    2.2803 H   0  0  0  0  0  0  0  0  0  0  0  0
    3.5544    1.9317   -0.2176 H   0  0  0  0  0  0  0  0  0  0  0  0
    4.2394    0.6765    0.8182 H   0  0  0  0  0  0  0  0  0  0  0  0
    5.9117    2.4113    0.5431 H   0  0  0  0  0  0  0  0  0  0  0  0
    6.0456    3.6360    1.7820 H   0  0  0  0  0  0  0  0  0  0  0  0
   -0.6075    0.7208    1.2584 N   0  0  0  0  0  0  0  0  0  0  0  0
   -1.9393    0.5817    1.8022 C   0  0  2  0  0  0  0  0  0  0  0  0
   -1.8774   -0.4205    2.9473 C   0  0  0  0  0  0  0  0  0  0  0  0
   -0.9877   -1.2618    3.0550 O   0  0  0  0  0  0  0  0  0  0  0  0
   -2.9273    0.1305    0.7377 C   0  0  0  0  0  0  0  0  0  0  0  0
   -0.2400    1.6569    1.1160 H   0  0  0  0  0  0  0  0  0  0  0  0
   -2.2262    1.5647    2.1915 H   0  0  0  0  0  0  0  0  0  0  0  0
   -2.6561   -0.8526    0.3359 H   0  0  0  0  0  0  0  0  0  0  0  0
   -3.9409    0.0532    1.1445 H   0  0  0  0  0  0  0  0  0  0  0  0
   -2.9485    0.8372   -0.0989 H   0  0  0  0  0  0  0  0  0  0  0  0
   -2.9561   -0.2930    3.8112 N   0  0  0  0  0  0  0  0  0  0  0  0
   -3.1316   -1.1381    4.9693 C   0  0  0  0  0  0  0  0  0  0  0  0
   -3.6365    0.4450    3.6556 H   0  0  0  0  0  0  0  0  0  0  0  0
   -3.7540   -2.0044    4.7007 H   0  0  0  0  0  0  0  0  0  0  0  0
   -2.1493   -1.4872    5.3205 H   0  0  0  0  0  0  0  0  0  0  0  0
   -3.6249   -0.5662    5.7690 H   0  0  0  0  0  0  0  0  0  0  0  0
  1  3  1  0  0  0  0
  1  7  1  0  0  0  0
  1  2  2  0  0  0  0
 22 23  1  0  0  0  0
 23 25  1  0  0  0  0
 23 24  2  0  0  0  0
 35 36  1  0  0  0  0
 36 44  1  0  0  0  0
 36 37  2  0  0  0  0
  8  9  1  0  0  0  0
  9 17  1  0  0  0  0
  9 10  2  0  0  0  0
 18 19  1  0  0  0  0
 19 34  1  0  0  0  0
 19 20  2  0  0  0  0
 35 38  1  0  0  0  0
  8 11  1  0  0  0  0
 44 45  1  0  0  0  0
 21 22  1  0  0  0  0
 18 21  1  0  0  0  0
 34 35  1  0  0  0  0
  7  8  1  0  0  0  0
 17 18  1  0  0  0  0
  3  4  1  0  0  0  0
  3  5  1  0  0  0  0
  3  6  1  0  0  0  0
 38 41  1  0  0  0  0
 38 42  1  0  0  0  0
 38 43  1  0  0  0  0
 11 14  1  0  0  0  0
 11 15  1  0  0  0  0
 11 16  1  0  0  0  0
 45 47  1  0  0  0  0
 45 48  1  0  0  0  0
 45 49  1  0  0  0  0
 22 30  1  0  0  0  0
 22 31  1  0  0  0  0
 21 28  1  0  0  0  0
 21 29  1  0  0  0  0
 35 40  1  0  0  0  0
  8 13  1  0  0  0  0
 18 27  1  0  0  0  0
 25 32  1  0  0  0  0
 25 33  1  0  0  0  0
 44 46  1  0  0  0  0
  7 12  1  0  0  0  0
 34 39  1  0  0  0  0
 17 26  1  0  0  0  0
M  END
$$$$

  -OEChem-05262214473D

 49 48  0     1  0  0  0  0  0999 V2000
   -1.9833   -0.0509   -3.3423 C   0  0  0  0  0  0  0  0  0  0  0  0
   -1.6199   -1.0613   -2.7518 O   0  0  0  0  0  0  0  0  0  0  0  0
   -3.3243   -0.0235   -3.9975 C   0  0  0  0  0  0  0  0  0  0  0  0
   -3.2886   -0.3689   -5.0432 H   0  0  0  0  0  0  0  0  0  0  0  0
   -4.0503   -0.6845   -3.4973 H   0  0  0  0  0  0  0  0  0  0  0  0
   -3.8104    0.9645   -4.0351 H   0  0  0  0  0  0  0  0  0  0  0  0
   -1.2607    1.1231   -3.4768 N   0  0  0  0  0  0  0  0  0  0  0  0
    0.0536    1.3115   -2.9213 C   0  0  2  0  0  0  0  0  0  0  0  0
    0.0266    0.8315   -1.4761 C   0  0  0  0  0  0  0  0  0  0  0  0
   -1.0065    0.7530   -0.8146 O   0  0  0  0  0  0  0  0  0  0  0  0
    0.4852    2.7674   -3.0025 C   0  0  0  0  0  0  0  0  0  0  0  0
   -1.6809    1.8924   -3.9952 H   0  0  0  0  0  0  0  0  0  0  0  0
    0.7360    0.6822   -3.5030 H   0  0  0  0  0  0  0  0  0  0  0  0
   -0.1867    3.4133   -2.4256 H   0  0  0  0  0  0  0  0  0  0  0  0
    1.4966    2.9042   -2.6056 H   0  0  0  0  0  0  0  0  0  0  0  0
    0.4754    3.1196   -4.0397 H   0  0  0  0  0  0  0  0  0  0  0  0
    1.2978    0.5411   -0.9947 N   0  0  0  0  0  0  0  0  0  0  0  0
    1.5371    0.0807    0.3489 C   0  0  2  0  0  0  0  0  0  0  0  0
    0.1945   -0.3605    0.9210 C   0  0  0  0  0  0  0  0  0  0  0  0
   -0.0365   -1.5163    1.2699 O   0  0  0  0  0  0  0  0  0  0  0  0
    2.1611    1.1691    1.2314 C   0  0  0  0  0  0  0  0  0  0  0  0
    3.5814    1.5526    0.8115 C   0  0  0  0  0  0  0  0  0  0  0  0
    4.1921    2.6462    1.6681 C   0  0  0  0  0  0  0  0  0  0  0  0
    3.5920    3.2310    2.5650 O   0  0  0  0  0  0  0  0  0  0  0  0
    5.4925    2.9288    1.3085 N   0  0  0  0  0  0  0  0  0  0  0  0
    2.0949    0.6178   -1.6227 H   0  0  0  0  0  0  0  0  0  0  0  0
    2.1948   -0.7915    0.2695 H   0  0  0  0  0  0  0  0  0  0  0  0
    1.5335    2.0695    1.1915 H   0  0  0  0  0  0  0  0  0  0  0  0
    2.1645    0.8466    2.2803 H   0  0  0  0  0  0  0  0  0  0  0  0
    3.5544    1.9317   -0.2176 H   0  0  0  0  0  0  0  0  0  0  0  0
    4.2394    0.6765    0.8182 H   0  0  0  0  0  0  0  0  0  0  0  0
    5.9117    2.4113    0.5431 H   0  0  0  0  0  0  0  0  0  0  0  0
    6.0456    3.6360    1.7820 H   0  0  0  0  0  0  0  0  0  0  0  0
   -0.7261    0.6779    0.9470 N   0  0  0  0  0  0  0  0  0  0  0  0
   -2.0822    0.5241    1.4223 C   0  0  2  0  0  0  0  0  0  0  0  0
   -2.0309   -0.1835    2.7700 C   0  0  0  0  0  0  0  0  0  0  0  0
   -1.0829   -0.8803    3.1260 O   0  0  0  0  0  0  0  0  0  0  0  0
   -2.9310   -0.2562    0.4307 C   0  0  0  0  0  0  0  0  0  0  0  0
   -0.4319    1.5917    0.6154 H   0  0  0  0  0  0  0  0  0  0  0  0
   -2.4874    1.5333    1.5543 H   0  0  0  0  0  0  0  0  0  0  0  0
   -2.5404   -1.2700    0.2855 H   0  0  0  0  0  0  0  0  0  0  0  0
   -3.9652   -0.3472    0.7789 H   0  0  0  0  0  0  0  0  0  0  0  0
   -2.9425    0.2386   -0.5465 H   0  0  0  0  0  0  0  0  0  0  0  0
   -3.1870    0.0196    3.5105 N   0  0  0  0  0  0  0  0  0  0  0  0
   -3.3862   -0.5580    4.8192 C   0  0  0  0  0  0  0  0  0  0  0  0
   -3.9140    0.6276    3.1451 H   0  0  0  0  0  0  0  0  0  0  0  0
   -3.9041   -1.5233    4.7195 H   0  0  0  0  0  0  0  0  0  0  0  0
   -2.4108   -0.7136    5.3034 H   0  0  0  0  0  0  0  0  0  0  0  0
   -3.9952    0.1232    5.4316 H   0  0  0  0  0  0  0  0  0  0  0  0
  1  3  1  0  0  0  0
  1  7  1  0  0  0  0
  1  2  2  0  0  0  0
 22 23  1  0  0  0  0
 23 25  1  0  0  0  0
 23 24  2  0  0  0  0
 35 36  1  0  0  0  0
 36 44  1  0  0  0  0
 36 37  2  0  0  0  0
  8  9  1  0  0  0  0
  9 17  1  0  0  0  0
  9 10  2  0  0  0  0
 18 19  1  0  0  0  0
 19 34  1  0  0  0  0
 19 20  2  0  0  0  0
 35 38  1  0  0  0  0
  8 11  1  0  0  0  0
 44 45  1  0  0  0  0
 21 22  1  0  0  0  0
 18 21  1  0  0  0  0
 34 35  1  0  0  0  0
  7  8  1  0  0  0  0
 17 18  1  0  0  0  0
  3  4  1  0  0  0  0
  3  5  1  0  0  0  0
  3  6  1  0  0  0  0
 38 41  1  0  0  0  0
 38 42  1  0  0  0  0
 38 43  1  0  0  0  0
 11 14  1  0  0  0  0
 11 15  1  0  0  0  0
 11 16  1  0  0  0  0
 45 47  1  0  0  0  0
 45 48  1  0  0  0  0
 45 49  1  0  0  0  0
 22 30  1  0  0  0  0
 22 31  1  0  0  0  0
 21 28  1  0  0  0  0
 21 29  1  0  0  0  0
 35 40  1  0  0  0  0
  8 13  1  0  0  0  0
 18 27  1  0  0  0  0
 25 32  1  0  0  0  0
 25 33  1  0  0  0  0
 44 46  1  0  0  0  0
  7 12  1  0  0  0  0
 34 39  1  0  0  0  0
 17 26  1  0  0  0  0
M  END
$$$$

  -OEChem-05262214473D

 49 48  0     1  0  0  0  0  0999 V2000
   -1.9833   -0.0509   -3.3423 C   0  0  0  0  0  0  0  0  0  0  0  0
   -1.6199   -1.0613   -2.7518 O   0  0  0  0  0  0  0  0  0  0  0  0
   -3.3243   -0.0235   -3.9975 C   0  0  0  0  0  0  0  0  0  0  0  0
   -3.2886   -0.3689   -5.0432 H   0  0  0  0  0  0  0  0  0  0  0  0
   -4.0503   -0.6845   -3.4973 H   0  0  0  0  0  0  0  0  0  0  0  0
   -3.8104    0.9645   -4.0351 H   0  0  0  0  0  0  0  0  0  0  0  0
   -1.2607    1.1231   -3.4768 N   0  0  0  0  0  0  0  0  0  0  0  0
    0.0536    1.3115   -2.9213 C   0  0  2  0  0  0  0  0  0  0  0  0
    0.0266    0.8315   -1.4761 C   0  0  0  0  0  0  0  0  0  0  0  0
   -1.0065    0.7530   -0.8146 O   0  0  0  0  0  0  0  0  0  0  0  0
    0.4852    2.7674   -3.0025 C   0  0  0  0  0  0  0  0  0  0  0  0
   -1.6809    1.8924   -3.9952 H   0  0  0  0  0  0  0  0  0  0  0  0
    0.7360    0.6822   -3.5030 H   0  0  0  0  0  0  0  0  0  0  0  0
   -0.1867    3.4133   -2.4256 H   0  0  0  0  0  0  0  0  0  0  0  0
    1.4966    2.9042   -2.6056 H   0  0  0  0  0  0  0  0  0  0  0  0
    0.4754    3.1196   -4.0397 H   0  0  0  0  0  0  0  0  0  0  0  0
    1.2978    0.5411   -0.9947 N   0  0  0  0  0  0  0  0  0  0  0  0
    1.5371    0.0807    0.3489 C   0  0  2  0  0  0  0  0  0  0  0  0
    0.1945   -0.3605    0.9210 C   0  0  0  0  0  0  0  0  0  0  0  0
    0.0374   -1.4264    1.5127 O   0  0  0  0  0  0  0  0  0  0  0  0
    2.1611    1.1691    1.2314 C   0  0  0  0  0  0  0  0  0  0  0  0
    3.5814    1.5526    0.8115 C   0  0  0  0  0  0  0  0  0  0  0  0
    4.1921    2.6462    1.6681 C   0  0  0  0  0  0  0  0  0  0  0  0
    3.5920    3.2310    2.5650 O   0  0  0  0  0  0  0  0  0  0  0  0
    5.4925    2.9288    1.3085 N   0  0  0  0  0  0  0  0  0  0  0  0
    2.0949    0.6178   -1.6227 H   0  0  0  0  0  0  0  0  0  0  0  0
    2.1948   -0.7915    0.2695 H   0  0  0  0  0  0  0  0  0  0  0  0
    1.5335    2.0695    1.1915 H   0  0  0  0  0  0  0  0  0  0  0  0
    2.1645    0.8466    2.2803 H   0  0  0  0  0  0  0  0  0  0  0  0
    3.5544    1.9317   -0.2176 H   0  0  0  0  0  0  0  0  0  0  0  0
    4.2394    0.6765    0.8182 H   0  0  0  0  0  0  0  0  0  0  0  0
    5.9117    2.4113    0.5431 H   0  0  0  0  0  0  0  0  0  0  0  0
    6.0456    3.6360    1.7820 H   0  0  0  0  0  0  0  0  0  0  0  0
   -0.8131    0.5539    0.6472 N   0  0  0  0  0  0  0  0  0  0  0  0
   -2.1862    0.3681    1.0579 C   0  0  2  0  0  0  0  0  0  0  0  0
   -2.1888   -0.0099    2.5332 C   0  0  0  0  0  0  0  0  0  0  0  0
   -1.2171   -0.5048    3.1006 O   0  0  0  0  0  0  0  0  0  0  0  0
   -2.8741   -0.7000    0.2219 C   0  0  0  0  0  0  0  0  0  0  0  0
   -0.5734    1.3960    0.1323 H   0  0  0  0  0  0  0  0  0  0  0  0
   -2.6889    1.3325    0.9264 H   0  0  0  0  0  0  0  0  0  0  0  0
   -2.3843   -1.6734    0.3407 H   0  0  0  0  0  0  0  0  0  0  0  0
   -3.9223   -0.8195    0.5153 H   0  0  0  0  0  0  0  0  0  0  0  0
   -2.8451   -0.4410   -0.8419 H   0  0  0  0  0  0  0  0  0  0  0  0
   -3.4179    0.2306    3.1314 N   0  0  0  0  0  0  0  0  0  0  0  0
   -3.6772   -0.0566    4.5229 C   0  0  0  0  0  0  0  0  0  0  0  0
   -4.1616    0.6608    2.5896 H   0  0  0  0  0  0  0  0  0  0  0  0
   -4.0972   -1.0689    4.6168 H   0  0  0  0  0  0  0  0  0  0  0  0
   -2.7373    0.0045    5.0911 H   0  0  0  0  0  0  0  0  0  0  0  0
   -4.3945    0.6762    4.9209 H   0  0  0  0  0  0  0  0  0  0  0  0
  1  3  1  0  0  0  0
  1  7  1  0  0  0  0
  1  2  2  0  0  0  0
 22 23  1  0  0  0  0
 23 25  1  0  0  0  0
 23 24  2  0  0  0  0
 35 36  1  0  0  0  0
 36 44  1  0  0  0  0
 36 37  2  0  0  0  0
  8  9  1  0  0  0  0
  9 17  1  0  0  0  0
  9 10  2  0  0  0  0
 18 19  1  0  0  0  0
 19 34  1  0  0  0  0
 19 20  2  0  0  0  0
 35 38  1  0  0  0  0
  8 11  1  0  0  0  0
 44 45  1  0  0  0  0
 21 22  1  0  0  0  0
 18 21  1  0  0  0  0
 34 35  1  0  0  0  0
  7  8  1  0  0  0  0
 17 18  1  0  0  0  0
  3  4  1  0  0  0  0
  3  5  1  0  0  0  0
  3  6  1  0  0  0  0
 38 41  1  0  0  0  0
 38 42  1  0  0  0  0
 38 43  1  0  0  0  0
 11 14  1  0  0  0  0
 11 15  1  0  0  0  0
 11 16  1  0  0  0  0
 45 47  1  0  0  0  0
 45 48  1  0  0  0  0
 45 49  1  0  0  0  0
 22 30  1  0  0  0  0
 22 31  1  0  0  0  0
 21 28  1  0  0  0  0
 21 29  1  0  0  0  0
 35 40  1  0  0  0  0
  8 13  1  0  0  0  0
 18 27  1  0  0  0  0
 25 32  1  0  0  0  0
 25 33  1  0  0  0  0
 44 46  1  0  0  0  0
  7 12  1  0  0  0  0
 34 39  1  0  0  0  0
 17 26  1  0  0  0  0
M  END
$$$$

  -OEChem-05262214473D

 49 48  0     1  0  0  0  0  0999 V2000
   -1.9833   -0.0509   -3.3423 C   0  0  0  0  0  0  0  0  0  0  0  0
   -1.6199   -1.0613   -2.7518 O   0  0  0  0  0  0  0  0  0  0  0  0
   -3.3243   -0.0235   -3.9975 C   0  0  0  0  0  0  0  0  0  0  0  0
   -3.2886   -0.3689   -5.0432 H   0  0  0  0  0  0  0  0  0  0  0  0
   -4.0503   -0.6845   -3.4973 H   0  0  0  0  0  0  0  0  0  0  0  0
   -3.8104    0.9645   -4.0351 H   0  0  0  0  0  0  0  0  0  0  0  0
   -1.2607    1.1231   -3.4768 N   0  0  0  0  0  0  0  0  0  0  0  0
    0.0536    1.3115   -2.9213 C   0  0  2  0  0  0  0  0  0  0  0  0
    0.0266    0.8315   -1.4761 C   0  0  0  0  0  0  0  0  0  0  0  0
   -1.0065    0.7530   -0.8146 O   0  0  0  0  0  0  0  0  0  0  0  0
    0.4852    2.7674   -3.0025 C   0  0  0  0  0  0  0  0  0  0  0  0
   -1.6809    1.8924   -3.9952 H   0  0  0  0  0  0  0  0  0  0  0  0
    0.7360    0.6822   -3.5030 H   0  0  0  0  0  0  0  0  0  0  0  0
   -0.1867    3.4133   -2.4256 H   0  0  0  0  0  0  0  0  0  0  0  0
    1.4966    2.9042   -2.6056 H   0  0  0  0  0  0  0  0  0  0  0  0
    0.4754    3.1196   -4.0397 H   0  0  0  0  0  0  0  0  0  0  0  0
    1.2978    0.5411   -0.9947 N   0  0  0  0  0  0  0  0  0  0  0  0
    1.5371    0.0807    0.3489 C   0  0  2  0  0  0  0  0  0  0  0  0
    0.1945   -0.3605    0.9210 C   0  0  0  0  0  0  0  0  0  0  0  0
    0.0818   -1.2771    1.7322 O   0  0  0  0  0  0  0  0  0  0  0  0
    2.1611    1.1691    1.2314 C   0  0  0  0  0  0  0  0  0  0  0  0
    3.5814    1.5526    0.8115 C   0  0  0  0  0  0  0  0  0  0  0  0
    4.1921    2.6462    1.6681 C   0  0  0  0  0  0  0  0  0  0  0  0
    3.5920    3.2310    2.5650 O   0  0  0  0  0  0  0  0  0  0  0  0
    5.4925    2.9288    1.3085 N   0  0  0  0  0  0  0  0  0  0  0  0
    2.0949    0.6178   -1.6227 H   0  0  0  0  0  0  0  0  0  0  0  0
    2.1948   -0.7915    0.2695 H   0  0  0  0  0  0  0  0  0  0  0  0
    1.5335    2.0695    1.1915 H   0  0  0  0  0  0  0  0  0  0  0  0
    2.1645    0.8466    2.2803 H   0  0  0  0  0  0  0  0  0  0  0  0
    3.5544    1.9317   -0.2176 H   0  0  0  0  0  0  0  0  0  0  0  0
    4.2394    0.6765    0.8182 H   0  0  0  0  0  0  0  0  0  0  0  0
    5.9117    2.4113    0.5431 H   0  0  0  0  0  0  0  0  0  0  0  0
    6.0456    3.6360    1.7820 H   0  0  0  0  0  0  0  0  0  0  0  0
   -0.8627    0.3573    0.3793 N   0  0  0  0  0  0  0  0  0  0  0  0
   -2.2442    0.1241    0.7336 C   0  0  2  0  0  0  0  0  0  0  0  0
   -2.3405    0.0885    2.2531 C   0  0  0  0  0  0  0  0  0  0  0  0
   -1.3814   -0.1609    2.9803 O   0  0  0  0  0  0  0  0  0  0  0  0
   -2.7603   -1.1708    0.1258 C   0  0  0  0  0  0  0  0  0  0  0  0
   -0.6549    1.0831   -0.3003 H   0  0  0  0  0  0  0  0  0  0  0  0
   -2.8170    0.9758    0.3506 H   0  0  0  0  0  0  0  0  0  0  0  0
   -2.1985   -2.0354    0.4977 H   0  0  0  0  0  0  0  0  0  0  0  0
   -3.8152   -1.3317    0.3714 H   0  0  0  0  0  0  0  0  0  0  0  0
   -2.6628   -1.1554   -0.9651 H   0  0  0  0  0  0  0  0  0  0  0  0
   -3.6329    0.3256    2.6998 N   0  0  0  0  0  0  0  0  0  0  0  0
   -3.9848    0.3319    4.1006 C   0  0  0  0  0  0  0  0  0  0  0  0
   -4.3624    0.5422    2.0270 H   0  0  0  0  0  0  0  0  0  0  0  0
   -4.3201   -0.6722    4.3995 H   0  0  0  0  0  0  0  0  0  0  0  0
   -3.1064    0.6179    4.6979 H   0  0  0  0  0  0  0  0  0  0  0  0
   -4.7957    1.0552    4.2716 H   0  0  0  0  0  0  0  0  0  0  0  0
  1  3  1  0  0  0  0
  1  7  1  0  0  0  0
  1  2  2  0  0  0  0
 22 23  1  0  0  0  0
 23 25  1  0  0  0  0
 23 24  2  0  0  0  0
 35 36  1  0  0  0  0
 36 44  1  0  0  0  0
 36 37  2  0  0  0  0
  8  9  1  0  0  0  0
  9 17  1  0  0  0  0
  9 10  2  0  0  0  0
 18 19  1  0  0  0  0
 19 34  1  0  0  0  0
 19 20  2  0  0  0  0
 35 38  1  0  0  0  0
  8 11  1  0  0  0  0
 44 45  1  0  0  0  0
 21 22  1  0  0  0  0
 18 21  1  0  0  0  0
 34 35  1  0  0  0  0
  7  8  1  0  0  0  0
 17 18  1  0  0  0  0
  3  4  1  0  0  0  0
  3  5  1  0  0  0  0
  3  6  1  0  0  0  0
 38 41  1  0  0  0  0
 38 42  1  0  0  0  0
 38 43  1  0  0  0  0
 11 14  1  0  0  0  0
 11 15  1  0  0  0  0
 11 16  1  0  0  0  0
 45 47  1  0  0  0  0
 45 48  1  0  0  0  0
 45 49  1  0  0  0  0
 22 30  1  0  0  0  0
 22 31  1  0  0  0  0
 21 28  1  0  0  0  0
 21 29  1  0  0  0  0
 35 40  1  0  0  0  0
  8 13  1  0  0  0  0
 18 27  1  0  0  0  0
 25 32  1  0  0  0  0
 25 33  1  0  0  0  0
 44 46  1  0  0  0  0
  7 12  1  0  0  0  0
 34 39  1  0  0  0  0
 17 26  1  0  0  0  0
M  END
$$$$

  -OEChem-05262214473D

 49 48  0     1  0  0  0  0  0999 V2000
   -1.9833   -0.0509   -3.3423 C   0  0  0  0  0  0  0  0  0  0  0  0
   -1.6199   -1.0613   -2.7518 O   0  0  0  0  0  0  0  0  0  0  0  0
   -3.3243   -0.0235   -3.9975 C   0  0  0  0  0  0  0  0  0  0  0  0
   -3.2886   -0.3689   -5.0432 H   0  0  0  0  0  0  0  0  0  0  0  0
   -4.0503   -0.6845   -3.4973 H   0  0  0  0  0  0  0  0  0  0  0  0
   -3.8104    0.9645   -4.0351 H   0  0  0  0  0  0  0  0  0  0  0  0
   -1.2607    1.1231   -3.4768 N   0  0  0  0  0  0  0  0  0  0  0  0
    0.0536    1.3115   -2.9213 C   0  0  2  0  0  0  0  0  0  0  0  0
    0.0266    0.8315   -1.4761 C   0  0  0  0  0  0  0  0  0  0  0  0
   -1.0065    0.7530   -0.8146 O   0  0  0  0  0  0  0  0  0  0  0  0
    0.4852    2.7674   -3.0025 C   0  0  0  0  0  0  0  0  0  0  0  0
   -1.6809    1.8924   -3.9952 H   0  0  0  0  0  0  0  0  0  0  0  0
    0.7360    0.6822   -3.5030 H   0  0  0  0  0  0  0  0  0  0  0  0
   -0.1867    3.4133   -2.4256 H   0  0  0  0  0  0  0  0  0  0  0  0
    1.4966    2.9042   -2.6056 H   0  0  0  0  0  0  0  0  0  0  0  0
    0.4754    3.1196   -4.0397 H   0  0  0  0  0  0  0  0  0  0  0  0
    1.2978    0.5411   -0.9947 N   0  0  0  0  0  0  0  0  0  0  0  0
    1.5371    0.0807    0.3489 C   0  0  2  0  0  0  0  0  0  0  0  0
    0.1945   -0.3605    0.9210 C   0  0  0  0  0  0  0  0  0  0  0  0
    0.0939   -1.0785    1.9136 O   0  0  0  0  0  0  0  0  0  0  0  0
    2.1611    1.1691    1.2314 C   0  0  0  0  0  0  0  0  0  0  0  0
    3.5814    1.5526    0.8115 C   0  0  0  0  0  0  0  0  0  0  0  0
    4.1921    2.6462    1.6681 C   0  0  0  0  0  0  0  0  0  0  0  0
    3.5920    3.2310    2.5650 O   0  0  0  0  0  0  0  0  0  0  0  0
    5.4925    2.9288    1.3085 N   0  0  0  0  0  0  0  0  0  0  0  0
    2.0949    0.6178   -1.6227 H   0  0  0  0  0  0  0  0  0  0  0  0
    2.1948   -0.7915    0.2695 H   0  0  0  0  0  0  0  0  0  0  0  0
    1.5335    2.0695    1.1915 H   0  0  0  0  0  0  0  0  0  0  0  0
    2.1645    0.8466    2.2803 H   0  0  0  0  0  0  0  0  0  0  0  0
    3.5544    1.9317   -0.2176 H   0  0  0  0  0  0  0  0  0  0  0  0
    4.2394    0.6765    0.8182 H   0  0  0  0  0  0  0  0  0  0  0  0
    5.9117    2.4113    0.5431 H   0  0  0  0  0  0  0  0  0  0  0  0
    6.0456    3.6360    1.7820 H   0  0  0  0  0  0  0  0  0  0  0  0
   -0.8714    0.1016    0.1616 N   0  0  0  0  0  0  0  0  0  0  0  0
   -2.2523   -0.1910    0.4716 C   0  0  2  0  0  0  0  0  0  0  0  0
   -2.4756    0.1050    1.9487 C   0  0  0  0  0  0  0  0  0  0  0  0
   -1.5644    0.1279    2.7735 O   0  0  0  0  0  0  0  0  0  0  0  0
   -2.5976   -1.6364    0.1486 C   0  0  0  0  0  0  0  0  0  0  0  0
   -0.6708    0.6743   -0.6530 H   0  0  0  0  0  0  0  0  0  0  0  0
   -2.8630    0.4875   -0.1339 H   0  0  0  0  0  0  0  0  0  0  0  0
   -1.9956   -2.3312    0.7457 H   0  0  0  0  0  0  0  0  0  0  0  0
   -3.6513   -1.8488    0.3573 H   0  0  0  0  0  0  0  0  0  0  0  0
   -2.4081   -1.8557   -0.9077 H   0  0  0  0  0  0  0  0  0  0  0  0
   -3.8176    0.2981    2.2453 N   0  0  0  0  0  0  0  0  0  0  0  0
   -4.2880    0.5811    3.5812 C   0  0  0  0  0  0  0  0  0  0  0  0
   -4.5026    0.2799    1.4955 H   0  0  0  0  0  0  0  0  0  0  0  0
   -4.5577   -0.3601    4.0825 H   0  0  0  0  0  0  0  0  0  0  0  0
   -3.4931    1.0850    4.1506 H   0  0  0  0  0  0  0  0  0  0  0  0
   -5.1714    1.2343    3.5280 H   0  0  0  0  0  0  0  0  0  0  0  0
  1  3  1  0  0  0  0
  1  7  1  0  0  0  0
  1  2  2  0  0  0  0
 22 23  1  0  0  0  0
 23 25  1  0  0  0  0
 23 24  2  0  0  0  0
 35 36  1  0  0  0  0
 36 44  1  0  0  0  0
 36 37  2  0  0  0  0
  8  9  1  0  0  0  0
  9 17  1  0  0  0  0
  9 10  2  0  0  0  0
 18 19  1  0  0  0  0
 19 34  1  0  0  0  0
 19 20  2  0  0  0  0
 35 38  1  0  0  0  0
  8 11  1  0  0  0  0
 44 45  1  0  0  0  0
 21 22  1  0  0  0  0
 18 21  1  0  0  0  0
 34 35  1  0  0  0  0
  7  8  1  0  0  0  0
 17 18  1  0  0  0  0
  3  4  1  0  0  0  0
  3  5  1  0  0  0  0
  3  6  1  0  0  0  0
 38 41  1  0  0  0  0
 38 42  1  0  0  0  0
 38 43  1  0  0  0  0
 11 14  1  0  0  0  0
 11 15  1  0  0  0  0
 11 16  1  0  0  0  0
 45 47  1  0  0  0  0
 45 48  1  0  0  0  0
 45 49  1  0  0  0  0
 22 30  1  0  0  0  0
 22 31  1  0  0  0  0
 21 28  1  0  0  0  0
 21 29  1  0  0  0  0
 35 40  1  0  0  0  0
  8 13  1  0  0  0  0
 18 27  1  0  0  0  0
 25 32  1  0  0  0  0
 25 33  1  0  0  0  0
 44 46  1  0  0  0  0
  7 12  1  0  0  0  0
 34 39  1  0  0  0  0
 17 26  1  0  0  0  0
M  END
$$$$

  -OEChem-05262214473D

 49 48  0     1  0  0  0  0  0999 V2000
   -1.9833   -0.0509   -3.3423 C   0  0  0  0  0  0  0  0  0  0  0  0
   -1.6199   -1.0613   -2.7518 O   0  0  0  0  0  0  0  0  0  0  0  0
   -3.3243   -0.0235   -3.9975 C   0  0  0  0  0  0  0  0  0  0  0  0
   -3.2886   -0.3689   -5.0432 H   0  0  0  0  0  0  0  0  0  0  0  0
   -4.0503   -0.6845   -3.4973 H   0  0  0  0  0  0  0  0  0  0  0  0
   -3.8104    0.9645   -4.0351 H   0  0  0  0  0  0  0  0  0  0  0  0
   -1.2607    1.1231   -3.4768 N   0  0  0  0  0  0  0  0  0  0  0  0
    0.0536    1.3115   -2.9213 C   0  0  2  0  0  0  0  0  0  0  0  0
    0.0266    0.8315   -1.4761 C   0  0  0  0  0  0  0  0  0  0  0  0
   -1.0065    0.7530   -0.8146 O   0  0  0  0  0  0  0  0  0  0  0  0
    0.4852    2.7674   -3.0025 C   0  0  0  0  0  0  0  0  0  0  0  0
   -1.6809    1.8924   -3.9952 H   0  0  0  0  0  0  0  0  0  0  0  0
    0.7360    0.6822   -3.5030 H   0  0  0  0  0  0  0  0  0  0  0  0
   -0.1867    3.4133   -2.4256 H   0  0  0  0  0  0  0  0  0  0  0  0
    1.4966    2.9042   -2.6056 H   0  0  0  0  0  0  0  0  0  0  0  0
    0.4754    3.1196   -4.0397 H   0  0  0  0  0  0  0  0  0  0  0  0
    1.2978    0.5411   -0.9947 N   0  0  0  0  0  0  0  0  0  0  0  0
    1.5371    0.0807    0.3489 C   0  0  2  0  0  0  0  0  0  0  0  0
    0.1945   -0.3605    0.9210 C   0  0  0  0  0  0  0  0  0  0  0  0
    0.0726   -0.8442    2.0444 O   0  0  0  0  0  0  0  0  0  0  0  0
    2.1611    1.1691    1.2314 C   0  0  0  0  0  0  0  0  0  0  0  0
    3.5814    1.5526    0.8115 C   0  0  0  0  0  0  0  0  0  0  0  0
    4.1921    2.6462    1.6681 C   0  0  0  0  0  0  0  0  0  0  0  0
    3.5920    3.2310    2.5650 O   0  0  0  0  0  0  0  0  0  0  0  0
    5.4925    2.9288    1.3085 N   0  0  0  0  0  0  0  0  0  0  0  0
    2.0949    0.6178   -1.6227 H   0  0  0  0  0  0  0  0  0  0  0  0
    2.1948   -0.7915    0.2695 H   0  0  0  0  0  0  0  0  0  0  0  0
    1.5335    2.0695    1.1915 H   0  0  0  0  0  0  0  0  0  0  0  0
    2.1645    0.8466    2.2803 H   0  0  0  0  0  0  0  0  0  0  0  0
    3.5544    1.9317   -0.2176 H   0  0  0  0  0  0  0  0  0  0  0  0
    4.2394    0.6765    0.8182 H   0  0  0  0  0  0  0  0  0  0  0  0
    5.9117    2.4113    0.5431 H   0  0  0  0  0  0  0  0  0  0  0  0
    6.0456    3.6360    1.7820 H   0  0  0  0  0  0  0  0  0  0  0  0
   -0.8387   -0.1958    0.0089 N   0  0  0  0  0  0  0  0  0  0  0  0
   -2.2098   -0.5559    0.2898 C   0  0  2  0  0  0  0  0  0  0  0  0
   -2.5849    0.0384    1.6409 C   0  0  0  0  0  0  0  0  0  0  0  0
   -1.7537    0.3419    2.4942 O   0  0  0  0  0  0  0  0  0  0  0  0
   -2.3968   -2.0652    0.2891 C   0  0  0  0  0  0  0  0  0  0  0  0
   -0.6201    0.1975   -0.9017 H   0  0  0  0  0  0  0  0  0  0  0  0
   -2.8237   -0.0989   -0.4940 H   0  0  0  0  0  0  0  0  0  0  0  0
   -1.7895   -2.5407    1.0679 H   0  0  0  0  0  0  0  0  0  0  0  0
   -3.4417   -2.3356    0.4737 H   0  0  0  0  0  0  0  0  0  0  0  0
   -2.0984   -2.4944   -0.6735 H   0  0  0  0  0  0  0  0  0  0  0  0
   -3.9592    0.1500    1.7986 N   0  0  0  0  0  0  0  0  0  0  0  0
   -4.5662    0.6739    2.9999 C   0  0  0  0  0  0  0  0  0  0  0  0
   -4.5728   -0.1082    1.0314 H   0  0  0  0  0  0  0  0  0  0  0  0
   -4.7938   -0.1541    3.6874 H   0  0  0  0  0  0  0  0  0  0  0  0
   -3.8710    1.3738    3.4865 H   0  0  0  0  0  0  0  0  0  0  0  0
   -5.4960    1.2013    2.7408 H   0  0  0  0  0  0  0  0  0  0  0  0
  1  3  1  0  0  0  0
  1  7  1  0  0  0  0
  1  2  2  0  0  0  0
 22 23  1  0  0  0  0
 23 25  1  0  0  0  0
 23 24  2  0  0  0  0
 35 36  1  0  0  0  0
 36 44  1  0  0  0  0
 36 37  2  0  0  0  0
  8  9  1  0  0  0  0
  9 17  1  0  0  0  0
  9 10  2  0  0  0  0
 18 19  1  0  0  0  0
 19 34  1  0  0  0  0
 19 20  2  0  0  0  0
 35 38  1  0  0  0  0
  8 11  1  0  0  0  0
 44 45  1  0  0  0  0
 21 22  1  0  0  0  0
 18 21  1  0  0  0  0
 34 35  1  0  0  0  0
  7  8  1  0  0  0  0
 17 18  1  0  0  0  0
  3  4  1  0  0  0  0
  3  5  1  0  0  0  0
  3  6  1  0  0  0  0
 38 41  1  0  0  0  0
 38 42  1  0  0  0  0
 38 43  1  0  0  0  0
 11 14  1  0  0  0  0
 11 15  1  0  0  0  0
 11 16  1  0  0  0  0
 45 47  1  0  0  0  0
 45 48  1  0  0  0  0
 45 49  1  0  0  0  0
 22 30  1  0  0  0  0
 22 31  1  0  0  0  0
 21 28  1  0  0  0  0
 21 29  1  0  0  0  0
 35 40  1  0  0  0  0
  8 13  1  0  0  0  0
 18 27  1  0  0  0  0
 25 32  1  0  0  0  0
 25 33  1  0  0  0  0
 44 46  1  0  0  0  0
  7 12  1  0  0  0  0
 34 39  1  0  0  0  0
 17 26  1  0  0  0  0
M  END
$$$$

  -OEChem-05262214473D

 49 48  0     1  0  0  0  0  0999 V2000
   -1.9833   -0.0509   -3.3423 C   0  0  0  0  0  0  0  0  0  0  0  0
   -1.6199   -1.0613   -2.7518 O   0  0  0  0  0  0  0  0  0  0  0  0
   -3.3243   -0.0235   -3.9975 C   0  0  0  0  0  0  0  0  0  0  0  0
   -3.2886   -0.3689   -5.0432 H   0  0  0  0  0  0  0  0  0  0  0  0
   -4.0503   -0.6845   -3.4973 H   0  0  0  0  0  0  0  0  0  0  0  0
   -3.8104    0.9645   -4.0351 H   0  0  0  0  0  0  0  0  0  0  0  0
   -1.2607    1.1231   -3.4768 N   0  0  0  0  0  0  0  0  0  0  0  0
    0.0536    1.3115   -2.9213 C   0  0  2  0  0  0  0  0  0  0  0  0
    0.0266    0.8315   -1.4761 C   0  0  0  0  0  0  0  0  0  0  0  0
   -1.0065    0.7530   -0.8146 O   0  0  0  0  0  0  0  0  0  0  0  0
    0.4852    2.7674   -3.0025 C   0  0  0  0  0  0  0  0  0  0  0  0
   -1.6809    1.8924   -3.9952 H   0  0  0  0  0  0  0  0  0  0  0  0
    0.7360    0.6822   -3.5030 H   0  0  0  0  0  0  0  0  0  0  0  0
   -0.1867    3.4133   -2.4256 H   0  0  0  0  0  0  0  0  0  0  0  0
    1.4966    2.9042   -2.6056 H   0  0  0  0  0  0  0  0  0  0  0  0
    0.4754    3.1196   -4.0397 H   0  0  0  0  0  0  0  0  0  0  0  0
    1.2978    0.5411   -0.9947 N   0  0  0  0  0  0  0  0  0  0  0  0
    1.5371    0.0807    0.3489 C   0  0  2  0  0  0  0  0  0  0  0  0
    0.1945   -0.3605    0.9210 C   0  0  0  0  0  0  0  0  0  0  0  0
    0.0195   -0.5901    2.1158 O   0  0  0  0  0  0  0  0  0  0  0  0
    2.1611    1.1691    1.2314 C   0  0  0  0  0  0  0  0  0  0  0  0
    3.5814    1.5526    0.8115 C   0  0  0  0  0  0  0  0  0  0  0  0
    4.1921    2.6462    1.6681 C   0  0  0  0  0  0  0  0  0  0  0  0
    3.5920    3.2310    2.5650 O   0  0  0  0  0  0  0  0  0  0  0  0
    5.4925    2.9288    1.3085 N   0  0  0  0  0  0  0  0  0  0  0  0
    2.0949    0.6178   -1.6227 H   0  0  0  0  0  0  0  0  0  0  0  0
    2.1948   -0.7915    0.2695 H   0  0  0  0  0  0  0  0  0  0  0  0
    1.5335    2.0695    1.1915 H   0  0  0  0  0  0  0  0  0  0  0  0
    2.1645    0.8466    2.2803 H   0  0  0  0  0  0  0  0  0  0  0  0
    3.5544    1.9317   -0.2176 H   0  0  0  0  0  0  0  0  0  0  0  0
    4.2394    0.6765    0.8182 H   0  0  0  0  0  0  0  0  0  0  0  0
    5.9117    2.4113    0.5431 H   0  0  0  0  0  0  0  0  0  0  0  0
    6.0456    3.6360    1.7820 H   0  0  0  0  0  0  0  0  0  0  0  0
   -0.7667   -0.5148   -0.0683 N   0  0  0  0  0  0  0  0  0  0  0  0
   -2.1198   -0.9457    0.2005 C   0  0  2  0  0  0  0  0  0  0  0  0
   -2.6609   -0.1067    1.3505 C   0  0  0  0  0  0  0  0  0  0  0  0
   -1.9365    0.4666    2.1615 O   0  0  0  0  0  0  0  0  0  0  0  0
   -2.1718   -2.4278    0.5375 C   0  0  0  0  0  0  0  0  0  0  0  0
   -0.5061   -0.3147   -1.0294 H   0  0  0  0  0  0  0  0  0  0  0  0
   -2.7019   -0.7437   -0.7053 H   0  0  0  0  0  0  0  0  0  0  0  0
   -1.5942   -2.6496    1.4422 H   0  0  0  0  0  0  0  0  0  0  0  0
   -3.2007   -2.7589    0.7128 H   0  0  0  0  0  0  0  0  0  0  0  0
   -1.7548   -3.0279   -0.2785 H   0  0  0  0  0  0  0  0  0  0  0  0
   -4.0482   -0.1086    1.3903 N   0  0  0  0  0  0  0  0  0  0  0  0
   -4.8003    0.6041    2.3965 C   0  0  0  0  0  0  0  0  0  0  0  0
   -4.5682   -0.5957    0.6663 H   0  0  0  0  0  0  0  0  0  0  0  0
   -5.0123   -0.0680    3.2411 H   0  0  0  0  0  0  0  0  0  0  0  0
   -4.2143    1.4648    2.7510 H   0  0  0  0  0  0  0  0  0  0  0  0
   -5.7474    0.9586    1.9636 H   0  0  0  0  0  0  0  0  0  0  0  0
  1  3  1  0  0  0  0
  1  7  1  0  0  0  0
  1  2  2  0  0  0  0
 22 23  1  0  0  0  0
 23 25  1  0  0  0  0
 23 24  2  0  0  0  0
 35 36  1  0  0  0  0
 36 44  1  0  0  0  0
 36 37  2  0  0  0  0
  8  9  1  0  0  0  0
  9 17  1  0  0  0  0
  9 10  2  0  0  0  0
 18 19  1  0  0  0  0
 19 34  1  0  0  0  0
 19 20  2  0  0  0  0
 35 38  1  0  0  0  0
  8 11  1  0  0  0  0
 44 45  1  0  0  0  0
 21 22  1  0  0  0  0
 18 21  1  0  0  0  0
 34 35  1  0  0  0  0
  7  8  1  0  0  0  0
 17 18  1  0  0  0  0
  3  4  1  0  0  0  0
  3  5  1  0  0  0  0
  3  6  1  0  0  0  0
 38 41  1  0  0  0  0
 38 42  1  0  0  0  0
 38 43  1  0  0  0  0
 11 14  1  0  0  0  0
 11 15  1  0  0  0  0
 11 16  1  0  0  0  0
 45 47  1  0  0  0  0
 45 48  1  0  0  0  0
 45 49  1  0  0  0  0
 22 30  1  0  0  0  0
 22 31  1  0  0  0  0
 21 28  1  0  0  0  0
 21 29  1  0  0  0  0
 35 40  1  0  0  0  0
  8 13  1  0  0  0  0
 18 27  1  0  0  0  0
 25 32  1  0  0  0  0
 25 33  1  0  0  0  0
 44 46  1  0  0  0  0
  7 12  1  0  0  0  0
 34 39  1  0  0  0  0
 17 26  1  0  0  0  0
M  END
$$$$

  -OEChem-05262214473D

 49 48  0     1  0  0  0  0  0999 V2000
   -1.9833   -0.0509   -3.3423 C   0  0  0  0  0  0  0  0  0  0  0  0
   -1.6199   -1.0613   -2.7518 O   0  0  0  0  0  0  0  0  0  0  0  0
   -3.3243   -0.0235   -3.9975 C   0  0  0  0  0  0  0  0  0  0  0  0
   -3.2886   -0.3689   -5.0432 H   0  0  0  0  0  0  0  0  0  0  0  0
   -4.0503   -0.6845   -3.4973 H   0  0  0  0  0  0  0  0  0  0  0  0
   -3.8104    0.9645   -4.0351 H   0  0  0  0  0  0  0  0  0  0  0  0
   -1.2607    1.1231   -3.4768 N   0  0  0  0  0  0  0  0  0  0  0  0
    0.0536    1.3115   -2.9213 C   0  0  2  0  0  0  0  0  0  0  0  0
    0.0266    0.8315   -1.4761 C   0  0  0  0  0  0  0  0  0  0  0  0
   -1.0065    0.7530   -0.8146 O   0  0  0  0  0  0  0  0  0  0  0  0
    0.4852    2.7674   -3.0025 C   0  0  0  0  0  0  0  0  0  0  0  0
   -1.6809    1.8924   -3.9952 H   0  0  0  0  0  0  0  0  0  0  0  0
    0.7360    0.6822   -3.5030 H   0  0  0  0  0  0  0  0  0  0  0  0
   -0.1867    3.4133   -2.4256 H   0  0  0  0  0  0  0  0  0  0  0  0
    1.4966    2.9042   -2.6056 H   0  0  0  0  0  0  0  0  0  0  0  0
    0.4754    3.1196   -4.0397 H   0  0  0  0  0  0  0  0  0  0  0  0
    1.2978    0.5411   -0.9947 N   0  0  0  0  0  0  0  0  0  0  0  0
    1.5371    0.0807    0.3489 C   0  0  2  0  0  0  0  0  0  0  0  0
    0.1945   -0.3605    0.9210 C   0  0  0  0  0  0  0  0  0  0  0  0
   -0.0618   -0.3335    2.1229 O   0  0  0  0  0  0  0  0  0  0  0  0
    2.1611    1.1691    1.2314 C   0  0  0  0  0  0  0  0  0  0  0  0
    3.5814    1.5526    0.8115 C   0  0  0  0  0  0  0  0  0  0  0  0
    4.1921    2.6462    1.6681 C   0  0  0  0  0  0  0  0  0  0  0  0
    3.5920    3.2310    2.5650 O   0  0  0  0  0  0  0  0  0  0  0  0
    5.4925    2.9288    1.3085 N   0  0  0  0  0  0  0  0  0  0  0  0
    2.0949    0.6178   -1.6227 H   0  0  0  0  0  0  0  0  0  0  0  0
    2.1948   -0.7915    0.2695 H   0  0  0  0  0  0  0  0  0  0  0  0
    1.5335    2.0695    1.1915 H   0  0  0  0  0  0  0  0  0  0  0  0
    2.1645    0.8466    2.2803 H   0  0  0  0  0  0  0  0  0  0  0  0
    3.5544    1.9317   -0.2176 H   0  0  0  0  0  0  0  0  0  0  0  0
    4.2394    0.6765    0.8182 H   0  0  0  0  0  0  0  0  0  0  0  0
    5.9117    2.4113    0.5431 H   0  0  0  0  0  0  0  0  0  0  0  0
    6.0456    3.6360    1.7820 H   0  0  0  0  0  0  0  0  0  0  0  0
   -0.6605   -0.8335   -0.0648 N   0  0  0  0  0  0  0  0  0  0  0  0
   -1.9882   -1.3339    0.2098 C   0  0  2  0  0  0  0  0  0  0  0  0
   -2.6985   -0.3204    1.0974 C   0  0  0  0  0  0  0  0  0  0  0  0
   -2.1002    0.4935    1.7979 O   0  0  0  0  0  0  0  0  0  0  0  0
   -1.9379   -2.6996    0.8769 C   0  0  0  0  0  0  0  0  0  0  0  0
   -0.3368   -0.8276   -1.0275 H   0  0  0  0  0  0  0  0  0  0  0  0
   -2.5057   -1.4028   -0.7532 H   0  0  0  0  0  0  0  0  0  0  0  0
   -1.4230   -2.6505    1.8433 H   0  0  0  0  0  0  0  0  0  0  0  0
   -2.9447   -3.0899    1.0584 H   0  0  0  0  0  0  0  0  0  0  0  0
   -1.4007   -3.4198    0.2504 H   0  0  0  0  0  0  0  0  0  0  0  0
   -4.0785   -0.4601    1.0482 N   0  0  0  0  0  0  0  0  0  0  0  0
   -4.9745    0.3763    1.8120 C   0  0  0  0  0  0  0  0  0  0  0  0
   -4.4890   -1.1493    0.4251 H   0  0  0  0  0  0  0  0  0  0  0  0
   -5.1982   -0.1077    2.7741 H   0  0  0  0  0  0  0  0  0  0  0  0
   -4.4997    1.3517    1.9940 H   0  0  0  0  0  0  0  0  0  0  0  0
   -5.9084    0.5225    1.2493 H   0  0  0  0  0  0  0  0  0  0  0  0
  1  3  1  0  0  0  0
  1  7  1  0  0  0  0
  1  2  2  0  0  0  0
 22 23  1  0  0  0  0
 23 25  1  0  0  0  0
 23 24  2  0  0  0  0
 35 36  1  0  0  0  0
 36 44  1  0  0  0  0
 36 37  2  0  0  0  0
  8  9  1  0  0  0  0
  9 17  1  0  0  0  0
  9 10  2  0  0  0  0
 18 19  1  0  0  0  0
 19 34  1  0  0  0  0
 19 20  2  0  0  0  0
 35 38  1  0  0  0  0
  8 11  1  0  0  0  0
 44 45  1  0  0  0  0
 21 22  1  0  0  0  0
 18 21  1  0  0  0  0
 34 35  1  0  0  0  0
  7  8  1  0  0  0  0
 17 18  1  0  0  0  0
  3  4  1  0  0  0  0
  3  5  1  0  0  0  0
  3  6  1  0  0  0  0
 38 41  1  0  0  0  0
 38 42  1  0  0  0  0
 38 43  1  0  0  0  0
 11 14  1  0  0  0  0
 11 15  1  0  0  0  0
 11 16  1  0  0  0  0
 45 47  1  0  0  0  0
 45 48  1  0  0  0  0
 45 49  1  0  0  0  0
 22 30  1  0  0  0  0
 22 31  1  0  0  0  0
 21 28  1  0  0  0  0
 21 29  1  0  0  0  0
 35 40  1  0  0  0  0
  8 13  1  0  0  0  0
 18 27  1  0  0  0  0
 25 32  1  0  0  0  0
 25 33  1  0  0  0  0
 44 46  1  0  0  0  0
  7 12  1  0  0  0  0
 34 39  1  0  0  0  0
 17 26  1  0  0  0  0
M  END
$$$$

  -OEChem-05262214473D

 49 48  0     1  0  0  0  0  0999 V2000
   -1.9833   -0.0509   -3.3423 C   0  0  0  0  0  0  0  0  0  0  0  0
   -1.6199   -1.0613   -2.7518 O   0  0  0  0  0  0  0  0  0  0  0  0
   -3.3243   -0.0235   -3.9975 C   0  0  0  0  0  0  0  0  0  0  0  0
   -3.2886   -0.3689   -5.0432 H   0  0  0  0  0  0  0  0  0  0  0  0
   -4.0503   -0.6845   -3.4973 H   0  0  0  0  0  0  0  0  0  0  0  0
   -3.8104    0.9645   -4.0351 H   0  0  0  0  0  0  0  0  0  0  0  0
   -1.2607    1.1231   -3.4768 N   0  0  0  0  0  0  0  0  0  0  0  0
    0.0536    1.3115   -2.9213 C   0  0  2  0  0  0  0  0  0  0  0  0
    0.0266    0.8315   -1.4761 C   0  0  0  0  0  0  0  0  0  0  0  0
   -1.0065    0.7530   -0.8146 O   0  0  0  0  0  0  0  0  0  0  0  0
    0.4852    2.7674   -3.0025 C   0  0  0  0  0  0  0  0  0  0  0  0
   -1.6809    1.8924   -3.9952 H   0  0  0  0  0  0  0  0  0  0  0  0
    0.7360    0.6822   -3.5030 H   0  0  0  0  0  0  0  0  0  0  0  0
   -0.1867    3.4133   -2.4256 H   0  0  0  0  0  0  0  0  0  0  0  0
    1.4966    2.9042   -2.6056 H   0  0  0  0  0  0  0  0  0  0  0  0
    0.4754    3.1196   -4.0397 H   0  0  0  0  0  0  0  0  0  0  0  0
    1.2978    0.5411   -0.9947 N   0  0  0  0  0  0  0  0  0  0  0  0
    1.5371    0.0807    0.3489 C   0  0  2  0  0  0  0  0  0  0  0  0
    0.1945   -0.3605    0.9210 C   0  0  0  0  0  0  0  0  0  0  0  0
   -0.1658   -0.0920    2.0651 O   0  0  0  0  0  0  0  0  0  0  0  0
    2.1611    1.1691    1.2314 C   0  0  0  0  0  0  0  0  0  0  0  0
    3.5814    1.5526    0.8115 C   0  0  0  0  0  0  0  0  0  0  0  0
    4.1921    2.6462    1.6681 C   0  0  0  0  0  0  0  0  0  0  0  0
    3.5920    3.2310    2.5650 O   0  0  0  0  0  0  0  0  0  0  0  0
    5.4925    2.9288    1.3085 N   0  0  0  0  0  0  0  0  0  0  0  0
    2.0949    0.6178   -1.6227 H   0  0  0  0  0  0  0  0  0  0  0  0
    2.1948   -0.7915    0.2695 H   0  0  0  0  0  0  0  0  0  0  0  0
    1.5335    2.0695    1.1915 H   0  0  0  0  0  0  0  0  0  0  0  0
    2.1645    0.8466    2.2803 H   0  0  0  0  0  0  0  0  0  0  0  0
    3.5544    1.9317   -0.2176 H   0  0  0  0  0  0  0  0  0  0  0  0
    4.2394    0.6765    0.8182 H   0  0  0  0  0  0  0  0  0  0  0  0
    5.9117    2.4113    0.5431 H   0  0  0  0  0  0  0  0  0  0  0  0
    6.0456    3.6360    1.7820 H   0  0  0  0  0  0  0  0  0  0  0  0
   -0.5272   -1.1302    0.0192 N   0  0  0  0  0  0  0  0  0  0  0  0
   -1.8242   -1.6939    0.3172 C   0  0  2  0  0  0  0  0  0  0  0  0
   -2.6952   -0.5881    0.8988 C   0  0  0  0  0  0  0  0  0  0  0  0
   -2.2337    0.4207    1.4284 O   0  0  0  0  0  0  0  0  0  0  0  0
   -1.7109   -2.8620    1.2843 C   0  0  0  0  0  0  0  0  0  0  0  0
   -0.1235   -1.3061   -0.8961 H   0  0  0  0  0  0  0  0  0  0  0  0
   -2.2486   -2.0313   -0.6347 H   0  0  0  0  0  0  0  0  0  0  0  0
   -1.2876   -2.5433    2.2438 H   0  0  0  0  0  0  0  0  0  0  0  0
   -2.6912   -3.3060    1.4867 H   0  0  0  0  0  0  0  0  0  0  0  0
   -1.0602   -3.6434    0.8771 H   0  0  0  0  0  0  0  0  0  0  0  0
   -4.0479   -0.8806    0.7956 N   0  0  0  0  0  0  0  0  0  0  0  0
   -5.0769    0.0062    1.2862 C   0  0  0  0  0  0  0  0  0  0  0  0
   -4.3407   -1.7314    0.3243 H   0  0  0  0  0  0  0  0  0  0  0  0
   -5.3390   -0.2707    2.3180 H   0  0  0  0  0  0  0  0  0  0  0  0
   -4.7076    1.0422    1.2673 H   0  0  0  0  0  0  0  0  0  0  0  0
   -5.9681   -0.0771    0.6468 H   0  0  0  0  0  0  0  0  0  0  0  0
  1  3  1  0  0  0  0
  1  7  1  0  0  0  0
  1  2  2  0  0  0  0
 22 23  1  0  0  0  0
 23 25  1  0  0  0  0
 23 24  2  0  0  0  0
 35 36  1  0  0  0  0
 36 44  1  0  0  0  0
 36 37  2  0  0  0  0
  8  9  1  0  0  0  0
  9 17  1  0  0  0  0
  9 10  2  0  0  0  0
 18 19  1  0  0  0  0
 19 34  1  0  0  0  0
 19 20  2  0  0  0  0
 35 38  1  0  0  0  0
  8 11  1  0  0  0  0
 44 45  1  0  0  0  0
 21 22  1  0  0  0  0
 18 21  1  0  0  0  0
 34 35  1  0  0  0  0
  7  8  1  0  0  0  0
 17 18  1  0  0  0  0
  3  4  1  0  0  0  0
  3  5  1  0  0  0  0
  3  6  1  0  0  0  0
 38 41  1  0  0  0  0
 38 42  1  0  0  0  0
 38 43  1  0  0  0  0
 11 14  1  0  0  0  0
 11 15  1  0  0  0  0
 11 16  1  0  0  0  0
 45 47  1  0  0  0  0
 45 48  1  0  0  0  0
 45 49  1  0  0  0  0
 22 30  1  0  0  0  0
 22 31  1  0  0  0  0
 21 28  1  0  0  0  0
 21 29  1  0  0  0  0
 35 40  1  0  0  0  0
  8 13  1  0  0  0  0
 18 27  1  0  0  0  0
 25 32  1  0  0  0  0
 25 33  1  0  0  0  0
 44 46  1  0  0  0  0
  7 12  1  0  0  0  0
 34 39  1  0  0  0  0
 17 26  1  0  0  0  0
M  END
$$$$

  -OEChem-05262214473D

 49 48  0     1  0  0  0  0  0999 V2000
   -1.9833   -0.0509   -3.3423 C   0  0  0  0  0  0  0  0  0  0  0  0
   -1.6199   -1.0613   -2.7518 O   0  0  0  0  0  0  0  0  0  0  0  0
   -3.3243   -0.0235   -3.9975 C   0  0  0  0  0  0  0  0  0  0  0  0
   -3.2886   -0.3689   -5.0432 H   0  0  0  0  0  0  0  0  0  0  0  0
   -4.0503   -0.6845   -3.4973 H   0  0  0  0  0  0  0  0  0  0  0  0
   -3.8104    0.9645   -4.0351 H   0  0  0  0  0  0  0  0  0  0  0  0
   -1.2607    1.1231   -3.4768 N   0  0  0  0  0  0  0  0  0  0  0  0
    0.0536    1.3115   -2.9213 C   0  0  2  0  0  0  0  0  0  0  0  0
    0.0266    0.8315   -1.4761 C   0  0  0  0  0  0  0  0  0  0  0  0
   -1.0065    0.7530   -0.8146 O   0  0  0  0  0  0  0  0  0  0  0  0
    0.4852    2.7674   -3.0025 C   0  0  0  0  0  0  0  0  0  0  0  0
   -1.6809    1.8924   -3.9952 H   0  0  0  0  0  0  0  0  0  0  0  0
    0.7360    0.6822   -3.5030 H   0  0  0  0  0  0  0  0  0  0  0  0
   -0.1867    3.4133   -2.4256 H   0  0  0  0  0  0  0  0  0  0  0  0
    1.4966    2.9042   -2.6056 H   0  0  0  0  0  0  0  0  0  0  0  0
    0.4754    3.1196   -4.0397 H   0  0  0  0  0  0  0  0  0  0  0  0
    1.2978    0.5411   -0.9947 N   0  0  0  0  0  0  0  0  0  0  0  0
    1.5371    0.0807    0.3489 C   0  0  2  0  0  0  0  0  0  0  0  0
    0.1945   -0.3605    0.9210 C   0  0  0  0  0  0  0  0  0  0  0  0
   -0.2854    0.1180    1.9465 O   0  0  0  0  0  0  0  0  0  0  0  0
    2.1611    1.1691    1.2314 C   0  0  0  0  0  0  0  0  0  0  0  0
    3.5814    1.5526    0.8115 C   0  0  0  0  0  0  0  0  0  0  0  0
    4.1921    2.6462    1.6681 C   0  0  0  0  0  0  0  0  0  0  0  0
    3.5920    3.2310    2.5650 O   0  0  0  0  0  0  0  0  0  0  0  0
    5.4925    2.9288    1.3085 N   0  0  0  0  0  0  0  0  0  0  0  0
    2.0949    0.6178   -1.6227 H   0  0  0  0  0  0  0  0  0  0  0  0
    2.1948   -0.7915    0.2695 H   0  0  0  0  0  0  0  0  0  0  0  0
    1.5335    2.0695    1.1915 H   0  0  0  0  0  0  0  0  0  0  0  0
    2.1645    0.8466    2.2803 H   0  0  0  0  0  0  0  0  0  0  0  0
    3.5544    1.9317   -0.2176 H   0  0  0  0  0  0  0  0  0  0  0  0
    4.2394    0.6765    0.8182 H   0  0  0  0  0  0  0  0  0  0  0  0
    5.9117    2.4113    0.5431 H   0  0  0  0  0  0  0  0  0  0  0  0
    6.0456    3.6360    1.7820 H   0  0  0  0  0  0  0  0  0  0  0  0
   -0.3759   -1.3847    0.1779 N   0  0  0  0  0  0  0  0  0  0  0  0
   -1.6388   -2.0012    0.5152 C   0  0  2  0  0  0  0  0  0  0  0  0
   -2.6510   -0.8917    0.7683 C   0  0  0  0  0  0  0  0  0  0  0  0
   -2.3279    0.2531    1.0781 O   0  0  0  0  0  0  0  0  0  0  0  0
   -1.5064   -2.9041    1.7317 C   0  0  0  0  0  0  0  0  0  0  0  0
    0.1191   -1.7177   -0.6441 H   0  0  0  0  0  0  0  0  0  0  0  0
   -1.9482   -2.5864   -0.3576 H   0  0  0  0  0  0  0  0  0  0  0  0
   -1.1972   -2.3353    2.6163 H   0  0  0  0  0  0  0  0  0  0  0  0
   -2.4574   -3.3925    1.9687 H   0  0  0  0  0  0  0  0  0  0  0  0
   -0.7565   -3.6835    1.5589 H   0  0  0  0  0  0  0  0  0  0  0  0
   -3.9587   -1.3413    0.6497 N   0  0  0  0  0  0  0  0  0  0  0  0
   -5.1005   -0.4810    0.8551 C   0  0  0  0  0  0  0  0  0  0  0  0
   -4.1334   -2.3022    0.3706 H   0  0  0  0  0  0  0  0  0  0  0  0
   -5.4249   -0.5456    1.9042 H   0  0  0  0  0  0  0  0  0  0  0  0
   -4.8240    0.5574    0.6202 H   0  0  0  0  0  0  0  0  0  0  0  0
   -5.9224   -0.7994    0.1970 H   0  0  0  0  0  0  0  0  0  0  0  0
  1  3  1  0  0  0  0
  1  7  1  0  0  0  0
  1  2  2  0  0  0  0
 22 23  1  0  0  0  0
 23 25  1  0  0  0  0
 23 24  2  0  0  0  0
 35 36  1  0  0  0  0
 36 44  1  0  0  0  0
 36 37  2  0  0  0  0
  8  9  1  0  0  0  0
  9 17  1  0  0  0  0
  9 10  2  0  0  0  0
 18 19  1  0  0  0  0
 19 34  1  0  0  0  0
 19 20  2  0  0  0  0
 35 38  1  0  0  0  0
  8 11  1  0  0  0  0
 44 45  1  0  0  0  0
 21 22  1  0  0  0  0
 18 21  1  0  0  0  0
 34 35  1  0  0  0  0
  7  8  1  0  0  0  0
 17 18  1  0  0  0  0
  3  4  1  0  0  0  0
  3  5  1  0  0  0  0
  3  6  1  0  0  0  0
 38 41  1  0  0  0  0
 38 42  1  0  0  0  0
 38 43  1  0  0  0  0
 11 14  1  0  0  0  0
 11 15  1  0  0  0  0
 11 16  1  0  0  0  0
 45 47  1  0  0  0  0
 45 48  1  0  0  0  0
 45 49  1  0  0  0  0
 22 30  1  0  0  0  0
 22 31  1  0  0  0  0
 21 28  1  0  0  0  0
 21 29  1  0  0  0  0
 35 40  1  0  0  0  0
  8 13  1  0  0  0  0
 18 27  1  0  0  0  0
 25 32  1  0  0  0  0
 25 33  1  0  0  0  0
 44 46  1  0  0  0  0
  7 12  1  0  0  0  0
 34 39  1  0  0  0  0
 17 26  1  0  0  0  0
M  END
$$$$

  -OEChem-05262214473D

 49 48  0     1  0  0  0  0  0999 V2000
   -1.9833   -0.0509   -3.3423 C   0  0  0  0  0  0  0  0  0  0  0  0
   -1.6199   -1.0613   -2.7518 O   0  0  0  0  0  0  0  0  0  0  0  0
   -3.3243   -0.0235   -3.9975 C   0  0  0  0  0  0  0  0  0  0  0  0
   -3.2886   -0.3689   -5.0432 H   0  0  0  0  0  0  0  0  0  0  0  0
   -4.0503   -0.6845   -3.4973 H   0  0  0  0  0  0  0  0  0  0  0  0
   -3.8104    0.9645   -4.0351 H   0  0  0  0  0  0  0  0  0  0  0  0
   -1.2607    1.1231   -3.4768 N   0  0  0  0  0  0  0  0  0  0  0  0
    0.0536    1.3115   -2.9213 C   0  0  2  0  0  0  0  0  0  0  0  0
    0.0266    0.8315   -1.4761 C   0  0  0  0  0  0  0  0  0  0  0  0
   -1.0065    0.7530   -0.8146 O   0  0  0  0  0  0  0  0  0  0  0  0
    0.4852    2.7674   -3.0025 C   0  0  0  0  0  0  0  0  0  0  0  0
   -1.6809    1.8924   -3.9952 H   0  0  0  0  0  0  0  0  0  0  0  0
    0.7360    0.6822   -3.5030 H   0  0  0  0  0  0  0  0  0  0  0  0
   -0.1867    3.4133   -2.4256 H   0  0  0  0  0  0  0  0  0  0  0  0
    1.4966    2.9042   -2.6056 H   0  0  0  0  0  0  0  0  0  0  0  0
    0.4754    3.1196   -4.0397 H   0  0  0  0  0  0  0  0  0  0  0  0
    1.2978    0.5411   -0.9947 N   0  0  0  0  0  0  0  0  0  0  0  0
    1.5371    0.0807    0.3489 C   0  0  2  0  0  0  0  0  0  0  0  0
    0.1945   -0.3605    0.9210 C   0  0  0  0  0  0  0  0  0  0  0  0
   -0.4124    0.2822    1.7751 O   0  0  0  0  0  0  0  0  0  0  0  0
    2.1611    1.1691    1.2314 C   0  0  0  0  0  0  0  0  0  0  0  0
    3.5814    1.5526    0.8115 C   0  0  0  0  0  0  0  0  0  0  0  0
    4.1921    2.6462    1.6681 C   0  0  0  0  0  0  0  0  0  0  0  0
    3.5920    3.2310    2.5650 O   0  0  0  0  0  0  0  0  0  0  0  0
    5.4925    2.9288    1.3085 N   0  0  0  0  0  0  0  0  0  0  0  0
    2.0949    0.6178   -1.6227 H   0  0  0  0  0  0  0  0  0  0  0  0
    2.1948   -0.7915    0.2695 H   0  0  0  0  0  0  0  0  0  0  0  0
    1.5335    2.0695    1.1915 H   0  0  0  0  0  0  0  0  0  0  0  0
    2.1645    0.8466    2.2803 H   0  0  0  0  0  0  0  0  0  0  0  0
    3.5544    1.9317   -0.2176 H   0  0  0  0  0  0  0  0  0  0  0  0
    4.2394    0.6765    0.8182 H   0  0  0  0  0  0  0  0  0  0  0  0
    5.9117    2.4113    0.5431 H   0  0  0  0  0  0  0  0  0  0  0  0
    6.0456    3.6360    1.7820 H   0  0  0  0  0  0  0  0  0  0  0  0
   -0.2170   -1.5797    0.4006 N   0  0  0  0  0  0  0  0  0  0  0  0
   -1.4448   -2.2349    0.7904 C   0  0  2  0  0  0  0  0  0  0  0  0
   -2.5691   -1.2104    0.7147 C   0  0  0  0  0  0  0  0  0  0  0  0
   -2.3765    0.0023    0.7708 O   0  0  0  0  0  0  0  0  0  0  0  0
   -1.3384   -2.8228    2.1889 C   0  0  0  0  0  0  0  0  0  0  0  0
    0.3745   -2.0342   -0.2888 H   0  0  0  0  0  0  0  0  0  0  0  0
   -1.6248   -3.0303    0.0590 H   0  0  0  0  0  0  0  0  0  0  0  0
   -1.1580   -2.0408    2.9355 H   0  0  0  0  0  0  0  0  0  0  0  0
   -2.2593   -3.3435    2.4715 H   0  0  0  0  0  0  0  0  0  0  0  0
   -0.5103   -3.5373    2.2493 H   0  0  0  0  0  0  0  0  0  0  0  0
   -3.8168   -1.8109    0.6205 N   0  0  0  0  0  0  0  0  0  0  0  0
   -5.0437   -1.0522    0.5479 C   0  0  0  0  0  0  0  0  0  0  0  0
   -3.8811   -2.8228    0.5610 H   0  0  0  0  0  0  0  0  0  0  0  0
   -5.4503   -0.9139    1.5606 H   0  0  0  0  0  0  0  0  0  0  0  0
   -4.8409   -0.0696    0.0970 H   0  0  0  0  0  0  0  0  0  0  0  0
   -5.7744   -1.5952   -0.0695 H   0  0  0  0  0  0  0  0  0  0  0  0
  1  3  1  0  0  0  0
  1  7  1  0  0  0  0
  1  2  2  0  0  0  0
 22 23  1  0  0  0  0
 23 25  1  0  0  0  0
 23 24  2  0  0  0  0
 35 36  1  0  0  0  0
 36 44  1  0  0  0  0
 36 37  2  0  0  0  0
  8  9  1  0  0  0  0
  9 17  1  0  0  0  0
  9 10  2  0  0  0  0
 18 19  1  0  0  0  0
 19 34  1  0  0  0  0
 19 20  2  0  0  0  0
 35 38  1  0  0  0  0
  8 11  1  0  0  0  0
 44 45  1  0  0  0  0
 21 22  1  0  0  0  0
 18 21  1  0  0  0  0
 34 35  1  0  0  0  0
  7  8  1  0  0  0  0
 17 18  1  0  0  0  0
  3  4  1  0  0  0  0
  3  5  1  0  0  0  0
  3  6  1  0  0  0  0
 38 41  1  0  0  0  0
 38 42  1  0  0  0  0
 38 43  1  0  0  0  0
 11 14  1  0  0  0  0
 11 15  1  0  0  0  0
 11 16  1  0  0  0  0
 45 47  1  0  0  0  0
 45 48  1  0  0  0  0
 45 49  1  0  0  0  0
 22 30  1  0  0  0  0
 22 31  1  0  0  0  0
 21 28  1  0  0  0  0
 21 29  1  0  0  0  0
 35 40  1  0  0  0  0
  8 13  1  0  0  0  0
 18 27  1  0  0  0  0
 25 32  1  0  0  0  0
 25 33  1  0  0  0  0
 44 46  1  0  0  0  0
  7 12  1  0  0  0  0
 34 39  1  0  0  0  0
 17 26  1  0  0  0  0
M  END
$$$$

  -OEChem-05262214473D

 49 48  0     1  0  0  0  0  0999 V2000
   -1.9833   -0.0509   -3.3423 C   0  0  0  0  0  0  0  0  0  0  0  0
   -1.6199   -1.0613   -2.7518 O   0  0  0  0  0  0  0  0  0  0  0  0
   -3.3243   -0.0235   -3.9975 C   0  0  0  0  0  0  0  0  0  0  0  0
   -3.2886   -0.3689   -5.0432 H   0  0  0  0  0  0  0  0  0  0  0  0
   -4.0503   -0.6845   -3.4973 H   0  0  0  0  0  0  0  0  0  0  0  0
   -3.8104    0.9645   -4.0351 H   0  0  0  0  0  0  0  0  0  0  0  0
   -1.2607    1.1231   -3.4768 N   0  0  0  0  0  0  0  0  0  0  0  0
    0.0536    1.3115   -2.9213 C   0  0  2  0  0  0  0  0  0  0  0  0
    0.0266    0.8315   -1.4761 C   0  0  0  0  0  0  0  0  0  0  0  0
   -1.0065    0.7530   -0.8146 O   0  0  0  0  0  0  0  0  0  0  0  0
    0.4852    2.7674   -3.0025 C   0  0  0  0  0  0  0  0  0  0  0  0
   -1.6809    1.8924   -3.9952 H   0  0  0  0  0  0  0  0  0  0  0  0
    0.7360    0.6822   -3.5030 H   0  0  0  0  0  0  0  0  0  0  0  0
   -0.1867    3.4133   -2.4256 H   0  0  0  0  0  0  0  0  0  0  0  0
    1.4966    2.9042   -2.6056 H   0  0  0  0  0  0  0  0  0  0  0  0
    0.4754    3.1196   -4.0397 H   0  0  0  0  0  0  0  0  0  0  0  0
    1.2978    0.5411   -0.9947 N   0  0  0  0  0  0  0  0  0  0  0  0
    1.5371    0.0807    0.3489 C   0  0  2  0  0  0  0  0  0  0  0  0
    0.1945   -0.3605    0.9210 C   0  0  0  0  0  0  0  0  0  0  0  0
   -0.5382    0.3895    1.5626 O   0  0  0  0  0  0  0  0  0  0  0  0
    2.1611    1.1691    1.2314 C   0  0  0  0  0  0  0  0  0  0  0  0
    3.5814    1.5526    0.8115 C   0  0  0  0  0  0  0  0  0  0  0  0
    4.1921    2.6462    1.6681 C   0  0  0  0  0  0  0  0  0  0  0  0
    3.5920    3.2310    2.5650 O   0  0  0  0  0  0  0  0  0  0  0  0
    5.4925    2.9288    1.3085 N   0  0  0  0  0  0  0  0  0  0  0  0
    2.0949    0.6178   -1.6227 H   0  0  0  0  0  0  0  0  0  0  0  0
    2.1948   -0.7915    0.2695 H   0  0  0  0  0  0  0  0  0  0  0  0
    1.5335    2.0695    1.1915 H   0  0  0  0  0  0  0  0  0  0  0  0
    2.1645    0.8466    2.2803 H   0  0  0  0  0  0  0  0  0  0  0  0
    3.5544    1.9317   -0.2176 H   0  0  0  0  0  0  0  0  0  0  0  0
    4.2394    0.6765    0.8182 H   0  0  0  0  0  0  0  0  0  0  0  0
    5.9117    2.4113    0.5431 H   0  0  0  0  0  0  0  0  0  0  0  0
    6.0456    3.6360    1.7820 H   0  0  0  0  0  0  0  0  0  0  0  0
   -0.0612   -1.7018    0.6720 N   0  0  0  0  0  0  0  0  0  0  0  0
   -1.2552   -2.3791    1.1240 C   0  0  2  0  0  0  0  0  0  0  0  0
   -2.4550   -1.5225    0.7417 C   0  0  0  0  0  0  0  0  0  0  0  0
   -2.3759   -0.3147    0.5275 O   0  0  0  0  0  0  0  0  0  0  0  0
   -1.2181   -2.6238    2.6245 C   0  0  0  0  0  0  0  0  0  0  0  0
    0.6254   -2.2341    0.1458 H   0  0  0  0  0  0  0  0  0  0  0  0
   -1.3005   -3.3327    0.5868 H   0  0  0  0  0  0  0  0  0  0  0  0
   -1.1726   -1.6798    3.1796 H   0  0  0  0  0  0  0  0  0  0  0  0
   -2.1103   -3.1623    2.9609 H   0  0  0  0  0  0  0  0  0  0  0  0
   -0.3385   -3.2149    2.9014 H   0  0  0  0  0  0  0  0  0  0  0  0
   -3.6320   -2.2574    0.7099 N   0  0  0  0  0  0  0  0  0  0  0  0
   -4.9103   -1.6685    0.3857 C   0  0  0  0  0  0  0  0  0  0  0  0
   -3.6012   -3.2579    0.8825 H   0  0  0  0  0  0  0  0  0  0  0  0
   -5.4133   -1.3504    1.3108 H   0  0  0  0  0  0  0  0  0  0  0  0
   -4.7571   -0.7961   -0.2667 H   0  0  0  0  0  0  0  0  0  0  0  0
   -5.5342   -2.4102   -0.1344 H   0  0  0  0  0  0  0  0  0  0  0  0
  1  3  1  0  0  0  0
  1  7  1  0  0  0  0
  1  2  2  0  0  0  0
 22 23  1  0  0  0  0
 23 25  1  0  0  0  0
 23 24  2  0  0  0  0
 35 36  1  0  0  0  0
 36 44  1  0  0  0  0
 36 37  2  0  0  0  0
  8  9  1  0  0  0  0
  9 17  1  0  0  0  0
  9 10  2  0  0  0  0
 18 19  1  0  0  0  0
 19 34  1  0  0  0  0
 19 20  2  0  0  0  0
 35 38  1  0  0  0  0
  8 11  1  0  0  0  0
 44 45  1  0  0  0  0
 21 22  1  0  0  0  0
 18 21  1  0  0  0  0
 34 35  1  0  0  0  0
  7  8  1  0  0  0  0
 17 18  1  0  0  0  0
  3  4  1  0  0  0  0
  3  5  1  0  0  0  0
  3  6  1  0  0  0  0
 38 41  1  0  0  0  0
 38 42  1  0  0  0  0
 38 43  1  0  0  0  0
 11 14  1  0  0  0  0
 11 15  1  0  0  0  0
 11 16  1  0  0  0  0
 45 47  1  0  0  0  0
 45 48  1  0  0  0  0
 45 49  1  0  0  0  0
 22 30  1  0  0  0  0
 22 31  1  0  0  0  0
 21 28  1  0  0  0  0
 21 29  1  0  0  0  0
 35 40  1  0  0  0  0
  8 13  1  0  0  0  0
 18 27  1  0  0  0  0
 25 32  1  0  0  0  0
 25 33  1  0  0  0  0
 44 46  1  0  0  0  0
  7 12  1  0  0  0  0
 34 39  1  0  0  0  0
 17 26  1  0  0  0  0
M  END
$$$$

  -OEChem-05262214473D

 49 48  0     1  0  0  0  0  0999 V2000
   -1.9833   -0.0509   -3.3423 C   0  0  0  0  0  0  0  0  0  0  0  0
   -1.6199   -1.0613   -2.7518 O   0  0  0  0  0  0  0  0  0  0  0  0
   -3.3243   -0.0235   -3.9975 C   0  0  0  0  0  0  0  0  0  0  0  0
   -3.2886   -0.3689   -5.0432 H   0  0  0  0  0  0  0  0  0  0  0  0
   -4.0503   -0.6845   -3.4973 H   0  0  0  0  0  0  0  0  0  0  0  0
   -3.8104    0.9645   -4.0351 H   0  0  0  0  0  0  0  0  0  0  0  0
   -1.2607    1.1231   -3.4768 N   0  0  0  0  0  0  0  0  0  0  0  0
    0.0536    1.3115   -2.9213 C   0  0  2  0  0  0  0  0  0  0  0  0
    0.0266    0.8315   -1.4761 C   0  0  0  0  0  0  0  0  0  0  0  0
   -1.0065    0.7530   -0.8146 O   0  0  0  0  0  0  0  0  0  0  0  0
    0.4852    2.7674   -3.0025 C   0  0  0  0  0  0  0  0  0  0  0  0
   -1.6809    1.8924   -3.9952 H   0  0  0  0  0  0  0  0  0  0  0  0
    0.7360    0.6822   -3.5030 H   0  0  0  0  0  0  0  0  0  0  0  0
   -0.1867    3.4133   -2.4256 H   0  0  0  0  0  0  0  0  0  0  0  0
    1.4966    2.9042   -2.6056 H   0  0  0  0  0  0  0  0  0  0  0  0
    0.4754    3.1196   -4.0397 H   0  0  0  0  0  0  0  0  0  0  0  0
    1.2978    0.5411   -0.9947 N   0  0  0  0  0  0  0  0  0  0  0  0
    1.5371    0.0807    0.3489 C   0  0  2  0  0  0  0  0  0  0  0  0
    0.1945   -0.3605    0.9210 C   0  0  0  0  0  0  0  0  0  0  0  0
   -0.6541    0.4324    1.3234 O   0  0  0  0  0  0  0  0  0  0  0  0
    2.1611    1.1691    1.2314 C   0  0  0  0  0  0  0  0  0  0  0  0
    3.5814    1.5526    0.8115 C   0  0  0  0  0  0  0  0  0  0  0  0
    4.1921    2.6462    1.6681 C   0  0  0  0  0  0  0  0  0  0  0  0
    3.5920    3.2310    2.5650 O   0  0  0  0  0  0  0  0  0  0  0  0
    5.4925    2.9288    1.3085 N   0  0  0  0  0  0  0  0  0  0  0  0
    2.0949    0.6178   -1.6227 H   0  0  0  0  0  0  0  0  0  0  0  0
    2.1948   -0.7915    0.2695 H   0  0  0  0  0  0  0  0  0  0  0  0
    1.5335    2.0695    1.1915 H   0  0  0  0  0  0  0  0  0  0  0  0
    2.1645    0.8466    2.2803 H   0  0  0  0  0  0  0  0  0  0  0  0
    3.5544    1.9317   -0.2176 H   0  0  0  0  0  0  0  0  0  0  0  0
    4.2394    0.6765    0.8182 H   0  0  0  0  0  0  0  0  0  0  0  0
    5.9117    2.4113    0.5431 H   0  0  0  0  0  0  0  0  0  0  0  0
    6.0456    3.6360    1.7820 H   0  0  0  0  0  0  0  0  0  0  0  0
    0.0808   -1.7428    0.9737 N   0  0  0  0  0  0  0  0  0  0  0  0
   -1.0831   -2.4239    1.4933 C   0  0  2  0  0  0  0  0  0  0  0  0
   -2.3166   -1.8068    0.8474 C   0  0  0  0  0  0  0  0  0  0  0  0
   -2.3264   -0.6763    0.3648 O   0  0  0  0  0  0  0  0  0  0  0  0
   -1.1540   -2.3207    3.0089 C   0  0  0  0  0  0  0  0  0  0  0  0
    0.8545   -2.3039    0.6298 H   0  0  0  0  0  0  0  0  0  0  0  0
   -0.9974   -3.4730    1.1898 H   0  0  0  0  0  0  0  0  0  0  0  0
   -1.2401   -1.2768    3.3320 H   0  0  0  0  0  0  0  0  0  0  0  0
   -2.0207   -2.8613    3.4034 H   0  0  0  0  0  0  0  0  0  0  0  0
   -0.2526   -2.7381    3.4706 H   0  0  0  0  0  0  0  0  0  0  0  0
   -3.4168   -2.6503    0.9119 N   0  0  0  0  0  0  0  0  0  0  0  0
   -4.7094   -2.2877    0.3794 C   0  0  0  0  0  0  0  0  0  0  0  0
   -3.3126   -3.5776    1.3131 H   0  0  0  0  0  0  0  0  0  0  0  0
   -5.3164   -1.8254    1.1718 H   0  0  0  0  0  0  0  0  0  0  0  0
   -4.5783   -1.5727   -0.4462 H   0  0  0  0  0  0  0  0  0  0  0  0
   -5.2182   -3.1889    0.0066 H   0  0  0  0  0  0  0  0  0  0  0  0
  1  3  1  0  0  0  0
  1  7  1  0  0  0  0
  1  2  2  0  0  0  0
 22 23  1  0  0  0  0
 23 25  1  0  0  0  0
 23 24  2  0  0  0  0
 35 36  1  0  0  0  0
 36 44  1  0  0  0  0
 36 37  2  0  0  0  0
  8  9  1  0  0  0  0
  9 17  1  0  0  0  0
  9 10  2  0  0  0  0
 18 19  1  0  0  0  0
 19 34  1  0  0  0  0
 19 20  2  0  0  0  0
 35 38  1  0  0  0  0
  8 11  1  0  0  0  0
 44 45  1  0  0  0  0
 21 22  1  0  0  0  0
 18 21  1  0  0  0  0
 34 35  1  0  0  0  0
  7  8  1  0  0  0  0
 17 18  1  0  0  0  0
  3  4  1  0  0  0  0
  3  5  1  0  0  0  0
  3  6  1  0  0  0  0
 38 41  1  0  0  0  0
 38 42  1  0  0  0  0
 38 43  1  0  0  0  0
 11 14  1  0  0  0  0
 11 15  1  0  0  0  0
 11 16  1  0  0  0  0
 45 47  1  0  0  0  0
 45 48  1  0  0  0  0
 45 49  1  0  0  0  0
 22 30  1  0  0  0  0
 22 31  1  0  0  0  0
 21 28  1  0  0  0  0
 21 29  1  0  0  0  0
 35 40  1  0  0  0  0
  8 13  1  0  0  0  0
 18 27  1  0  0  0  0
 25 32  1  0  0  0  0
 25 33  1  0  0  0  0
 44 46  1  0  0  0  0
  7 12  1  0  0  0  0
 34 39  1  0  0  0  0
 17 26  1  0  0  0  0
M  END
$$$$

  -OEChem-05262214473D

 49 48  0     1  0  0  0  0  0999 V2000
   -1.9833   -0.0509   -3.3423 C   0  0  0  0  0  0  0  0  0  0  0  0
   -1.6199   -1.0613   -2.7518 O   0  0  0  0  0  0  0  0  0  0  0  0
   -3.3243   -0.0235   -3.9975 C   0  0  0  0  0  0  0  0  0  0  0  0
   -3.2886   -0.3689   -5.0432 H   0  0  0  0  0  0  0  0  0  0  0  0
   -4.0503   -0.6845   -3.4973 H   0  0  0  0  0  0  0  0  0  0  0  0
   -3.8104    0.9645   -4.0351 H   0  0  0  0  0  0  0  0  0  0  0  0
   -1.2607    1.1231   -3.4768 N   0  0  0  0  0  0  0  0  0  0  0  0
    0.0536    1.3115   -2.9213 C   0  0  2  0  0  0  0  0  0  0  0  0
    0.0266    0.8315   -1.4761 C   0  0  0  0  0  0  0  0  0  0  0  0
   -1.0065    0.7530   -0.8146 O   0  0  0  0  0  0  0  0  0  0  0  0
    0.4852    2.7674   -3.0025 C   0  0  0  0  0  0  0  0  0  0  0  0
   -1.6809    1.8924   -3.9952 H   0  0  0  0  0  0  0  0  0  0  0  0
    0.7360    0.6822   -3.5030 H   0  0  0  0  0  0  0  0  0  0  0  0
   -0.1867    3.4133   -2.4256 H   0  0  0  0  0  0  0  0  0  0  0  0
    1.4966    2.9042   -2.6056 H   0  0  0  0  0  0  0  0  0  0  0  0
    0.4754    3.1196   -4.0397 H   0  0  0  0  0  0  0  0  0  0  0  0
    1.2978    0.5411   -0.9947 N   0  0  0  0  0  0  0  0  0  0  0  0
    1.5371    0.0807    0.3489 C   0  0  2  0  0  0  0  0  0  0  0  0
    0.1945   -0.3605    0.9210 C   0  0  0  0  0  0  0  0  0  0  0  0
   -0.7525    0.4081    1.0740 O   0  0  0  0  0  0  0  0  0  0  0  0
    2.1611    1.1691    1.2314 C   0  0  0  0  0  0  0  0  0  0  0  0
    3.5814    1.5526    0.8115 C   0  0  0  0  0  0  0  0  0  0  0  0
    4.1921    2.6462    1.6681 C   0  0  0  0  0  0  0  0  0  0  0  0
    3.5920    3.2310    2.5650 O   0  0  0  0  0  0  0  0  0  0  0  0
    5.4925    2.9288    1.3085 N   0  0  0  0  0  0  0  0  0  0  0  0
    2.0949    0.6178   -1.6227 H   0  0  0  0  0  0  0  0  0  0  0  0
    2.1948   -0.7915    0.2695 H   0  0  0  0  0  0  0  0  0  0  0  0
    1.5335    2.0695    1.1915 H   0  0  0  0  0  0  0  0  0  0  0  0
    2.1645    0.8466    2.2803 H   0  0  0  0  0  0  0  0  0  0  0  0
    3.5544    1.9317   -0.2176 H   0  0  0  0  0  0  0  0  0  0  0  0
    4.2394    0.6765    0.8182 H   0  0  0  0  0  0  0  0  0  0  0  0
    5.9117    2.4113    0.5431 H   0  0  0  0  0  0  0  0  0  0  0  0
    6.0456    3.6360    1.7820 H   0  0  0  0  0  0  0  0  0  0  0  0
    0.1994   -1.6999    1.2851 N   0  0  0  0  0  0  0  0  0  0  0  0
   -0.9402   -2.3664    1.8732 C   0  0  2  0  0  0  0  0  0  0  0  0
   -2.1631   -2.0438    1.0248 C   0  0  0  0  0  0  0  0  0  0  0  0
   -2.2313   -1.0578    0.2938 O   0  0  0  0  0  0  0  0  0  0  0  0
   -1.1502   -1.9340    3.3160 C   0  0  0  0  0  0  0  0  0  0  0  0
    1.0464   -2.2387    1.1305 H   0  0  0  0  0  0  0  0  0  0  0  0
   -0.7363   -3.4417    1.8270 H   0  0  0  0  0  0  0  0  0  0  0  0
   -1.3558   -0.8594    3.3823 H   0  0  0  0  0  0  0  0  0  0  0  0
   -1.9965   -2.4610    3.7689 H   0  0  0  0  0  0  0  0  0  0  0  0
   -0.2586   -2.1396    3.9182 H   0  0  0  0  0  0  0  0  0  0  0  0
   -3.1859   -2.9629    1.2127 N   0  0  0  0  0  0  0  0  0  0  0  0
   -4.4548   -2.8678    0.5295 C   0  0  0  0  0  0  0  0  0  0  0  0
   -3.0351   -3.7603    1.8235 H   0  0  0  0  0  0  0  0  0  0  0  0
   -5.1663   -2.3065    1.1530 H   0  0  0  0  0  0  0  0  0  0  0  0
   -4.3168   -2.3463   -0.4292 H   0  0  0  0  0  0  0  0  0  0  0  0
   -4.8479   -3.8783    0.3440 H   0  0  0  0  0  0  0  0  0  0  0  0
  1  3  1  0  0  0  0
  1  7  1  0  0  0  0
  1  2  2  0  0  0  0
 22 23  1  0  0  0  0
 23 25  1  0  0  0  0
 23 24  2  0  0  0  0
 35 36  1  0  0  0  0
 36 44  1  0  0  0  0
 36 37  2  0  0  0  0
  8  9  1  0  0  0  0
  9 17  1  0  0  0  0
  9 10  2  0  0  0  0
 18 19  1  0  0  0  0
 19 34  1  0  0  0  0
 19 20  2  0  0  0  0
 35 38  1  0  0  0  0
  8 11  1  0  0  0  0
 44 45  1  0  0  0  0
 21 22  1  0  0  0  0
 18 21  1  0  0  0  0
 34 35  1  0  0  0  0
  7  8  1  0  0  0  0
 17 18  1  0  0  0  0
  3  4  1  0  0  0  0
  3  5  1  0  0  0  0
  3  6  1  0  0  0  0
 38 41  1  0  0  0  0
 38 42  1  0  0  0  0
 38 43  1  0  0  0  0
 11 14  1  0  0  0  0
 11 15  1  0  0  0  0
 11 16  1  0  0  0  0
 45 47  1  0  0  0  0
 45 48  1  0  0  0  0
 45 49  1  0  0  0  0
 22 30  1  0  0  0  0
 22 31  1  0  0  0  0
 21 28  1  0  0  0  0
 21 29  1  0  0  0  0
 35 40  1  0  0  0  0
  8 13  1  0  0  0  0
 18 27  1  0  0  0  0
 25 32  1  0  0  0  0
 25 33  1  0  0  0  0
 44 46  1  0  0  0  0
  7 12  1  0  0  0  0
 34 39  1  0  0  0  0
 17 26  1  0  0  0  0
M  END
$$$$

  -OEChem-05262214473D

 49 48  0     1  0  0  0  0  0999 V2000
   -1.9833   -0.0509   -3.3423 C   0  0  0  0  0  0  0  0  0  0  0  0
   -1.6199   -1.0613   -2.7518 O   0  0  0  0  0  0  0  0  0  0  0  0
   -3.3243   -0.0235   -3.9975 C   0  0  0  0  0  0  0  0  0  0  0  0
   -3.2886   -0.3689   -5.0432 H   0  0  0  0  0  0  0  0  0  0  0  0
   -4.0503   -0.6845   -3.4973 H   0  0  0  0  0  0  0  0  0  0  0  0
   -3.8104    0.9645   -4.0351 H   0  0  0  0  0  0  0  0  0  0  0  0
   -1.2607    1.1231   -3.4768 N   0  0  0  0  0  0  0  0  0  0  0  0
    0.0536    1.3115   -2.9213 C   0  0  2  0  0  0  0  0  0  0  0  0
    0.0266    0.8315   -1.4761 C   0  0  0  0  0  0  0  0  0  0  0  0
   -1.0065    0.7530   -0.8146 O   0  0  0  0  0  0  0  0  0  0  0  0
    0.4852    2.7674   -3.0025 C   0  0  0  0  0  0  0  0  0  0  0  0
   -1.6809    1.8924   -3.9952 H   0  0  0  0  0  0  0  0  0  0  0  0
    0.7360    0.6822   -3.5030 H   0  0  0  0  0  0  0  0  0  0  0  0
   -0.1867    3.4133   -2.4256 H   0  0  0  0  0  0  0  0  0  0  0  0
    1.4966    2.9042   -2.6056 H   0  0  0  0  0  0  0  0  0  0  0  0
    0.4754    3.1196   -4.0397 H   0  0  0  0  0  0  0  0  0  0  0  0
    1.2978    0.5411   -0.9947 N   0  0  0  0  0  0  0  0  0  0  0  0
    1.5371    0.0807    0.3489 C   0  0  2  0  0  0  0  0  0  0  0  0
    0.1945   -0.3605    0.9210 C   0  0  0  0  0  0  0  0  0  0  0  0
   -0.8264    0.3182    0.8312 O   0  0  0  0  0  0  0  0  0  0  0  0
    2.1611    1.1691    1.2314 C   0  0  0  0  0  0  0  0  0  0  0  0
    3.5814    1.5526    0.8115 C   0  0  0  0  0  0  0  0  0  0  0  0
    4.1921    2.6462    1.6681 C   0  0  0  0  0  0  0  0  0  0  0  0
    3.5920    3.2310    2.5650 O   0  0  0  0  0  0  0  0  0  0  0  0
    5.4925    2.9288    1.3085 N   0  0  0  0  0  0  0  0  0  0  0  0
    2.0949    0.6178   -1.6227 H   0  0  0  0  0  0  0  0  0  0  0  0
    2.1948   -0.7915    0.2695 H   0  0  0  0  0  0  0  0  0  0  0  0
    1.5335    2.0695    1.1915 H   0  0  0  0  0  0  0  0  0  0  0  0
    2.1645    0.8466    2.2803 H   0  0  0  0  0  0  0  0  0  0  0  0
    3.5544    1.9317   -0.2176 H   0  0  0  0  0  0  0  0  0  0  0  0
    4.2394    0.6765    0.8182 H   0  0  0  0  0  0  0  0  0  0  0  0
    5.9117    2.4113    0.5431 H   0  0  0  0  0  0  0  0  0  0  0  0
    6.0456    3.6360    1.7820 H   0  0  0  0  0  0  0  0  0  0  0  0
    0.2864   -1.5759    1.5850 N   0  0  0  0  0  0  0  0  0  0  0  0
   -0.8362   -2.2103    2.2377 C   0  0  2  0  0  0  0  0  0  0  0  0
   -2.0052   -2.2174    1.2615 C   0  0  0  0  0  0  0  0  0  0  0  0
   -2.0970   -1.4333    0.3193 O   0  0  0  0  0  0  0  0  0  0  0  0
   -1.2071   -1.4901    3.5247 C   0  0  0  0  0  0  0  0  0  0  0  0
    1.1879   -2.0429    1.6136 H   0  0  0  0  0  0  0  0  0  0  0  0
   -0.5347   -3.2408    2.4549 H   0  0  0  0  0  0  0  0  0  0  0  0
   -1.5119   -0.4560    3.3271 H   0  0  0  0  0  0  0  0  0  0  0  0
   -2.0394   -1.9886    4.0326 H   0  0  0  0  0  0  0  0  0  0  0  0
   -0.3561   -1.4599    4.2136 H   0  0  0  0  0  0  0  0  0  0  0  0
   -2.9550   -3.1739    1.5917 N   0  0  0  0  0  0  0  0  0  0  0  0
   -4.1638   -3.3692    0.8258 C   0  0  0  0  0  0  0  0  0  0  0  0
   -2.7875   -3.7935    2.3790 H   0  0  0  0  0  0  0  0  0  0  0  0
   -4.9732   -2.7609    1.2557 H   0  0  0  0  0  0  0  0  0  0  0  0
   -3.9904   -3.0643   -0.2168 H   0  0  0  0  0  0  0  0  0  0  0  0
   -4.4485   -4.4313    0.8548 H   0  0  0  0  0  0  0  0  0  0  0  0
  1  3  1  0  0  0  0
  1  7  1  0  0  0  0
  1  2  2  0  0  0  0
 22 23  1  0  0  0  0
 23 25  1  0  0  0  0
 23 24  2  0  0  0  0
 35 36  1  0  0  0  0
 36 44  1  0  0  0  0
 36 37  2  0  0  0  0
  8  9  1  0  0  0  0
  9 17  1  0  0  0  0
  9 10  2  0  0  0  0
 18 19  1  0  0  0  0
 19 34  1  0  0  0  0
 19 20  2  0  0  0  0
 35 38  1  0  0  0  0
  8 11  1  0  0  0  0
 44 45  1  0  0  0  0
 21 22  1  0  0  0  0
 18 21  1  0  0  0  0
 34 35  1  0  0  0  0
  7  8  1  0  0  0  0
 17 18  1  0  0  0  0
  3  4  1  0  0  0  0
  3  5  1  0  0  0  0
  3  6  1  0  0  0  0
 38 41  1  0  0  0  0
 38 42  1  0  0  0  0
 38 43  1  0  0  0  0
 11 14  1  0  0  0  0
 11 15  1  0  0  0  0
 11 16  1  0  0  0  0
 45 47  1  0  0  0  0
 45 48  1  0  0  0  0
 45 49  1  0  0  0  0
 22 30  1  0  0  0  0
 22 31  1  0  0  0  0
 21 28  1  0  0  0  0
 21 29  1  0  0  0  0
 35 40  1  0  0  0  0
  8 13  1  0  0  0  0
 18 27  1  0  0  0  0
 25 32  1  0  0  0  0
 25 33  1  0  0  0  0
 44 46  1  0  0  0  0
  7 12  1  0  0  0  0
 34 39  1  0  0  0  0
 17 26  1  0  0  0  0
M  END
$$$$

  -OEChem-05262214473D

 49 48  0     1  0  0  0  0  0999 V2000
   -1.9833   -0.0509   -3.3423 C   0  0  0  0  0  0  0  0  0  0  0  0
   -1.6199   -1.0613   -2.7518 O   0  0  0  0  0  0  0  0  0  0  0  0
   -3.3243   -0.0235   -3.9975 C   0  0  0  0  0  0  0  0  0  0  0  0
   -3.2886   -0.3689   -5.0432 H   0  0  0  0  0  0  0  0  0  0  0  0
   -4.0503   -0.6845   -3.4973 H   0  0  0  0  0  0  0  0  0  0  0  0
   -3.8104    0.9645   -4.0351 H   0  0  0  0  0  0  0  0  0  0  0  0
   -1.2607    1.1231   -3.4768 N   0  0  0  0  0  0  0  0  0  0  0  0
    0.0536    1.3115   -2.9213 C   0  0  2  0  0  0  0  0  0  0  0  0
    0.0266    0.8315   -1.4761 C   0  0  0  0  0  0  0  0  0  0  0  0
   -1.0065    0.7530   -0.8146 O   0  0  0  0  0  0  0  0  0  0  0  0
    0.4852    2.7674   -3.0025 C   0  0  0  0  0  0  0  0  0  0  0  0
   -1.6809    1.8924   -3.9952 H   0  0  0  0  0  0  0  0  0  0  0  0
    0.7360    0.6822   -3.5030 H   0  0  0  0  0  0  0  0  0  0  0  0
   -0.1867    3.4133   -2.4256 H   0  0  0  0  0  0  0  0  0  0  0  0
    1.4966    2.9042   -2.6056 H   0  0  0  0  0  0  0  0  0  0  0  0
    0.4754    3.1196   -4.0397 H   0  0  0  0  0  0  0  0  0  0  0  0
    1.2978    0.5411   -0.9947 N   0  0  0  0  0  0  0  0  0  0  0  0
    1.5371    0.0807    0.3489 C   0  0  2  0  0  0  0  0  0  0  0  0
    0.1945   -0.3605    0.9210 C   0  0  0  0  0  0  0  0  0  0  0  0
   -0.8708    0.1689    0.6117 O   0  0  0  0  0  0  0  0  0  0  0  0
    2.1611    1.1691    1.2314 C   0  0  0  0  0  0  0  0  0  0  0  0
    3.5814    1.5526    0.8115 C   0  0  0  0  0  0  0  0  0  0  0  0
    4.1921    2.6462    1.6681 C   0  0  0  0  0  0  0  0  0  0  0  0
    3.5920    3.2310    2.5650 O   0  0  0  0  0  0  0  0  0  0  0  0
    5.4925    2.9288    1.3085 N   0  0  0  0  0  0  0  0  0  0  0  0
    2.0949    0.6178   -1.6227 H   0  0  0  0  0  0  0  0  0  0  0  0
    2.1948   -0.7915    0.2695 H   0  0  0  0  0  0  0  0  0  0  0  0
    1.5335    2.0695    1.1915 H   0  0  0  0  0  0  0  0  0  0  0  0
    2.1645    0.8466    2.2803 H   0  0  0  0  0  0  0  0  0  0  0  0
    3.5544    1.9317   -0.2176 H   0  0  0  0  0  0  0  0  0  0  0  0
    4.2394    0.6765    0.8182 H   0  0  0  0  0  0  0  0  0  0  0  0
    5.9117    2.4113    0.5431 H   0  0  0  0  0  0  0  0  0  0  0  0
    6.0456    3.6360    1.7820 H   0  0  0  0  0  0  0  0  0  0  0  0
    0.3360   -1.3794    1.8529 N   0  0  0  0  0  0  0  0  0  0  0  0
   -0.7782   -1.9663    2.5620 C   0  0  2  0  0  0  0  0  0  0  0  0
   -1.8535   -2.3158    1.5416 C   0  0  0  0  0  0  0  0  0  0  0  0
   -1.9328   -1.7772    0.4395 O   0  0  0  0  0  0  0  0  0  0  0  0
   -1.3209   -1.0194    3.6209 C   0  0  0  0  0  0  0  0  0  0  0  0
    1.2694   -1.7300    2.0462 H   0  0  0  0  0  0  0  0  0  0  0  0
   -0.4066   -2.8841    3.0307 H   0  0  0  0  0  0  0  0  0  0  0  0
   -1.6978   -0.0940    3.1702 H   0  0  0  0  0  0  0  0  0  0  0  0
   -2.1464   -1.4765    4.1764 H   0  0  0  0  0  0  0  0  0  0  0  0
   -0.5384   -0.7456    4.3368 H   0  0  0  0  0  0  0  0  0  0  0  0
   -2.7399   -3.2689    2.0233 N   0  0  0  0  0  0  0  0  0  0  0  0
   -3.8562   -3.7577    1.2481 C   0  0  0  0  0  0  0  0  0  0  0  0
   -2.5867   -3.6749    2.9417 H   0  0  0  0  0  0  0  0  0  0  0  0
   -4.7503   -3.1576    1.4730 H   0  0  0  0  0  0  0  0  0  0  0  0
   -3.6212   -3.6778    0.1764 H   0  0  0  0  0  0  0  0  0  0  0  0
   -4.0473   -4.8103    1.5041 H   0  0  0  0  0  0  0  0  0  0  0  0
  1  3  1  0  0  0  0
  1  7  1  0  0  0  0
  1  2  2  0  0  0  0
 22 23  1  0  0  0  0
 23 25  1  0  0  0  0
 23 24  2  0  0  0  0
 35 36  1  0  0  0  0
 36 44  1  0  0  0  0
 36 37  2  0  0  0  0
  8  9  1  0  0  0  0
  9 17  1  0  0  0  0
  9 10  2  0  0  0  0
 18 19  1  0  0  0  0
 19 34  1  0  0  0  0
 19 20  2  0  0  0  0
 35 38  1  0  0  0  0
  8 11  1  0  0  0  0
 44 45  1  0  0  0  0
 21 22  1  0  0  0  0
 18 21  1  0  0  0  0
 34 35  1  0  0  0  0
  7  8  1  0  0  0  0
 17 18  1  0  0  0  0
  3  4  1  0  0  0  0
  3  5  1  0  0  0  0
  3  6  1  0  0  0  0
 38 41  1  0  0  0  0
 38 42  1  0  0  0  0
 38 43  1  0  0  0  0
 11 14  1  0  0  0  0
 11 15  1  0  0  0  0
 11 16  1  0  0  0  0
 45 47  1  0  0  0  0
 45 48  1  0  0  0  0
 45 49  1  0  0  0  0
 22 30  1  0  0  0  0
 22 31  1  0  0  0  0
 21 28  1  0  0  0  0
 21 29  1  0  0  0  0
 35 40  1  0  0  0  0
  8 13  1  0  0  0  0
 18 27  1  0  0  0  0
 25 32  1  0  0  0  0
 25 33  1  0  0  0  0
 44 46  1  0  0  0  0
  7 12  1  0  0  0  0
 34 39  1  0  0  0  0
 17 26  1  0  0  0  0
M  END
$$$$

  -OEChem-05262214473D

 49 48  0     1  0  0  0  0  0999 V2000
   -1.9833   -0.0509   -3.3423 C   0  0  0  0  0  0  0  0  0  0  0  0
   -1.6199   -1.0613   -2.7518 O   0  0  0  0  0  0  0  0  0  0  0  0
   -3.3243   -0.0235   -3.9975 C   0  0  0  0  0  0  0  0  0  0  0  0
   -3.2886   -0.3689   -5.0432 H   0  0  0  0  0  0  0  0  0  0  0  0
   -4.0503   -0.6845   -3.4973 H   0  0  0  0  0  0  0  0  0  0  0  0
   -3.8104    0.9645   -4.0351 H   0  0  0  0  0  0  0  0  0  0  0  0
   -1.2607    1.1231   -3.4768 N   0  0  0  0  0  0  0  0  0  0  0  0
    0.0536    1.3115   -2.9213 C   0  0  2  0  0  0  0  0  0  0  0  0
    0.0266    0.8315   -1.4761 C   0  0  0  0  0  0  0  0  0  0  0  0
   -1.0065    0.7530   -0.8146 O   0  0  0  0  0  0  0  0  0  0  0  0
    0.4852    2.7674   -3.0025 C   0  0  0  0  0  0  0  0  0  0  0  0
   -1.6809    1.8924   -3.9952 H   0  0  0  0  0  0  0  0  0  0  0  0
    0.7360    0.6822   -3.5030 H   0  0  0  0  0  0  0  0  0  0  0  0
   -0.1867    3.4133   -2.4256 H   0  0  0  0  0  0  0  0  0  0  0  0
    1.4966    2.9042   -2.6056 H   0  0  0  0  0  0  0  0  0  0  0  0
    0.4754    3.1196   -4.0397 H   0  0  0  0  0  0  0  0  0  0  0  0
    1.2978    0.5411   -0.9947 N   0  0  0  0  0  0  0  0  0  0  0  0
    1.5371    0.0807    0.3489 C   0  0  2  0  0  0  0  0  0  0  0  0
    0.1945   -0.3605    0.9210 C   0  0  0  0  0  0  0  0  0  0  0  0
   -0.8828   -0.0297    0.4303 O   0  0  0  0  0  0  0  0  0  0  0  0
    2.1611    1.1691    1.2314 C   0  0  0  0  0  0  0  0  0  0  0  0
    3.5814    1.5526    0.8115 C   0  0  0  0  0  0  0  0  0  0  0  0
    4.1921    2.6462    1.6681 C   0  0  0  0  0  0  0  0  0  0  0  0
    3.5920    3.2310    2.5650 O   0  0  0  0  0  0  0  0  0  0  0  0
    5.4925    2.9288    1.3085 N   0  0  0  0  0  0  0  0  0  0  0  0
    2.0949    0.6178   -1.6227 H   0  0  0  0  0  0  0  0  0  0  0  0
    2.1948   -0.7915    0.2695 H   0  0  0  0  0  0  0  0  0  0  0  0
    1.5335    2.0695    1.1915 H   0  0  0  0  0  0  0  0  0  0  0  0
    2.1645    0.8466    2.2803 H   0  0  0  0  0  0  0  0  0  0  0  0
    3.5544    1.9317   -0.2176 H   0  0  0  0  0  0  0  0  0  0  0  0
    4.2394    0.6765    0.8182 H   0  0  0  0  0  0  0  0  0  0  0  0
    5.9117    2.4113    0.5431 H   0  0  0  0  0  0  0  0  0  0  0  0
    6.0456    3.6360    1.7820 H   0  0  0  0  0  0  0  0  0  0  0  0
    0.3447   -1.1236    2.0706 N   0  0  0  0  0  0  0  0  0  0  0  0
   -0.7701   -1.6512    2.8239 C   0  0  2  0  0  0  0  0  0  0  0  0
   -1.7184   -2.3322    1.8460 C   0  0  0  0  0  0  0  0  0  0  0  0
   -1.7498   -2.0659    0.6463 O   0  0  0  0  0  0  0  0  0  0  0  0
   -1.4837   -0.5537    3.5980 C   0  0  0  0  0  0  0  0  0  0  0  0
    1.2854   -1.3213    2.3988 H   0  0  0  0  0  0  0  0  0  0  0  0
   -0.3606   -2.3959    3.5151 H   0  0  0  0  0  0  0  0  0  0  0  0
   -1.9007    0.2018    2.9222 H   0  0  0  0  0  0  0  0  0  0  0  0
   -2.3103   -0.9594    4.1906 H   0  0  0  0  0  0  0  0  0  0  0  0
   -0.7930   -0.0452    4.2794 H   0  0  0  0  0  0  0  0  0  0  0  0
   -2.5553   -3.2414    2.4779 N   0  0  0  0  0  0  0  0  0  0  0  0
   -3.5530   -4.0068    1.7675 C   0  0  0  0  0  0  0  0  0  0  0  0
   -2.4465   -3.4126    3.4732 H   0  0  0  0  0  0  0  0  0  0  0  0
   -4.5127   -3.4697    1.7900 H   0  0  0  0  0  0  0  0  0  0  0  0
   -3.2346   -4.1449    0.7237 H   0  0  0  0  0  0  0  0  0  0  0  0
   -3.6716   -4.9894    2.2476 H   0  0  0  0  0  0  0  0  0  0  0  0
  1  3  1  0  0  0  0
  1  7  1  0  0  0  0
  1  2  2  0  0  0  0
 22 23  1  0  0  0  0
 23 25  1  0  0  0  0
 23 24  2  0  0  0  0
 35 36  1  0  0  0  0
 36 44  1  0  0  0  0
 36 37  2  0  0  0  0
  8  9  1  0  0  0  0
  9 17  1  0  0  0  0
  9 10  2  0  0  0  0
 18 19  1  0  0  0  0
 19 34  1  0  0  0  0
 19 20  2  0  0  0  0
 35 38  1  0  0  0  0
  8 11  1  0  0  0  0
 44 45  1  0  0  0  0
 21 22  1  0  0  0  0
 18 21  1  0  0  0  0
 34 35  1  0  0  0  0
  7  8  1  0  0  0  0
 17 18  1  0  0  0  0
  3  4  1  0  0  0  0
  3  5  1  0  0  0  0
  3  6  1  0  0  0  0
 38 41  1  0  0  0  0
 38 42  1  0  0  0  0
 38 43  1  0  0  0  0
 11 14  1  0  0  0  0
 11 15  1  0  0  0  0
 11 16  1  0  0  0  0
 45 47  1  0  0  0  0
 45 48  1  0  0  0  0
 45 49  1  0  0  0  0
 22 30  1  0  0  0  0
 22 31  1  0  0  0  0
 21 28  1  0  0  0  0
 21 29  1  0  0  0  0
 35 40  1  0  0  0  0
  8 13  1  0  0  0  0
 18 27  1  0  0  0  0
 25 32  1  0  0  0  0
 25 33  1  0  0  0  0
 44 46  1  0  0  0  0
  7 12  1  0  0  0  0
 34 39  1  0  0  0  0
 17 26  1  0  0  0  0
M  END
$$$$

  -OEChem-05262214473D

 49 48  0     1  0  0  0  0  0999 V2000
   -1.9833   -0.0509   -3.3423 C   0  0  0  0  0  0  0  0  0  0  0  0
   -1.6199   -1.0613   -2.7518 O   0  0  0  0  0  0  0  0  0  0  0  0
   -3.3243   -0.0235   -3.9975 C   0  0  0  0  0  0  0  0  0  0  0  0
   -3.2886   -0.3689   -5.0432 H   0  0  0  0  0  0  0  0  0  0  0  0
   -4.0503   -0.6845   -3.4973 H   0  0  0  0  0  0  0  0  0  0  0  0
   -3.8104    0.9645   -4.0351 H   0  0  0  0  0  0  0  0  0  0  0  0
   -1.2607    1.1231   -3.4768 N   0  0  0  0  0  0  0  0  0  0  0  0
    0.0536    1.3115   -2.9213 C   0  0  2  0  0  0  0  0  0  0  0  0
    0.0266    0.8315   -1.4761 C   0  0  0  0  0  0  0  0  0  0  0  0
   -1.0065    0.7530   -0.8146 O   0  0  0  0  0  0  0  0  0  0  0  0
    0.4852    2.7674   -3.0025 C   0  0  0  0  0  0  0  0  0  0  0  0
   -1.6809    1.8924   -3.9952 H   0  0  0  0  0  0  0  0  0  0  0  0
    0.7360    0.6822   -3.5030 H   0  0  0  0  0  0  0  0  0  0  0  0
   -0.1867    3.4133   -2.4256 H   0  0  0  0  0  0  0  0  0  0  0  0
    1.4966    2.9042   -2.6056 H   0  0  0  0  0  0  0  0  0  0  0  0
    0.4754    3.1196   -4.0397 H   0  0  0  0  0  0  0  0  0  0  0  0
    1.2978    0.5411   -0.9947 N   0  0  0  0  0  0  0  0  0  0  0  0
    1.5371    0.0807    0.3489 C   0  0  2  0  0  0  0  0  0  0  0  0
    0.3020   -0.6992    0.7858 C   0  0  0  0  0  0  0  0  0  0  0  0
   -0.6944   -0.8257    0.0772 O   0  0  0  0  0  0  0  0  0  0  0  0
    1.8073    1.2385    1.3182 C   0  0  0  0  0  0  0  0  0  0  0  0
    3.1198    1.9729    1.0377 C   0  0  0  0  0  0  0  0  0  0  0  0
    3.3779    3.1338    1.9801 C   0  0  0  0  0  0  0  0  0  0  0  0
    2.5859    3.5092    2.8395 O   0  0  0  0  0  0  0  0  0  0  0  0
    4.5943    3.7385    1.7459 N   0  0  0  0  0  0  0  0  0  0  0  0
    2.0949    0.6178   -1.6227 H   0  0  0  0  0  0  0  0  0  0  0  0
    2.3913   -0.6030    0.2991 H   0  0  0  0  0  0  0  0  0  0  0  0
    0.9846    1.9630    1.2528 H   0  0  0  0  0  0  0  0  0  0  0  0
    1.8078    0.8709    2.3521 H   0  0  0  0  0  0  0  0  0  0  0  0
    3.0811    2.3886    0.0232 H   0  0  0  0  0  0  0  0  0  0  0  0
    3.9686    1.2809    1.0735 H   0  0  0  0  0  0  0  0  0  0  0  0
    5.1848    3.3780    1.0038 H   0  0  0  0  0  0  0  0  0  0  0  0
    4.9204    4.5314    2.2892 H   0  0  0  0  0  0  0  0  0  0  0  0
    0.4280   -1.1917    2.0773 N   0  0  0  0  0  0  0  0  0  0  0  0
   -0.6080   -1.9487    2.7423 C   0  0  2  0  0  0  0  0  0  0  0  0
   -1.0739   -3.0438    1.7919 C   0  0  0  0  0  0  0  0  0  0  0  0
   -0.9282   -2.9807    0.5729 O   0  0  0  0  0  0  0  0  0  0  0  0
   -1.7684   -1.0560    3.1536 C   0  0  0  0  0  0  0  0  0  0  0  0
    1.2917   -1.0109    2.5804 H   0  0  0  0  0  0  0  0  0  0  0  0
   -0.1491   -2.4032    3.6271 H   0  0  0  0  0  0  0  0  0  0  0  0
   -2.2408   -0.5917    2.2802 H   0  0  0  0  0  0  0  0  0  0  0  0
   -2.5394   -1.6259    3.6825 H   0  0  0  0  0  0  0  0  0  0  0  0
   -1.4262   -0.2513    3.8133 H   0  0  0  0  0  0  0  0  0  0  0  0
   -1.7101   -4.0798    2.4612 N   0  0  0  0  0  0  0  0  0  0  0  0
   -2.2534   -5.2312    1.7791 C   0  0  0  0  0  0  0  0  0  0  0  0
   -1.7692   -4.0580    3.4750 H   0  0  0  0  0  0  0  0  0  0  0  0
   -3.3124   -5.0516    1.5419 H   0  0  0  0  0  0  0  0  0  0  0  0
   -1.6934   -5.4037    0.8482 H   0  0  0  0  0  0  0  0  0  0  0  0
   -2.1679   -6.1155    2.4277 H   0  0  0  0  0  0  0  0  0  0  0  0
  1  3  1  0  0  0  0
  1  7  1  0  0  0  0
  1  2  2  0  0  0  0
 22 23  1  0  0  0  0
 23 25  1  0  0  0  0
 23 24  2  0  0  0  0
 35 36  1  0  0  0  0
 36 44  1  0  0  0  0
 36 37  2  0  0  0  0
  8  9  1  0  0  0  0
  9 17  1  0  0  0  0
  9 10  2  0  0  0  0
 18 19  1  0  0  0  0
 19 34  1  0  0  0  0
 19 20  2  0  0  0  0
 35 38  1  0  0  0  0
  8 11  1  0  0  0  0
 44 45  1  0  0  0  0
 21 22  1  0  0  0  0
 18 21  1  0  0  0  0
 34 35  1  0  0  0  0
  7  8  1  0  0  0  0
 17 18  1  0  0  0  0
  3  4  1  0  0  0  0
  3  5  1  0  0  0  0
  3  6  1  0  0  0  0
 38 41  1  0  0  0  0
 38 42  1  0  0  0  0
 38 43  1  0  0  0  0
 11 14  1  0  0  0  0
 11 15  1  0  0  0  0
 11 16  1  0  0  0  0
 45 47  1  0  0  0  0
 45 48  1  0  0  0  0
 45 49  1  0  0  0  0
 22 30  1  0  0  0  0
 22 31  1  0  0  0  0
 21 28  1  0  0  0  0
 21 29  1  0  0  0  0
 35 40  1  0  0  0  0
  8 13  1  0  0  0  0
 18 27  1  0  0  0  0
 25 32  1  0  0  0  0
 25 33  1  0  0  0  0
 44 46  1  0  0  0  0
  7 12  1  0  0  0  0
 34 39  1  0  0  0  0
 17 26  1  0  0  0  0
M  END
$$$$

  -OEChem-05262214473D

 49 48  0     1  0  0  0  0  0999 V2000
   -1.9833   -0.0509   -3.3423 C   0  0  0  0  0  0  0  0  0  0  0  0
   -1.6199   -1.0613   -2.7518 O   0  0  0  0  0  0  0  0  0  0  0  0
   -3.3243   -0.0235   -3.9975 C   0  0  0  0  0  0  0  0  0  0  0  0
   -3.2886   -0.3689   -5.0432 H   0  0  0  0  0  0  0  0  0  0  0  0
   -4.0503   -0.6845   -3.4973 H   0  0  0  0  0  0  0  0  0  0  0  0
   -3.8104    0.9645   -4.0351 H   0  0  0  0  0  0  0  0  0  0  0  0
   -1.2607    1.1231   -3.4768 N   0  0  0  0  0  0  0  0  0  0  0  0
    0.0536    1.3115   -2.9213 C   0  0  2  0  0  0  0  0  0  0  0  0
    0.0266    0.8315   -1.4761 C   0  0  0  0  0  0  0  0  0  0  0  0
   -1.0065    0.7530   -0.8146 O   0  0  0  0  0  0  0  0  0  0  0  0
    0.4852    2.7674   -3.0025 C   0  0  0  0  0  0  0  0  0  0  0  0
   -1.6809    1.8924   -3.9952 H   0  0  0  0  0  0  0  0  0  0  0  0
    0.7360    0.6822   -3.5030 H   0  0  0  0  0  0  0  0  0  0  0  0
   -0.1867    3.4133   -2.4256 H   0  0  0  0  0  0  0  0  0  0  0  0
    1.4966    2.9042   -2.6056 H   0  0  0  0  0  0  0  0  0  0  0  0
    0.4754    3.1196   -4.0397 H   0  0  0  0  0  0  0  0  0  0  0  0
    1.2978    0.5411   -0.9947 N   0  0  0  0  0  0  0  0  0  0  0  0
    1.5371    0.0807    0.3489 C   0  0  2  0  0  0  0  0  0  0  0  0
    0.3020   -0.6992    0.7858 C   0  0  0  0  0  0  0  0  0  0  0  0
   -0.5757   -1.0555    0.0025 O   0  0  0  0  0  0  0  0  0  0  0  0
    1.8073    1.2385    1.3182 C   0  0  0  0  0  0  0  0  0  0  0  0
    3.1198    1.9729    1.0377 C   0  0  0  0  0  0  0  0  0  0  0  0
    3.3779    3.1338    1.9801 C   0  0  0  0  0  0  0  0  0  0  0  0
    2.5859    3.5092    2.8395 O   0  0  0  0  0  0  0  0  0  0  0  0
    4.5943    3.7385    1.7459 N   0  0  0  0  0  0  0  0  0  0  0  0
    2.0949    0.6178   -1.6227 H   0  0  0  0  0  0  0  0  0  0  0  0
    2.3913   -0.6030    0.2991 H   0  0  0  0  0  0  0  0  0  0  0  0
    0.9846    1.9630    1.2528 H   0  0  0  0  0  0  0  0  0  0  0  0
    1.8078    0.8709    2.3521 H   0  0  0  0  0  0  0  0  0  0  0  0
    3.0811    2.3886    0.0232 H   0  0  0  0  0  0  0  0  0  0  0  0
    3.9686    1.2809    1.0735 H   0  0  0  0  0  0  0  0  0  0  0  0
    5.1848    3.3780    1.0038 H   0  0  0  0  0  0  0  0  0  0  0  0
    4.9204    4.5314    2.2892 H   0  0  0  0  0  0  0  0  0  0  0  0
    0.2749   -0.9038    2.1583 N   0  0  0  0  0  0  0  0  0  0  0  0
   -0.7968   -1.5972    2.8361 C   0  0  2  0  0  0  0  0  0  0  0  0
   -1.0582   -2.9003    2.0924 C   0  0  0  0  0  0  0  0  0  0  0  0
   -0.7470   -3.0755    0.9162 O   0  0  0  0  0  0  0  0  0  0  0  0
   -2.0549   -0.7451    2.8984 C   0  0  0  0  0  0  0  0  0  0  0  0
    1.0470   -0.5484    2.7143 H   0  0  0  0  0  0  0  0  0  0  0  0
   -0.4401   -1.8186    3.8479 H   0  0  0  0  0  0  0  0  0  0  0  0
   -2.4271   -0.5130    1.8939 H   0  0  0  0  0  0  0  0  0  0  0  0
   -2.8569   -1.2605    3.4371 H   0  0  0  0  0  0  0  0  0  0  0  0
   -1.8576    0.2045    3.4074 H   0  0  0  0  0  0  0  0  0  0  0  0
   -1.7186   -3.8295    2.8840 N   0  0  0  0  0  0  0  0  0  0  0  0
   -2.0907   -5.1395    2.4028 C   0  0  0  0  0  0  0  0  0  0  0  0
   -1.9206   -3.6059    3.8541 H   0  0  0  0  0  0  0  0  0  0  0  0
   -3.1148   -5.1064    2.0026 H   0  0  0  0  0  0  0  0  0  0  0  0
   -1.3963   -5.4488    1.6077 H   0  0  0  0  0  0  0  0  0  0  0  0
   -2.0441   -5.8613    3.2316 H   0  0  0  0  0  0  0  0  0  0  0  0
  1  3  1  0  0  0  0
  1  7  1  0  0  0  0
  1  2  2  0  0  0  0
 22 23  1  0  0  0  0
 23 25  1  0  0  0  0
 23 24  2  0  0  0  0
 35 36  1  0  0  0  0
 36 44  1  0  0  0  0
 36 37  2  0  0  0  0
  8  9  1  0  0  0  0
  9 17  1  0  0  0  0
  9 10  2  0  0  0  0
 18 19  1  0  0  0  0
 19 34  1  0  0  0  0
 19 20  2  0  0  0  0
 35 38  1  0  0  0  0
  8 11  1  0  0  0  0
 44 45  1  0  0  0  0
 21 22  1  0  0  0  0
 18 21  1  0  0  0  0
 34 35  1  0  0  0  0
  7  8  1  0  0  0  0
 17 18  1  0  0  0  0
  3  4  1  0  0  0  0
  3  5  1  0  0  0  0
  3  6  1  0  0  0  0
 38 41  1  0  0  0  0
 38 42  1  0  0  0  0
 38 43  1  0  0  0  0
 11 14  1  0  0  0  0
 11 15  1  0  0  0  0
 11 16  1  0  0  0  0
 45 47  1  0  0  0  0
 45 48  1  0  0  0  0
 45 49  1  0  0  0  0
 22 30  1  0  0  0  0
 22 31  1  0  0  0  0
 21 28  1  0  0  0  0
 21 29  1  0  0  0  0
 35 40  1  0  0  0  0
  8 13  1  0  0  0  0
 18 27  1  0  0  0  0
 25 32  1  0  0  0  0
 25 33  1  0  0  0  0
 44 46  1  0  0  0  0
  7 12  1  0  0  0  0
 34 39  1  0  0  0  0
 17 26  1  0  0  0  0
M  END
$$$$

  -OEChem-05262214473D

 49 48  0     1  0  0  0  0  0999 V2000
   -1.9833   -0.0509   -3.3423 C   0  0  0  0  0  0  0  0  0  0  0  0
   -1.6199   -1.0613   -2.7518 O   0  0  0  0  0  0  0  0  0  0  0  0
   -3.3243   -0.0235   -3.9975 C   0  0  0  0  0  0  0  0  0  0  0  0
   -3.2886   -0.3689   -5.0432 H   0  0  0  0  0  0  0  0  0  0  0  0
   -4.0503   -0.6845   -3.4973 H   0  0  0  0  0  0  0  0  0  0  0  0
   -3.8104    0.9645   -4.0351 H   0  0  0  0  0  0  0  0  0  0  0  0
   -1.2607    1.1231   -3.4768 N   0  0  0  0  0  0  0  0  0  0  0  0
    0.0536    1.3115   -2.9213 C   0  0  2  0  0  0  0  0  0  0  0  0
    0.0266    0.8315   -1.4761 C   0  0  0  0  0  0  0  0  0  0  0  0
   -1.0065    0.7530   -0.8146 O   0  0  0  0  0  0  0  0  0  0  0  0
    0.4852    2.7674   -3.0025 C   0  0  0  0  0  0  0  0  0  0  0  0
   -1.6809    1.8924   -3.9952 H   0  0  0  0  0  0  0  0  0  0  0  0
    0.7360    0.6822   -3.5030 H   0  0  0  0  0  0  0  0  0  0  0  0
   -0.1867    3.4133   -2.4256 H   0  0  0  0  0  0  0  0  0  0  0  0
    1.4966    2.9042   -2.6056 H   0  0  0  0  0  0  0  0  0  0  0  0
    0.4754    3.1196   -4.0397 H   0  0  0  0  0  0  0  0  0  0  0  0
    1.2978    0.5411   -0.9947 N   0  0  0  0  0  0  0  0  0  0  0  0
    1.5371    0.0807    0.3489 C   0  0  2  0  0  0  0  0  0  0  0  0
    0.3020   -0.6992    0.7858 C   0  0  0  0  0  0  0  0  0  0  0  0
   -0.4342   -1.2843   -0.0058 O   0  0  0  0  0  0  0  0  0  0  0  0
    1.8073    1.2385    1.3182 C   0  0  0  0  0  0  0  0  0  0  0  0
    3.1198    1.9729    1.0377 C   0  0  0  0  0  0  0  0  0  0  0  0
    3.3779    3.1338    1.9801 C   0  0  0  0  0  0  0  0  0  0  0  0
    2.5859    3.5092    2.8395 O   0  0  0  0  0  0  0  0  0  0  0  0
    4.5943    3.7385    1.7459 N   0  0  0  0  0  0  0  0  0  0  0  0
    2.0949    0.6178   -1.6227 H   0  0  0  0  0  0  0  0  0  0  0  0
    2.3913   -0.6030    0.2991 H   0  0  0  0  0  0  0  0  0  0  0  0
    0.9846    1.9630    1.2528 H   0  0  0  0  0  0  0  0  0  0  0  0
    1.8078    0.8709    2.3521 H   0  0  0  0  0  0  0  0  0  0  0  0
    3.0811    2.3886    0.0232 H   0  0  0  0  0  0  0  0  0  0  0  0
    3.9686    1.2809    1.0735 H   0  0  0  0  0  0  0  0  0  0  0  0
    5.1848    3.3780    1.0038 H   0  0  0  0  0  0  0  0  0  0  0  0
    4.9204    4.5314    2.2892 H   0  0  0  0  0  0  0  0  0  0  0  0
    0.0949   -0.6201    2.1559 N   0  0  0  0  0  0  0  0  0  0  0  0
   -1.0177   -1.2520    2.8280 C   0  0  2  0  0  0  0  0  0  0  0  0
   -1.0934   -2.6976    2.3548 C   0  0  0  0  0  0  0  0  0  0  0  0
   -0.6103   -3.0816    1.2916 O   0  0  0  0  0  0  0  0  0  0  0  0
   -2.3209   -0.5197    2.5488 C   0  0  0  0  0  0  0  0  0  0  0  0
    0.7587   -0.0917    2.7144 H   0  0  0  0  0  0  0  0  0  0  0  0
   -0.7938   -1.2293    3.9001 H   0  0  0  0  0  0  0  0  0  0  0  0
   -2.5618   -0.5319    1.4795 H   0  0  0  0  0  0  0  0  0  0  0  0
   -3.1581   -0.9826    3.0815 H   0  0  0  0  0  0  0  0  0  0  0  0
   -2.2544    0.5277    2.8625 H   0  0  0  0  0  0  0  0  0  0  0  0
   -1.8014   -3.4997    3.2388 N   0  0  0  0  0  0  0  0  0  0  0  0
   -2.0229   -4.9080    3.0075 C   0  0  0  0  0  0  0  0  0  0  0  0
   -2.1505   -3.1010    4.1054 H   0  0  0  0  0  0  0  0  0  0  0  0
   -2.9809   -5.0481    2.4853 H   0  0  0  0  0  0  0  0  0  0  0  0
   -1.2065   -5.3110    2.3902 H   0  0  0  0  0  0  0  0  0  0  0  0
   -2.0499   -5.4379    3.9711 H   0  0  0  0  0  0  0  0  0  0  0  0
  1  3  1  0  0  0  0
  1  7  1  0  0  0  0
  1  2  2  0  0  0  0
 22 23  1  0  0  0  0
 23 25  1  0  0  0  0
 23 24  2  0  0  0  0
 35 36  1  0  0  0  0
 36 44  1  0  0  0  0
 36 37  2  0  0  0  0
  8  9  1  0  0  0  0
  9 17  1  0  0  0  0
  9 10  2  0  0  0  0
 18 19  1  0  0  0  0
 19 34  1  0  0  0  0
 19 20  2  0  0  0  0
 35 38  1  0  0  0  0
  8 11  1  0  0  0  0
 44 45  1  0  0  0  0
 21 22  1  0  0  0  0
 18 21  1  0  0  0  0
 34 35  1  0  0  0  0
  7  8  1  0  0  0  0
 17 18  1  0  0  0  0
  3  4  1  0  0  0  0
  3  5  1  0  0  0  0
  3  6  1  0  0  0  0
 38 41  1  0  0  0  0
 38 42  1  0  0  0  0
 38 43  1  0  0  0  0
 11 14  1  0  0  0  0
 11 15  1  0  0  0  0
 11 16  1  0  0  0  0
 45 47  1  0  0  0  0
 45 48  1  0  0  0  0
 45 49  1  0  0  0  0
 22 30  1  0  0  0  0
 22 31  1  0  0  0  0
 21 28  1  0  0  0  0
 21 29  1  0  0  0  0
 35 40  1  0  0  0  0
  8 13  1  0  0  0  0
 18 27  1  0  0  0  0
 25 32  1  0  0  0  0
 25 33  1  0  0  0  0
 44 46  1  0  0  0  0
  7 12  1  0  0  0  0
 34 39  1  0  0  0  0
 17 26  1  0  0  0  0
M  END
$$$$

  -OEChem-05262214473D

 49 48  0     1  0  0  0  0  0999 V2000
   -1.9833   -0.0509   -3.3423 C   0  0  0  0  0  0  0  0  0  0  0  0
   -1.6199   -1.0613   -2.7518 O   0  0  0  0  0  0  0  0  0  0  0  0
   -3.3243   -0.0235   -3.9975 C   0  0  0  0  0  0  0  0  0  0  0  0
   -3.2886   -0.3689   -5.0432 H   0  0  0  0  0  0  0  0  0  0  0  0
   -4.0503   -0.6845   -3.4973 H   0  0  0  0  0  0  0  0  0  0  0  0
   -3.8104    0.9645   -4.0351 H   0  0  0  0  0  0  0  0  0  0  0  0
   -1.2607    1.1231   -3.4768 N   0  0  0  0  0  0  0  0  0  0  0  0
    0.0536    1.3115   -2.9213 C   0  0  2  0  0  0  0  0  0  0  0  0
    0.0266    0.8315   -1.4761 C   0  0  0  0  0  0  0  0  0  0  0  0
   -1.0065    0.7530   -0.8146 O   0  0  0  0  0  0  0  0  0  0  0  0
    0.4852    2.7674   -3.0025 C   0  0  0  0  0  0  0  0  0  0  0  0
   -1.6809    1.8924   -3.9952 H   0  0  0  0  0  0  0  0  0  0  0  0
    0.7360    0.6822   -3.5030 H   0  0  0  0  0  0  0  0  0  0  0  0
   -0.1867    3.4133   -2.4256 H   0  0  0  0  0  0  0  0  0  0  0  0
    1.4966    2.9042   -2.6056 H   0  0  0  0  0  0  0  0  0  0  0  0
    0.4754    3.1196   -4.0397 H   0  0  0  0  0  0  0  0  0  0  0  0
    1.2978    0.5411   -0.9947 N   0  0  0  0  0  0  0  0  0  0  0  0
    1.5371    0.0807    0.3489 C   0  0  2  0  0  0  0  0  0  0  0  0
    0.3020   -0.6992    0.7858 C   0  0  0  0  0  0  0  0  0  0  0  0
   -0.2794   -1.4966    0.0530 O   0  0  0  0  0  0  0  0  0  0  0  0
    1.8073    1.2385    1.3182 C   0  0  0  0  0  0  0  0  0  0  0  0
    3.1198    1.9729    1.0377 C   0  0  0  0  0  0  0  0  0  0  0  0
    3.3779    3.1338    1.9801 C   0  0  0  0  0  0  0  0  0  0  0  0
    2.5859    3.5092    2.8395 O   0  0  0  0  0  0  0  0  0  0  0  0
    4.5943    3.7385    1.7459 N   0  0  0  0  0  0  0  0  0  0  0  0
    2.0949    0.6178   -1.6227 H   0  0  0  0  0  0  0  0  0  0  0  0
    2.3913   -0.6030    0.2991 H   0  0  0  0  0  0  0  0  0  0  0  0
    0.9846    1.9630    1.2528 H   0  0  0  0  0  0  0  0  0  0  0  0
    1.8078    0.8709    2.3521 H   0  0  0  0  0  0  0  0  0  0  0  0
    3.0811    2.3886    0.0232 H   0  0  0  0  0  0  0  0  0  0  0  0
    3.9686    1.2809    1.0735 H   0  0  0  0  0  0  0  0  0  0  0  0
    5.1848    3.3780    1.0038 H   0  0  0  0  0  0  0  0  0  0  0  0
    4.9204    4.5314    2.2892 H   0  0  0  0  0  0  0  0  0  0  0  0
   -0.0996   -0.3600    2.0703 N   0  0  0  0  0  0  0  0  0  0  0  0
   -1.2555   -0.9366    2.7185 C   0  0  2  0  0  0  0  0  0  0  0  0
   -1.1772   -2.4494    2.5610 C   0  0  0  0  0  0  0  0  0  0  0  0
   -0.5275   -2.9987    1.6737 O   0  0  0  0  0  0  0  0  0  0  0  0
   -2.5483   -0.3949    2.1286 C   0  0  0  0  0  0  0  0  0  0  0  0
    0.4463    0.3281    2.5805 H   0  0  0  0  0  0  0  0  0  0  0  0
   -1.1861   -0.6753    3.7800 H   0  0  0  0  0  0  0  0  0  0  0  0
   -2.6356   -0.6469    1.0654 H   0  0  0  0  0  0  0  0  0  0  0  0
   -3.4227   -0.8111    2.6398 H   0  0  0  0  0  0  0  0  0  0  0  0
   -2.5895    0.6962    2.2160 H   0  0  0  0  0  0  0  0  0  0  0  0
   -1.9528   -3.1129    3.5014 N   0  0  0  0  0  0  0  0  0  0  0  0
   -2.0547   -4.5527    3.5521 C   0  0  0  0  0  0  0  0  0  0  0  0
   -2.4432   -2.5777    4.2119 H   0  0  0  0  0  0  0  0  0  0  0  0
   -2.9197   -4.8807    2.9571 H   0  0  0  0  0  0  0  0  0  0  0  0
   -1.1371   -4.9998    3.1422 H   0  0  0  0  0  0  0  0  0  0  0  0
   -2.1847   -4.8744    4.5960 H   0  0  0  0  0  0  0  0  0  0  0  0
  1  3  1  0  0  0  0
  1  7  1  0  0  0  0
  1  2  2  0  0  0  0
 22 23  1  0  0  0  0
 23 25  1  0  0  0  0
 23 24  2  0  0  0  0
 35 36  1  0  0  0  0
 36 44  1  0  0  0  0
 36 37  2  0  0  0  0
  8  9  1  0  0  0  0
  9 17  1  0  0  0  0
  9 10  2  0  0  0  0
 18 19  1  0  0  0  0
 19 34  1  0  0  0  0
 19 20  2  0  0  0  0
 35 38  1  0  0  0  0
  8 11  1  0  0  0  0
 44 45  1  0  0  0  0
 21 22  1  0  0  0  0
 18 21  1  0  0  0  0
 34 35  1  0  0  0  0
  7  8  1  0  0  0  0
 17 18  1  0  0  0  0
  3  4  1  0  0  0  0
  3  5  1  0  0  0  0
  3  6  1  0  0  0  0
 38 41  1  0  0  0  0
 38 42  1  0  0  0  0
 38 43  1  0  0  0  0
 11 14  1  0  0  0  0
 11 15  1  0  0  0  0
 11 16  1  0  0  0  0
 45 47  1  0  0  0  0
 45 48  1  0  0  0  0
 45 49  1  0  0  0  0
 22 30  1  0  0  0  0
 22 31  1  0  0  0  0
 21 28  1  0  0  0  0
 21 29  1  0  0  0  0
 35 40  1  0  0  0  0
  8 13  1  0  0  0  0
 18 27  1  0  0  0  0
 25 32  1  0  0  0  0
 25 33  1  0  0  0  0
 44 46  1  0  0  0  0
  7 12  1  0  0  0  0
 34 39  1  0  0  0  0
 17 26  1  0  0  0  0
M  END
$$$$

  -OEChem-05262214473D

 49 48  0     1  0  0  0  0  0999 V2000
   -1.9833   -0.0509   -3.3423 C   0  0  0  0  0  0  0  0  0  0  0  0
   -1.6199   -1.0613   -2.7518 O   0  0  0  0  0  0  0  0  0  0  0  0
   -3.3243   -0.0235   -3.9975 C   0  0  0  0  0  0  0  0  0  0  0  0
   -3.2886   -0.3689   -5.0432 H   0  0  0  0  0  0  0  0  0  0  0  0
   -4.0503   -0.6845   -3.4973 H   0  0  0  0  0  0  0  0  0  0  0  0
   -3.8104    0.9645   -4.0351 H   0  0  0  0  0  0  0  0  0  0  0  0
   -1.2607    1.1231   -3.4768 N   0  0  0  0  0  0  0  0  0  0  0  0
    0.0536    1.3115   -2.9213 C   0  0  2  0  0  0  0  0  0  0  0  0
    0.0266    0.8315   -1.4761 C   0  0  0  0  0  0  0  0  0  0  0  0
   -1.0065    0.7530   -0.8146 O   0  0  0  0  0  0  0  0  0  0  0  0
    0.4852    2.7674   -3.0025 C   0  0  0  0  0  0  0  0  0  0  0  0
   -1.6809    1.8924   -3.9952 H   0  0  0  0  0  0  0  0  0  0  0  0
    0.7360    0.6822   -3.5030 H   0  0  0  0  0  0  0  0  0  0  0  0
   -0.1867    3.4133   -2.4256 H   0  0  0  0  0  0  0  0  0  0  0  0
    1.4966    2.9042   -2.6056 H   0  0  0  0  0  0  0  0  0  0  0  0
    0.4754    3.1196   -4.0397 H   0  0  0  0  0  0  0  0  0  0  0  0
    1.2978    0.5411   -0.9947 N   0  0  0  0  0  0  0  0  0  0  0  0
    1.5371    0.0807    0.3489 C   0  0  2  0  0  0  0  0  0  0  0  0
    0.3020   -0.6992    0.7858 C   0  0  0  0  0  0  0  0  0  0  0  0
   -0.1219   -1.6779    0.1747 O   0  0  0  0  0  0  0  0  0  0  0  0
    1.8073    1.2385    1.3182 C   0  0  0  0  0  0  0  0  0  0  0  0
    3.1198    1.9729    1.0377 C   0  0  0  0  0  0  0  0  0  0  0  0
    3.3779    3.1338    1.9801 C   0  0  0  0  0  0  0  0  0  0  0  0
    2.5859    3.5092    2.8395 O   0  0  0  0  0  0  0  0  0  0  0  0
    4.5943    3.7385    1.7459 N   0  0  0  0  0  0  0  0  0  0  0  0
    2.0949    0.6178   -1.6227 H   0  0  0  0  0  0  0  0  0  0  0  0
    2.3913   -0.6030    0.2991 H   0  0  0  0  0  0  0  0  0  0  0  0
    0.9846    1.9630    1.2528 H   0  0  0  0  0  0  0  0  0  0  0  0
    1.8078    0.8709    2.3521 H   0  0  0  0  0  0  0  0  0  0  0  0
    3.0811    2.3886    0.0232 H   0  0  0  0  0  0  0  0  0  0  0  0
    3.9686    1.2809    1.0735 H   0  0  0  0  0  0  0  0  0  0  0  0
    5.1848    3.3780    1.0038 H   0  0  0  0  0  0  0  0  0  0  0  0
    4.9204    4.5314    2.2892 H   0  0  0  0  0  0  0  0  0  0  0  0
   -0.2955   -0.1411    1.9074 N   0  0  0  0  0  0  0  0  0  0  0  0
   -1.4942   -0.6726    2.5151 C   0  0  2  0  0  0  0  0  0  0  0  0
   -1.3038   -2.1726    2.6970 C   0  0  0  0  0  0  0  0  0  0  0  0
   -0.5043   -2.8323    2.0363 O   0  0  0  0  0  0  0  0  0  0  0  0
   -2.7216   -0.3794    1.6665 C   0  0  0  0  0  0  0  0  0  0  0  0
    0.1311    0.6823    2.3218 H   0  0  0  0  0  0  0  0  0  0  0  0
   -1.5902   -0.1944    3.4960 H   0  0  0  0  0  0  0  0  0  0  0  0
   -2.6436   -0.8504    0.6798 H   0  0  0  0  0  0  0  0  0  0  0  0
   -3.6324   -0.7577    2.1422 H   0  0  0  0  0  0  0  0  0  0  0  0
   -2.8401    0.6985    1.5118 H   0  0  0  0  0  0  0  0  0  0  0  0
   -2.1624   -2.6954    3.6539 N   0  0  0  0  0  0  0  0  0  0  0  0
   -2.1838   -4.0976    3.9994 C   0  0  0  0  0  0  0  0  0  0  0  0
   -2.7790   -2.0716    4.1662 H   0  0  0  0  0  0  0  0  0  0  0  0
   -2.9355   -4.6155    3.3857 H   0  0  0  0  0  0  0  0  0  0  0  0
   -1.1926   -4.5363    3.8125 H   0  0  0  0  0  0  0  0  0  0  0  0
   -2.4394   -4.2091    5.0635 H   0  0  0  0  0  0  0  0  0  0  0  0
  1  3  1  0  0  0  0
  1  7  1  0  0  0  0
  1  2  2  0  0  0  0
 22 23  1  0  0  0  0
 23 25  1  0  0  0  0
 23 24  2  0  0  0  0
 35 36  1  0  0  0  0
 36 44  1  0  0  0  0
 36 37  2  0  0  0  0
  8  9  1  0  0  0  0
  9 17  1  0  0  0  0
  9 10  2  0  0  0  0
 18 19  1  0  0  0  0
 19 34  1  0  0  0  0
 19 20  2  0  0  0  0
 35 38  1  0  0  0  0
  8 11  1  0  0  0  0
 44 45  1  0  0  0  0
 21 22  1  0  0  0  0
 18 21  1  0  0  0  0
 34 35  1  0  0  0  0
  7  8  1  0  0  0  0
 17 18  1  0  0  0  0
  3  4  1  0  0  0  0
  3  5  1  0  0  0  0
  3  6  1  0  0  0  0
 38 41  1  0  0  0  0
 38 42  1  0  0  0  0
 38 43  1  0  0  0  0
 11 14  1  0  0  0  0
 11 15  1  0  0  0  0
 11 16  1  0  0  0  0
 45 47  1  0  0  0  0
 45 48  1  0  0  0  0
 45 49  1  0  0  0  0
 22 30  1  0  0  0  0
 22 31  1  0  0  0  0
 21 28  1  0  0  0  0
 21 29  1  0  0  0  0
 35 40  1  0  0  0  0
  8 13  1  0  0  0  0
 18 27  1  0  0  0  0
 25 32  1  0  0  0  0
 25 33  1  0  0  0  0
 44 46  1  0  0  0  0
  7 12  1  0  0  0  0
 34 39  1  0  0  0  0
 17 26  1  0  0  0  0
M  END
$$$$

  -OEChem-05262214473D

 49 48  0     1  0  0  0  0  0999 V2000
   -1.9833   -0.0509   -3.3423 C   0  0  0  0  0  0  0  0  0  0  0  0
   -1.6199   -1.0613   -2.7518 O   0  0  0  0  0  0  0  0  0  0  0  0
   -3.3243   -0.0235   -3.9975 C   0  0  0  0  0  0  0  0  0  0  0  0
   -3.2886   -0.3689   -5.0432 H   0  0  0  0  0  0  0  0  0  0  0  0
   -4.0503   -0.6845   -3.4973 H   0  0  0  0  0  0  0  0  0  0  0  0
   -3.8104    0.9645   -4.0351 H   0  0  0  0  0  0  0  0  0  0  0  0
   -1.2607    1.1231   -3.4768 N   0  0  0  0  0  0  0  0  0  0  0  0
    0.0536    1.3115   -2.9213 C   0  0  2  0  0  0  0  0  0  0  0  0
    0.0266    0.8315   -1.4761 C   0  0  0  0  0  0  0  0  0  0  0  0
   -1.0065    0.7530   -0.8146 O   0  0  0  0  0  0  0  0  0  0  0  0
    0.4852    2.7674   -3.0025 C   0  0  0  0  0  0  0  0  0  0  0  0
   -1.6809    1.8924   -3.9952 H   0  0  0  0  0  0  0  0  0  0  0  0
    0.7360    0.6822   -3.5030 H   0  0  0  0  0  0  0  0  0  0  0  0
   -0.1867    3.4133   -2.4256 H   0  0  0  0  0  0  0  0  0  0  0  0
    1.4966    2.9042   -2.6056 H   0  0  0  0  0  0  0  0  0  0  0  0
    0.4754    3.1196   -4.0397 H   0  0  0  0  0  0  0  0  0  0  0  0
    1.2978    0.5411   -0.9947 N   0  0  0  0  0  0  0  0  0  0  0  0
    1.5371    0.0807    0.3489 C   0  0  2  0  0  0  0  0  0  0  0  0
    0.3020   -0.6992    0.7858 C   0  0  0  0  0  0  0  0  0  0  0  0
    0.0276   -1.8157    0.3511 O   0  0  0  0  0  0  0  0  0  0  0  0
    1.8073    1.2385    1.3182 C   0  0  0  0  0  0  0  0  0  0  0  0
    3.1198    1.9729    1.0377 C   0  0  0  0  0  0  0  0  0  0  0  0
    3.3779    3.1338    1.9801 C   0  0  0  0  0  0  0  0  0  0  0  0
    2.5859    3.5092    2.8395 O   0  0  0  0  0  0  0  0  0  0  0  0
    4.5943    3.7385    1.7459 N   0  0  0  0  0  0  0  0  0  0  0  0
    2.0949    0.6178   -1.6227 H   0  0  0  0  0  0  0  0  0  0  0  0
    2.3913   -0.6030    0.2991 H   0  0  0  0  0  0  0  0  0  0  0  0
    0.9846    1.9630    1.2528 H   0  0  0  0  0  0  0  0  0  0  0  0
    1.8078    0.8709    2.3521 H   0  0  0  0  0  0  0  0  0  0  0  0
    3.0811    2.3886    0.0232 H   0  0  0  0  0  0  0  0  0  0  0  0
    3.9686    1.2809    1.0735 H   0  0  0  0  0  0  0  0  0  0  0  0
    5.1848    3.3780    1.0038 H   0  0  0  0  0  0  0  0  0  0  0  0
    4.9204    4.5314    2.2892 H   0  0  0  0  0  0  0  0  0  0  0  0
   -0.4794    0.0217    1.6781 N   0  0  0  0  0  0  0  0  0  0  0  0
   -1.7174   -0.4779    2.2317 C   0  0  2  0  0  0  0  0  0  0  0  0
   -1.4647   -1.8861    2.7536 C   0  0  0  0  0  0  0  0  0  0  0  0
   -0.5422   -2.5939    2.3547 O   0  0  0  0  0  0  0  0  0  0  0  0
   -2.8289   -0.4741    1.1939 C   0  0  0  0  0  0  0  0  0  0  0  0
   -0.1653    0.9468    1.9559 H   0  0  0  0  0  0  0  0  0  0  0  0
   -1.9786    0.1805    3.0674 H   0  0  0  0  0  0  0  0  0  0  0  0
   -2.5851   -1.1283    0.3489 H   0  0  0  0  0  0  0  0  0  0  0  0
   -3.7731   -0.8259    1.6225 H   0  0  0  0  0  0  0  0  0  0  0  0
   -2.9890    0.5345    0.7980 H   0  0  0  0  0  0  0  0  0  0  0  0
   -2.4161   -2.2757    3.6860 N   0  0  0  0  0  0  0  0  0  0  0  0
   -2.4015   -3.5738    4.3190 C   0  0  0  0  0  0  0  0  0  0  0  0
   -3.1348   -1.6172    3.9716 H   0  0  0  0  0  0  0  0  0  0  0  0
   -3.0272   -4.2707    3.7421 H   0  0  0  0  0  0  0  0  0  0  0  0
   -1.3693   -3.9523    4.3555 H   0  0  0  0  0  0  0  0  0  0  0  0
   -2.7967   -3.4872    5.3419 H   0  0  0  0  0  0  0  0  0  0  0  0
  1  3  1  0  0  0  0
  1  7  1  0  0  0  0
  1  2  2  0  0  0  0
 22 23  1  0  0  0  0
 23 25  1  0  0  0  0
 23 24  2  0  0  0  0
 35 36  1  0  0  0  0
 36 44  1  0  0  0  0
 36 37  2  0  0  0  0
  8  9  1  0  0  0  0
  9 17  1  0  0  0  0
  9 10  2  0  0  0  0
 18 19  1  0  0  0  0
 19 34  1  0  0  0  0
 19 20  2  0  0  0  0
 35 38  1  0  0  0  0
  8 11  1  0  0  0  0
 44 45  1  0  0  0  0
 21 22  1  0  0  0  0
 18 21  1  0  0  0  0
 34 35  1  0  0  0  0
  7  8  1  0  0  0  0
 17 18  1  0  0  0  0
  3  4  1  0  0  0  0
  3  5  1  0  0  0  0
  3  6  1  0  0  0  0
 38 41  1  0  0  0  0
 38 42  1  0  0  0  0
 38 43  1  0  0  0  0
 11 14  1  0  0  0  0
 11 15  1  0  0  0  0
 11 16  1  0  0  0  0
 45 47  1  0  0  0  0
 45 48  1  0  0  0  0
 45 49  1  0  0  0  0
 22 30  1  0  0  0  0
 22 31  1  0  0  0  0
 21 28  1  0  0  0  0
 21 29  1  0  0  0  0
 35 40  1  0  0  0  0
  8 13  1  0  0  0  0
 18 27  1  0  0  0  0
 25 32  1  0  0  0  0
 25 33  1  0  0  0  0
 44 46  1  0  0  0  0
  7 12  1  0  0  0  0
 34 39  1  0  0  0  0
 17 26  1  0  0  0  0
M  END
$$$$

  -OEChem-05262214473D

 49 48  0     1  0  0  0  0  0999 V2000
   -1.9833   -0.0509   -3.3423 C   0  0  0  0  0  0  0  0  0  0  0  0
   -1.6199   -1.0613   -2.7518 O   0  0  0  0  0  0  0  0  0  0  0  0
   -3.3243   -0.0235   -3.9975 C   0  0  0  0  0  0  0  0  0  0  0  0
   -3.2886   -0.3689   -5.0432 H   0  0  0  0  0  0  0  0  0  0  0  0
   -4.0503   -0.6845   -3.4973 H   0  0  0  0  0  0  0  0  0  0  0  0
   -3.8104    0.9645   -4.0351 H   0  0  0  0  0  0  0  0  0  0  0  0
   -1.2607    1.1231   -3.4768 N   0  0  0  0  0  0  0  0  0  0  0  0
    0.0536    1.3115   -2.9213 C   0  0  2  0  0  0  0  0  0  0  0  0
    0.0266    0.8315   -1.4761 C   0  0  0  0  0  0  0  0  0  0  0  0
   -1.0065    0.7530   -0.8146 O   0  0  0  0  0  0  0  0  0  0  0  0
    0.4852    2.7674   -3.0025 C   0  0  0  0  0  0  0  0  0  0  0  0
   -1.6809    1.8924   -3.9952 H   0  0  0  0  0  0  0  0  0  0  0  0
    0.7360    0.6822   -3.5030 H   0  0  0  0  0  0  0  0  0  0  0  0
   -0.1867    3.4133   -2.4256 H   0  0  0  0  0  0  0  0  0  0  0  0
    1.4966    2.9042   -2.6056 H   0  0  0  0  0  0  0  0  0  0  0  0
    0.4754    3.1196   -4.0397 H   0  0  0  0  0  0  0  0  0  0  0  0
    1.2978    0.5411   -0.9947 N   0  0  0  0  0  0  0  0  0  0  0  0
    1.5371    0.0807    0.3489 C   0  0  2  0  0  0  0  0  0  0  0  0
    0.3020   -0.6992    0.7858 C   0  0  0  0  0  0  0  0  0  0  0  0
    0.1589   -1.9008    0.5702 O   0  0  0  0  0  0  0  0  0  0  0  0
    1.8073    1.2385    1.3182 C   0  0  0  0  0  0  0  0  0  0  0  0
    3.1198    1.9729    1.0377 C   0  0  0  0  0  0  0  0  0  0  0  0
    3.3779    3.1338    1.9801 C   0  0  0  0  0  0  0  0  0  0  0  0
    2.5859    3.5092    2.8395 O   0  0  0  0  0  0  0  0  0  0  0  0
    4.5943    3.7385    1.7459 N   0  0  0  0  0  0  0  0  0  0  0  0
    2.0949    0.6178   -1.6227 H   0  0  0  0  0  0  0  0  0  0  0  0
    2.3913   -0.6030    0.2991 H   0  0  0  0  0  0  0  0  0  0  0  0
    0.9846    1.9630    1.2528 H   0  0  0  0  0  0  0  0  0  0  0  0
    1.8078    0.8709    2.3521 H   0  0  0  0  0  0  0  0  0  0  0  0
    3.0811    2.3886    0.0232 H   0  0  0  0  0  0  0  0  0  0  0  0
    3.9686    1.2809    1.0735 H   0  0  0  0  0  0  0  0  0  0  0  0
    5.1848    3.3780    1.0038 H   0  0  0  0  0  0  0  0  0  0  0  0
    4.9204    4.5314    2.2892 H   0  0  0  0  0  0  0  0  0  0  0  0
   -0.6387    0.1172    1.3982 N   0  0  0  0  0  0  0  0  0  0  0  0
   -1.9098   -0.3658    1.8876 C   0  0  2  0  0  0  0  0  0  0  0  0
   -1.6488   -1.6095    2.7270 C   0  0  0  0  0  0  0  0  0  0  0  0
   -0.6387   -2.2997    2.6072 O   0  0  0  0  0  0  0  0  0  0  0  0
   -2.8630   -0.6727    0.7431 C   0  0  0  0  0  0  0  0  0  0  0  0
   -0.4229    1.1037    1.5078 H   0  0  0  0  0  0  0  0  0  0  0  0
   -2.3248    0.4240    2.5233 H   0  0  0  0  0  0  0  0  0  0  0  0
   -2.4642   -1.4618    0.0953 H   0  0  0  0  0  0  0  0  0  0  0  0
   -3.8352   -1.0113    1.1163 H   0  0  0  0  0  0  0  0  0  0  0  0
   -3.0263    0.2154    0.1231 H   0  0  0  0  0  0  0  0  0  0  0  0
   -2.6965   -1.8824    3.5953 N   0  0  0  0  0  0  0  0  0  0  0  0
   -2.6929   -3.0170    4.4890 C   0  0  0  0  0  0  0  0  0  0  0  0
   -3.4863   -1.2454    3.6412 H   0  0  0  0  0  0  0  0  0  0  0  0
   -3.1885   -3.8697    4.0019 H   0  0  0  0  0  0  0  0  0  0  0  0
   -1.6552   -3.2873    4.7341 H   0  0  0  0  0  0  0  0  0  0  0  0
   -3.2322   -2.7582    5.4122 H   0  0  0  0  0  0  0  0  0  0  0  0
  1  3  1  0  0  0  0
  1  7  1  0  0  0  0
  1  2  2  0  0  0  0
 22 23  1  0  0  0  0
 23 25  1  0  0  0  0
 23 24  2  0  0  0  0
 35 36  1  0  0  0  0
 36 44  1  0  0  0  0
 36 37  2  0  0  0  0
  8  9  1  0  0  0  0
  9 17  1  0  0  0  0
  9 10  2  0  0  0  0
 18 19  1  0  0  0  0
 19 34  1  0  0  0  0
 19 20  2  0  0  0  0
 35 38  1  0  0  0  0
  8 11  1  0  0  0  0
 44 45  1  0  0  0  0
 21 22  1  0  0  0  0
 18 21  1  0  0  0  0
 34 35  1  0  0  0  0
  7  8  1  0  0  0  0
 17 18  1  0  0  0  0
  3  4  1  0  0  0  0
  3  5  1  0  0  0  0
  3  6  1  0  0  0  0
 38 41  1  0  0  0  0
 38 42  1  0  0  0  0
 38 43  1  0  0  0  0
 11 14  1  0  0  0  0
 11 15  1  0  0  0  0
 11 16  1  0  0  0  0
 45 47  1  0  0  0  0
 45 48  1  0  0  0  0
 45 49  1  0  0  0  0
 22 30  1  0  0  0  0
 22 31  1  0  0  0  0
 21 28  1  0  0  0  0
 21 29  1  0  0  0  0
 35 40  1  0  0  0  0
  8 13  1  0  0  0  0
 18 27  1  0  0  0  0
 25 32  1  0  0  0  0
 25 33  1  0  0  0  0
 44 46  1  0  0  0  0
  7 12  1  0  0  0  0
 34 39  1  0  0  0  0
 17 26  1  0  0  0  0
M  END
$$$$

  -OEChem-05262214473D

 49 48  0     1  0  0  0  0  0999 V2000
   -1.9833   -0.0509   -3.3423 C   0  0  0  0  0  0  0  0  0  0  0  0
   -1.6199   -1.0613   -2.7518 O   0  0  0  0  0  0  0  0  0  0  0  0
   -3.3243   -0.0235   -3.9975 C   0  0  0  0  0  0  0  0  0  0  0  0
   -3.2886   -0.3689   -5.0432 H   0  0  0  0  0  0  0  0  0  0  0  0
   -4.0503   -0.6845   -3.4973 H   0  0  0  0  0  0  0  0  0  0  0  0
   -3.8104    0.9645   -4.0351 H   0  0  0  0  0  0  0  0  0  0  0  0
   -1.2607    1.1231   -3.4768 N   0  0  0  0  0  0  0  0  0  0  0  0
    0.0536    1.3115   -2.9213 C   0  0  2  0  0  0  0  0  0  0  0  0
    0.0266    0.8315   -1.4761 C   0  0  0  0  0  0  0  0  0  0  0  0
   -1.0065    0.7530   -0.8146 O   0  0  0  0  0  0  0  0  0  0  0  0
    0.4852    2.7674   -3.0025 C   0  0  0  0  0  0  0  0  0  0  0  0
   -1.6809    1.8924   -3.9952 H   0  0  0  0  0  0  0  0  0  0  0  0
    0.7360    0.6822   -3.5030 H   0  0  0  0  0  0  0  0  0  0  0  0
   -0.1867    3.4133   -2.4256 H   0  0  0  0  0  0  0  0  0  0  0  0
    1.4966    2.9042   -2.6056 H   0  0  0  0  0  0  0  0  0  0  0  0
    0.4754    3.1196   -4.0397 H   0  0  0  0  0  0  0  0  0  0  0  0
    1.2978    0.5411   -0.9947 N   0  0  0  0  0  0  0  0  0  0  0  0
    1.5371    0.0807    0.3489 C   0  0  2  0  0  0  0  0  0  0  0  0
    0.3020   -0.6992    0.7858 C   0  0  0  0  0  0  0  0  0  0  0  0
    0.2629   -1.9274    0.8171 O   0  0  0  0  0  0  0  0  0  0  0  0
    1.8073    1.2385    1.3182 C   0  0  0  0  0  0  0  0  0  0  0  0
    3.1198    1.9729    1.0377 C   0  0  0  0  0  0  0  0  0  0  0  0
    3.3779    3.1338    1.9801 C   0  0  0  0  0  0  0  0  0  0  0  0
    2.5859    3.5092    2.8395 O   0  0  0  0  0  0  0  0  0  0  0  0
    4.5943    3.7385    1.7459 N   0  0  0  0  0  0  0  0  0  0  0  0
    2.0949    0.6178   -1.6227 H   0  0  0  0  0  0  0  0  0  0  0  0
    2.3913   -0.6030    0.2991 H   0  0  0  0  0  0  0  0  0  0  0  0
    0.9846    1.9630    1.2528 H   0  0  0  0  0  0  0  0  0  0  0  0
    1.8078    0.8709    2.3521 H   0  0  0  0  0  0  0  0  0  0  0  0
    3.0811    2.3886    0.0232 H   0  0  0  0  0  0  0  0  0  0  0  0
    3.9686    1.2809    1.0735 H   0  0  0  0  0  0  0  0  0  0  0  0
    5.1848    3.3780    1.0038 H   0  0  0  0  0  0  0  0  0  0  0  0
    4.9204    4.5314    2.2892 H   0  0  0  0  0  0  0  0  0  0  0  0
   -0.7626    0.1390    1.0867 N   0  0  0  0  0  0  0  0  0  0  0  0
   -2.0585   -0.3439    1.5063 C   0  0  2  0  0  0  0  0  0  0  0  0
   -1.8436   -1.3615    2.6188 C   0  0  0  0  0  0  0  0  0  0  0  0
   -0.7871   -1.9697    2.7767 O   0  0  0  0  0  0  0  0  0  0  0  0
   -2.8216   -0.9615    0.3447 C   0  0  0  0  0  0  0  0  0  0  0  0
   -0.6239    1.1421    1.0080 H   0  0  0  0  0  0  0  0  0  0  0  0
   -2.6052    0.5195    1.9008 H   0  0  0  0  0  0  0  0  0  0  0  0
   -2.2892   -1.8282   -0.0638 H   0  0  0  0  0  0  0  0  0  0  0  0
   -3.8144   -1.3010    0.6580 H   0  0  0  0  0  0  0  0  0  0  0  0
   -2.9492   -0.2370   -0.4668 H   0  0  0  0  0  0  0  0  0  0  0  0
   -2.9845   -1.5424    3.3882 N   0  0  0  0  0  0  0  0  0  0  0  0
   -3.0382   -2.4652    4.4979 C   0  0  0  0  0  0  0  0  0  0  0  0
   -3.8098   -0.9817    3.1976 H   0  0  0  0  0  0  0  0  0  0  0  0
   -3.4085   -3.4399    4.1473 H   0  0  0  0  0  0  0  0  0  0  0  0
   -2.0308   -2.5869    4.9225 H   0  0  0  0  0  0  0  0  0  0  0  0
   -3.7163   -2.0715    5.2695 H   0  0  0  0  0  0  0  0  0  0  0  0
  1  3  1  0  0  0  0
  1  7  1  0  0  0  0
  1  2  2  0  0  0  0
 22 23  1  0  0  0  0
 23 25  1  0  0  0  0
 23 24  2  0  0  0  0
 35 36  1  0  0  0  0
 36 44  1  0  0  0  0
 36 37  2  0  0  0  0
  8  9  1  0  0  0  0
  9 17  1  0  0  0  0
  9 10  2  0  0  0  0
 18 19  1  0  0  0  0
 19 34  1  0  0  0  0
 19 20  2  0  0  0  0
 35 38  1  0  0  0  0
  8 11  1  0  0  0  0
 44 45  1  0  0  0  0
 21 22  1  0  0  0  0
 18 21  1  0  0  0  0
 34 35  1  0  0  0  0
  7  8  1  0  0  0  0
 17 18  1  0  0  0  0
  3  4  1  0  0  0  0
  3  5  1  0  0  0  0
  3  6  1  0  0  0  0
 38 41  1  0  0  0  0
 38 42  1  0  0  0  0
 38 43  1  0  0  0  0
 11 14  1  0  0  0  0
 11 15  1  0  0  0  0
 11 16  1  0  0  0  0
 45 47  1  0  0  0  0
 45 48  1  0  0  0  0
 45 49  1  0  0  0  0
 22 30  1  0  0  0  0
 22 31  1  0  0  0  0
 21 28  1  0  0  0  0
 21 29  1  0  0  0  0
 35 40  1  0  0  0  0
  8 13  1  0  0  0  0
 18 27  1  0  0  0  0
 25 32  1  0  0  0  0
 25 33  1  0  0  0  0
 44 46  1  0  0  0  0
  7 12  1  0  0  0  0
 34 39  1  0  0  0  0
 17 26  1  0  0  0  0
M  END
$$$$

  -OEChem-05262214473D

 49 48  0     1  0  0  0  0  0999 V2000
   -1.9833   -0.0509   -3.3423 C   0  0  0  0  0  0  0  0  0  0  0  0
   -1.6199   -1.0613   -2.7518 O   0  0  0  0  0  0  0  0  0  0  0  0
   -3.3243   -0.0235   -3.9975 C   0  0  0  0  0  0  0  0  0  0  0  0
   -3.2886   -0.3689   -5.0432 H   0  0  0  0  0  0  0  0  0  0  0  0
   -4.0503   -0.6845   -3.4973 H   0  0  0  0  0  0  0  0  0  0  0  0
   -3.8104    0.9645   -4.0351 H   0  0  0  0  0  0  0  0  0  0  0  0
   -1.2607    1.1231   -3.4768 N   0  0  0  0  0  0  0  0  0  0  0  0
    0.0536    1.3115   -2.9213 C   0  0  2  0  0  0  0  0  0  0  0  0
    0.0266    0.8315   -1.4761 C   0  0  0  0  0  0  0  0  0  0  0  0
   -1.0065    0.7530   -0.8146 O   0  0  0  0  0  0  0  0  0  0  0  0
    0.4852    2.7674   -3.0025 C   0  0  0  0  0  0  0  0  0  0  0  0
   -1.6809    1.8924   -3.9952 H   0  0  0  0  0  0  0  0  0  0  0  0
    0.7360    0.6822   -3.5030 H   0  0  0  0  0  0  0  0  0  0  0  0
   -0.1867    3.4133   -2.4256 H   0  0  0  0  0  0  0  0  0  0  0  0
    1.4966    2.9042   -2.6056 H   0  0  0  0  0  0  0  0  0  0  0  0
    0.4754    3.1196   -4.0397 H   0  0  0  0  0  0  0  0  0  0  0  0
    1.2978    0.5411   -0.9947 N   0  0  0  0  0  0  0  0  0  0  0  0
    1.5371    0.0807    0.3489 C   0  0  2  0  0  0  0  0  0  0  0  0
    0.3020   -0.6992    0.7858 C   0  0  0  0  0  0  0  0  0  0  0  0
    0.3327   -1.8935    1.0749 O   0  0  0  0  0  0  0  0  0  0  0  0
    1.8073    1.2385    1.3182 C   0  0  0  0  0  0  0  0  0  0  0  0
    3.1198    1.9729    1.0377 C   0  0  0  0  0  0  0  0  0  0  0  0
    3.3779    3.1338    1.9801 C   0  0  0  0  0  0  0  0  0  0  0  0
    2.5859    3.5092    2.8395 O   0  0  0  0  0  0  0  0  0  0  0  0
    4.5943    3.7385    1.7459 N   0  0  0  0  0  0  0  0  0  0  0  0
    2.0949    0.6178   -1.6227 H   0  0  0  0  0  0  0  0  0  0  0  0
    2.3913   -0.6030    0.2991 H   0  0  0  0  0  0  0  0  0  0  0  0
    0.9846    1.9630    1.2528 H   0  0  0  0  0  0  0  0  0  0  0  0
    1.8078    0.8709    2.3521 H   0  0  0  0  0  0  0  0  0  0  0  0
    3.0811    2.3886    0.0232 H   0  0  0  0  0  0  0  0  0  0  0  0
    3.9686    1.2809    1.0735 H   0  0  0  0  0  0  0  0  0  0  0  0
    5.1848    3.3780    1.0038 H   0  0  0  0  0  0  0  0  0  0  0  0
    4.9204    4.5314    2.2892 H   0  0  0  0  0  0  0  0  0  0  0  0
   -0.8427    0.0855    0.7648 N   0  0  0  0  0  0  0  0  0  0  0  0
   -2.1533   -0.4138    1.1136 C   0  0  2  0  0  0  0  0  0  0  0  0
   -2.0359   -1.1591    2.4366 C   0  0  0  0  0  0  0  0  0  0  0  0
   -0.9774   -1.6264    2.8516 O   0  0  0  0  0  0  0  0  0  0  0  0
   -2.7073   -1.3209    0.0260 C   0  0  0  0  0  0  0  0  0  0  0  0
   -0.7548    1.0595    0.4905 H   0  0  0  0  0  0  0  0  0  0  0  0
   -2.8008    0.4604    1.2425 H   0  0  0  0  0  0  0  0  0  0  0  0
   -2.0718   -2.2024   -0.1174 H   0  0  0  0  0  0  0  0  0  0  0  0
   -3.7121   -1.6754    0.2787 H   0  0  0  0  0  0  0  0  0  0  0  0
   -2.7632   -0.7921   -0.9316 H   0  0  0  0  0  0  0  0  0  0  0  0
   -3.2605   -1.2786    3.0787 N   0  0  0  0  0  0  0  0  0  0  0  0
   -3.4139   -1.9559    4.3451 C   0  0  0  0  0  0  0  0  0  0  0  0
   -4.0830   -0.8440    2.6710 H   0  0  0  0  0  0  0  0  0  0  0  0
   -3.6721   -3.0105    4.1686 H   0  0  0  0  0  0  0  0  0  0  0  0
   -2.4705   -1.8987    4.9080 H   0  0  0  0  0  0  0  0  0  0  0  0
   -4.2158   -1.4740    4.9237 H   0  0  0  0  0  0  0  0  0  0  0  0
  1  3  1  0  0  0  0
  1  7  1  0  0  0  0
  1  2  2  0  0  0  0
 22 23  1  0  0  0  0
 23 25  1  0  0  0  0
 23 24  2  0  0  0  0
 35 36  1  0  0  0  0
 36 44  1  0  0  0  0
 36 37  2  0  0  0  0
  8  9  1  0  0  0  0
  9 17  1  0  0  0  0
  9 10  2  0  0  0  0
 18 19  1  0  0  0  0
 19 34  1  0  0  0  0
 19 20  2  0  0  0  0
 35 38  1  0  0  0  0
  8 11  1  0  0  0  0
 44 45  1  0  0  0  0
 21 22  1  0  0  0  0
 18 21  1  0  0  0  0
 34 35  1  0  0  0  0
  7  8  1  0  0  0  0
 17 18  1  0  0  0  0
  3  4  1  0  0  0  0
  3  5  1  0  0  0  0
  3  6  1  0  0  0  0
 38 41  1  0  0  0  0
 38 42  1  0  0  0  0
 38 43  1  0  0  0  0
 11 14  1  0  0  0  0
 11 15  1  0  0  0  0
 11 16  1  0  0  0  0
 45 47  1  0  0  0  0
 45 48  1  0  0  0  0
 45 49  1  0  0  0  0
 22 30  1  0  0  0  0
 22 31  1  0  0  0  0
 21 28  1  0  0  0  0
 21 29  1  0  0  0  0
 35 40  1  0  0  0  0
  8 13  1  0  0  0  0
 18 27  1  0  0  0  0
 25 32  1  0  0  0  0
 25 33  1  0  0  0  0
 44 46  1  0  0  0  0
  7 12  1  0  0  0  0
 34 39  1  0  0  0  0
 17 26  1  0  0  0  0
M  END
$$$$

  -OEChem-05262214473D

 49 48  0     1  0  0  0  0  0999 V2000
   -1.9833   -0.0509   -3.3423 C   0  0  0  0  0  0  0  0  0  0  0  0
   -1.6199   -1.0613   -2.7518 O   0  0  0  0  0  0  0  0  0  0  0  0
   -3.3243   -0.0235   -3.9975 C   0  0  0  0  0  0  0  0  0  0  0  0
   -3.2886   -0.3689   -5.0432 H   0  0  0  0  0  0  0  0  0  0  0  0
   -4.0503   -0.6845   -3.4973 H   0  0  0  0  0  0  0  0  0  0  0  0
   -3.8104    0.9645   -4.0351 H   0  0  0  0  0  0  0  0  0  0  0  0
   -1.2607    1.1231   -3.4768 N   0  0  0  0  0  0  0  0  0  0  0  0
    0.0536    1.3115   -2.9213 C   0  0  2  0  0  0  0  0  0  0  0  0
    0.0266    0.8315   -1.4761 C   0  0  0  0  0  0  0  0  0  0  0  0
   -1.0065    0.7530   -0.8146 O   0  0  0  0  0  0  0  0  0  0  0  0
    0.4852    2.7674   -3.0025 C   0  0  0  0  0  0  0  0  0  0  0  0
   -1.6809    1.8924   -3.9952 H   0  0  0  0  0  0  0  0  0  0  0  0
    0.7360    0.6822   -3.5030 H   0  0  0  0  0  0  0  0  0  0  0  0
   -0.1867    3.4133   -2.4256 H   0  0  0  0  0  0  0  0  0  0  0  0
    1.4966    2.9042   -2.6056 H   0  0  0  0  0  0  0  0  0  0  0  0
    0.4754    3.1196   -4.0397 H   0  0  0  0  0  0  0  0  0  0  0  0
    1.2978    0.5411   -0.9947 N   0  0  0  0  0  0  0  0  0  0  0  0
    1.5371    0.0807    0.3489 C   0  0  2  0  0  0  0  0  0  0  0  0
    0.3020   -0.6992    0.7858 C   0  0  0  0  0  0  0  0  0  0  0  0
    0.3635   -1.8016    1.3261 O   0  0  0  0  0  0  0  0  0  0  0  0
    1.8073    1.2385    1.3182 C   0  0  0  0  0  0  0  0  0  0  0  0
    3.1198    1.9729    1.0377 C   0  0  0  0  0  0  0  0  0  0  0  0
    3.3779    3.1338    1.9801 C   0  0  0  0  0  0  0  0  0  0  0  0
    2.5859    3.5092    2.8395 O   0  0  0  0  0  0  0  0  0  0  0  0
    4.5943    3.7385    1.7459 N   0  0  0  0  0  0  0  0  0  0  0  0
    2.0949    0.6178   -1.6227 H   0  0  0  0  0  0  0  0  0  0  0  0
    2.3913   -0.6030    0.2991 H   0  0  0  0  0  0  0  0  0  0  0  0
    0.9846    1.9630    1.2528 H   0  0  0  0  0  0  0  0  0  0  0  0
    1.8078    0.8709    2.3521 H   0  0  0  0  0  0  0  0  0  0  0  0
    3.0811    2.3886    0.0232 H   0  0  0  0  0  0  0  0  0  0  0  0
    3.9686    1.2809    1.0735 H   0  0  0  0  0  0  0  0  0  0  0  0
    5.1848    3.3780    1.0038 H   0  0  0  0  0  0  0  0  0  0  0  0
    4.9204    4.5314    2.2892 H   0  0  0  0  0  0  0  0  0  0  0  0
   -0.8734   -0.0396    0.4546 N   0  0  0  0  0  0  0  0  0  0  0  0
   -2.1877   -0.5707    0.7365 C   0  0  2  0  0  0  0  0  0  0  0  0
   -2.2125   -1.0161    2.1927 C   0  0  0  0  0  0  0  0  0  0  0  0
   -1.1965   -1.2932    2.8268 O   0  0  0  0  0  0  0  0  0  0  0  0
   -2.5282   -1.7265   -0.1914 C   0  0  0  0  0  0  0  0  0  0  0  0
   -0.8066    0.8615   -0.0093 H   0  0  0  0  0  0  0  0  0  0  0  0
   -2.8981    0.2508    0.5930 H   0  0  0  0  0  0  0  0  0  0  0  0
   -1.8270   -2.5590   -0.0620 H   0  0  0  0  0  0  0  0  0  0  0  0
   -3.5353   -2.1090    0.0045 H   0  0  0  0  0  0  0  0  0  0  0  0
   -2.4807   -1.4119   -1.2395 H   0  0  0  0  0  0  0  0  0  0  0  0
   -3.5056   -1.1093    2.6879 N   0  0  0  0  0  0  0  0  0  0  0  0
   -3.7943   -1.5238    4.0410 C   0  0  0  0  0  0  0  0  0  0  0  0
   -4.2874   -0.8417    2.0972 H   0  0  0  0  0  0  0  0  0  0  0  0
   -3.9614   -2.6108    4.0643 H   0  0  0  0  0  0  0  0  0  0  0  0
   -2.9444   -1.2696    4.6914 H   0  0  0  0  0  0  0  0  0  0  0  0
   -4.6969   -1.0065    4.3982 H   0  0  0  0  0  0  0  0  0  0  0  0
  1  3  1  0  0  0  0
  1  7  1  0  0  0  0
  1  2  2  0  0  0  0
 22 23  1  0  0  0  0
 23 25  1  0  0  0  0
 23 24  2  0  0  0  0
 35 36  1  0  0  0  0
 36 44  1  0  0  0  0
 36 37  2  0  0  0  0
  8  9  1  0  0  0  0
  9 17  1  0  0  0  0
  9 10  2  0  0  0  0
 18 19  1  0  0  0  0
 19 34  1  0  0  0  0
 19 20  2  0  0  0  0
 35 38  1  0  0  0  0
  8 11  1  0  0  0  0
 44 45  1  0  0  0  0
 21 22  1  0  0  0  0
 18 21  1  0  0  0  0
 34 35  1  0  0  0  0
  7  8  1  0  0  0  0
 17 18  1  0  0  0  0
  3  4  1  0  0  0  0
  3  5  1  0  0  0  0
  3  6  1  0  0  0  0
 38 41  1  0  0  0  0
 38 42  1  0  0  0  0
 38 43  1  0  0  0  0
 11 14  1  0  0  0  0
 11 15  1  0  0  0  0
 11 16  1  0  0  0  0
 45 47  1  0  0  0  0
 45 48  1  0  0  0  0
 45 49  1  0  0  0  0
 22 30  1  0  0  0  0
 22 31  1  0  0  0  0
 21 28  1  0  0  0  0
 21 29  1  0  0  0  0
 35 40  1  0  0  0  0
  8 13  1  0  0  0  0
 18 27  1  0  0  0  0
 25 32  1  0  0  0  0
 25 33  1  0  0  0  0
 44 46  1  0  0  0  0
  7 12  1  0  0  0  0
 34 39  1  0  0  0  0
 17 26  1  0  0  0  0
M  END
$$$$

  -OEChem-05262214473D

 49 48  0     1  0  0  0  0  0999 V2000
   -1.9833   -0.0509   -3.3423 C   0  0  0  0  0  0  0  0  0  0  0  0
   -1.6199   -1.0613   -2.7518 O   0  0  0  0  0  0  0  0  0  0  0  0
   -3.3243   -0.0235   -3.9975 C   0  0  0  0  0  0  0  0  0  0  0  0
   -3.2886   -0.3689   -5.0432 H   0  0  0  0  0  0  0  0  0  0  0  0
   -4.0503   -0.6845   -3.4973 H   0  0  0  0  0  0  0  0  0  0  0  0
   -3.8104    0.9645   -4.0351 H   0  0  0  0  0  0  0  0  0  0  0  0
   -1.2607    1.1231   -3.4768 N   0  0  0  0  0  0  0  0  0  0  0  0
    0.0536    1.3115   -2.9213 C   0  0  2  0  0  0  0  0  0  0  0  0
    0.0266    0.8315   -1.4761 C   0  0  0  0  0  0  0  0  0  0  0  0
   -1.0065    0.7530   -0.8146 O   0  0  0  0  0  0  0  0  0  0  0  0
    0.4852    2.7674   -3.0025 C   0  0  0  0  0  0  0  0  0  0  0  0
   -1.6809    1.8924   -3.9952 H   0  0  0  0  0  0  0  0  0  0  0  0
    0.7360    0.6822   -3.5030 H   0  0  0  0  0  0  0  0  0  0  0  0
   -0.1867    3.4133   -2.4256 H   0  0  0  0  0  0  0  0  0  0  0  0
    1.4966    2.9042   -2.6056 H   0  0  0  0  0  0  0  0  0  0  0  0
    0.4754    3.1196   -4.0397 H   0  0  0  0  0  0  0  0  0  0  0  0
    1.2978    0.5411   -0.9947 N   0  0  0  0  0  0  0  0  0  0  0  0
    1.5371    0.0807    0.3489 C   0  0  2  0  0  0  0  0  0  0  0  0
    0.3020   -0.6992    0.7858 C   0  0  0  0  0  0  0  0  0  0  0  0
    0.3532   -1.6578    1.5535 O   0  0  0  0  0  0  0  0  0  0  0  0
    1.8073    1.2385    1.3182 C   0  0  0  0  0  0  0  0  0  0  0  0
    3.1198    1.9729    1.0377 C   0  0  0  0  0  0  0  0  0  0  0  0
    3.3779    3.1338    1.9801 C   0  0  0  0  0  0  0  0  0  0  0  0
    2.5859    3.5092    2.8395 O   0  0  0  0  0  0  0  0  0  0  0  0
    4.5943    3.7385    1.7459 N   0  0  0  0  0  0  0  0  0  0  0  0
    2.0949    0.6178   -1.6227 H   0  0  0  0  0  0  0  0  0  0  0  0
    2.3913   -0.6030    0.2991 H   0  0  0  0  0  0  0  0  0  0  0  0
    0.9846    1.9630    1.2528 H   0  0  0  0  0  0  0  0  0  0  0  0
    1.8078    0.8709    2.3521 H   0  0  0  0  0  0  0  0  0  0  0  0
    3.0811    2.3886    0.0232 H   0  0  0  0  0  0  0  0  0  0  0  0
    3.9686    1.2809    1.0735 H   0  0  0  0  0  0  0  0  0  0  0  0
    5.1848    3.3780    1.0038 H   0  0  0  0  0  0  0  0  0  0  0  0
    4.9204    4.5314    2.2892 H   0  0  0  0  0  0  0  0  0  0  0  0
   -0.8528   -0.2278    0.1770 N   0  0  0  0  0  0  0  0  0  0  0  0
   -2.1593   -0.8038    0.4005 C   0  0  2  0  0  0  0  0  0  0  0  0
   -2.3614   -0.9421    1.9037 C   0  0  0  0  0  0  0  0  0  0  0  0
   -1.4297   -0.9928    2.7039 O   0  0  0  0  0  0  0  0  0  0  0  0
   -2.2962   -2.1505   -0.2926 C   0  0  0  0  0  0  0  0  0  0  0  0
   -0.7758    0.5616   -0.4574 H   0  0  0  0  0  0  0  0  0  0  0  0
   -2.8906   -0.0951   -0.0032 H   0  0  0  0  0  0  0  0  0  0  0  0
   -1.5715   -2.8737    0.0988 H   0  0  0  0  0  0  0  0  0  0  0  0
   -3.2961   -2.5723   -0.1461 H   0  0  0  0  0  0  0  0  0  0  0  0
   -2.1212   -2.0541   -1.3696 H   0  0  0  0  0  0  0  0  0  0  0  0
   -3.7033   -1.0458    2.2425 N   0  0  0  0  0  0  0  0  0  0  0  0
   -4.1535   -1.1985    3.6063 C   0  0  0  0  0  0  0  0  0  0  0  0
   -4.4091   -0.9748    1.5155 H   0  0  0  0  0  0  0  0  0  0  0  0
   -4.2566   -2.2681    3.8414 H   0  0  0  0  0  0  0  0  0  0  0  0
   -3.4201   -0.7425    4.2876 H   0  0  0  0  0  0  0  0  0  0  0  0
   -5.1267   -0.7007    3.7289 H   0  0  0  0  0  0  0  0  0  0  0  0
  1  3  1  0  0  0  0
  1  7  1  0  0  0  0
  1  2  2  0  0  0  0
 22 23  1  0  0  0  0
 23 25  1  0  0  0  0
 23 24  2  0  0  0  0
 35 36  1  0  0  0  0
 36 44  1  0  0  0  0
 36 37  2  0  0  0  0
  8  9  1  0  0  0  0
  9 17  1  0  0  0  0
  9 10  2  0  0  0  0
 18 19  1  0  0  0  0
 19 34  1  0  0  0  0
 19 20  2  0  0  0  0
 35 38  1  0  0  0  0
  8 11  1  0  0  0  0
 44 45  1  0  0  0  0
 21 22  1  0  0  0  0
 18 21  1  0  0  0  0
 34 35  1  0  0  0  0
  7  8  1  0  0  0  0
 17 18  1  0  0  0  0
  3  4  1  0  0  0  0
  3  5  1  0  0  0  0
  3  6  1  0  0  0  0
 38 41  1  0  0  0  0
 38 42  1  0  0  0  0
 38 43  1  0  0  0  0
 11 14  1  0  0  0  0
 11 15  1  0  0  0  0
 11 16  1  0  0  0  0
 45 47  1  0  0  0  0
 45 48  1  0  0  0  0
 45 49  1  0  0  0  0
 22 30  1  0  0  0  0
 22 31  1  0  0  0  0
 21 28  1  0  0  0  0
 21 29  1  0  0  0  0
 35 40  1  0  0  0  0
  8 13  1  0  0  0  0
 18 27  1  0  0  0  0
 25 32  1  0  0  0  0
 25 33  1  0  0  0  0
 44 46  1  0  0  0  0
  7 12  1  0  0  0  0
 34 39  1  0  0  0  0
 17 26  1  0  0  0  0
M  END
$$$$

  -OEChem-05262214473D

 49 48  0     1  0  0  0  0  0999 V2000
   -1.9833   -0.0509   -3.3423 C   0  0  0  0  0  0  0  0  0  0  0  0
   -1.6199   -1.0613   -2.7518 O   0  0  0  0  0  0  0  0  0  0  0  0
   -3.3243   -0.0235   -3.9975 C   0  0  0  0  0  0  0  0  0  0  0  0
   -3.2886   -0.3689   -5.0432 H   0  0  0  0  0  0  0  0  0  0  0  0
   -4.0503   -0.6845   -3.4973 H   0  0  0  0  0  0  0  0  0  0  0  0
   -3.8104    0.9645   -4.0351 H   0  0  0  0  0  0  0  0  0  0  0  0
   -1.2607    1.1231   -3.4768 N   0  0  0  0  0  0  0  0  0  0  0  0
    0.0536    1.3115   -2.9213 C   0  0  2  0  0  0  0  0  0  0  0  0
    0.0266    0.8315   -1.4761 C   0  0  0  0  0  0  0  0  0  0  0  0
   -1.0065    0.7530   -0.8146 O   0  0  0  0  0  0  0  0  0  0  0  0
    0.4852    2.7674   -3.0025 C   0  0  0  0  0  0  0  0  0  0  0  0
   -1.6809    1.8924   -3.9952 H   0  0  0  0  0  0  0  0  0  0  0  0
    0.7360    0.6822   -3.5030 H   0  0  0  0  0  0  0  0  0  0  0  0
   -0.1867    3.4133   -2.4256 H   0  0  0  0  0  0  0  0  0  0  0  0
    1.4966    2.9042   -2.6056 H   0  0  0  0  0  0  0  0  0  0  0  0
    0.4754    3.1196   -4.0397 H   0  0  0  0  0  0  0  0  0  0  0  0
    1.2978    0.5411   -0.9947 N   0  0  0  0  0  0  0  0  0  0  0  0
    1.5371    0.0807    0.3489 C   0  0  2  0  0  0  0  0  0  0  0  0
    0.3020   -0.6992    0.7858 C   0  0  0  0  0  0  0  0  0  0  0  0
    0.3025   -1.4721    1.7416 O   0  0  0  0  0  0  0  0  0  0  0  0
    1.8073    1.2385    1.3182 C   0  0  0  0  0  0  0  0  0  0  0  0
    3.1198    1.9729    1.0377 C   0  0  0  0  0  0  0  0  0  0  0  0
    3.3779    3.1338    1.9801 C   0  0  0  0  0  0  0  0  0  0  0  0
    2.5859    3.5092    2.8395 O   0  0  0  0  0  0  0  0  0  0  0  0
    4.5943    3.7385    1.7459 N   0  0  0  0  0  0  0  0  0  0  0  0
    2.0949    0.6178   -1.6227 H   0  0  0  0  0  0  0  0  0  0  0  0
    2.3913   -0.6030    0.2991 H   0  0  0  0  0  0  0  0  0  0  0  0
    0.9846    1.9630    1.2528 H   0  0  0  0  0  0  0  0  0  0  0  0
    1.8078    0.8709    2.3521 H   0  0  0  0  0  0  0  0  0  0  0  0
    3.0811    2.3886    0.0232 H   0  0  0  0  0  0  0  0  0  0  0  0
    3.9686    1.2809    1.0735 H   0  0  0  0  0  0  0  0  0  0  0  0
    5.1848    3.3780    1.0038 H   0  0  0  0  0  0  0  0  0  0  0  0
    4.9204    4.5314    2.2892 H   0  0  0  0  0  0  0  0  0  0  0  0
   -0.7822   -0.4662   -0.0489 N   0  0  0  0  0  0  0  0  0  0  0  0
   -2.0701   -1.0973    0.1286 C   0  0  2  0  0  0  0  0  0  0  0  0
   -2.4725   -0.9424    1.5893 C   0  0  0  0  0  0  0  0  0  0  0  0
   -1.6609   -0.7457    2.4914 O   0  0  0  0  0  0  0  0  0  0  0  0
   -2.0274   -2.5641   -0.2707 C   0  0  0  0  0  0  0  0  0  0  0  0
   -0.6644    0.1803   -0.8234 H   0  0  0  0  0  0  0  0  0  0  0  0
   -2.7788   -0.5537   -0.5056 H   0  0  0  0  0  0  0  0  0  0  0  0
   -1.3226   -3.1250    0.3538 H   0  0  0  0  0  0  0  0  0  0  0  0
   -3.0107   -3.0335   -0.1628 H   0  0  0  0  0  0  0  0  0  0  0  0
   -1.7091   -2.6751   -1.3129 H   0  0  0  0  0  0  0  0  0  0  0  0
   -3.8399   -1.0925    1.7727 N   0  0  0  0  0  0  0  0  0  0  0  0
   -4.4670   -1.0020    3.0706 C   0  0  0  0  0  0  0  0  0  0  0  0
   -4.4398   -1.2345    0.9654 H   0  0  0  0  0  0  0  0  0  0  0  0
   -4.5377   -2.0057    3.5151 H   0  0  0  0  0  0  0  0  0  0  0  0
   -3.8652   -0.3533    3.7241 H   0  0  0  0  0  0  0  0  0  0  0  0
   -5.4760   -0.5776    2.9614 H   0  0  0  0  0  0  0  0  0  0  0  0
  1  3  1  0  0  0  0
  1  7  1  0  0  0  0
  1  2  2  0  0  0  0
 22 23  1  0  0  0  0
 23 25  1  0  0  0  0
 23 24  2  0  0  0  0
 35 36  1  0  0  0  0
 36 44  1  0  0  0  0
 36 37  2  0  0  0  0
  8  9  1  0  0  0  0
  9 17  1  0  0  0  0
  9 10  2  0  0  0  0
 18 19  1  0  0  0  0
 19 34  1  0  0  0  0
 19 20  2  0  0  0  0
 35 38  1  0  0  0  0
  8 11  1  0  0  0  0
 44 45  1  0  0  0  0
 21 22  1  0  0  0  0
 18 21  1  0  0  0  0
 34 35  1  0  0  0  0
  7  8  1  0  0  0  0
 17 18  1  0  0  0  0
  3  4  1  0  0  0  0
  3  5  1  0  0  0  0
  3  6  1  0  0  0  0
 38 41  1  0  0  0  0
 38 42  1  0  0  0  0
 38 43  1  0  0  0  0
 11 14  1  0  0  0  0
 11 15  1  0  0  0  0
 11 16  1  0  0  0  0
 45 47  1  0  0  0  0
 45 48  1  0  0  0  0
 45 49  1  0  0  0  0
 22 30  1  0  0  0  0
 22 31  1  0  0  0  0
 21 28  1  0  0  0  0
 21 29  1  0  0  0  0
 35 40  1  0  0  0  0
  8 13  1  0  0  0  0
 18 27  1  0  0  0  0
 25 32  1  0  0  0  0
 25 33  1  0  0  0  0
 44 46  1  0  0  0  0
  7 12  1  0  0  0  0
 34 39  1  0  0  0  0
 17 26  1  0  0  0  0
M  END
$$$$

  -OEChem-05262214473D

 49 48  0     1  0  0  0  0  0999 V2000
   -1.9833   -0.0509   -3.3423 C   0  0  0  0  0  0  0  0  0  0  0  0
   -1.6199   -1.0613   -2.7518 O   0  0  0  0  0  0  0  0  0  0  0  0
   -3.3243   -0.0235   -3.9975 C   0  0  0  0  0  0  0  0  0  0  0  0
   -3.2886   -0.3689   -5.0432 H   0  0  0  0  0  0  0  0  0  0  0  0
   -4.0503   -0.6845   -3.4973 H   0  0  0  0  0  0  0  0  0  0  0  0
   -3.8104    0.9645   -4.0351 H   0  0  0  0  0  0  0  0  0  0  0  0
   -1.2607    1.1231   -3.4768 N   0  0  0  0  0  0  0  0  0  0  0  0
    0.0536    1.3115   -2.9213 C   0  0  2  0  0  0  0  0  0  0  0  0
    0.0266    0.8315   -1.4761 C   0  0  0  0  0  0  0  0  0  0  0  0
   -1.0065    0.7530   -0.8146 O   0  0  0  0  0  0  0  0  0  0  0  0
    0.4852    2.7674   -3.0025 C   0  0  0  0  0  0  0  0  0  0  0  0
   -1.6809    1.8924   -3.9952 H   0  0  0  0  0  0  0  0  0  0  0  0
    0.7360    0.6822   -3.5030 H   0  0  0  0  0  0  0  0  0  0  0  0
   -0.1867    3.4133   -2.4256 H   0  0  0  0  0  0  0  0  0  0  0  0
    1.4966    2.9042   -2.6056 H   0  0  0  0  0  0  0  0  0  0  0  0
    0.4754    3.1196   -4.0397 H   0  0  0  0  0  0  0  0  0  0  0  0
    1.2978    0.5411   -0.9947 N   0  0  0  0  0  0  0  0  0  0  0  0
    1.5371    0.0807    0.3489 C   0  0  2  0  0  0  0  0  0  0  0  0
    0.3020   -0.6992    0.7858 C   0  0  0  0  0  0  0  0  0  0  0  0
    0.2148   -1.2570    1.8777 O   0  0  0  0  0  0  0  0  0  0  0  0
    1.8073    1.2385    1.3182 C   0  0  0  0  0  0  0  0  0  0  0  0
    3.1198    1.9729    1.0377 C   0  0  0  0  0  0  0  0  0  0  0  0
    3.3779    3.1338    1.9801 C   0  0  0  0  0  0  0  0  0  0  0  0
    2.5859    3.5092    2.8395 O   0  0  0  0  0  0  0  0  0  0  0  0
    4.5943    3.7385    1.7459 N   0  0  0  0  0  0  0  0  0  0  0  0
    2.0949    0.6178   -1.6227 H   0  0  0  0  0  0  0  0  0  0  0  0
    2.3913   -0.6030    0.2991 H   0  0  0  0  0  0  0  0  0  0  0  0
    0.9846    1.9630    1.2528 H   0  0  0  0  0  0  0  0  0  0  0  0
    1.8078    0.8709    2.3521 H   0  0  0  0  0  0  0  0  0  0  0  0
    3.0811    2.3886    0.0232 H   0  0  0  0  0  0  0  0  0  0  0  0
    3.9686    1.2809    1.0735 H   0  0  0  0  0  0  0  0  0  0  0  0
    5.1848    3.3780    1.0038 H   0  0  0  0  0  0  0  0  0  0  0  0
    4.9204    4.5314    2.2892 H   0  0  0  0  0  0  0  0  0  0  0  0
   -0.6663   -0.7386   -0.2078 N   0  0  0  0  0  0  0  0  0  0  0  0
   -1.9262   -1.4312   -0.0607 C   0  0  2  0  0  0  0  0  0  0  0  0
   -2.5381   -1.0167    1.2710 C   0  0  0  0  0  0  0  0  0  0  0  0
   -1.8744   -0.5687    2.2037 O   0  0  0  0  0  0  0  0  0  0  0  0
   -1.7399   -2.9390   -0.1273 C   0  0  0  0  0  0  0  0  0  0  0  0
   -0.4802   -0.2565   -1.0821 H   0  0  0  0  0  0  0  0  0  0  0  0
   -2.5703   -1.0936   -0.8800 H   0  0  0  0  0  0  0  0  0  0  0  0
   -1.0973   -3.2958    0.6858 H   0  0  0  0  0  0  0  0  0  0  0  0
   -2.6987   -3.4614   -0.0444 H   0  0  0  0  0  0  0  0  0  0  0  0
   -1.2724   -3.2325   -1.0735 H   0  0  0  0  0  0  0  0  0  0  0  0
   -3.9063   -1.2463    1.3107 N   0  0  0  0  0  0  0  0  0  0  0  0
   -4.7135   -0.9477    2.4705 C   0  0  0  0  0  0  0  0  0  0  0  0
   -4.3773   -1.6029    0.4844 H   0  0  0  0  0  0  0  0  0  0  0  0
   -4.7855   -1.8414    3.1078 H   0  0  0  0  0  0  0  0  0  0  0  0
   -4.2494   -0.1285    3.0392 H   0  0  0  0  0  0  0  0  0  0  0  0
   -5.7208   -0.6455    2.1480 H   0  0  0  0  0  0  0  0  0  0  0  0
  1  3  1  0  0  0  0
  1  7  1  0  0  0  0
  1  2  2  0  0  0  0
 22 23  1  0  0  0  0
 23 25  1  0  0  0  0
 23 24  2  0  0  0  0
 35 36  1  0  0  0  0
 36 44  1  0  0  0  0
 36 37  2  0  0  0  0
  8  9  1  0  0  0  0
  9 17  1  0  0  0  0
  9 10  2  0  0  0  0
 18 19  1  0  0  0  0
 19 34  1  0  0  0  0
 19 20  2  0  0  0  0
 35 38  1  0  0  0  0
  8 11  1  0  0  0  0
 44 45  1  0  0  0  0
 21 22  1  0  0  0  0
 18 21  1  0  0  0  0
 34 35  1  0  0  0  0
  7  8  1  0  0  0  0
 17 18  1  0  0  0  0
  3  4  1  0  0  0  0
  3  5  1  0  0  0  0
  3  6  1  0  0  0  0
 38 41  1  0  0  0  0
 38 42  1  0  0  0  0
 38 43  1  0  0  0  0
 11 14  1  0  0  0  0
 11 15  1  0  0  0  0
 11 16  1  0  0  0  0
 45 47  1  0  0  0  0
 45 48  1  0  0  0  0
 45 49  1  0  0  0  0
 22 30  1  0  0  0  0
 22 31  1  0  0  0  0
 21 28  1  0  0  0  0
 21 29  1  0  0  0  0
 35 40  1  0  0  0  0
  8 13  1  0  0  0  0
 18 27  1  0  0  0  0
 25 32  1  0  0  0  0
 25 33  1  0  0  0  0
 44 46  1  0  0  0  0
  7 12  1  0  0  0  0
 34 39  1  0  0  0  0
 17 26  1  0  0  0  0
M  END
$$$$

  -OEChem-05262214473D

 49 48  0     1  0  0  0  0  0999 V2000
   -1.9833   -0.0509   -3.3423 C   0  0  0  0  0  0  0  0  0  0  0  0
   -1.6199   -1.0613   -2.7518 O   0  0  0  0  0  0  0  0  0  0  0  0
   -3.3243   -0.0235   -3.9975 C   0  0  0  0  0  0  0  0  0  0  0  0
   -3.2886   -0.3689   -5.0432 H   0  0  0  0  0  0  0  0  0  0  0  0
   -4.0503   -0.6845   -3.4973 H   0  0  0  0  0  0  0  0  0  0  0  0
   -3.8104    0.9645   -4.0351 H   0  0  0  0  0  0  0  0  0  0  0  0
   -1.2607    1.1231   -3.4768 N   0  0  0  0  0  0  0  0  0  0  0  0
    0.0536    1.3115   -2.9213 C   0  0  2  0  0  0  0  0  0  0  0  0
    0.0266    0.8315   -1.4761 C   0  0  0  0  0  0  0  0  0  0  0  0
   -1.0065    0.7530   -0.8146 O   0  0  0  0  0  0  0  0  0  0  0  0
    0.4852    2.7674   -3.0025 C   0  0  0  0  0  0  0  0  0  0  0  0
   -1.6809    1.8924   -3.9952 H   0  0  0  0  0  0  0  0  0  0  0  0
    0.7360    0.6822   -3.5030 H   0  0  0  0  0  0  0  0  0  0  0  0
   -0.1867    3.4133   -2.4256 H   0  0  0  0  0  0  0  0  0  0  0  0
    1.4966    2.9042   -2.6056 H   0  0  0  0  0  0  0  0  0  0  0  0
    0.4754    3.1196   -4.0397 H   0  0  0  0  0  0  0  0  0  0  0  0
    1.2978    0.5411   -0.9947 N   0  0  0  0  0  0  0  0  0  0  0  0
    1.5371    0.0807    0.3489 C   0  0  2  0  0  0  0  0  0  0  0  0
    0.3020   -0.6992    0.7858 C   0  0  0  0  0  0  0  0  0  0  0  0
    0.0961   -1.0272    1.9524 O   0  0  0  0  0  0  0  0  0  0  0  0
    1.8073    1.2385    1.3182 C   0  0  0  0  0  0  0  0  0  0  0  0
    3.1198    1.9729    1.0377 C   0  0  0  0  0  0  0  0  0  0  0  0
    3.3779    3.1338    1.9801 C   0  0  0  0  0  0  0  0  0  0  0  0
    2.5859    3.5092    2.8395 O   0  0  0  0  0  0  0  0  0  0  0  0
    4.5943    3.7385    1.7459 N   0  0  0  0  0  0  0  0  0  0  0  0
    2.0949    0.6178   -1.6227 H   0  0  0  0  0  0  0  0  0  0  0  0
    2.3913   -0.6030    0.2991 H   0  0  0  0  0  0  0  0  0  0  0  0
    0.9846    1.9630    1.2528 H   0  0  0  0  0  0  0  0  0  0  0  0
    1.8078    0.8709    2.3521 H   0  0  0  0  0  0  0  0  0  0  0  0
    3.0811    2.3886    0.0232 H   0  0  0  0  0  0  0  0  0  0  0  0
    3.9686    1.2809    1.0735 H   0  0  0  0  0  0  0  0  0  0  0  0
    5.1848    3.3780    1.0038 H   0  0  0  0  0  0  0  0  0  0  0  0
    4.9204    4.5314    2.2892 H   0  0  0  0  0  0  0  0  0  0  0  0
   -0.5132   -1.0265   -0.2888 N   0  0  0  0  0  0  0  0  0  0  0  0
   -1.7374   -1.7828   -0.1544 C   0  0  2  0  0  0  0  0  0  0  0  0
   -2.5538   -1.1602    0.9705 C   0  0  0  0  0  0  0  0  0  0  0  0
   -2.0556   -0.4740    1.8604 O   0  0  0  0  0  0  0  0  0  0  0  0
   -1.4533   -3.2499    0.1278 C   0  0  0  0  0  0  0  0  0  0  0  0
   -0.2355   -0.7190   -1.2161 H   0  0  0  0  0  0  0  0  0  0  0  0
   -2.2792   -1.6782   -1.1007 H   0  0  0  0  0  0  0  0  0  0  0  0
   -0.9110   -3.3745    1.0722 H   0  0  0  0  0  0  0  0  0  0  0  0
   -2.3812   -3.8267    0.2010 H   0  0  0  0  0  0  0  0  0  0  0  0
   -0.8410   -3.6883   -0.6675 H   0  0  0  0  0  0  0  0  0  0  0  0
   -3.8978   -1.4966    0.8879 N   0  0  0  0  0  0  0  0  0  0  0  0
   -4.8762   -1.0395    1.8468 C   0  0  0  0  0  0  0  0  0  0  0  0
   -4.2259   -2.0549    0.1054 H   0  0  0  0  0  0  0  0  0  0  0  0
   -4.9831   -1.7866    2.6471 H   0  0  0  0  0  0  0  0  0  0  0  0
   -4.5465   -0.0835    2.2796 H   0  0  0  0  0  0  0  0  0  0  0  0
   -5.8446   -0.8997    1.3441 H   0  0  0  0  0  0  0  0  0  0  0  0
  1  3  1  0  0  0  0
  1  7  1  0  0  0  0
  1  2  2  0  0  0  0
 22 23  1  0  0  0  0
 23 25  1  0  0  0  0
 23 24  2  0  0  0  0
 35 36  1  0  0  0  0
 36 44  1  0  0  0  0
 36 37  2  0  0  0  0
  8  9  1  0  0  0  0
  9 17  1  0  0  0  0
  9 10  2  0  0  0  0
 18 19  1  0  0  0  0
 19 34  1  0  0  0  0
 19 20  2  0  0  0  0
 35 38  1  0  0  0  0
  8 11  1  0  0  0  0
 44 45  1  0  0  0  0
 21 22  1  0  0  0  0
 18 21  1  0  0  0  0
 34 35  1  0  0  0  0
  7  8  1  0  0  0  0
 17 18  1  0  0  0  0
  3  4  1  0  0  0  0
  3  5  1  0  0  0  0
  3  6  1  0  0  0  0
 38 41  1  0  0  0  0
 38 42  1  0  0  0  0
 38 43  1  0  0  0  0
 11 14  1  0  0  0  0
 11 15  1  0  0  0  0
 11 16  1  0  0  0  0
 45 47  1  0  0  0  0
 45 48  1  0  0  0  0
 45 49  1  0  0  0  0
 22 30  1  0  0  0  0
 22 31  1  0  0  0  0
 21 28  1  0  0  0  0
 21 29  1  0  0  0  0
 35 40  1  0  0  0  0
  8 13  1  0  0  0  0
 18 27  1  0  0  0  0
 25 32  1  0  0  0  0
 25 33  1  0  0  0  0
 44 46  1  0  0  0  0
  7 12  1  0  0  0  0
 34 39  1  0  0  0  0
 17 26  1  0  0  0  0
M  END
$$$$

  -OEChem-05262214473D

 49 48  0     1  0  0  0  0  0999 V2000
   -1.9833   -0.0509   -3.3423 C   0  0  0  0  0  0  0  0  0  0  0  0
   -1.6199   -1.0613   -2.7518 O   0  0  0  0  0  0  0  0  0  0  0  0
   -3.3243   -0.0235   -3.9975 C   0  0  0  0  0  0  0  0  0  0  0  0
   -3.2886   -0.3689   -5.0432 H   0  0  0  0  0  0  0  0  0  0  0  0
   -4.0503   -0.6845   -3.4973 H   0  0  0  0  0  0  0  0  0  0  0  0
   -3.8104    0.9645   -4.0351 H   0  0  0  0  0  0  0  0  0  0  0  0
   -1.2607    1.1231   -3.4768 N   0  0  0  0  0  0  0  0  0  0  0  0
    0.0536    1.3115   -2.9213 C   0  0  2  0  0  0  0  0  0  0  0  0
    0.0266    0.8315   -1.4761 C   0  0  0  0  0  0  0  0  0  0  0  0
   -1.0065    0.7530   -0.8146 O   0  0  0  0  0  0  0  0  0  0  0  0
    0.4852    2.7674   -3.0025 C   0  0  0  0  0  0  0  0  0  0  0  0
   -1.6809    1.8924   -3.9952 H   0  0  0  0  0  0  0  0  0  0  0  0
    0.7360    0.6822   -3.5030 H   0  0  0  0  0  0  0  0  0  0  0  0
   -0.1867    3.4133   -2.4256 H   0  0  0  0  0  0  0  0  0  0  0  0
    1.4966    2.9042   -2.6056 H   0  0  0  0  0  0  0  0  0  0  0  0
    0.4754    3.1196   -4.0397 H   0  0  0  0  0  0  0  0  0  0  0  0
    1.2978    0.5411   -0.9947 N   0  0  0  0  0  0  0  0  0  0  0  0
    1.5371    0.0807    0.3489 C   0  0  2  0  0  0  0  0  0  0  0  0
    0.3020   -0.6992    0.7858 C   0  0  0  0  0  0  0  0  0  0  0  0
   -0.0455   -0.7983    1.9607 O   0  0  0  0  0  0  0  0  0  0  0  0
    1.8073    1.2385    1.3182 C   0  0  0  0  0  0  0  0  0  0  0  0
    3.1198    1.9729    1.0377 C   0  0  0  0  0  0  0  0  0  0  0  0
    3.3779    3.1338    1.9801 C   0  0  0  0  0  0  0  0  0  0  0  0
    2.5859    3.5092    2.8395 O   0  0  0  0  0  0  0  0  0  0  0  0
    4.5943    3.7385    1.7459 N   0  0  0  0  0  0  0  0  0  0  0  0
    2.0949    0.6178   -1.6227 H   0  0  0  0  0  0  0  0  0  0  0  0
    2.3913   -0.6030    0.2991 H   0  0  0  0  0  0  0  0  0  0  0  0
    0.9846    1.9630    1.2528 H   0  0  0  0  0  0  0  0  0  0  0  0
    1.8078    0.8709    2.3521 H   0  0  0  0  0  0  0  0  0  0  0  0
    3.0811    2.3886    0.0232 H   0  0  0  0  0  0  0  0  0  0  0  0
    3.9686    1.2809    1.0735 H   0  0  0  0  0  0  0  0  0  0  0  0
    5.1848    3.3780    1.0038 H   0  0  0  0  0  0  0  0  0  0  0  0
    4.9204    4.5314    2.2892 H   0  0  0  0  0  0  0  0  0  0  0  0
   -0.3333   -1.3101   -0.2864 N   0  0  0  0  0  0  0  0  0  0  0  0
   -1.5166   -2.1280   -0.1463 C   0  0  2  0  0  0  0  0  0  0  0  0
   -2.5186   -1.3629    0.7082 C   0  0  0  0  0  0  0  0  0  0  0  0
   -2.1923   -0.4678    1.4850 O   0  0  0  0  0  0  0  0  0  0  0  0
   -1.1873   -3.4753    0.4774 C   0  0  0  0  0  0  0  0  0  0  0  0
    0.0528   -1.1757   -1.2162 H   0  0  0  0  0  0  0  0  0  0  0  0
   -1.9255   -2.2676   -1.1529 H   0  0  0  0  0  0  0  0  0  0  0  0
   -0.7763   -3.3557    1.4865 H   0  0  0  0  0  0  0  0  0  0  0  0
   -2.0799   -4.1046    0.5566 H   0  0  0  0  0  0  0  0  0  0  0  0
   -0.4442   -4.0115   -0.1227 H   0  0  0  0  0  0  0  0  0  0  0  0
   -3.8150   -1.8264    0.5331 N   0  0  0  0  0  0  0  0  0  0  0  0
   -4.9440   -1.2709    1.2421 C   0  0  0  0  0  0  0  0  0  0  0  0
   -3.9960   -2.5598   -0.1460 H   0  0  0  0  0  0  0  0  0  0  0  0
   -5.1170   -1.8449    2.1644 H   0  0  0  0  0  0  0  0  0  0  0  0
   -4.7362   -0.2212    1.4972 H   0  0  0  0  0  0  0  0  0  0  0  0
   -5.8389   -1.3231    0.6046 H   0  0  0  0  0  0  0  0  0  0  0  0
  1  3  1  0  0  0  0
  1  7  1  0  0  0  0
  1  2  2  0  0  0  0
 22 23  1  0  0  0  0
 23 25  1  0  0  0  0
 23 24  2  0  0  0  0
 35 36  1  0  0  0  0
 36 44  1  0  0  0  0
 36 37  2  0  0  0  0
  8  9  1  0  0  0  0
  9 17  1  0  0  0  0
  9 10  2  0  0  0  0
 18 19  1  0  0  0  0
 19 34  1  0  0  0  0
 19 20  2  0  0  0  0
 35 38  1  0  0  0  0
  8 11  1  0  0  0  0
 44 45  1  0  0  0  0
 21 22  1  0  0  0  0
 18 21  1  0  0  0  0
 34 35  1  0  0  0  0
  7  8  1  0  0  0  0
 17 18  1  0  0  0  0
  3  4  1  0  0  0  0
  3  5  1  0  0  0  0
  3  6  1  0  0  0  0
 38 41  1  0  0  0  0
 38 42  1  0  0  0  0
 38 43  1  0  0  0  0
 11 14  1  0  0  0  0
 11 15  1  0  0  0  0
 11 16  1  0  0  0  0
 45 47  1  0  0  0  0
 45 48  1  0  0  0  0
 45 49  1  0  0  0  0
 22 30  1  0  0  0  0
 22 31  1  0  0  0  0
 21 28  1  0  0  0  0
 21 29  1  0  0  0  0
 35 40  1  0  0  0  0
  8 13  1  0  0  0  0
 18 27  1  0  0  0  0
 25 32  1  0  0  0  0
 25 33  1  0  0  0  0
 44 46  1  0  0  0  0
  7 12  1  0  0  0  0
 34 39  1  0  0  0  0
 17 26  1  0  0  0  0
M  END
$$$$

  -OEChem-05262214473D

 49 48  0     1  0  0  0  0  0999 V2000
   -1.9833   -0.0509   -3.3423 C   0  0  0  0  0  0  0  0  0  0  0  0
   -1.6199   -1.0613   -2.7518 O   0  0  0  0  0  0  0  0  0  0  0  0
   -3.3243   -0.0235   -3.9975 C   0  0  0  0  0  0  0  0  0  0  0  0
   -3.2886   -0.3689   -5.0432 H   0  0  0  0  0  0  0  0  0  0  0  0
   -4.0503   -0.6845   -3.4973 H   0  0  0  0  0  0  0  0  0  0  0  0
   -3.8104    0.9645   -4.0351 H   0  0  0  0  0  0  0  0  0  0  0  0
   -1.2607    1.1231   -3.4768 N   0  0  0  0  0  0  0  0  0  0  0  0
    0.0536    1.3115   -2.9213 C   0  0  2  0  0  0  0  0  0  0  0  0
    0.0266    0.8315   -1.4761 C   0  0  0  0  0  0  0  0  0  0  0  0
   -1.0065    0.7530   -0.8146 O   0  0  0  0  0  0  0  0  0  0  0  0
    0.4852    2.7674   -3.0025 C   0  0  0  0  0  0  0  0  0  0  0  0
   -1.6809    1.8924   -3.9952 H   0  0  0  0  0  0  0  0  0  0  0  0
    0.7360    0.6822   -3.5030 H   0  0  0  0  0  0  0  0  0  0  0  0
   -0.1867    3.4133   -2.4256 H   0  0  0  0  0  0  0  0  0  0  0  0
    1.4966    2.9042   -2.6056 H   0  0  0  0  0  0  0  0  0  0  0  0
    0.4754    3.1196   -4.0397 H   0  0  0  0  0  0  0  0  0  0  0  0
    1.2978    0.5411   -0.9947 N   0  0  0  0  0  0  0  0  0  0  0  0
    1.5371    0.0807    0.3489 C   0  0  2  0  0  0  0  0  0  0  0  0
    0.3020   -0.6992    0.7858 C   0  0  0  0  0  0  0  0  0  0  0  0
   -0.2003   -0.5860    1.9020 O   0  0  0  0  0  0  0  0  0  0  0  0
    1.8073    1.2385    1.3182 C   0  0  0  0  0  0  0  0  0  0  0  0
    3.1198    1.9729    1.0377 C   0  0  0  0  0  0  0  0  0  0  0  0
    3.3779    3.1338    1.9801 C   0  0  0  0  0  0  0  0  0  0  0  0
    2.5859    3.5092    2.8395 O   0  0  0  0  0  0  0  0  0  0  0  0
    4.5943    3.7385    1.7459 N   0  0  0  0  0  0  0  0  0  0  0  0
    2.0949    0.6178   -1.6227 H   0  0  0  0  0  0  0  0  0  0  0  0
    2.3913   -0.6030    0.2991 H   0  0  0  0  0  0  0  0  0  0  0  0
    0.9846    1.9630    1.2528 H   0  0  0  0  0  0  0  0  0  0  0  0
    1.8078    0.8709    2.3521 H   0  0  0  0  0  0  0  0  0  0  0  0
    3.0811    2.3886    0.0232 H   0  0  0  0  0  0  0  0  0  0  0  0
    3.9686    1.2809    1.0735 H   0  0  0  0  0  0  0  0  0  0  0  0
    5.1848    3.3780    1.0038 H   0  0  0  0  0  0  0  0  0  0  0  0
    4.9204    4.5314    2.2892 H   0  0  0  0  0  0  0  0  0  0  0  0
   -0.1387   -1.5703   -0.2008 N   0  0  0  0  0  0  0  0  0  0  0  0
   -1.2787   -2.4434   -0.0368 C   0  0  2  0  0  0  0  0  0  0  0  0
   -2.4348   -1.6111    0.5019 C   0  0  0  0  0  0  0  0  0  0  0  0
   -2.2751   -0.5508    1.1029 O   0  0  0  0  0  0  0  0  0  0  0  0
   -0.9599   -3.6001    0.8976 C   0  0  0  0  0  0  0  0  0  0  0  0
    0.3652   -1.5955   -1.0823 H   0  0  0  0  0  0  0  0  0  0  0  0
   -1.5333   -2.8216   -1.0329 H   0  0  0  0  0  0  0  0  0  0  0  0
   -0.7025   -3.2406    1.9006 H   0  0  0  0  0  0  0  0  0  0  0  0
   -1.8154   -4.2761    0.9983 H   0  0  0  0  0  0  0  0  0  0  0  0
   -0.1091   -4.1799    0.5238 H   0  0  0  0  0  0  0  0  0  0  0  0
   -3.6636   -2.2133    0.2705 N   0  0  0  0  0  0  0  0  0  0  0  0
   -4.9123   -1.6263    0.6975 C   0  0  0  0  0  0  0  0  0  0  0  0
   -3.7032   -3.0832   -0.2524 H   0  0  0  0  0  0  0  0  0  0  0  0
   -5.1782   -2.0123    1.6926 H   0  0  0  0  0  0  0  0  0  0  0  0
   -4.8057   -0.5325    0.7452 H   0  0  0  0  0  0  0  0  0  0  0  0
   -5.7041   -1.8866   -0.0202 H   0  0  0  0  0  0  0  0  0  0  0  0
  1  3  1  0  0  0  0
  1  7  1  0  0  0  0
  1  2  2  0  0  0  0
 22 23  1  0  0  0  0
 23 25  1  0  0  0  0
 23 24  2  0  0  0  0
 35 36  1  0  0  0  0
 36 44  1  0  0  0  0
 36 37  2  0  0  0  0
  8  9  1  0  0  0  0
  9 17  1  0  0  0  0
  9 10  2  0  0  0  0
 18 19  1  0  0  0  0
 19 34  1  0  0  0  0
 19 20  2  0  0  0  0
 35 38  1  0  0  0  0
  8 11  1  0  0  0  0
 44 45  1  0  0  0  0
 21 22  1  0  0  0  0
 18 21  1  0  0  0  0
 34 35  1  0  0  0  0
  7  8  1  0  0  0  0
 17 18  1  0  0  0  0
  3  4  1  0  0  0  0
  3  5  1  0  0  0  0
  3  6  1  0  0  0  0
 38 41  1  0  0  0  0
 38 42  1  0  0  0  0
 38 43  1  0  0  0  0
 11 14  1  0  0  0  0
 11 15  1  0  0  0  0
 11 16  1  0  0  0  0
 45 47  1  0  0  0  0
 45 48  1  0  0  0  0
 45 49  1  0  0  0  0
 22 30  1  0  0  0  0
 22 31  1  0  0  0  0
 21 28  1  0  0  0  0
 21 29  1  0  0  0  0
 35 40  1  0  0  0  0
  8 13  1  0  0  0  0
 18 27  1  0  0  0  0
 25 32  1  0  0  0  0
 25 33  1  0  0  0  0
 44 46  1  0  0  0  0
  7 12  1  0  0  0  0
 34 39  1  0  0  0  0
 17 26  1  0  0  0  0
M  END
$$$$

  -OEChem-05262214473D

 49 48  0     1  0  0  0  0  0999 V2000
   -1.9833   -0.0509   -3.3423 C   0  0  0  0  0  0  0  0  0  0  0  0
   -1.6199   -1.0613   -2.7518 O   0  0  0  0  0  0  0  0  0  0  0  0
   -3.3243   -0.0235   -3.9975 C   0  0  0  0  0  0  0  0  0  0  0  0
   -3.2886   -0.3689   -5.0432 H   0  0  0  0  0  0  0  0  0  0  0  0
   -4.0503   -0.6845   -3.4973 H   0  0  0  0  0  0  0  0  0  0  0  0
   -3.8104    0.9645   -4.0351 H   0  0  0  0  0  0  0  0  0  0  0  0
   -1.2607    1.1231   -3.4768 N   0  0  0  0  0  0  0  0  0  0  0  0
    0.0536    1.3115   -2.9213 C   0  0  2  0  0  0  0  0  0  0  0  0
    0.0266    0.8315   -1.4761 C   0  0  0  0  0  0  0  0  0  0  0  0
   -1.0065    0.7530   -0.8146 O   0  0  0  0  0  0  0  0  0  0  0  0
    0.4852    2.7674   -3.0025 C   0  0  0  0  0  0  0  0  0  0  0  0
   -1.6809    1.8924   -3.9952 H   0  0  0  0  0  0  0  0  0  0  0  0
    0.7360    0.6822   -3.5030 H   0  0  0  0  0  0  0  0  0  0  0  0
   -0.1867    3.4133   -2.4256 H   0  0  0  0  0  0  0  0  0  0  0  0
    1.4966    2.9042   -2.6056 H   0  0  0  0  0  0  0  0  0  0  0  0
    0.4754    3.1196   -4.0397 H   0  0  0  0  0  0  0  0  0  0  0  0
    1.2978    0.5411   -0.9947 N   0  0  0  0  0  0  0  0  0  0  0  0
    1.5371    0.0807    0.3489 C   0  0  2  0  0  0  0  0  0  0  0  0
    0.3020   -0.6992    0.7858 C   0  0  0  0  0  0  0  0  0  0  0  0
   -0.3578   -0.4048    1.7802 O   0  0  0  0  0  0  0  0  0  0  0  0
    1.8073    1.2385    1.3182 C   0  0  0  0  0  0  0  0  0  0  0  0
    3.1198    1.9729    1.0377 C   0  0  0  0  0  0  0  0  0  0  0  0
    3.3779    3.1338    1.9801 C   0  0  0  0  0  0  0  0  0  0  0  0
    2.5859    3.5092    2.8395 O   0  0  0  0  0  0  0  0  0  0  0  0
    4.5943    3.7385    1.7459 N   0  0  0  0  0  0  0  0  0  0  0  0
    2.0949    0.6178   -1.6227 H   0  0  0  0  0  0  0  0  0  0  0  0
    2.3913   -0.6030    0.2991 H   0  0  0  0  0  0  0  0  0  0  0  0
    0.9846    1.9630    1.2528 H   0  0  0  0  0  0  0  0  0  0  0  0
    1.8078    0.8709    2.3521 H   0  0  0  0  0  0  0  0  0  0  0  0
    3.0811    2.3886    0.0232 H   0  0  0  0  0  0  0  0  0  0  0  0
    3.9686    1.2809    1.0735 H   0  0  0  0  0  0  0  0  0  0  0  0
    5.1848    3.3780    1.0038 H   0  0  0  0  0  0  0  0  0  0  0  0
    4.9204    4.5314    2.2892 H   0  0  0  0  0  0  0  0  0  0  0  0
    0.0572   -1.7892   -0.0378 N   0  0  0  0  0  0  0  0  0  0  0  0
   -1.0401   -2.7074    0.1666 C   0  0  2  0  0  0  0  0  0  0  0  0
   -2.3082   -1.8879    0.3659 C   0  0  0  0  0  0  0  0  0  0  0  0
   -2.2983   -0.7171    0.7404 O   0  0  0  0  0  0  0  0  0  0  0  0
   -0.7866   -3.6156    1.3597 C   0  0  0  0  0  0  0  0  0  0  0  0
    0.6804   -1.9497   -0.8236 H   0  0  0  0  0  0  0  0  0  0  0  0
   -1.1292   -3.3024   -0.7489 H   0  0  0  0  0  0  0  0  0  0  0  0
   -0.6945   -3.0372    2.2863 H   0  0  0  0  0  0  0  0  0  0  0  0
   -1.6056   -4.3296    1.4959 H   0  0  0  0  0  0  0  0  0  0  0  0
    0.1414   -4.1823    1.2280 H   0  0  0  0  0  0  0  0  0  0  0  0
   -3.4540   -2.6307    0.1180 N   0  0  0  0  0  0  0  0  0  0  0  0
   -4.7831   -2.0813    0.2502 C   0  0  0  0  0  0  0  0  0  0  0  0
   -3.3675   -3.5893   -0.2068 H   0  0  0  0  0  0  0  0  0  0  0  0
   -5.1624   -2.2775    1.2640 H   0  0  0  0  0  0  0  0  0  0  0  0
   -4.7502   -0.9959    0.0749 H   0  0  0  0  0  0  0  0  0  0  0  0
   -5.4494   -2.5519   -0.4878 H   0  0  0  0  0  0  0  0  0  0  0  0
  1  3  1  0  0  0  0
  1  7  1  0  0  0  0
  1  2  2  0  0  0  0
 22 23  1  0  0  0  0
 23 25  1  0  0  0  0
 23 24  2  0  0  0  0
 35 36  1  0  0  0  0
 36 44  1  0  0  0  0
 36 37  2  0  0  0  0
  8  9  1  0  0  0  0
  9 17  1  0  0  0  0
  9 10  2  0  0  0  0
 18 19  1  0  0  0  0
 19 34  1  0  0  0  0
 19 20  2  0  0  0  0
 35 38  1  0  0  0  0
  8 11  1  0  0  0  0
 44 45  1  0  0  0  0
 21 22  1  0  0  0  0
 18 21  1  0  0  0  0
 34 35  1  0  0  0  0
  7  8  1  0  0  0  0
 17 18  1  0  0  0  0
  3  4  1  0  0  0  0
  3  5  1  0  0  0  0
  3  6  1  0  0  0  0
 38 41  1  0  0  0  0
 38 42  1  0  0  0  0
 38 43  1  0  0  0  0
 11 14  1  0  0  0  0
 11 15  1  0  0  0  0
 11 16  1  0  0  0  0
 45 47  1  0  0  0  0
 45 48  1  0  0  0  0
 45 49  1  0  0  0  0
 22 30  1  0  0  0  0
 22 31  1  0  0  0  0
 21 28  1  0  0  0  0
 21 29  1  0  0  0  0
 35 40  1  0  0  0  0
  8 13  1  0  0  0  0
 18 27  1  0  0  0  0
 25 32  1  0  0  0  0
 25 33  1  0  0  0  0
 44 46  1  0  0  0  0
  7 12  1  0  0  0  0
 34 39  1  0  0  0  0
 17 26  1  0  0  0  0
M  END
$$$$

  -OEChem-05262214473D

 49 48  0     1  0  0  0  0  0999 V2000
   -1.9833   -0.0509   -3.3423 C   0  0  0  0  0  0  0  0  0  0  0  0
   -1.6199   -1.0613   -2.7518 O   0  0  0  0  0  0  0  0  0  0  0  0
   -3.3243   -0.0235   -3.9975 C   0  0  0  0  0  0  0  0  0  0  0  0
   -3.2886   -0.3689   -5.0432 H   0  0  0  0  0  0  0  0  0  0  0  0
   -4.0503   -0.6845   -3.4973 H   0  0  0  0  0  0  0  0  0  0  0  0
   -3.8104    0.9645   -4.0351 H   0  0  0  0  0  0  0  0  0  0  0  0
   -1.2607    1.1231   -3.4768 N   0  0  0  0  0  0  0  0  0  0  0  0
    0.0536    1.3115   -2.9213 C   0  0  2  0  0  0  0  0  0  0  0  0
    0.0266    0.8315   -1.4761 C   0  0  0  0  0  0  0  0  0  0  0  0
   -1.0065    0.7530   -0.8146 O   0  0  0  0  0  0  0  0  0  0  0  0
    0.4852    2.7674   -3.0025 C   0  0  0  0  0  0  0  0  0  0  0  0
   -1.6809    1.8924   -3.9952 H   0  0  0  0  0  0  0  0  0  0  0  0
    0.7360    0.6822   -3.5030 H   0  0  0  0  0  0  0  0  0  0  0  0
   -0.1867    3.4133   -2.4256 H   0  0  0  0  0  0  0  0  0  0  0  0
    1.4966    2.9042   -2.6056 H   0  0  0  0  0  0  0  0  0  0  0  0
    0.4754    3.1196   -4.0397 H   0  0  0  0  0  0  0  0  0  0  0  0
    1.2978    0.5411   -0.9947 N   0  0  0  0  0  0  0  0  0  0  0  0
    1.5371    0.0807    0.3489 C   0  0  2  0  0  0  0  0  0  0  0  0
    0.3020   -0.6992    0.7858 C   0  0  0  0  0  0  0  0  0  0  0  0
   -0.5073   -0.2669    1.6038 O   0  0  0  0  0  0  0  0  0  0  0  0
    1.8073    1.2385    1.3182 C   0  0  0  0  0  0  0  0  0  0  0  0
    3.1198    1.9729    1.0377 C   0  0  0  0  0  0  0  0  0  0  0  0
    3.3779    3.1338    1.9801 C   0  0  0  0  0  0  0  0  0  0  0  0
    2.5859    3.5092    2.8395 O   0  0  0  0  0  0  0  0  0  0  0  0
    4.5943    3.7385    1.7459 N   0  0  0  0  0  0  0  0  0  0  0  0
    2.0949    0.6178   -1.6227 H   0  0  0  0  0  0  0  0  0  0  0  0
    2.3913   -0.6030    0.2991 H   0  0  0  0  0  0  0  0  0  0  0  0
    0.9846    1.9630    1.2528 H   0  0  0  0  0  0  0  0  0  0  0  0
    1.8078    0.8709    2.3521 H   0  0  0  0  0  0  0  0  0  0  0  0
    3.0811    2.3886    0.0232 H   0  0  0  0  0  0  0  0  0  0  0  0
    3.9686    1.2809    1.0735 H   0  0  0  0  0  0  0  0  0  0  0  0
    5.1848    3.3780    1.0038 H   0  0  0  0  0  0  0  0  0  0  0  0
    4.9204    4.5314    2.2892 H   0  0  0  0  0  0  0  0  0  0  0  0
    0.2410   -1.9520    0.1915 N   0  0  0  0  0  0  0  0  0  0  0  0
   -0.8169   -2.9021    0.4500 C   0  0  2  0  0  0  0  0  0  0  0  0
   -2.1473   -2.1744    0.3093 C   0  0  0  0  0  0  0  0  0  0  0  0
   -2.2604   -0.9555    0.4219 O   0  0  0  0  0  0  0  0  0  0  0  0
   -0.6793   -3.5209    1.8323 C   0  0  0  0  0  0  0  0  0  0  0  0
    0.9769   -2.2142   -0.4577 H   0  0  0  0  0  0  0  0  0  0  0  0
   -0.7408   -3.6774   -0.3202 H   0  0  0  0  0  0  0  0  0  0  0  0
   -0.7529   -2.7593    2.6172 H   0  0  0  0  0  0  0  0  0  0  0  0
   -1.4649   -4.2613    2.0156 H   0  0  0  0  0  0  0  0  0  0  0  0
    0.2904   -4.0183    1.9419 H   0  0  0  0  0  0  0  0  0  0  0  0
   -3.2003   -3.0504    0.0860 N   0  0  0  0  0  0  0  0  0  0  0  0
   -4.5654   -2.6051   -0.0693 C   0  0  0  0  0  0  0  0  0  0  0  0
   -3.0117   -4.0437   -0.0122 H   0  0  0  0  0  0  0  0  0  0  0  0
   -5.0707   -2.6223    0.9076 H   0  0  0  0  0  0  0  0  0  0  0  0
   -4.5735   -1.5800   -0.4681 H   0  0  0  0  0  0  0  0  0  0  0  0
   -5.0921   -3.2737   -0.7662 H   0  0  0  0  0  0  0  0  0  0  0  0
  1  3  1  0  0  0  0
  1  7  1  0  0  0  0
  1  2  2  0  0  0  0
 22 23  1  0  0  0  0
 23 25  1  0  0  0  0
 23 24  2  0  0  0  0
 35 36  1  0  0  0  0
 36 44  1  0  0  0  0
 36 37  2  0  0  0  0
  8  9  1  0  0  0  0
  9 17  1  0  0  0  0
  9 10  2  0  0  0  0
 18 19  1  0  0  0  0
 19 34  1  0  0  0  0
 19 20  2  0  0  0  0
 35 38  1  0  0  0  0
  8 11  1  0  0  0  0
 44 45  1  0  0  0  0
 21 22  1  0  0  0  0
 18 21  1  0  0  0  0
 34 35  1  0  0  0  0
  7  8  1  0  0  0  0
 17 18  1  0  0  0  0
  3  4  1  0  0  0  0
  3  5  1  0  0  0  0
  3  6  1  0  0  0  0
 38 41  1  0  0  0  0
 38 42  1  0  0  0  0
 38 43  1  0  0  0  0
 11 14  1  0  0  0  0
 11 15  1  0  0  0  0
 11 16  1  0  0  0  0
 45 47  1  0  0  0  0
 45 48  1  0  0  0  0
 45 49  1  0  0  0  0
 22 30  1  0  0  0  0
 22 31  1  0  0  0  0
 21 28  1  0  0  0  0
 21 29  1  0  0  0  0
 35 40  1  0  0  0  0
  8 13  1  0  0  0  0
 18 27  1  0  0  0  0
 25 32  1  0  0  0  0
 25 33  1  0  0  0  0
 44 46  1  0  0  0  0
  7 12  1  0  0  0  0
 34 39  1  0  0  0  0
 17 26  1  0  0  0  0
M  END
$$$$

  -OEChem-05262214473D

 49 48  0     1  0  0  0  0  0999 V2000
   -1.9833   -0.0509   -3.3423 C   0  0  0  0  0  0  0  0  0  0  0  0
   -1.6199   -1.0613   -2.7518 O   0  0  0  0  0  0  0  0  0  0  0  0
   -3.3243   -0.0235   -3.9975 C   0  0  0  0  0  0  0  0  0  0  0  0
   -3.2886   -0.3689   -5.0432 H   0  0  0  0  0  0  0  0  0  0  0  0
   -4.0503   -0.6845   -3.4973 H   0  0  0  0  0  0  0  0  0  0  0  0
   -3.8104    0.9645   -4.0351 H   0  0  0  0  0  0  0  0  0  0  0  0
   -1.2607    1.1231   -3.4768 N   0  0  0  0  0  0  0  0  0  0  0  0
    0.0536    1.3115   -2.9213 C   0  0  2  0  0  0  0  0  0  0  0  0
    0.0266    0.8315   -1.4761 C   0  0  0  0  0  0  0  0  0  0  0  0
   -1.0065    0.7530   -0.8146 O   0  0  0  0  0  0  0  0  0  0  0  0
    0.4852    2.7674   -3.0025 C   0  0  0  0  0  0  0  0  0  0  0  0
   -1.6809    1.8924   -3.9952 H   0  0  0  0  0  0  0  0  0  0  0  0
    0.7360    0.6822   -3.5030 H   0  0  0  0  0  0  0  0  0  0  0  0
   -0.1867    3.4133   -2.4256 H   0  0  0  0  0  0  0  0  0  0  0  0
    1.4966    2.9042   -2.6056 H   0  0  0  0  0  0  0  0  0  0  0  0
    0.4754    3.1196   -4.0397 H   0  0  0  0  0  0  0  0  0  0  0  0
    1.2978    0.5411   -0.9947 N   0  0  0  0  0  0  0  0  0  0  0  0
    1.5371    0.0807    0.3489 C   0  0  2  0  0  0  0  0  0  0  0  0
    0.3020   -0.6992    0.7858 C   0  0  0  0  0  0  0  0  0  0  0  0
   -0.6385   -0.1818    1.3847 O   0  0  0  0  0  0  0  0  0  0  0  0
    1.8073    1.2385    1.3182 C   0  0  0  0  0  0  0  0  0  0  0  0
    3.1198    1.9729    1.0377 C   0  0  0  0  0  0  0  0  0  0  0  0
    3.3779    3.1338    1.9801 C   0  0  0  0  0  0  0  0  0  0  0  0
    2.5859    3.5092    2.8395 O   0  0  0  0  0  0  0  0  0  0  0  0
    4.5943    3.7385    1.7459 N   0  0  0  0  0  0  0  0  0  0  0  0
    2.0949    0.6178   -1.6227 H   0  0  0  0  0  0  0  0  0  0  0  0
    2.3913   -0.6030    0.2991 H   0  0  0  0  0  0  0  0  0  0  0  0
    0.9846    1.9630    1.2528 H   0  0  0  0  0  0  0  0  0  0  0  0
    1.8078    0.8709    2.3521 H   0  0  0  0  0  0  0  0  0  0  0  0
    3.0811    2.3886    0.0232 H   0  0  0  0  0  0  0  0  0  0  0  0
    3.9686    1.2809    1.0735 H   0  0  0  0  0  0  0  0  0  0  0  0
    5.1848    3.3780    1.0038 H   0  0  0  0  0  0  0  0  0  0  0  0
    4.9204    4.5314    2.2892 H   0  0  0  0  0  0  0  0  0  0  0  0
    0.4004   -2.0475    0.4714 N   0  0  0  0  0  0  0  0  0  0  0  0
   -0.6244   -3.0142    0.7941 C   0  0  2  0  0  0  0  0  0  0  0  0
   -1.9632   -2.4510    0.3359 C   0  0  0  0  0  0  0  0  0  0  0  0
   -2.1639   -1.2498    0.1694 O   0  0  0  0  0  0  0  0  0  0  0  0
   -0.6452   -3.3223    2.2831 C   0  0  0  0  0  0  0  0  0  0  0  0
    1.2344   -2.3710   -0.0096 H   0  0  0  0  0  0  0  0  0  0  0  0
   -0.3946   -3.9209    0.2239 H   0  0  0  0  0  0  0  0  0  0  0  0
   -0.8738   -2.4257    2.8708 H   0  0  0  0  0  0  0  0  0  0  0  0
   -1.4029   -4.0760    2.5218 H   0  0  0  0  0  0  0  0  0  0  0  0
    0.3276   -3.6992    2.6168 H   0  0  0  0  0  0  0  0  0  0  0  0
   -2.9199   -3.4437    0.1766 N   0  0  0  0  0  0  0  0  0  0  0  0
   -4.2740   -3.1619   -0.2394 C   0  0  0  0  0  0  0  0  0  0  0  0
   -2.6601   -4.4154    0.3182 H   0  0  0  0  0  0  0  0  0  0  0  0
   -4.9094   -3.0233    0.6478 H   0  0  0  0  0  0  0  0  0  0  0  0
   -4.2875   -2.2449   -0.8467 H   0  0  0  0  0  0  0  0  0  0  0  0
   -4.6566   -4.0028   -0.8364 H   0  0  0  0  0  0  0  0  0  0  0  0
  1  3  1  0  0  0  0
  1  7  1  0  0  0  0
  1  2  2  0  0  0  0
 22 23  1  0  0  0  0
 23 25  1  0  0  0  0
 23 24  2  0  0  0  0
 35 36  1  0  0  0  0
 36 44  1  0  0  0  0
 36 37  2  0  0  0  0
  8  9  1  0  0  0  0
  9 17  1  0  0  0  0
  9 10  2  0  0  0  0
 18 19  1  0  0  0  0
 19 34  1  0  0  0  0
 19 20  2  0  0  0  0
 35 38  1  0  0  0  0
  8 11  1  0  0  0  0
 44 45  1  0  0  0  0
 21 22  1  0  0  0  0
 18 21  1  0  0  0  0
 34 35  1  0  0  0  0
  7  8  1  0  0  0  0
 17 18  1  0  0  0  0
  3  4  1  0  0  0  0
  3  5  1  0  0  0  0
  3  6  1  0  0  0  0
 38 41  1  0  0  0  0
 38 42  1  0  0  0  0
 38 43  1  0  0  0  0
 11 14  1  0  0  0  0
 11 15  1  0  0  0  0
 11 16  1  0  0  0  0
 45 47  1  0  0  0  0
 45 48  1  0  0  0  0
 45 49  1  0  0  0  0
 22 30  1  0  0  0  0
 22 31  1  0  0  0  0
 21 28  1  0  0  0  0
 21 29  1  0  0  0  0
 35 40  1  0  0  0  0
  8 13  1  0  0  0  0
 18 27  1  0  0  0  0
 25 32  1  0  0  0  0
 25 33  1  0  0  0  0
 44 46  1  0  0  0  0
  7 12  1  0  0  0  0
 34 39  1  0  0  0  0
 17 26  1  0  0  0  0
M  END
$$$$

  -OEChem-05262214473D

 49 48  0     1  0  0  0  0  0999 V2000
   -1.9833   -0.0509   -3.3423 C   0  0  0  0  0  0  0  0  0  0  0  0
   -1.6199   -1.0613   -2.7518 O   0  0  0  0  0  0  0  0  0  0  0  0
   -3.3243   -0.0235   -3.9975 C   0  0  0  0  0  0  0  0  0  0  0  0
   -3.2886   -0.3689   -5.0432 H   0  0  0  0  0  0  0  0  0  0  0  0
   -4.0503   -0.6845   -3.4973 H   0  0  0  0  0  0  0  0  0  0  0  0
   -3.8104    0.9645   -4.0351 H   0  0  0  0  0  0  0  0  0  0  0  0
   -1.2607    1.1231   -3.4768 N   0  0  0  0  0  0  0  0  0  0  0  0
    0.0536    1.3115   -2.9213 C   0  0  2  0  0  0  0  0  0  0  0  0
    0.0266    0.8315   -1.4761 C   0  0  0  0  0  0  0  0  0  0  0  0
   -1.0065    0.7530   -0.8146 O   0  0  0  0  0  0  0  0  0  0  0  0
    0.4852    2.7674   -3.0025 C   0  0  0  0  0  0  0  0  0  0  0  0
   -1.6809    1.8924   -3.9952 H   0  0  0  0  0  0  0  0  0  0  0  0
    0.7360    0.6822   -3.5030 H   0  0  0  0  0  0  0  0  0  0  0  0
   -0.1867    3.4133   -2.4256 H   0  0  0  0  0  0  0  0  0  0  0  0
    1.4966    2.9042   -2.6056 H   0  0  0  0  0  0  0  0  0  0  0  0
    0.4754    3.1196   -4.0397 H   0  0  0  0  0  0  0  0  0  0  0  0
    1.2978    0.5411   -0.9947 N   0  0  0  0  0  0  0  0  0  0  0  0
    1.5371    0.0807    0.3489 C   0  0  2  0  0  0  0  0  0  0  0  0
    0.3020   -0.6992    0.7858 C   0  0  0  0  0  0  0  0  0  0  0  0
   -0.7426   -0.1553    1.1378 O   0  0  0  0  0  0  0  0  0  0  0  0
    1.8073    1.2385    1.3182 C   0  0  0  0  0  0  0  0  0  0  0  0
    3.1198    1.9729    1.0377 C   0  0  0  0  0  0  0  0  0  0  0  0
    3.3779    3.1338    1.9801 C   0  0  0  0  0  0  0  0  0  0  0  0
    2.5859    3.5092    2.8395 O   0  0  0  0  0  0  0  0  0  0  0  0
    4.5943    3.7385    1.7459 N   0  0  0  0  0  0  0  0  0  0  0  0
    2.0949    0.6178   -1.6227 H   0  0  0  0  0  0  0  0  0  0  0  0
    2.3913   -0.6030    0.2991 H   0  0  0  0  0  0  0  0  0  0  0  0
    0.9846    1.9630    1.2528 H   0  0  0  0  0  0  0  0  0  0  0  0
    1.8078    0.8709    2.3521 H   0  0  0  0  0  0  0  0  0  0  0  0
    3.0811    2.3886    0.0232 H   0  0  0  0  0  0  0  0  0  0  0  0
    3.9686    1.2809    1.0735 H   0  0  0  0  0  0  0  0  0  0  0  0
    5.1848    3.3780    1.0038 H   0  0  0  0  0  0  0  0  0  0  0  0
    4.9204    4.5314    2.2892 H   0  0  0  0  0  0  0  0  0  0  0  0
    0.5243   -2.0692    0.7829 N   0  0  0  0  0  0  0  0  0  0  0  0
   -0.4757   -3.0360    1.1754 C   0  0  2  0  0  0  0  0  0  0  0  0
   -1.7684   -2.6990    0.4441 C   0  0  0  0  0  0  0  0  0  0  0  0
   -2.0155   -1.5798   -0.0001 O   0  0  0  0  0  0  0  0  0  0  0  0
   -0.6867   -3.0335    2.6815 C   0  0  0  0  0  0  0  0  0  0  0  0
    1.4354   -2.4094    0.4902 H   0  0  0  0  0  0  0  0  0  0  0  0
   -0.1141   -4.0164    0.8463 H   0  0  0  0  0  0  0  0  0  0  0  0
   -1.0489   -2.0594    3.0298 H   0  0  0  0  0  0  0  0  0  0  0  0
   -1.4237   -3.7862    2.9801 H   0  0  0  0  0  0  0  0  0  0  0  0
    0.2506   -3.2467    3.2067 H   0  0  0  0  0  0  0  0  0  0  0  0
   -2.6319   -3.7838    0.3837 N   0  0  0  0  0  0  0  0  0  0  0  0
   -3.9287   -3.7138   -0.2483 C   0  0  0  0  0  0  0  0  0  0  0  0
   -2.3367   -4.6791    0.7619 H   0  0  0  0  0  0  0  0  0  0  0  0
   -4.6894   -3.4532    0.5024 H   0  0  0  0  0  0  0  0  0  0  0  0
   -3.9119   -2.9453   -1.0352 H   0  0  0  0  0  0  0  0  0  0  0  0
   -4.1725   -4.6895   -0.6938 H   0  0  0  0  0  0  0  0  0  0  0  0
  1  3  1  0  0  0  0
  1  7  1  0  0  0  0
  1  2  2  0  0  0  0
 22 23  1  0  0  0  0
 23 25  1  0  0  0  0
 23 24  2  0  0  0  0
 35 36  1  0  0  0  0
 36 44  1  0  0  0  0
 36 37  2  0  0  0  0
  8  9  1  0  0  0  0
  9 17  1  0  0  0  0
  9 10  2  0  0  0  0
 18 19  1  0  0  0  0
 19 34  1  0  0  0  0
 19 20  2  0  0  0  0
 35 38  1  0  0  0  0
  8 11  1  0  0  0  0
 44 45  1  0  0  0  0
 21 22  1  0  0  0  0
 18 21  1  0  0  0  0
 34 35  1  0  0  0  0
  7  8  1  0  0  0  0
 17 18  1  0  0  0  0
  3  4  1  0  0  0  0
  3  5  1  0  0  0  0
  3  6  1  0  0  0  0
 38 41  1  0  0  0  0
 38 42  1  0  0  0  0
 38 43  1  0  0  0  0
 11 14  1  0  0  0  0
 11 15  1  0  0  0  0
 11 16  1  0  0  0  0
 45 47  1  0  0  0  0
 45 48  1  0  0  0  0
 45 49  1  0  0  0  0
 22 30  1  0  0  0  0
 22 31  1  0  0  0  0
 21 28  1  0  0  0  0
 21 29  1  0  0  0  0
 35 40  1  0  0  0  0
  8 13  1  0  0  0  0
 18 27  1  0  0  0  0
 25 32  1  0  0  0  0
 25 33  1  0  0  0  0
 44 46  1  0  0  0  0
  7 12  1  0  0  0  0
 34 39  1  0  0  0  0
 17 26  1  0  0  0  0
M  END
$$$$

  -OEChem-05262214473D

 49 48  0     1  0  0  0  0  0999 V2000
   -1.9833   -0.0509   -3.3423 C   0  0  0  0  0  0  0  0  0  0  0  0
   -1.6199   -1.0613   -2.7518 O   0  0  0  0  0  0  0  0  0  0  0  0
   -3.3243   -0.0235   -3.9975 C   0  0  0  0  0  0  0  0  0  0  0  0
   -3.2886   -0.3689   -5.0432 H   0  0  0  0  0  0  0  0  0  0  0  0
   -4.0503   -0.6845   -3.4973 H   0  0  0  0  0  0  0  0  0  0  0  0
   -3.8104    0.9645   -4.0351 H   0  0  0  0  0  0  0  0  0  0  0  0
   -1.2607    1.1231   -3.4768 N   0  0  0  0  0  0  0  0  0  0  0  0
    0.0536    1.3115   -2.9213 C   0  0  2  0  0  0  0  0  0  0  0  0
    0.0266    0.8315   -1.4761 C   0  0  0  0  0  0  0  0  0  0  0  0
   -1.0065    0.7530   -0.8146 O   0  0  0  0  0  0  0  0  0  0  0  0
    0.4852    2.7674   -3.0025 C   0  0  0  0  0  0  0  0  0  0  0  0
   -1.6809    1.8924   -3.9952 H   0  0  0  0  0  0  0  0  0  0  0  0
    0.7360    0.6822   -3.5030 H   0  0  0  0  0  0  0  0  0  0  0  0
   -0.1867    3.4133   -2.4256 H   0  0  0  0  0  0  0  0  0  0  0  0
    1.4966    2.9042   -2.6056 H   0  0  0  0  0  0  0  0  0  0  0  0
    0.4754    3.1196   -4.0397 H   0  0  0  0  0  0  0  0  0  0  0  0
    1.2978    0.5411   -0.9947 N   0  0  0  0  0  0  0  0  0  0  0  0
    1.5371    0.0807    0.3489 C   0  0  2  0  0  0  0  0  0  0  0  0
    0.3020   -0.6992    0.7858 C   0  0  0  0  0  0  0  0  0  0  0  0
   -0.8124   -0.1891    0.8800 O   0  0  0  0  0  0  0  0  0  0  0  0
    1.8073    1.2385    1.3182 C   0  0  0  0  0  0  0  0  0  0  0  0
    3.1198    1.9729    1.0377 C   0  0  0  0  0  0  0  0  0  0  0  0
    3.3779    3.1338    1.9801 C   0  0  0  0  0  0  0  0  0  0  0  0
    2.5859    3.5092    2.8395 O   0  0  0  0  0  0  0  0  0  0  0  0
    4.5943    3.7385    1.7459 N   0  0  0  0  0  0  0  0  0  0  0  0
    2.0949    0.6178   -1.6227 H   0  0  0  0  0  0  0  0  0  0  0  0
    2.3913   -0.6030    0.2991 H   0  0  0  0  0  0  0  0  0  0  0  0
    0.9846    1.9630    1.2528 H   0  0  0  0  0  0  0  0  0  0  0  0
    1.8078    0.8709    2.3521 H   0  0  0  0  0  0  0  0  0  0  0  0
    3.0811    2.3886    0.0232 H   0  0  0  0  0  0  0  0  0  0  0  0
    3.9686    1.2809    1.0735 H   0  0  0  0  0  0  0  0  0  0  0  0
    5.1848    3.3780    1.0038 H   0  0  0  0  0  0  0  0  0  0  0  0
    4.9204    4.5314    2.2892 H   0  0  0  0  0  0  0  0  0  0  0  0
    0.6043   -2.0157    1.1047 N   0  0  0  0  0  0  0  0  0  0  0  0
   -0.3809   -2.9662    1.5681 C   0  0  2  0  0  0  0  0  0  0  0  0
   -1.5761   -2.9014    0.6263 C   0  0  0  0  0  0  0  0  0  0  0  0
   -1.8252   -1.9231   -0.0750 O   0  0  0  0  0  0  0  0  0  0  0  0
   -0.8009   -2.6741    3.0002 C   0  0  0  0  0  0  0  0  0  0  0  0
    1.5663   -2.3268    1.0077 H   0  0  0  0  0  0  0  0  0  0  0  0
    0.0814   -3.9573    1.5047 H   0  0  0  0  0  0  0  0  0  0  0  0
   -1.2662   -1.6851    3.0834 H   0  0  0  0  0  0  0  0  0  0  0  0
   -1.5260   -3.4118    3.3594 H   0  0  0  0  0  0  0  0  0  0  0  0
    0.0645   -2.6917    3.6714 H   0  0  0  0  0  0  0  0  0  0  0  0
   -2.3559   -4.0475    0.6932 N   0  0  0  0  0  0  0  0  0  0  0  0
   -3.5531   -4.2231   -0.0955 C   0  0  0  0  0  0  0  0  0  0  0  0
   -2.0635   -4.8168    1.2885 H   0  0  0  0  0  0  0  0  0  0  0  0
   -4.4258   -3.8826    0.4811 H   0  0  0  0  0  0  0  0  0  0  0  0
   -3.4722   -3.6335   -1.0206 H   0  0  0  0  0  0  0  0  0  0  0  0
   -3.6729   -5.2870   -0.3479 H   0  0  0  0  0  0  0  0  0  0  0  0
  1  3  1  0  0  0  0
  1  7  1  0  0  0  0
  1  2  2  0  0  0  0
 22 23  1  0  0  0  0
 23 25  1  0  0  0  0
 23 24  2  0  0  0  0
 35 36  1  0  0  0  0
 36 44  1  0  0  0  0
 36 37  2  0  0  0  0
  8  9  1  0  0  0  0
  9 17  1  0  0  0  0
  9 10  2  0  0  0  0
 18 19  1  0  0  0  0
 19 34  1  0  0  0  0
 19 20  2  0  0  0  0
 35 38  1  0  0  0  0
  8 11  1  0  0  0  0
 44 45  1  0  0  0  0
 21 22  1  0  0  0  0
 18 21  1  0  0  0  0
 34 35  1  0  0  0  0
  7  8  1  0  0  0  0
 17 18  1  0  0  0  0
  3  4  1  0  0  0  0
  3  5  1  0  0  0  0
  3  6  1  0  0  0  0
 38 41  1  0  0  0  0
 38 42  1  0  0  0  0
 38 43  1  0  0  0  0
 11 14  1  0  0  0  0
 11 15  1  0  0  0  0
 11 16  1  0  0  0  0
 45 47  1  0  0  0  0
 45 48  1  0  0  0  0
 45 49  1  0  0  0  0
 22 30  1  0  0  0  0
 22 31  1  0  0  0  0
 21 28  1  0  0  0  0
 21 29  1  0  0  0  0
 35 40  1  0  0  0  0
  8 13  1  0  0  0  0
 18 27  1  0  0  0  0
 25 32  1  0  0  0  0
 25 33  1  0  0  0  0
 44 46  1  0  0  0  0
  7 12  1  0  0  0  0
 34 39  1  0  0  0  0
 17 26  1  0  0  0  0
M  END
$$$$

  -OEChem-05262214473D

 49 48  0     1  0  0  0  0  0999 V2000
   -1.9833   -0.0509   -3.3423 C   0  0  0  0  0  0  0  0  0  0  0  0
   -1.6199   -1.0613   -2.7518 O   0  0  0  0  0  0  0  0  0  0  0  0
   -3.3243   -0.0235   -3.9975 C   0  0  0  0  0  0  0  0  0  0  0  0
   -3.2886   -0.3689   -5.0432 H   0  0  0  0  0  0  0  0  0  0  0  0
   -4.0503   -0.6845   -3.4973 H   0  0  0  0  0  0  0  0  0  0  0  0
   -3.8104    0.9645   -4.0351 H   0  0  0  0  0  0  0  0  0  0  0  0
   -1.2607    1.1231   -3.4768 N   0  0  0  0  0  0  0  0  0  0  0  0
    0.0536    1.3115   -2.9213 C   0  0  2  0  0  0  0  0  0  0  0  0
    0.0266    0.8315   -1.4761 C   0  0  0  0  0  0  0  0  0  0  0  0
   -1.0065    0.7530   -0.8146 O   0  0  0  0  0  0  0  0  0  0  0  0
    0.4852    2.7674   -3.0025 C   0  0  0  0  0  0  0  0  0  0  0  0
   -1.6809    1.8924   -3.9952 H   0  0  0  0  0  0  0  0  0  0  0  0
    0.7360    0.6822   -3.5030 H   0  0  0  0  0  0  0  0  0  0  0  0
   -0.1867    3.4133   -2.4256 H   0  0  0  0  0  0  0  0  0  0  0  0
    1.4966    2.9042   -2.6056 H   0  0  0  0  0  0  0  0  0  0  0  0
    0.4754    3.1196   -4.0397 H   0  0  0  0  0  0  0  0  0  0  0  0
    1.2978    0.5411   -0.9947 N   0  0  0  0  0  0  0  0  0  0  0  0
    1.5371    0.0807    0.3489 C   0  0  2  0  0  0  0  0  0  0  0  0
    0.3020   -0.6992    0.7858 C   0  0  0  0  0  0  0  0  0  0  0  0
   -0.8432   -0.2811    0.6289 O   0  0  0  0  0  0  0  0  0  0  0  0
    1.8073    1.2385    1.3182 C   0  0  0  0  0  0  0  0  0  0  0  0
    3.1198    1.9729    1.0377 C   0  0  0  0  0  0  0  0  0  0  0  0
    3.3779    3.1338    1.9801 C   0  0  0  0  0  0  0  0  0  0  0  0
    2.5859    3.5092    2.8395 O   0  0  0  0  0  0  0  0  0  0  0  0
    4.5943    3.7385    1.7459 N   0  0  0  0  0  0  0  0  0  0  0  0
    2.0949    0.6178   -1.6227 H   0  0  0  0  0  0  0  0  0  0  0  0
    2.3913   -0.6030    0.2991 H   0  0  0  0  0  0  0  0  0  0  0  0
    0.9846    1.9630    1.2528 H   0  0  0  0  0  0  0  0  0  0  0  0
    1.8078    0.8709    2.3521 H   0  0  0  0  0  0  0  0  0  0  0  0
    3.0811    2.3886    0.0232 H   0  0  0  0  0  0  0  0  0  0  0  0
    3.9686    1.2809    1.0735 H   0  0  0  0  0  0  0  0  0  0  0  0
    5.1848    3.3780    1.0038 H   0  0  0  0  0  0  0  0  0  0  0  0
    4.9204    4.5314    2.2892 H   0  0  0  0  0  0  0  0  0  0  0  0
    0.6351   -1.8906    1.4150 N   0  0  0  0  0  0  0  0  0  0  0  0
   -0.3466   -2.8093    1.9452 C   0  0  2  0  0  0  0  0  0  0  0  0
   -1.3995   -3.0444    0.8703 C   0  0  0  0  0  0  0  0  0  0  0  0
   -1.6061   -2.2563   -0.0502 O   0  0  0  0  0  0  0  0  0  0  0  0
   -0.9801   -2.2685    3.2176 C   0  0  0  0  0  0  0  0  0  0  0  0
    1.6181   -2.1289    1.5075 H   0  0  0  0  0  0  0  0  0  0  0  0
    0.1788   -3.7476    2.1541 H   0  0  0  0  0  0  0  0  0  0  0  0
   -1.5110   -1.3285    3.0280 H   0  0  0  0  0  0  0  0  0  0  0  0
   -1.7028   -2.9782    3.6336 H   0  0  0  0  0  0  0  0  0  0  0  0
   -0.2179   -2.0719    3.9793 H   0  0  0  0  0  0  0  0  0  0  0  0
   -2.1108   -4.2169    1.0840 N   0  0  0  0  0  0  0  0  0  0  0  0
   -3.1727   -4.6551    0.2087 C   0  0  0  0  0  0  0  0  0  0  0  0
   -1.8590   -4.8192    1.8622 H   0  0  0  0  0  0  0  0  0  0  0  0
   -4.1365   -4.2822    0.5854 H   0  0  0  0  0  0  0  0  0  0  0  0
   -2.9984   -4.2626   -0.8041 H   0  0  0  0  0  0  0  0  0  0  0  0
   -3.1918   -5.7545    0.1775 H   0  0  0  0  0  0  0  0  0  0  0  0
  1  3  1  0  0  0  0
  1  7  1  0  0  0  0
  1  2  2  0  0  0  0
 22 23  1  0  0  0  0
 23 25  1  0  0  0  0
 23 24  2  0  0  0  0
 35 36  1  0  0  0  0
 36 44  1  0  0  0  0
 36 37  2  0  0  0  0
  8  9  1  0  0  0  0
  9 17  1  0  0  0  0
  9 10  2  0  0  0  0
 18 19  1  0  0  0  0
 19 34  1  0  0  0  0
 19 20  2  0  0  0  0
 35 38  1  0  0  0  0
  8 11  1  0  0  0  0
 44 45  1  0  0  0  0
 21 22  1  0  0  0  0
 18 21  1  0  0  0  0
 34 35  1  0  0  0  0
  7  8  1  0  0  0  0
 17 18  1  0  0  0  0
  3  4  1  0  0  0  0
  3  5  1  0  0  0  0
  3  6  1  0  0  0  0
 38 41  1  0  0  0  0
 38 42  1  0  0  0  0
 38 43  1  0  0  0  0
 11 14  1  0  0  0  0
 11 15  1  0  0  0  0
 11 16  1  0  0  0  0
 45 47  1  0  0  0  0
 45 48  1  0  0  0  0
 45 49  1  0  0  0  0
 22 30  1  0  0  0  0
 22 31  1  0  0  0  0
 21 28  1  0  0  0  0
 21 29  1  0  0  0  0
 35 40  1  0  0  0  0
  8 13  1  0  0  0  0
 18 27  1  0  0  0  0
 25 32  1  0  0  0  0
 25 33  1  0  0  0  0
 44 46  1  0  0  0  0
  7 12  1  0  0  0  0
 34 39  1  0  0  0  0
 17 26  1  0  0  0  0
M  END
$$$$

  -OEChem-05262214473D

 49 48  0     1  0  0  0  0  0999 V2000
   -1.9833   -0.0509   -3.3423 C   0  0  0  0  0  0  0  0  0  0  0  0
   -1.6199   -1.0613   -2.7518 O   0  0  0  0  0  0  0  0  0  0  0  0
   -3.3243   -0.0235   -3.9975 C   0  0  0  0  0  0  0  0  0  0  0  0
   -3.2886   -0.3689   -5.0432 H   0  0  0  0  0  0  0  0  0  0  0  0
   -4.0503   -0.6845   -3.4973 H   0  0  0  0  0  0  0  0  0  0  0  0
   -3.8104    0.9645   -4.0351 H   0  0  0  0  0  0  0  0  0  0  0  0
   -1.2607    1.1231   -3.4768 N   0  0  0  0  0  0  0  0  0  0  0  0
    0.0536    1.3115   -2.9213 C   0  0  2  0  0  0  0  0  0  0  0  0
    0.0266    0.8315   -1.4761 C   0  0  0  0  0  0  0  0  0  0  0  0
   -1.0065    0.7530   -0.8146 O   0  0  0  0  0  0  0  0  0  0  0  0
    0.4852    2.7674   -3.0025 C   0  0  0  0  0  0  0  0  0  0  0  0
   -1.6809    1.8924   -3.9952 H   0  0  0  0  0  0  0  0  0  0  0  0
    0.7360    0.6822   -3.5030 H   0  0  0  0  0  0  0  0  0  0  0  0
   -0.1867    3.4133   -2.4256 H   0  0  0  0  0  0  0  0  0  0  0  0
    1.4966    2.9042   -2.6056 H   0  0  0  0  0  0  0  0  0  0  0  0
    0.4754    3.1196   -4.0397 H   0  0  0  0  0  0  0  0  0  0  0  0
    1.2978    0.5411   -0.9947 N   0  0  0  0  0  0  0  0  0  0  0  0
    1.5371    0.0807    0.3489 C   0  0  2  0  0  0  0  0  0  0  0  0
    0.3020   -0.6992    0.7858 C   0  0  0  0  0  0  0  0  0  0  0  0
   -0.8329   -0.4248    0.4015 O   0  0  0  0  0  0  0  0  0  0  0  0
    1.8073    1.2385    1.3182 C   0  0  0  0  0  0  0  0  0  0  0  0
    3.1198    1.9729    1.0377 C   0  0  0  0  0  0  0  0  0  0  0  0
    3.3779    3.1338    1.9801 C   0  0  0  0  0  0  0  0  0  0  0  0
    2.5859    3.5092    2.8395 O   0  0  0  0  0  0  0  0  0  0  0  0
    4.5943    3.7385    1.7459 N   0  0  0  0  0  0  0  0  0  0  0  0
    2.0949    0.6178   -1.6227 H   0  0  0  0  0  0  0  0  0  0  0  0
    2.3913   -0.6030    0.2991 H   0  0  0  0  0  0  0  0  0  0  0  0
    0.9846    1.9630    1.2528 H   0  0  0  0  0  0  0  0  0  0  0  0
    1.8078    0.8709    2.3521 H   0  0  0  0  0  0  0  0  0  0  0  0
    3.0811    2.3886    0.0232 H   0  0  0  0  0  0  0  0  0  0  0  0
    3.9686    1.2809    1.0735 H   0  0  0  0  0  0  0  0  0  0  0  0
    5.1848    3.3780    1.0038 H   0  0  0  0  0  0  0  0  0  0  0  0
    4.9204    4.5314    2.2892 H   0  0  0  0  0  0  0  0  0  0  0  0
    0.6145   -1.7025    1.6926 N   0  0  0  0  0  0  0  0  0  0  0  0
   -0.3749   -2.5762    2.2812 C   0  0  2  0  0  0  0  0  0  0  0  0
   -1.2506   -3.1184    1.1593 C   0  0  0  0  0  0  0  0  0  0  0  0
   -1.3729   -2.5566    0.0727 O   0  0  0  0  0  0  0  0  0  0  0  0
   -1.2120   -1.8445    3.3188 C   0  0  0  0  0  0  0  0  0  0  0  0
    1.5873   -1.8290    1.9557 H   0  0  0  0  0  0  0  0  0  0  0  0
    0.1713   -3.4017    2.7504 H   0  0  0  0  0  0  0  0  0  0  0  0
   -1.7666   -1.0138    2.8673 H   0  0  0  0  0  0  0  0  0  0  0  0
   -1.9420   -2.5150    3.7842 H   0  0  0  0  0  0  0  0  0  0  0  0
   -0.5774   -1.4297    4.1094 H   0  0  0  0  0  0  0  0  0  0  0  0
   -1.9131   -4.2803    1.5294 N   0  0  0  0  0  0  0  0  0  0  0  0
   -2.8135   -4.9805    0.6434 C   0  0  0  0  0  0  0  0  0  0  0  0
   -1.7374   -4.6860    2.4439 H   0  0  0  0  0  0  0  0  0  0  0  0
   -3.8413   -4.6250    0.8083 H   0  0  0  0  0  0  0  0  0  0  0  0
   -2.5227   -4.7897   -0.4002 H   0  0  0  0  0  0  0  0  0  0  0  0
   -2.7620   -6.0603    0.8468 H   0  0  0  0  0  0  0  0  0  0  0  0
  1  3  1  0  0  0  0
  1  7  1  0  0  0  0
  1  2  2  0  0  0  0
 22 23  1  0  0  0  0
 23 25  1  0  0  0  0
 23 24  2  0  0  0  0
 35 36  1  0  0  0  0
 36 44  1  0  0  0  0
 36 37  2  0  0  0  0
  8  9  1  0  0  0  0
  9 17  1  0  0  0  0
  9 10  2  0  0  0  0
 18 19  1  0  0  0  0
 19 34  1  0  0  0  0
 19 20  2  0  0  0  0
 35 38  1  0  0  0  0
  8 11  1  0  0  0  0
 44 45  1  0  0  0  0
 21 22  1  0  0  0  0
 18 21  1  0  0  0  0
 34 35  1  0  0  0  0
  7  8  1  0  0  0  0
 17 18  1  0  0  0  0
  3  4  1  0  0  0  0
  3  5  1  0  0  0  0
  3  6  1  0  0  0  0
 38 41  1  0  0  0  0
 38 42  1  0  0  0  0
 38 43  1  0  0  0  0
 11 14  1  0  0  0  0
 11 15  1  0  0  0  0
 11 16  1  0  0  0  0
 45 47  1  0  0  0  0
 45 48  1  0  0  0  0
 45 49  1  0  0  0  0
 22 30  1  0  0  0  0
 22 31  1  0  0  0  0
 21 28  1  0  0  0  0
 21 29  1  0  0  0  0
 35 40  1  0  0  0  0
  8 13  1  0  0  0  0
 18 27  1  0  0  0  0
 25 32  1  0  0  0  0
 25 33  1  0  0  0  0
 44 46  1  0  0  0  0
  7 12  1  0  0  0  0
 34 39  1  0  0  0  0
 17 26  1  0  0  0  0
M  END
$$$$

  -OEChem-05262214473D

 49 48  0     1  0  0  0  0  0999 V2000
   -1.9833   -0.0509   -3.3423 C   0  0  0  0  0  0  0  0  0  0  0  0
   -1.6199   -1.0613   -2.7518 O   0  0  0  0  0  0  0  0  0  0  0  0
   -3.3243   -0.0235   -3.9975 C   0  0  0  0  0  0  0  0  0  0  0  0
   -3.2886   -0.3689   -5.0432 H   0  0  0  0  0  0  0  0  0  0  0  0
   -4.0503   -0.6845   -3.4973 H   0  0  0  0  0  0  0  0  0  0  0  0
   -3.8104    0.9645   -4.0351 H   0  0  0  0  0  0  0  0  0  0  0  0
   -1.2607    1.1231   -3.4768 N   0  0  0  0  0  0  0  0  0  0  0  0
    0.0536    1.3115   -2.9213 C   0  0  2  0  0  0  0  0  0  0  0  0
    0.0266    0.8315   -1.4761 C   0  0  0  0  0  0  0  0  0  0  0  0
   -1.0065    0.7530   -0.8146 O   0  0  0  0  0  0  0  0  0  0  0  0
    0.4852    2.7674   -3.0025 C   0  0  0  0  0  0  0  0  0  0  0  0
   -1.6809    1.8924   -3.9952 H   0  0  0  0  0  0  0  0  0  0  0  0
    0.7360    0.6822   -3.5030 H   0  0  0  0  0  0  0  0  0  0  0  0
   -0.1867    3.4133   -2.4256 H   0  0  0  0  0  0  0  0  0  0  0  0
    1.4966    2.9042   -2.6056 H   0  0  0  0  0  0  0  0  0  0  0  0
    0.4754    3.1196   -4.0397 H   0  0  0  0  0  0  0  0  0  0  0  0
    1.2978    0.5411   -0.9947 N   0  0  0  0  0  0  0  0  0  0  0  0
    1.5371    0.0807    0.3489 C   0  0  2  0  0  0  0  0  0  0  0  0
    0.3020   -0.6992    0.7858 C   0  0  0  0  0  0  0  0  0  0  0  0
   -0.7821   -0.6106    0.2133 O   0  0  0  0  0  0  0  0  0  0  0  0
    1.8073    1.2385    1.3182 C   0  0  0  0  0  0  0  0  0  0  0  0
    3.1198    1.9729    1.0377 C   0  0  0  0  0  0  0  0  0  0  0  0
    3.3779    3.1338    1.9801 C   0  0  0  0  0  0  0  0  0  0  0  0
    2.5859    3.5092    2.8395 O   0  0  0  0  0  0  0  0  0  0  0  0
    4.5943    3.7385    1.7459 N   0  0  0  0  0  0  0  0  0  0  0  0
    2.0949    0.6178   -1.6227 H   0  0  0  0  0  0  0  0  0  0  0  0
    2.3913   -0.6030    0.2991 H   0  0  0  0  0  0  0  0  0  0  0  0
    0.9846    1.9630    1.2528 H   0  0  0  0  0  0  0  0  0  0  0  0
    1.8078    0.8709    2.3521 H   0  0  0  0  0  0  0  0  0  0  0  0
    3.0811    2.3886    0.0232 H   0  0  0  0  0  0  0  0  0  0  0  0
    3.9686    1.2809    1.0735 H   0  0  0  0  0  0  0  0  0  0  0  0
    5.1848    3.3780    1.0038 H   0  0  0  0  0  0  0  0  0  0  0  0
    4.9204    4.5314    2.2892 H   0  0  0  0  0  0  0  0  0  0  0  0
    0.5438   -1.4641    1.9185 N   0  0  0  0  0  0  0  0  0  0  0  0
   -0.4641   -2.2827    2.5531 C   0  0  2  0  0  0  0  0  0  0  0  0
   -1.1395   -3.1181    1.4736 C   0  0  0  0  0  0  0  0  0  0  0  0
   -1.1417   -2.8037    0.2852 O   0  0  0  0  0  0  0  0  0  0  0  0
   -1.4809   -1.4309    3.2970 C   0  0  0  0  0  0  0  0  0  0  0  0
    1.4760   -1.4477    2.3216 H   0  0  0  0  0  0  0  0  0  0  0  0
    0.0595   -2.9432    3.2528 H   0  0  0  0  0  0  0  0  0  0  0  0
   -2.0155   -0.7625    2.6122 H   0  0  0  0  0  0  0  0  0  0  0  0
   -2.2273   -2.0537    3.8009 H   0  0  0  0  0  0  0  0  0  0  0  0
   -0.9896   -0.8087    4.0528 H   0  0  0  0  0  0  0  0  0  0  0  0
   -1.7765   -4.2336    1.9992 N   0  0  0  0  0  0  0  0  0  0  0  0
   -2.4999   -5.1770    1.1790 C   0  0  0  0  0  0  0  0  0  0  0  0
   -1.7067   -4.4264    2.9940 H   0  0  0  0  0  0  0  0  0  0  0  0
   -3.5602   -4.8874    1.1346 H   0  0  0  0  0  0  0  0  0  0  0  0
   -2.0776   -5.1790    0.1633 H   0  0  0  0  0  0  0  0  0  0  0  0
   -2.4128   -6.1834    1.6143 H   0  0  0  0  0  0  0  0  0  0  0  0
  1  3  1  0  0  0  0
  1  7  1  0  0  0  0
  1  2  2  0  0  0  0
 22 23  1  0  0  0  0
 23 25  1  0  0  0  0
 23 24  2  0  0  0  0
 35 36  1  0  0  0  0
 36 44  1  0  0  0  0
 36 37  2  0  0  0  0
  8  9  1  0  0  0  0
  9 17  1  0  0  0  0
  9 10  2  0  0  0  0
 18 19  1  0  0  0  0
 19 34  1  0  0  0  0
 19 20  2  0  0  0  0
 35 38  1  0  0  0  0
  8 11  1  0  0  0  0
 44 45  1  0  0  0  0
 21 22  1  0  0  0  0
 18 21  1  0  0  0  0
 34 35  1  0  0  0  0
  7  8  1  0  0  0  0
 17 18  1  0  0  0  0
  3  4  1  0  0  0  0
  3  5  1  0  0  0  0
  3  6  1  0  0  0  0
 38 41  1  0  0  0  0
 38 42  1  0  0  0  0
 38 43  1  0  0  0  0
 11 14  1  0  0  0  0
 11 15  1  0  0  0  0
 11 16  1  0  0  0  0
 45 47  1  0  0  0  0
 45 48  1  0  0  0  0
 45 49  1  0  0  0  0
 22 30  1  0  0  0  0
 22 31  1  0  0  0  0
 21 28  1  0  0  0  0
 21 29  1  0  0  0  0
 35 40  1  0  0  0  0
  8 13  1  0  0  0  0
 18 27  1  0  0  0  0
 25 32  1  0  0  0  0
 25 33  1  0  0  0  0
 44 46  1  0  0  0  0
  7 12  1  0  0  0  0
 34 39  1  0  0  0  0
 17 26  1  0  0  0  0
M  END
$$$$

  -OEChem-05262214473D

 49 48  0     1  0  0  0  0  0999 V2000
   -1.9833   -0.0509   -3.3423 C   0  0  0  0  0  0  0  0  0  0  0  0
   -1.6199   -1.0613   -2.7518 O   0  0  0  0  0  0  0  0  0  0  0  0
   -3.3243   -0.0235   -3.9975 C   0  0  0  0  0  0  0  0  0  0  0  0
   -3.2886   -0.3689   -5.0432 H   0  0  0  0  0  0  0  0  0  0  0  0
   -4.0503   -0.6845   -3.4973 H   0  0  0  0  0  0  0  0  0  0  0  0
   -3.8104    0.9645   -4.0351 H   0  0  0  0  0  0  0  0  0  0  0  0
   -1.2607    1.1231   -3.4768 N   0  0  0  0  0  0  0  0  0  0  0  0
    0.0536    1.3115   -2.9213 C   0  0  2  0  0  0  0  0  0  0  0  0
    0.0266    0.8315   -1.4761 C   0  0  0  0  0  0  0  0  0  0  0  0
   -1.0065    0.7530   -0.8146 O   0  0  0  0  0  0  0  0  0  0  0  0
    0.4852    2.7674   -3.0025 C   0  0  0  0  0  0  0  0  0  0  0  0
   -1.6809    1.8924   -3.9952 H   0  0  0  0  0  0  0  0  0  0  0  0
    0.7360    0.6822   -3.5030 H   0  0  0  0  0  0  0  0  0  0  0  0
   -0.1867    3.4133   -2.4256 H   0  0  0  0  0  0  0  0  0  0  0  0
    1.4966    2.9042   -2.6056 H   0  0  0  0  0  0  0  0  0  0  0  0
    0.4754    3.1196   -4.0397 H   0  0  0  0  0  0  0  0  0  0  0  0
    1.2978    0.5411   -0.9947 N   0  0  0  0  0  0  0  0  0  0  0  0
    1.5371    0.0807    0.3489 C   0  0  2  0  0  0  0  0  0  0  0  0
    0.4988   -0.9945    0.6496 C   0  0  0  0  0  0  0  0  0  0  0  0
   -0.3790   -1.3182   -0.1477 O   0  0  0  0  0  0  0  0  0  0  0  0
    1.4417    1.2163    1.3757 C   0  0  0  0  0  0  0  0  0  0  0  0
    2.5538    2.2576    1.2361 C   0  0  0  0  0  0  0  0  0  0  0  0
    2.4479    3.3947    2.2352 C   0  0  0  0  0  0  0  0  0  0  0  0
    1.5243    3.5233    3.0334 O   0  0  0  0  0  0  0  0  0  0  0  0
    3.4950    4.2849    2.1289 N   0  0  0  0  0  0  0  0  0  0  0  0
    2.0949    0.6178   -1.6227 H   0  0  0  0  0  0  0  0  0  0  0  0
    2.5332   -0.3747    0.3521 H   0  0  0  0  0  0  0  0  0  0  0  0
    0.4750    1.7249    1.2619 H   0  0  0  0  0  0  0  0  0  0  0  0
    1.4515    0.8051    2.3930 H   0  0  0  0  0  0  0  0  0  0  0  0
    2.4938    2.7053    0.2364 H   0  0  0  0  0  0  0  0  0  0  0  0
    3.5400    1.7883    1.3237 H   0  0  0  0  0  0  0  0  0  0  0  0
    4.2112    4.1164    1.4303 H   0  0  0  0  0  0  0  0  0  0  0  0
    3.5754    5.1028    2.7245 H   0  0  0  0  0  0  0  0  0  0  0  0
    0.6404   -1.5104    1.9303 N   0  0  0  0  0  0  0  0  0  0  0  0
   -0.2286   -2.5279    2.4763 C   0  0  2  0  0  0  0  0  0  0  0  0
   -0.3391   -3.6506    1.4531 C   0  0  0  0  0  0  0  0  0  0  0  0
   -0.1192   -3.4897    0.2544 O   0  0  0  0  0  0  0  0  0  0  0  0
   -1.5996   -1.9624    2.8129 C   0  0  0  0  0  0  0  0  0  0  0  0
    1.3925   -1.1549    2.5130 H   0  0  0  0  0  0  0  0  0  0  0  0
    0.2571   -2.9056    3.3827 H   0  0  0  0  0  0  0  0  0  0  0  0
   -2.1016   -1.5791    1.9171 H   0  0  0  0  0  0  0  0  0  0  0  0
   -2.2474   -2.7277    3.2529 H   0  0  0  0  0  0  0  0  0  0  0  0
   -1.5156   -1.1354    3.5263 H   0  0  0  0  0  0  0  0  0  0  0  0
   -0.7541   -4.8430    2.0294 N   0  0  0  0  0  0  0  0  0  0  0  0
   -0.9465   -6.0530    1.2648 C   0  0  0  0  0  0  0  0  0  0  0  0
   -0.8950   -4.8899    3.0343 H   0  0  0  0  0  0  0  0  0  0  0  0
   -1.9957   -6.1201    0.9413 H   0  0  0  0  0  0  0  0  0  0  0  0
   -0.2909   -6.0366    0.3816 H   0  0  0  0  0  0  0  0  0  0  0  0
   -0.6989   -6.9243    1.8890 H   0  0  0  0  0  0  0  0  0  0  0  0
  1  3  1  0  0  0  0
  1  7  1  0  0  0  0
  1  2  2  0  0  0  0
 22 23  1  0  0  0  0
 23 25  1  0  0  0  0
 23 24  2  0  0  0  0
 35 36  1  0  0  0  0
 36 44  1  0  0  0  0
 36 37  2  0  0  0  0
  8  9  1  0  0  0  0
  9 17  1  0  0  0  0
  9 10  2  0  0  0  0
 18 19  1  0  0  0  0
 19 34  1  0  0  0  0
 19 20  2  0  0  0  0
 35 38  1  0  0  0  0
  8 11  1  0  0  0  0
 44 45  1  0  0  0  0
 21 22  1  0  0  0  0
 18 21  1  0  0  0  0
 34 35  1  0  0  0  0
  7  8  1  0  0  0  0
 17 18  1  0  0  0  0
  3  4  1  0  0  0  0
  3  5  1  0  0  0  0
  3  6  1  0  0  0  0
 38 41  1  0  0  0  0
 38 42  1  0  0  0  0
 38 43  1  0  0  0  0
 11 14  1  0  0  0  0
 11 15  1  0  0  0  0
 11 16  1  0  0  0  0
 45 47  1  0  0  0  0
 45 48  1  0  0  0  0
 45 49  1  0  0  0  0
 22 30  1  0  0  0  0
 22 31  1  0  0  0  0
 21 28  1  0  0  0  0
 21 29  1  0  0  0  0
 35 40  1  0  0  0  0
  8 13  1  0  0  0  0
 18 27  1  0  0  0  0
 25 32  1  0  0  0  0
 25 33  1  0  0  0  0
 44 46  1  0  0  0  0
  7 12  1  0  0  0  0
 34 39  1  0  0  0  0
 17 26  1  0  0  0  0
M  END
$$$$

  -OEChem-05262214473D

 49 48  0     1  0  0  0  0  0999 V2000
   -1.9833   -0.0509   -3.3423 C   0  0  0  0  0  0  0  0  0  0  0  0
   -1.6199   -1.0613   -2.7518 O   0  0  0  0  0  0  0  0  0  0  0  0
   -3.3243   -0.0235   -3.9975 C   0  0  0  0  0  0  0  0  0  0  0  0
   -3.2886   -0.3689   -5.0432 H   0  0  0  0  0  0  0  0  0  0  0  0
   -4.0503   -0.6845   -3.4973 H   0  0  0  0  0  0  0  0  0  0  0  0
   -3.8104    0.9645   -4.0351 H   0  0  0  0  0  0  0  0  0  0  0  0
   -1.2607    1.1231   -3.4768 N   0  0  0  0  0  0  0  0  0  0  0  0
    0.0536    1.3115   -2.9213 C   0  0  2  0  0  0  0  0  0  0  0  0
    0.0266    0.8315   -1.4761 C   0  0  0  0  0  0  0  0  0  0  0  0
   -1.0065    0.7530   -0.8146 O   0  0  0  0  0  0  0  0  0  0  0  0
    0.4852    2.7674   -3.0025 C   0  0  0  0  0  0  0  0  0  0  0  0
   -1.6809    1.8924   -3.9952 H   0  0  0  0  0  0  0  0  0  0  0  0
    0.7360    0.6822   -3.5030 H   0  0  0  0  0  0  0  0  0  0  0  0
   -0.1867    3.4133   -2.4256 H   0  0  0  0  0  0  0  0  0  0  0  0
    1.4966    2.9042   -2.6056 H   0  0  0  0  0  0  0  0  0  0  0  0
    0.4754    3.1196   -4.0397 H   0  0  0  0  0  0  0  0  0  0  0  0
    1.2978    0.5411   -0.9947 N   0  0  0  0  0  0  0  0  0  0  0  0
    1.5371    0.0807    0.3489 C   0  0  2  0  0  0  0  0  0  0  0  0
    0.4988   -0.9945    0.6496 C   0  0  0  0  0  0  0  0  0  0  0  0
   -0.2025   -1.5086   -0.2192 O   0  0  0  0  0  0  0  0  0  0  0  0
    1.4417    1.2163    1.3757 C   0  0  0  0  0  0  0  0  0  0  0  0
    2.5538    2.2576    1.2361 C   0  0  0  0  0  0  0  0  0  0  0  0
    2.4479    3.3947    2.2352 C   0  0  0  0  0  0  0  0  0  0  0  0
    1.5243    3.5233    3.0334 O   0  0  0  0  0  0  0  0  0  0  0  0
    3.4950    4.2849    2.1289 N   0  0  0  0  0  0  0  0  0  0  0  0
    2.0949    0.6178   -1.6227 H   0  0  0  0  0  0  0  0  0  0  0  0
    2.5332   -0.3747    0.3521 H   0  0  0  0  0  0  0  0  0  0  0  0
    0.4750    1.7249    1.2619 H   0  0  0  0  0  0  0  0  0  0  0  0
    1.4515    0.8051    2.3930 H   0  0  0  0  0  0  0  0  0  0  0  0
    2.4938    2.7053    0.2364 H   0  0  0  0  0  0  0  0  0  0  0  0
    3.5400    1.7883    1.3237 H   0  0  0  0  0  0  0  0  0  0  0  0
    4.2112    4.1164    1.4303 H   0  0  0  0  0  0  0  0  0  0  0  0
    3.5754    5.1028    2.7245 H   0  0  0  0  0  0  0  0  0  0  0  0
    0.4161   -1.2723    2.0069 N   0  0  0  0  0  0  0  0  0  0  0  0
   -0.5039   -2.2374    2.5646 C   0  0  2  0  0  0  0  0  0  0  0  0
   -0.3821   -3.5237    1.7584 C   0  0  0  0  0  0  0  0  0  0  0  0
    0.0525   -3.5564    0.6090 O   0  0  0  0  0  0  0  0  0  0  0  0
   -1.9324   -1.7162    2.5438 C   0  0  0  0  0  0  0  0  0  0  0  0
    1.0331   -0.7723    2.6401 H   0  0  0  0  0  0  0  0  0  0  0  0
   -0.1836   -2.4204    3.5960 H   0  0  0  0  0  0  0  0  0  0  0  0
   -2.2710   -1.5270    1.5186 H   0  0  0  0  0  0  0  0  0  0  0  0
   -2.6242   -2.4366    2.9927 H   0  0  0  0  0  0  0  0  0  0  0  0
   -2.0121   -0.7754    3.0991 H   0  0  0  0  0  0  0  0  0  0  0  0
   -0.8559   -4.6248    2.4579 N   0  0  0  0  0  0  0  0  0  0  0  0
   -0.8598   -5.9583    1.9030 C   0  0  0  0  0  0  0  0  0  0  0  0
   -1.1807   -4.5081    3.4132 H   0  0  0  0  0  0  0  0  0  0  0  0
   -1.8270   -6.1504    1.4156 H   0  0  0  0  0  0  0  0  0  0  0  0
   -0.0516   -6.0495    1.1624 H   0  0  0  0  0  0  0  0  0  0  0  0
   -0.7034   -6.6909    2.7085 H   0  0  0  0  0  0  0  0  0  0  0  0
  1  3  1  0  0  0  0
  1  7  1  0  0  0  0
  1  2  2  0  0  0  0
 22 23  1  0  0  0  0
 23 25  1  0  0  0  0
 23 24  2  0  0  0  0
 35 36  1  0  0  0  0
 36 44  1  0  0  0  0
 36 37  2  0  0  0  0
  8  9  1  0  0  0  0
  9 17  1  0  0  0  0
  9 10  2  0  0  0  0
 18 19  1  0  0  0  0
 19 34  1  0  0  0  0
 19 20  2  0  0  0  0
 35 38  1  0  0  0  0
  8 11  1  0  0  0  0
 44 45  1  0  0  0  0
 21 22  1  0  0  0  0
 18 21  1  0  0  0  0
 34 35  1  0  0  0  0
  7  8  1  0  0  0  0
 17 18  1  0  0  0  0
  3  4  1  0  0  0  0
  3  5  1  0  0  0  0
  3  6  1  0  0  0  0
 38 41  1  0  0  0  0
 38 42  1  0  0  0  0
 38 43  1  0  0  0  0
 11 14  1  0  0  0  0
 11 15  1  0  0  0  0
 11 16  1  0  0  0  0
 45 47  1  0  0  0  0
 45 48  1  0  0  0  0
 45 49  1  0  0  0  0
 22 30  1  0  0  0  0
 22 31  1  0  0  0  0
 21 28  1  0  0  0  0
 21 29  1  0  0  0  0
 35 40  1  0  0  0  0
  8 13  1  0  0  0  0
 18 27  1  0  0  0  0
 25 32  1  0  0  0  0
 25 33  1  0  0  0  0
 44 46  1  0  0  0  0
  7 12  1  0  0  0  0
 34 39  1  0  0  0  0
 17 26  1  0  0  0  0
M  END
$$$$

  -OEChem-05262214473D

 49 48  0     1  0  0  0  0  0999 V2000
   -1.9833   -0.0509   -3.3423 C   0  0  0  0  0  0  0  0  0  0  0  0
   -1.6199   -1.0613   -2.7518 O   0  0  0  0  0  0  0  0  0  0  0  0
   -3.3243   -0.0235   -3.9975 C   0  0  0  0  0  0  0  0  0  0  0  0
   -3.2886   -0.3689   -5.0432 H   0  0  0  0  0  0  0  0  0  0  0  0
   -4.0503   -0.6845   -3.4973 H   0  0  0  0  0  0  0  0  0  0  0  0
   -3.8104    0.9645   -4.0351 H   0  0  0  0  0  0  0  0  0  0  0  0
   -1.2607    1.1231   -3.4768 N   0  0  0  0  0  0  0  0  0  0  0  0
    0.0536    1.3115   -2.9213 C   0  0  2  0  0  0  0  0  0  0  0  0
    0.0266    0.8315   -1.4761 C   0  0  0  0  0  0  0  0  0  0  0  0
   -1.0065    0.7530   -0.8146 O   0  0  0  0  0  0  0  0  0  0  0  0
    0.4852    2.7674   -3.0025 C   0  0  0  0  0  0  0  0  0  0  0  0
   -1.6809    1.8924   -3.9952 H   0  0  0  0  0  0  0  0  0  0  0  0
    0.7360    0.6822   -3.5030 H   0  0  0  0  0  0  0  0  0  0  0  0
   -0.1867    3.4133   -2.4256 H   0  0  0  0  0  0  0  0  0  0  0  0
    1.4966    2.9042   -2.6056 H   0  0  0  0  0  0  0  0  0  0  0  0
    0.4754    3.1196   -4.0397 H   0  0  0  0  0  0  0  0  0  0  0  0
    1.2978    0.5411   -0.9947 N   0  0  0  0  0  0  0  0  0  0  0  0
    1.5371    0.0807    0.3489 C   0  0  2  0  0  0  0  0  0  0  0  0
    0.4988   -0.9945    0.6496 C   0  0  0  0  0  0  0  0  0  0  0  0
   -0.0093   -1.6961   -0.2225 O   0  0  0  0  0  0  0  0  0  0  0  0
    1.4417    1.2163    1.3757 C   0  0  0  0  0  0  0  0  0  0  0  0
    2.5538    2.2576    1.2361 C   0  0  0  0  0  0  0  0  0  0  0  0
    2.4479    3.3947    2.2352 C   0  0  0  0  0  0  0  0  0  0  0  0
    1.5243    3.5233    3.0334 O   0  0  0  0  0  0  0  0  0  0  0  0
    3.4950    4.2849    2.1289 N   0  0  0  0  0  0  0  0  0  0  0  0
    2.0949    0.6178   -1.6227 H   0  0  0  0  0  0  0  0  0  0  0  0
    2.5332   -0.3747    0.3521 H   0  0  0  0  0  0  0  0  0  0  0  0
    0.4750    1.7249    1.2619 H   0  0  0  0  0  0  0  0  0  0  0  0
    1.4515    0.8051    2.3930 H   0  0  0  0  0  0  0  0  0  0  0  0
    2.4938    2.7053    0.2364 H   0  0  0  0  0  0  0  0  0  0  0  0
    3.5400    1.7883    1.3237 H   0  0  0  0  0  0  0  0  0  0  0  0
    4.2112    4.1164    1.4303 H   0  0  0  0  0  0  0  0  0  0  0  0
    3.5754    5.1028    2.7245 H   0  0  0  0  0  0  0  0  0  0  0  0
    0.1733   -1.0403    1.9980 N   0  0  0  0  0  0  0  0  0  0  0  0
   -0.8008   -1.9552    2.5484 C   0  0  2  0  0  0  0  0  0  0  0  0
   -0.4858   -3.3496    2.0231 C   0  0  0  0  0  0  0  0  0  0  0  0
    0.1571   -3.5496    0.9946 O   0  0  0  0  0  0  0  0  0  0  0  0
   -2.2174   -1.5428    2.1798 C   0  0  0  0  0  0  0  0  0  0  0  0
    0.6432   -0.3987    2.6297 H   0  0  0  0  0  0  0  0  0  0  0  0
   -0.6730   -1.9365    3.6362 H   0  0  0  0  0  0  0  0  0  0  0  0
   -2.3645   -1.5555    1.0937 H   0  0  0  0  0  0  0  0  0  0  0  0
   -2.9555   -2.2205    2.6212 H   0  0  0  0  0  0  0  0  0  0  0  0
   -2.4322   -0.5282    2.5324 H   0  0  0  0  0  0  0  0  0  0  0  0
   -1.0437   -4.3438    2.8146 N   0  0  0  0  0  0  0  0  0  0  0  0
   -0.8974   -5.7499    2.5186 C   0  0  0  0  0  0  0  0  0  0  0  0
   -1.5452   -4.0871    3.6598 H   0  0  0  0  0  0  0  0  0  0  0  0
   -1.7490   -6.0875    1.9098 H   0  0  0  0  0  0  0  0  0  0  0  0
    0.0378   -5.9120    1.9626 H   0  0  0  0  0  0  0  0  0  0  0  0
   -0.8691   -6.3212    3.4582 H   0  0  0  0  0  0  0  0  0  0  0  0
  1  3  1  0  0  0  0
  1  7  1  0  0  0  0
  1  2  2  0  0  0  0
 22 23  1  0  0  0  0
 23 25  1  0  0  0  0
 23 24  2  0  0  0  0
 35 36  1  0  0  0  0
 36 44  1  0  0  0  0
 36 37  2  0  0  0  0
  8  9  1  0  0  0  0
  9 17  1  0  0  0  0
  9 10  2  0  0  0  0
 18 19  1  0  0  0  0
 19 34  1  0  0  0  0
 19 20  2  0  0  0  0
 35 38  1  0  0  0  0
  8 11  1  0  0  0  0
 44 45  1  0  0  0  0
 21 22  1  0  0  0  0
 18 21  1  0  0  0  0
 34 35  1  0  0  0  0
  7  8  1  0  0  0  0
 17 18  1  0  0  0  0
  3  4  1  0  0  0  0
  3  5  1  0  0  0  0
  3  6  1  0  0  0  0
 38 41  1  0  0  0  0
 38 42  1  0  0  0  0
 38 43  1  0  0  0  0
 11 14  1  0  0  0  0
 11 15  1  0  0  0  0
 11 16  1  0  0  0  0
 45 47  1  0  0  0  0
 45 48  1  0  0  0  0
 45 49  1  0  0  0  0
 22 30  1  0  0  0  0
 22 31  1  0  0  0  0
 21 28  1  0  0  0  0
 21 29  1  0  0  0  0
 35 40  1  0  0  0  0
  8 13  1  0  0  0  0
 18 27  1  0  0  0  0
 25 32  1  0  0  0  0
 25 33  1  0  0  0  0
 44 46  1  0  0  0  0
  7 12  1  0  0  0  0
 34 39  1  0  0  0  0
 17 26  1  0  0  0  0
M  END
$$$$

  -OEChem-05262214473D

 49 48  0     1  0  0  0  0  0999 V2000
   -1.9833   -0.0509   -3.3423 C   0  0  0  0  0  0  0  0  0  0  0  0
   -1.6199   -1.0613   -2.7518 O   0  0  0  0  0  0  0  0  0  0  0  0
   -3.3243   -0.0235   -3.9975 C   0  0  0  0  0  0  0  0  0  0  0  0
   -3.2886   -0.3689   -5.0432 H   0  0  0  0  0  0  0  0  0  0  0  0
   -4.0503   -0.6845   -3.4973 H   0  0  0  0  0  0  0  0  0  0  0  0
   -3.8104    0.9645   -4.0351 H   0  0  0  0  0  0  0  0  0  0  0  0
   -1.2607    1.1231   -3.4768 N   0  0  0  0  0  0  0  0  0  0  0  0
    0.0536    1.3115   -2.9213 C   0  0  2  0  0  0  0  0  0  0  0  0
    0.0266    0.8315   -1.4761 C   0  0  0  0  0  0  0  0  0  0  0  0
   -1.0065    0.7530   -0.8146 O   0  0  0  0  0  0  0  0  0  0  0  0
    0.4852    2.7674   -3.0025 C   0  0  0  0  0  0  0  0  0  0  0  0
   -1.6809    1.8924   -3.9952 H   0  0  0  0  0  0  0  0  0  0  0  0
    0.7360    0.6822   -3.5030 H   0  0  0  0  0  0  0  0  0  0  0  0
   -0.1867    3.4133   -2.4256 H   0  0  0  0  0  0  0  0  0  0  0  0
    1.4966    2.9042   -2.6056 H   0  0  0  0  0  0  0  0  0  0  0  0
    0.4754    3.1196   -4.0397 H   0  0  0  0  0  0  0  0  0  0  0  0
    1.2978    0.5411   -0.9947 N   0  0  0  0  0  0  0  0  0  0  0  0
    1.5371    0.0807    0.3489 C   0  0  2  0  0  0  0  0  0  0  0  0
    0.4988   -0.9945    0.6496 C   0  0  0  0  0  0  0  0  0  0  0  0
    0.1874   -1.8679   -0.1574 O   0  0  0  0  0  0  0  0  0  0  0  0
    1.4417    1.2163    1.3757 C   0  0  0  0  0  0  0  0  0  0  0  0
    2.5538    2.2576    1.2361 C   0  0  0  0  0  0  0  0  0  0  0  0
    2.4479    3.3947    2.2352 C   0  0  0  0  0  0  0  0  0  0  0  0
    1.5243    3.5233    3.0334 O   0  0  0  0  0  0  0  0  0  0  0  0
    3.4950    4.2849    2.1289 N   0  0  0  0  0  0  0  0  0  0  0  0
    2.0949    0.6178   -1.6227 H   0  0  0  0  0  0  0  0  0  0  0  0
    2.5332   -0.3747    0.3521 H   0  0  0  0  0  0  0  0  0  0  0  0
    0.4750    1.7249    1.2619 H   0  0  0  0  0  0  0  0  0  0  0  0
    1.4515    0.8051    2.3930 H   0  0  0  0  0  0  0  0  0  0  0  0
    2.4938    2.7053    0.2364 H   0  0  0  0  0  0  0  0  0  0  0  0
    3.5400    1.7883    1.3237 H   0  0  0  0  0  0  0  0  0  0  0  0
    4.2112    4.1164    1.4303 H   0  0  0  0  0  0  0  0  0  0  0  0
    3.5754    5.1028    2.7245 H   0  0  0  0  0  0  0  0  0  0  0  0
   -0.0715   -0.8302    1.9042 N   0  0  0  0  0  0  0  0  0  0  0  0
   -1.0990   -1.7007    2.4288 C   0  0  2  0  0  0  0  0  0  0  0  0
   -0.6431   -3.1400    2.2292 C   0  0  0  0  0  0  0  0  0  0  0  0
    0.1874   -3.4696    1.3850 O   0  0  0  0  0  0  0  0  0  0  0  0
   -2.4351   -1.4540    1.7456 C   0  0  0  0  0  0  0  0  0  0  0  0
    0.2494   -0.0595    2.4827 H   0  0  0  0  0  0  0  0  0  0  0  0
   -1.1777   -1.4871    3.5004 H   0  0  0  0  0  0  0  0  0  0  0  0
   -2.3759   -1.6627    0.6711 H   0  0  0  0  0  0  0  0  0  0  0  0
   -3.2188   -2.0942    2.1639 H   0  0  0  0  0  0  0  0  0  0  0  0
   -2.7471   -0.4108    1.8648 H   0  0  0  0  0  0  0  0  0  0  0  0
   -1.3044   -4.0191    3.0755 N   0  0  0  0  0  0  0  0  0  0  0  0
   -1.0567   -5.4419    3.0697 C   0  0  0  0  0  0  0  0  0  0  0  0
   -1.9639   -3.6556    3.7572 H   0  0  0  0  0  0  0  0  0  0  0  0
   -1.7672   -5.9356    2.3903 H   0  0  0  0  0  0  0  0  0  0  0  0
   -0.0290   -5.6337    2.7276 H   0  0  0  0  0  0  0  0  0  0  0  0
   -1.1849   -5.8404    4.0869 H   0  0  0  0  0  0  0  0  0  0  0  0
  1  3  1  0  0  0  0
  1  7  1  0  0  0  0
  1  2  2  0  0  0  0
 22 23  1  0  0  0  0
 23 25  1  0  0  0  0
 23 24  2  0  0  0  0
 35 36  1  0  0  0  0
 36 44  1  0  0  0  0
 36 37  2  0  0  0  0
  8  9  1  0  0  0  0
  9 17  1  0  0  0  0
  9 10  2  0  0  0  0
 18 19  1  0  0  0  0
 19 34  1  0  0  0  0
 19 20  2  0  0  0  0
 35 38  1  0  0  0  0
  8 11  1  0  0  0  0
 44 45  1  0  0  0  0
 21 22  1  0  0  0  0
 18 21  1  0  0  0  0
 34 35  1  0  0  0  0
  7  8  1  0  0  0  0
 17 18  1  0  0  0  0
  3  4  1  0  0  0  0
  3  5  1  0  0  0  0
  3  6  1  0  0  0  0
 38 41  1  0  0  0  0
 38 42  1  0  0  0  0
 38 43  1  0  0  0  0
 11 14  1  0  0  0  0
 11 15  1  0  0  0  0
 11 16  1  0  0  0  0
 45 47  1  0  0  0  0
 45 48  1  0  0  0  0
 45 49  1  0  0  0  0
 22 30  1  0  0  0  0
 22 31  1  0  0  0  0
 21 28  1  0  0  0  0
 21 29  1  0  0  0  0
 35 40  1  0  0  0  0
  8 13  1  0  0  0  0
 18 27  1  0  0  0  0
 25 32  1  0  0  0  0
 25 33  1  0  0  0  0
 44 46  1  0  0  0  0
  7 12  1  0  0  0  0
 34 39  1  0  0  0  0
 17 26  1  0  0  0  0
M  END
$$$$

  -OEChem-05262214473D

 49 48  0     1  0  0  0  0  0999 V2000
   -1.9833   -0.0509   -3.3423 C   0  0  0  0  0  0  0  0  0  0  0  0
   -1.6199   -1.0613   -2.7518 O   0  0  0  0  0  0  0  0  0  0  0  0
   -3.3243   -0.0235   -3.9975 C   0  0  0  0  0  0  0  0  0  0  0  0
   -3.2886   -0.3689   -5.0432 H   0  0  0  0  0  0  0  0  0  0  0  0
   -4.0503   -0.6845   -3.4973 H   0  0  0  0  0  0  0  0  0  0  0  0
   -3.8104    0.9645   -4.0351 H   0  0  0  0  0  0  0  0  0  0  0  0
   -1.2607    1.1231   -3.4768 N   0  0  0  0  0  0  0  0  0  0  0  0
    0.0536    1.3115   -2.9213 C   0  0  2  0  0  0  0  0  0  0  0  0
    0.0266    0.8315   -1.4761 C   0  0  0  0  0  0  0  0  0  0  0  0
   -1.0065    0.7530   -0.8146 O   0  0  0  0  0  0  0  0  0  0  0  0
    0.4852    2.7674   -3.0025 C   0  0  0  0  0  0  0  0  0  0  0  0
   -1.6809    1.8924   -3.9952 H   0  0  0  0  0  0  0  0  0  0  0  0
    0.7360    0.6822   -3.5030 H   0  0  0  0  0  0  0  0  0  0  0  0
   -0.1867    3.4133   -2.4256 H   0  0  0  0  0  0  0  0  0  0  0  0
    1.4966    2.9042   -2.6056 H   0  0  0  0  0  0  0  0  0  0  0  0
    0.4754    3.1196   -4.0397 H   0  0  0  0  0  0  0  0  0  0  0  0
    1.2978    0.5411   -0.9947 N   0  0  0  0  0  0  0  0  0  0  0  0
    1.5371    0.0807    0.3489 C   0  0  2  0  0  0  0  0  0  0  0  0
    0.4988   -0.9945    0.6496 C   0  0  0  0  0  0  0  0  0  0  0  0
    0.3744   -2.0123   -0.0283 O   0  0  0  0  0  0  0  0  0  0  0  0
    1.4417    1.2163    1.3757 C   0  0  0  0  0  0  0  0  0  0  0  0
    2.5538    2.2576    1.2361 C   0  0  0  0  0  0  0  0  0  0  0  0
    2.4479    3.3947    2.2352 C   0  0  0  0  0  0  0  0  0  0  0  0
    1.5243    3.5233    3.0334 O   0  0  0  0  0  0  0  0  0  0  0  0
    3.4950    4.2849    2.1289 N   0  0  0  0  0  0  0  0  0  0  0  0
    2.0949    0.6178   -1.6227 H   0  0  0  0  0  0  0  0  0  0  0  0
    2.5332   -0.3747    0.3521 H   0  0  0  0  0  0  0  0  0  0  0  0
    0.4750    1.7249    1.2619 H   0  0  0  0  0  0  0  0  0  0  0  0
    1.4515    0.8051    2.3930 H   0  0  0  0  0  0  0  0  0  0  0  0
    2.4938    2.7053    0.2364 H   0  0  0  0  0  0  0  0  0  0  0  0
    3.5400    1.7883    1.3237 H   0  0  0  0  0  0  0  0  0  0  0  0
    4.2112    4.1164    1.4303 H   0  0  0  0  0  0  0  0  0  0  0  0
    3.5754    5.1028    2.7245 H   0  0  0  0  0  0  0  0  0  0  0  0
   -0.3015   -0.6563    1.7319 N   0  0  0  0  0  0  0  0  0  0  0  0
   -1.3783   -1.4911    2.2140 C   0  0  2  0  0  0  0  0  0  0  0  0
   -0.8434   -2.9093    2.3626 C   0  0  0  0  0  0  0  0  0  0  0  0
    0.1413   -3.3221    1.7535 O   0  0  0  0  0  0  0  0  0  0  0  0
   -2.5706   -1.4559    1.2707 C   0  0  0  0  0  0  0  0  0  0  0  0
   -0.1214    0.2221    2.2091 H   0  0  0  0  0  0  0  0  0  0  0  0
   -1.6634   -1.1027    3.1978 H   0  0  0  0  0  0  0  0  0  0  0  0
   -2.3042   -1.8413    0.2798 H   0  0  0  0  0  0  0  0  0  0  0  0
   -3.3961   -2.0662    1.6517 H   0  0  0  0  0  0  0  0  0  0  0  0
   -2.9354   -0.4311    1.1417 H   0  0  0  0  0  0  0  0  0  0  0  0
   -1.6205   -3.6727    3.2226 N   0  0  0  0  0  0  0  0  0  0  0  0
   -1.3269   -5.0555    3.5186 C   0  0  0  0  0  0  0  0  0  0  0  0
   -2.4081   -3.2429    3.6988 H   0  0  0  0  0  0  0  0  0  0  0  0
   -1.8802   -5.7051    2.8244 H   0  0  0  0  0  0  0  0  0  0  0  0
   -0.2473   -5.2333    3.4053 H   0  0  0  0  0  0  0  0  0  0  0  0
   -1.6293   -5.2814    4.5518 H   0  0  0  0  0  0  0  0  0  0  0  0
  1  3  1  0  0  0  0
  1  7  1  0  0  0  0
  1  2  2  0  0  0  0
 22 23  1  0  0  0  0
 23 25  1  0  0  0  0
 23 24  2  0  0  0  0
 35 36  1  0  0  0  0
 36 44  1  0  0  0  0
 36 37  2  0  0  0  0
  8  9  1  0  0  0  0
  9 17  1  0  0  0  0
  9 10  2  0  0  0  0
 18 19  1  0  0  0  0
 19 34  1  0  0  0  0
 19 20  2  0  0  0  0
 35 38  1  0  0  0  0
  8 11  1  0  0  0  0
 44 45  1  0  0  0  0
 21 22  1  0  0  0  0
 18 21  1  0  0  0  0
 34 35  1  0  0  0  0
  7  8  1  0  0  0  0
 17 18  1  0  0  0  0
  3  4  1  0  0  0  0
  3  5  1  0  0  0  0
  3  6  1  0  0  0  0
 38 41  1  0  0  0  0
 38 42  1  0  0  0  0
 38 43  1  0  0  0  0
 11 14  1  0  0  0  0
 11 15  1  0  0  0  0
 11 16  1  0  0  0  0
 45 47  1  0  0  0  0
 45 48  1  0  0  0  0
 45 49  1  0  0  0  0
 22 30  1  0  0  0  0
 22 31  1  0  0  0  0
 21 28  1  0  0  0  0
 21 29  1  0  0  0  0
 35 40  1  0  0  0  0
  8 13  1  0  0  0  0
 18 27  1  0  0  0  0
 25 32  1  0  0  0  0
 25 33  1  0  0  0  0
 44 46  1  0  0  0  0
  7 12  1  0  0  0  0
 34 39  1  0  0  0  0
 17 26  1  0  0  0  0
M  END
$$$$

  -OEChem-05262214473D

 49 48  0     1  0  0  0  0  0999 V2000
   -1.9833   -0.0509   -3.3423 C   0  0  0  0  0  0  0  0  0  0  0  0
   -1.6199   -1.0613   -2.7518 O   0  0  0  0  0  0  0  0  0  0  0  0
   -3.3243   -0.0235   -3.9975 C   0  0  0  0  0  0  0  0  0  0  0  0
   -3.2886   -0.3689   -5.0432 H   0  0  0  0  0  0  0  0  0  0  0  0
   -4.0503   -0.6845   -3.4973 H   0  0  0  0  0  0  0  0  0  0  0  0
   -3.8104    0.9645   -4.0351 H   0  0  0  0  0  0  0  0  0  0  0  0
   -1.2607    1.1231   -3.4768 N   0  0  0  0  0  0  0  0  0  0  0  0
    0.0536    1.3115   -2.9213 C   0  0  2  0  0  0  0  0  0  0  0  0
    0.0266    0.8315   -1.4761 C   0  0  0  0  0  0  0  0  0  0  0  0
   -1.0065    0.7530   -0.8146 O   0  0  0  0  0  0  0  0  0  0  0  0
    0.4852    2.7674   -3.0025 C   0  0  0  0  0  0  0  0  0  0  0  0
   -1.6809    1.8924   -3.9952 H   0  0  0  0  0  0  0  0  0  0  0  0
    0.7360    0.6822   -3.5030 H   0  0  0  0  0  0  0  0  0  0  0  0
   -0.1867    3.4133   -2.4256 H   0  0  0  0  0  0  0  0  0  0  0  0
    1.4966    2.9042   -2.6056 H   0  0  0  0  0  0  0  0  0  0  0  0
    0.4754    3.1196   -4.0397 H   0  0  0  0  0  0  0  0  0  0  0  0
    1.2978    0.5411   -0.9947 N   0  0  0  0  0  0  0  0  0  0  0  0
    1.5371    0.0807    0.3489 C   0  0  2  0  0  0  0  0  0  0  0  0
    0.4988   -0.9945    0.6496 C   0  0  0  0  0  0  0  0  0  0  0  0
    0.5388   -2.1196    0.1560 O   0  0  0  0  0  0  0  0  0  0  0  0
    1.4417    1.2163    1.3757 C   0  0  0  0  0  0  0  0  0  0  0  0
    2.5538    2.2576    1.2361 C   0  0  0  0  0  0  0  0  0  0  0  0
    2.4479    3.3947    2.2352 C   0  0  0  0  0  0  0  0  0  0  0  0
    1.5243    3.5233    3.0334 O   0  0  0  0  0  0  0  0  0  0  0  0
    3.4950    4.2849    2.1289 N   0  0  0  0  0  0  0  0  0  0  0  0
    2.0949    0.6178   -1.6227 H   0  0  0  0  0  0  0  0  0  0  0  0
    2.5332   -0.3747    0.3521 H   0  0  0  0  0  0  0  0  0  0  0  0
    0.4750    1.7249    1.2619 H   0  0  0  0  0  0  0  0  0  0  0  0
    1.4515    0.8051    2.3930 H   0  0  0  0  0  0  0  0  0  0  0  0
    2.4938    2.7053    0.2364 H   0  0  0  0  0  0  0  0  0  0  0  0
    3.5400    1.7883    1.3237 H   0  0  0  0  0  0  0  0  0  0  0  0
    4.2112    4.1164    1.4303 H   0  0  0  0  0  0  0  0  0  0  0  0
    3.5754    5.1028    2.7245 H   0  0  0  0  0  0  0  0  0  0  0  0
   -0.5011   -0.5304    1.4928 N   0  0  0  0  0  0  0  0  0  0  0  0
   -1.6195   -1.3408    1.9186 C   0  0  2  0  0  0  0  0  0  0  0  0
   -1.0730   -2.6731    2.4142 C   0  0  0  0  0  0  0  0  0  0  0  0
    0.0220   -3.1170    2.0750 O   0  0  0  0  0  0  0  0  0  0  0  0
   -2.6148   -1.5483    0.7877 C   0  0  0  0  0  0  0  0  0  0  0  0
   -0.4441    0.4269    1.8274 H   0  0  0  0  0  0  0  0  0  0  0  0
   -2.0969   -0.8095    2.7492 H   0  0  0  0  0  0  0  0  0  0  0  0
   -2.1545   -2.0791   -0.0536 H   0  0  0  0  0  0  0  0  0  0  0  0
   -3.4753   -2.1384    1.1198 H   0  0  0  0  0  0  0  0  0  0  0  0
   -2.9843   -0.5878    0.4125 H   0  0  0  0  0  0  0  0  0  0  0  0
   -1.9703   -3.3283    3.2459 N   0  0  0  0  0  0  0  0  0  0  0  0
   -1.6895   -4.6169    3.8348 C   0  0  0  0  0  0  0  0  0  0  0  0
   -2.8475   -2.8773    3.4886 H   0  0  0  0  0  0  0  0  0  0  0  0
   -2.0803   -5.4117    3.1825 H   0  0  0  0  0  0  0  0  0  0  0  0
   -0.6023   -4.7383    3.9495 H   0  0  0  0  0  0  0  0  0  0  0  0
   -2.1719   -4.6821    4.8212 H   0  0  0  0  0  0  0  0  0  0  0  0
  1  3  1  0  0  0  0
  1  7  1  0  0  0  0
  1  2  2  0  0  0  0
 22 23  1  0  0  0  0
 23 25  1  0  0  0  0
 23 24  2  0  0  0  0
 35 36  1  0  0  0  0
 36 44  1  0  0  0  0
 36 37  2  0  0  0  0
  8  9  1  0  0  0  0
  9 17  1  0  0  0  0
  9 10  2  0  0  0  0
 18 19  1  0  0  0  0
 19 34  1  0  0  0  0
 19 20  2  0  0  0  0
 35 38  1  0  0  0  0
  8 11  1  0  0  0  0
 44 45  1  0  0  0  0
 21 22  1  0  0  0  0
 18 21  1  0  0  0  0
 34 35  1  0  0  0  0
  7  8  1  0  0  0  0
 17 18  1  0  0  0  0
  3  4  1  0  0  0  0
  3  5  1  0  0  0  0
  3  6  1  0  0  0  0
 38 41  1  0  0  0  0
 38 42  1  0  0  0  0
 38 43  1  0  0  0  0
 11 14  1  0  0  0  0
 11 15  1  0  0  0  0
 11 16  1  0  0  0  0
 45 47  1  0  0  0  0
 45 48  1  0  0  0  0
 45 49  1  0  0  0  0
 22 30  1  0  0  0  0
 22 31  1  0  0  0  0
 21 28  1  0  0  0  0
 21 29  1  0  0  0  0
 35 40  1  0  0  0  0
  8 13  1  0  0  0  0
 18 27  1  0  0  0  0
 25 32  1  0  0  0  0
 25 33  1  0  0  0  0
 44 46  1  0  0  0  0
  7 12  1  0  0  0  0
 34 39  1  0  0  0  0
 17 26  1  0  0  0  0
M  END
$$$$

  -OEChem-05262214473D

 49 48  0     1  0  0  0  0  0999 V2000
   -1.9833   -0.0509   -3.3423 C   0  0  0  0  0  0  0  0  0  0  0  0
   -1.6199   -1.0613   -2.7518 O   0  0  0  0  0  0  0  0  0  0  0  0
   -3.3243   -0.0235   -3.9975 C   0  0  0  0  0  0  0  0  0  0  0  0
   -3.2886   -0.3689   -5.0432 H   0  0  0  0  0  0  0  0  0  0  0  0
   -4.0503   -0.6845   -3.4973 H   0  0  0  0  0  0  0  0  0  0  0  0
   -3.8104    0.9645   -4.0351 H   0  0  0  0  0  0  0  0  0  0  0  0
   -1.2607    1.1231   -3.4768 N   0  0  0  0  0  0  0  0  0  0  0  0
    0.0536    1.3115   -2.9213 C   0  0  2  0  0  0  0  0  0  0  0  0
    0.0266    0.8315   -1.4761 C   0  0  0  0  0  0  0  0  0  0  0  0
   -1.0065    0.7530   -0.8146 O   0  0  0  0  0  0  0  0  0  0  0  0
    0.4852    2.7674   -3.0025 C   0  0  0  0  0  0  0  0  0  0  0  0
   -1.6809    1.8924   -3.9952 H   0  0  0  0  0  0  0  0  0  0  0  0
    0.7360    0.6822   -3.5030 H   0  0  0  0  0  0  0  0  0  0  0  0
   -0.1867    3.4133   -2.4256 H   0  0  0  0  0  0  0  0  0  0  0  0
    1.4966    2.9042   -2.6056 H   0  0  0  0  0  0  0  0  0  0  0  0
    0.4754    3.1196   -4.0397 H   0  0  0  0  0  0  0  0  0  0  0  0
    1.2978    0.5411   -0.9947 N   0  0  0  0  0  0  0  0  0  0  0  0
    1.5371    0.0807    0.3489 C   0  0  2  0  0  0  0  0  0  0  0  0
    0.4988   -0.9945    0.6496 C   0  0  0  0  0  0  0  0  0  0  0  0
    0.6694   -2.1823    0.3829 O   0  0  0  0  0  0  0  0  0  0  0  0
    1.4417    1.2163    1.3757 C   0  0  0  0  0  0  0  0  0  0  0  0
    2.5538    2.2576    1.2361 C   0  0  0  0  0  0  0  0  0  0  0  0
    2.4479    3.3947    2.2352 C   0  0  0  0  0  0  0  0  0  0  0  0
    1.5243    3.5233    3.0334 O   0  0  0  0  0  0  0  0  0  0  0  0
    3.4950    4.2849    2.1289 N   0  0  0  0  0  0  0  0  0  0  0  0
    2.0949    0.6178   -1.6227 H   0  0  0  0  0  0  0  0  0  0  0  0
    2.5332   -0.3747    0.3521 H   0  0  0  0  0  0  0  0  0  0  0  0
    0.4750    1.7249    1.2619 H   0  0  0  0  0  0  0  0  0  0  0  0
    1.4515    0.8051    2.3930 H   0  0  0  0  0  0  0  0  0  0  0  0
    2.4938    2.7053    0.2364 H   0  0  0  0  0  0  0  0  0  0  0  0
    3.5400    1.7883    1.3237 H   0  0  0  0  0  0  0  0  0  0  0  0
    4.2112    4.1164    1.4303 H   0  0  0  0  0  0  0  0  0  0  0  0
    3.5754    5.1028    2.7245 H   0  0  0  0  0  0  0  0  0  0  0  0
   -0.6567   -0.4611    1.2032 N   0  0  0  0  0  0  0  0  0  0  0  0
   -1.8062   -1.2599    1.5628 C   0  0  2  0  0  0  0  0  0  0  0  0
   -1.3163   -2.4477    2.3806 C   0  0  0  0  0  0  0  0  0  0  0  0
   -0.1624   -2.8683    2.3276 O   0  0  0  0  0  0  0  0  0  0  0  0
   -2.5645   -1.7250    0.3293 C   0  0  0  0  0  0  0  0  0  0  0  0
   -0.6965    0.5411    1.3638 H   0  0  0  0  0  0  0  0  0  0  0  0
   -2.4487   -0.6275    2.1851 H   0  0  0  0  0  0  0  0  0  0  0  0
   -1.9368   -2.3600   -0.3064 H   0  0  0  0  0  0  0  0  0  0  0  0
   -3.4510   -2.3060    0.6042 H   0  0  0  0  0  0  0  0  0  0  0  0
   -2.8904   -0.8702   -0.2731 H   0  0  0  0  0  0  0  0  0  0  0  0
   -2.3301   -3.0095    3.1439 N   0  0  0  0  0  0  0  0  0  0  0  0
   -2.1199   -4.1560    3.9967 C   0  0  0  0  0  0  0  0  0  0  0  0
   -3.2523   -2.5837    3.1410 H   0  0  0  0  0  0  0  0  0  0  0  0
   -2.3539   -5.0755    3.4401 H   0  0  0  0  0  0  0  0  0  0  0  0
   -1.0698   -4.1824    4.3231 H   0  0  0  0  0  0  0  0  0  0  0  0
   -2.7758   -4.0834    4.8768 H   0  0  0  0  0  0  0  0  0  0  0  0
  1  3  1  0  0  0  0
  1  7  1  0  0  0  0
  1  2  2  0  0  0  0
 22 23  1  0  0  0  0
 23 25  1  0  0  0  0
 23 24  2  0  0  0  0
 35 36  1  0  0  0  0
 36 44  1  0  0  0  0
 36 37  2  0  0  0  0
  8  9  1  0  0  0  0
  9 17  1  0  0  0  0
  9 10  2  0  0  0  0
 18 19  1  0  0  0  0
 19 34  1  0  0  0  0
 19 20  2  0  0  0  0
 35 38  1  0  0  0  0
  8 11  1  0  0  0  0
 44 45  1  0  0  0  0
 21 22  1  0  0  0  0
 18 21  1  0  0  0  0
 34 35  1  0  0  0  0
  7  8  1  0  0  0  0
 17 18  1  0  0  0  0
  3  4  1  0  0  0  0
  3  5  1  0  0  0  0
  3  6  1  0  0  0  0
 38 41  1  0  0  0  0
 38 42  1  0  0  0  0
 38 43  1  0  0  0  0
 11 14  1  0  0  0  0
 11 15  1  0  0  0  0
 11 16  1  0  0  0  0
 45 47  1  0  0  0  0
 45 48  1  0  0  0  0
 45 49  1  0  0  0  0
 22 30  1  0  0  0  0
 22 31  1  0  0  0  0
 21 28  1  0  0  0  0
 21 29  1  0  0  0  0
 35 40  1  0  0  0  0
  8 13  1  0  0  0  0
 18 27  1  0  0  0  0
 25 32  1  0  0  0  0
 25 33  1  0  0  0  0
 44 46  1  0  0  0  0
  7 12  1  0  0  0  0
 34 39  1  0  0  0  0
 17 26  1  0  0  0  0
M  END
$$$$

  -OEChem-05262214473D

 49 48  0     1  0  0  0  0  0999 V2000
   -1.9833   -0.0509   -3.3423 C   0  0  0  0  0  0  0  0  0  0  0  0
   -1.6199   -1.0613   -2.7518 O   0  0  0  0  0  0  0  0  0  0  0  0
   -3.3243   -0.0235   -3.9975 C   0  0  0  0  0  0  0  0  0  0  0  0
   -3.2886   -0.3689   -5.0432 H   0  0  0  0  0  0  0  0  0  0  0  0
   -4.0503   -0.6845   -3.4973 H   0  0  0  0  0  0  0  0  0  0  0  0
   -3.8104    0.9645   -4.0351 H   0  0  0  0  0  0  0  0  0  0  0  0
   -1.2607    1.1231   -3.4768 N   0  0  0  0  0  0  0  0  0  0  0  0
    0.0536    1.3115   -2.9213 C   0  0  2  0  0  0  0  0  0  0  0  0
    0.0266    0.8315   -1.4761 C   0  0  0  0  0  0  0  0  0  0  0  0
   -1.0065    0.7530   -0.8146 O   0  0  0  0  0  0  0  0  0  0  0  0
    0.4852    2.7674   -3.0025 C   0  0  0  0  0  0  0  0  0  0  0  0
   -1.6809    1.8924   -3.9952 H   0  0  0  0  0  0  0  0  0  0  0  0
    0.7360    0.6822   -3.5030 H   0  0  0  0  0  0  0  0  0  0  0  0
   -0.1867    3.4133   -2.4256 H   0  0  0  0  0  0  0  0  0  0  0  0
    1.4966    2.9042   -2.6056 H   0  0  0  0  0  0  0  0  0  0  0  0
    0.4754    3.1196   -4.0397 H   0  0  0  0  0  0  0  0  0  0  0  0
    1.2978    0.5411   -0.9947 N   0  0  0  0  0  0  0  0  0  0  0  0
    1.5371    0.0807    0.3489 C   0  0  2  0  0  0  0  0  0  0  0  0
    0.4988   -0.9945    0.6496 C   0  0  0  0  0  0  0  0  0  0  0  0
    0.7574   -2.1962    0.6369 O   0  0  0  0  0  0  0  0  0  0  0  0
    1.4417    1.2163    1.3757 C   0  0  0  0  0  0  0  0  0  0  0  0
    2.5538    2.2576    1.2361 C   0  0  0  0  0  0  0  0  0  0  0  0
    2.4479    3.3947    2.2352 C   0  0  0  0  0  0  0  0  0  0  0  0
    1.5243    3.5233    3.0334 O   0  0  0  0  0  0  0  0  0  0  0  0
    3.4950    4.2849    2.1289 N   0  0  0  0  0  0  0  0  0  0  0  0
    2.0949    0.6178   -1.6227 H   0  0  0  0  0  0  0  0  0  0  0  0
    2.5332   -0.3747    0.3521 H   0  0  0  0  0  0  0  0  0  0  0  0
    0.4750    1.7249    1.2619 H   0  0  0  0  0  0  0  0  0  0  0  0
    1.4515    0.8051    2.3930 H   0  0  0  0  0  0  0  0  0  0  0  0
    2.4938    2.7053    0.2364 H   0  0  0  0  0  0  0  0  0  0  0  0
    3.5400    1.7883    1.3237 H   0  0  0  0  0  0  0  0  0  0  0  0
    4.2112    4.1164    1.4303 H   0  0  0  0  0  0  0  0  0  0  0  0
    3.5754    5.1028    2.7245 H   0  0  0  0  0  0  0  0  0  0  0  0
   -0.7577   -0.4531    0.8829 N   0  0  0  0  0  0  0  0  0  0  0  0
   -1.9258   -1.2541    1.1707 C   0  0  2  0  0  0  0  0  0  0  0  0
   -1.5566   -2.2482    2.2639 C   0  0  0  0  0  0  0  0  0  0  0  0
   -0.3994   -2.5930    2.4941 O   0  0  0  0  0  0  0  0  0  0  0  0
   -2.4233   -1.9739   -0.0731 C   0  0  0  0  0  0  0  0  0  0  0  0
   -0.8615    0.5567    0.8498 H   0  0  0  0  0  0  0  0  0  0  0  0
   -2.6949   -0.5691    1.5438 H   0  0  0  0  0  0  0  0  0  0  0  0
   -1.6661   -2.6647   -0.4614 H   0  0  0  0  0  0  0  0  0  0  0  0
   -3.3249   -2.5576    0.1402 H   0  0  0  0  0  0  0  0  0  0  0  0
   -2.6601   -1.2590   -0.8685 H   0  0  0  0  0  0  0  0  0  0  0  0
   -2.6752   -2.7378    2.9235 N   0  0  0  0  0  0  0  0  0  0  0  0
   -2.5887   -3.7043    3.9933 C   0  0  0  0  0  0  0  0  0  0  0  0
   -3.5948   -2.3820    2.6795 H   0  0  0  0  0  0  0  0  0  0  0  0
   -2.6824   -4.7192    3.5797 H   0  0  0  0  0  0  0  0  0  0  0  0
   -1.6179   -3.6035    4.5007 H   0  0  0  0  0  0  0  0  0  0  0  0
   -3.3998   -3.5261    4.7147 H   0  0  0  0  0  0  0  0  0  0  0  0
  1  3  1  0  0  0  0
  1  7  1  0  0  0  0
  1  2  2  0  0  0  0
 22 23  1  0  0  0  0
 23 25  1  0  0  0  0
 23 24  2  0  0  0  0
 35 36  1  0  0  0  0
 36 44  1  0  0  0  0
 36 37  2  0  0  0  0
  8  9  1  0  0  0  0
  9 17  1  0  0  0  0
  9 10  2  0  0  0  0
 18 19  1  0  0  0  0
 19 34  1  0  0  0  0
 19 20  2  0  0  0  0
 35 38  1  0  0  0  0
  8 11  1  0  0  0  0
 44 45  1  0  0  0  0
 21 22  1  0  0  0  0
 18 21  1  0  0  0  0
 34 35  1  0  0  0  0
  7  8  1  0  0  0  0
 17 18  1  0  0  0  0
  3  4  1  0  0  0  0
  3  5  1  0  0  0  0
  3  6  1  0  0  0  0
 38 41  1  0  0  0  0
 38 42  1  0  0  0  0
 38 43  1  0  0  0  0
 11 14  1  0  0  0  0
 11 15  1  0  0  0  0
 11 16  1  0  0  0  0
 45 47  1  0  0  0  0
 45 48  1  0  0  0  0
 45 49  1  0  0  0  0
 22 30  1  0  0  0  0
 22 31  1  0  0  0  0
 21 28  1  0  0  0  0
 21 29  1  0  0  0  0
 35 40  1  0  0  0  0
  8 13  1  0  0  0  0
 18 27  1  0  0  0  0
 25 32  1  0  0  0  0
 25 33  1  0  0  0  0
 44 46  1  0  0  0  0
  7 12  1  0  0  0  0
 34 39  1  0  0  0  0
 17 26  1  0  0  0  0
M  END
$$$$

  -OEChem-05262214473D

 49 48  0     1  0  0  0  0  0999 V2000
   -1.9833   -0.0509   -3.3423 C   0  0  0  0  0  0  0  0  0  0  0  0
   -1.6199   -1.0613   -2.7518 O   0  0  0  0  0  0  0  0  0  0  0  0
   -3.3243   -0.0235   -3.9975 C   0  0  0  0  0  0  0  0  0  0  0  0
   -3.2886   -0.3689   -5.0432 H   0  0  0  0  0  0  0  0  0  0  0  0
   -4.0503   -0.6845   -3.4973 H   0  0  0  0  0  0  0  0  0  0  0  0
   -3.8104    0.9645   -4.0351 H   0  0  0  0  0  0  0  0  0  0  0  0
   -1.2607    1.1231   -3.4768 N   0  0  0  0  0  0  0  0  0  0  0  0
    0.0536    1.3115   -2.9213 C   0  0  2  0  0  0  0  0  0  0  0  0
    0.0266    0.8315   -1.4761 C   0  0  0  0  0  0  0  0  0  0  0  0
   -1.0065    0.7530   -0.8146 O   0  0  0  0  0  0  0  0  0  0  0  0
    0.4852    2.7674   -3.0025 C   0  0  0  0  0  0  0  0  0  0  0  0
   -1.6809    1.8924   -3.9952 H   0  0  0  0  0  0  0  0  0  0  0  0
    0.7360    0.6822   -3.5030 H   0  0  0  0  0  0  0  0  0  0  0  0
   -0.1867    3.4133   -2.4256 H   0  0  0  0  0  0  0  0  0  0  0  0
    1.4966    2.9042   -2.6056 H   0  0  0  0  0  0  0  0  0  0  0  0
    0.4754    3.1196   -4.0397 H   0  0  0  0  0  0  0  0  0  0  0  0
    1.2978    0.5411   -0.9947 N   0  0  0  0  0  0  0  0  0  0  0  0
    1.5371    0.0807    0.3489 C   0  0  2  0  0  0  0  0  0  0  0  0
    0.4988   -0.9945    0.6496 C   0  0  0  0  0  0  0  0  0  0  0  0
    0.7967   -2.1603    0.9009 O   0  0  0  0  0  0  0  0  0  0  0  0
    1.4417    1.2163    1.3757 C   0  0  0  0  0  0  0  0  0  0  0  0
    2.5538    2.2576    1.2361 C   0  0  0  0  0  0  0  0  0  0  0  0
    2.4479    3.3947    2.2352 C   0  0  0  0  0  0  0  0  0  0  0  0
    1.5243    3.5233    3.0334 O   0  0  0  0  0  0  0  0  0  0  0  0
    3.4950    4.2849    2.1289 N   0  0  0  0  0  0  0  0  0  0  0  0
    2.0949    0.6178   -1.6227 H   0  0  0  0  0  0  0  0  0  0  0  0
    2.5332   -0.3747    0.3521 H   0  0  0  0  0  0  0  0  0  0  0  0
    0.4750    1.7249    1.2619 H   0  0  0  0  0  0  0  0  0  0  0  0
    1.4515    0.8051    2.3930 H   0  0  0  0  0  0  0  0  0  0  0  0
    2.4938    2.7053    0.2364 H   0  0  0  0  0  0  0  0  0  0  0  0
    3.5400    1.7883    1.3237 H   0  0  0  0  0  0  0  0  0  0  0  0
    4.2112    4.1164    1.4303 H   0  0  0  0  0  0  0  0  0  0  0  0
    3.5754    5.1028    2.7245 H   0  0  0  0  0  0  0  0  0  0  0  0
   -0.7972   -0.5071    0.5537 N   0  0  0  0  0  0  0  0  0  0  0  0
   -1.9700   -1.3237    0.7692 C   0  0  2  0  0  0  0  0  0  0  0  0
   -1.7776   -2.0884    2.0722 C   0  0  0  0  0  0  0  0  0  0  0  0
   -0.6726   -2.3097    2.5632 O   0  0  0  0  0  0  0  0  0  0  0  0
   -2.2008   -2.2780   -0.3921 C   0  0  0  0  0  0  0  0  0  0  0  0
   -0.9279    0.4728    0.3204 H   0  0  0  0  0  0  0  0  0  0  0  0
   -2.8186   -0.6382    0.8692 H   0  0  0  0  0  0  0  0  0  0  0  0
   -1.3608   -2.9726   -0.5080 H   0  0  0  0  0  0  0  0  0  0  0  0
   -3.1055   -2.8759   -0.2406 H   0  0  0  0  0  0  0  0  0  0  0  0
   -2.3092   -1.7278   -1.3331 H   0  0  0  0  0  0  0  0  0  0  0  0
   -2.9823   -2.5318    2.5998 N   0  0  0  0  0  0  0  0  0  0  0  0
   -3.0639   -3.2924    3.8248 C   0  0  0  0  0  0  0  0  0  0  0  0
   -3.8517   -2.2859    2.1357 H   0  0  0  0  0  0  0  0  0  0  0  0
   -3.0434   -4.3673    3.5918 H   0  0  0  0  0  0  0  0  0  0  0  0
   -2.2094   -3.0409    4.4701 H   0  0  0  0  0  0  0  0  0  0  0  0
   -4.0013   -3.0483    4.3460 H   0  0  0  0  0  0  0  0  0  0  0  0
  1  3  1  0  0  0  0
  1  7  1  0  0  0  0
  1  2  2  0  0  0  0
 22 23  1  0  0  0  0
 23 25  1  0  0  0  0
 23 24  2  0  0  0  0
 35 36  1  0  0  0  0
 36 44  1  0  0  0  0
 36 37  2  0  0  0  0
  8  9  1  0  0  0  0
  9 17  1  0  0  0  0
  9 10  2  0  0  0  0
 18 19  1  0  0  0  0
 19 34  1  0  0  0  0
 19 20  2  0  0  0  0
 35 38  1  0  0  0  0
  8 11  1  0  0  0  0
 44 45  1  0  0  0  0
 21 22  1  0  0  0  0
 18 21  1  0  0  0  0
 34 35  1  0  0  0  0
  7  8  1  0  0  0  0
 17 18  1  0  0  0  0
  3  4  1  0  0  0  0
  3  5  1  0  0  0  0
  3  6  1  0  0  0  0
 38 41  1  0  0  0  0
 38 42  1  0  0  0  0
 38 43  1  0  0  0  0
 11 14  1  0  0  0  0
 11 15  1  0  0  0  0
 11 16  1  0  0  0  0
 45 47  1  0  0  0  0
 45 48  1  0  0  0  0
 45 49  1  0  0  0  0
 22 30  1  0  0  0  0
 22 31  1  0  0  0  0
 21 28  1  0  0  0  0
 21 29  1  0  0  0  0
 35 40  1  0  0  0  0
  8 13  1  0  0  0  0
 18 27  1  0  0  0  0
 25 32  1  0  0  0  0
 25 33  1  0  0  0  0
 44 46  1  0  0  0  0
  7 12  1  0  0  0  0
 34 39  1  0  0  0  0
 17 26  1  0  0  0  0
M  END
$$$$

  -OEChem-05262214473D

 49 48  0     1  0  0  0  0  0999 V2000
   -1.9833   -0.0509   -3.3423 C   0  0  0  0  0  0  0  0  0  0  0  0
   -1.6199   -1.0613   -2.7518 O   0  0  0  0  0  0  0  0  0  0  0  0
   -3.3243   -0.0235   -3.9975 C   0  0  0  0  0  0  0  0  0  0  0  0
   -3.2886   -0.3689   -5.0432 H   0  0  0  0  0  0  0  0  0  0  0  0
   -4.0503   -0.6845   -3.4973 H   0  0  0  0  0  0  0  0  0  0  0  0
   -3.8104    0.9645   -4.0351 H   0  0  0  0  0  0  0  0  0  0  0  0
   -1.2607    1.1231   -3.4768 N   0  0  0  0  0  0  0  0  0  0  0  0
    0.0536    1.3115   -2.9213 C   0  0  2  0  0  0  0  0  0  0  0  0
    0.0266    0.8315   -1.4761 C   0  0  0  0  0  0  0  0  0  0  0  0
   -1.0065    0.7530   -0.8146 O   0  0  0  0  0  0  0  0  0  0  0  0
    0.4852    2.7674   -3.0025 C   0  0  0  0  0  0  0  0  0  0  0  0
   -1.6809    1.8924   -3.9952 H   0  0  0  0  0  0  0  0  0  0  0  0
    0.7360    0.6822   -3.5030 H   0  0  0  0  0  0  0  0  0  0  0  0
   -0.1867    3.4133   -2.4256 H   0  0  0  0  0  0  0  0  0  0  0  0
    1.4966    2.9042   -2.6056 H   0  0  0  0  0  0  0  0  0  0  0  0
    0.4754    3.1196   -4.0397 H   0  0  0  0  0  0  0  0  0  0  0  0
    1.2978    0.5411   -0.9947 N   0  0  0  0  0  0  0  0  0  0  0  0
    1.5371    0.0807    0.3489 C   0  0  2  0  0  0  0  0  0  0  0  0
    0.4988   -0.9945    0.6496 C   0  0  0  0  0  0  0  0  0  0  0  0
    0.7846   -2.0772    1.1566 O   0  0  0  0  0  0  0  0  0  0  0  0
    1.4417    1.2163    1.3757 C   0  0  0  0  0  0  0  0  0  0  0  0
    2.5538    2.2576    1.2361 C   0  0  0  0  0  0  0  0  0  0  0  0
    2.4479    3.3947    2.2352 C   0  0  0  0  0  0  0  0  0  0  0  0
    1.5243    3.5233    3.0334 O   0  0  0  0  0  0  0  0  0  0  0  0
    3.4950    4.2849    2.1289 N   0  0  0  0  0  0  0  0  0  0  0  0
    2.0949    0.6178   -1.6227 H   0  0  0  0  0  0  0  0  0  0  0  0
    2.5332   -0.3747    0.3521 H   0  0  0  0  0  0  0  0  0  0  0  0
    0.4750    1.7249    1.2619 H   0  0  0  0  0  0  0  0  0  0  0  0
    1.4515    0.8051    2.3930 H   0  0  0  0  0  0  0  0  0  0  0  0
    2.4938    2.7053    0.2364 H   0  0  0  0  0  0  0  0  0  0  0  0
    3.5400    1.7883    1.3237 H   0  0  0  0  0  0  0  0  0  0  0  0
    4.2112    4.1164    1.4303 H   0  0  0  0  0  0  0  0  0  0  0  0
    3.5754    5.1028    2.7245 H   0  0  0  0  0  0  0  0  0  0  0  0
   -0.7725   -0.6192    0.2380 N   0  0  0  0  0  0  0  0  0  0  0  0
   -1.9358   -1.4639    0.3855 C   0  0  2  0  0  0  0  0  0  0  0  0
   -1.9643   -1.9791    1.8185 C   0  0  0  0  0  0  0  0  0  0  0  0
   -0.9637   -2.0379    2.5301 O   0  0  0  0  0  0  0  0  0  0  0  0
   -1.9120   -2.6166   -0.6061 C   0  0  0  0  0  0  0  0  0  0  0  0
   -0.8911    0.2950   -0.1883 H   0  0  0  0  0  0  0  0  0  0  0  0
   -2.8114   -0.8303    0.2072 H   0  0  0  0  0  0  0  0  0  0  0  0
   -1.0416   -3.2626   -0.4429 H   0  0  0  0  0  0  0  0  0  0  0  0
   -2.8079   -3.2393   -0.5123 H   0  0  0  0  0  0  0  0  0  0  0  0
   -1.8615   -2.2446   -1.6351 H   0  0  0  0  0  0  0  0  0  0  0  0
   -3.2302   -2.4056    2.1947 N   0  0  0  0  0  0  0  0  0  0  0  0
   -3.5133   -2.9486    3.5028 C   0  0  0  0  0  0  0  0  0  0  0  0
   -4.0055   -2.3021    1.5466 H   0  0  0  0  0  0  0  0  0  0  0  0
   -3.4122   -4.0436    3.4755 H   0  0  0  0  0  0  0  0  0  0  0  0
   -2.8038   -2.5331    4.2335 H   0  0  0  0  0  0  0  0  0  0  0  0
   -4.5395   -2.6824    3.7959 H   0  0  0  0  0  0  0  0  0  0  0  0
  1  3  1  0  0  0  0
  1  7  1  0  0  0  0
  1  2  2  0  0  0  0
 22 23  1  0  0  0  0
 23 25  1  0  0  0  0
 23 24  2  0  0  0  0
 35 36  1  0  0  0  0
 36 44  1  0  0  0  0
 36 37  2  0  0  0  0
  8  9  1  0  0  0  0
  9 17  1  0  0  0  0
  9 10  2  0  0  0  0
 18 19  1  0  0  0  0
 19 34  1  0  0  0  0
 19 20  2  0  0  0  0
 35 38  1  0  0  0  0
  8 11  1  0  0  0  0
 44 45  1  0  0  0  0
 21 22  1  0  0  0  0
 18 21  1  0  0  0  0
 34 35  1  0  0  0  0
  7  8  1  0  0  0  0
 17 18  1  0  0  0  0
  3  4  1  0  0  0  0
  3  5  1  0  0  0  0
  3  6  1  0  0  0  0
 38 41  1  0  0  0  0
 38 42  1  0  0  0  0
 38 43  1  0  0  0  0
 11 14  1  0  0  0  0
 11 15  1  0  0  0  0
 11 16  1  0  0  0  0
 45 47  1  0  0  0  0
 45 48  1  0  0  0  0
 45 49  1  0  0  0  0
 22 30  1  0  0  0  0
 22 31  1  0  0  0  0
 21 28  1  0  0  0  0
 21 29  1  0  0  0  0
 35 40  1  0  0  0  0
  8 13  1  0  0  0  0
 18 27  1  0  0  0  0
 25 32  1  0  0  0  0
 25 33  1  0  0  0  0
 44 46  1  0  0  0  0
  7 12  1  0  0  0  0
 34 39  1  0  0  0  0
 17 26  1  0  0  0  0
M  END
$$$$

  -OEChem-05262214473D

 49 48  0     1  0  0  0  0  0999 V2000
   -1.9833   -0.0509   -3.3423 C   0  0  0  0  0  0  0  0  0  0  0  0
   -1.6199   -1.0613   -2.7518 O   0  0  0  0  0  0  0  0  0  0  0  0
   -3.3243   -0.0235   -3.9975 C   0  0  0  0  0  0  0  0  0  0  0  0
   -3.2886   -0.3689   -5.0432 H   0  0  0  0  0  0  0  0  0  0  0  0
   -4.0503   -0.6845   -3.4973 H   0  0  0  0  0  0  0  0  0  0  0  0
   -3.8104    0.9645   -4.0351 H   0  0  0  0  0  0  0  0  0  0  0  0
   -1.2607    1.1231   -3.4768 N   0  0  0  0  0  0  0  0  0  0  0  0
    0.0536    1.3115   -2.9213 C   0  0  2  0  0  0  0  0  0  0  0  0
    0.0266    0.8315   -1.4761 C   0  0  0  0  0  0  0  0  0  0  0  0
   -1.0065    0.7530   -0.8146 O   0  0  0  0  0  0  0  0  0  0  0  0
    0.4852    2.7674   -3.0025 C   0  0  0  0  0  0  0  0  0  0  0  0
   -1.6809    1.8924   -3.9952 H   0  0  0  0  0  0  0  0  0  0  0  0
    0.7360    0.6822   -3.5030 H   0  0  0  0  0  0  0  0  0  0  0  0
   -0.1867    3.4133   -2.4256 H   0  0  0  0  0  0  0  0  0  0  0  0
    1.4966    2.9042   -2.6056 H   0  0  0  0  0  0  0  0  0  0  0  0
    0.4754    3.1196   -4.0397 H   0  0  0  0  0  0  0  0  0  0  0  0
    1.2978    0.5411   -0.9947 N   0  0  0  0  0  0  0  0  0  0  0  0
    1.5371    0.0807    0.3489 C   0  0  2  0  0  0  0  0  0  0  0  0
    0.4988   -0.9945    0.6496 C   0  0  0  0  0  0  0  0  0  0  0  0
    0.7221   -1.9524    1.3868 O   0  0  0  0  0  0  0  0  0  0  0  0
    1.4417    1.2163    1.3757 C   0  0  0  0  0  0  0  0  0  0  0  0
    2.5538    2.2576    1.2361 C   0  0  0  0  0  0  0  0  0  0  0  0
    2.4479    3.3947    2.2352 C   0  0  0  0  0  0  0  0  0  0  0  0
    1.5243    3.5233    3.0334 O   0  0  0  0  0  0  0  0  0  0  0  0
    3.4950    4.2849    2.1289 N   0  0  0  0  0  0  0  0  0  0  0  0
    2.0949    0.6178   -1.6227 H   0  0  0  0  0  0  0  0  0  0  0  0
    2.5332   -0.3747    0.3521 H   0  0  0  0  0  0  0  0  0  0  0  0
    0.4750    1.7249    1.2619 H   0  0  0  0  0  0  0  0  0  0  0  0
    1.4515    0.8051    2.3930 H   0  0  0  0  0  0  0  0  0  0  0  0
    2.4938    2.7053    0.2364 H   0  0  0  0  0  0  0  0  0  0  0  0
    3.5400    1.7883    1.3237 H   0  0  0  0  0  0  0  0  0  0  0  0
    4.2112    4.1164    1.4303 H   0  0  0  0  0  0  0  0  0  0  0  0
    3.5754    5.1028    2.7245 H   0  0  0  0  0  0  0  0  0  0  0  0
   -0.6852   -0.7819   -0.0427 N   0  0  0  0  0  0  0  0  0  0  0  0
   -1.8257   -1.6653    0.0459 C   0  0  2  0  0  0  0  0  0  0  0  0
   -2.1038   -1.9277    1.5201 C   0  0  0  0  0  0  0  0  0  0  0  0
   -1.2526   -1.7961    2.3971 O   0  0  0  0  0  0  0  0  0  0  0  0
   -1.5768   -2.9667   -0.7004 C   0  0  0  0  0  0  0  0  0  0  0  0
   -0.7537    0.0355   -0.6416 H   0  0  0  0  0  0  0  0  0  0  0  0
   -2.6739   -1.1321   -0.3971 H   0  0  0  0  0  0  0  0  0  0  0  0
   -0.7305   -3.5150   -0.2708 H   0  0  0  0  0  0  0  0  0  0  0  0
   -2.4523   -3.6230   -0.6564 H   0  0  0  0  0  0  0  0  0  0  0  0
   -1.3476   -2.7741   -1.7540 H   0  0  0  0  0  0  0  0  0  0  0  0
   -3.4023   -2.3678    1.7359 N   0  0  0  0  0  0  0  0  0  0  0  0
   -3.9061   -2.6961    3.0491 C   0  0  0  0  0  0  0  0  0  0  0  0
   -4.0457   -2.4295    0.9524 H   0  0  0  0  0  0  0  0  0  0  0  0
   -3.7638   -3.7703    3.2389 H   0  0  0  0  0  0  0  0  0  0  0  0
   -3.3606   -2.1146    3.8069 H   0  0  0  0  0  0  0  0  0  0  0  0
   -4.9776   -2.4534    3.1018 H   0  0  0  0  0  0  0  0  0  0  0  0
  1  3  1  0  0  0  0
  1  7  1  0  0  0  0
  1  2  2  0  0  0  0
 22 23  1  0  0  0  0
 23 25  1  0  0  0  0
 23 24  2  0  0  0  0
 35 36  1  0  0  0  0
 36 44  1  0  0  0  0
 36 37  2  0  0  0  0
  8  9  1  0  0  0  0
  9 17  1  0  0  0  0
  9 10  2  0  0  0  0
 18 19  1  0  0  0  0
 19 34  1  0  0  0  0
 19 20  2  0  0  0  0
 35 38  1  0  0  0  0
  8 11  1  0  0  0  0
 44 45  1  0  0  0  0
 21 22  1  0  0  0  0
 18 21  1  0  0  0  0
 34 35  1  0  0  0  0
  7  8  1  0  0  0  0
 17 18  1  0  0  0  0
  3  4  1  0  0  0  0
  3  5  1  0  0  0  0
  3  6  1  0  0  0  0
 38 41  1  0  0  0  0
 38 42  1  0  0  0  0
 38 43  1  0  0  0  0
 11 14  1  0  0  0  0
 11 15  1  0  0  0  0
 11 16  1  0  0  0  0
 45 47  1  0  0  0  0
 45 48  1  0  0  0  0
 45 49  1  0  0  0  0
 22 30  1  0  0  0  0
 22 31  1  0  0  0  0
 21 28  1  0  0  0  0
 21 29  1  0  0  0  0
 35 40  1  0  0  0  0
  8 13  1  0  0  0  0
 18 27  1  0  0  0  0
 25 32  1  0  0  0  0
 25 33  1  0  0  0  0
 44 46  1  0  0  0  0
  7 12  1  0  0  0  0
 34 39  1  0  0  0  0
 17 26  1  0  0  0  0
M  END
$$$$

  -OEChem-05262214473D

 49 48  0     1  0  0  0  0  0999 V2000
   -1.9833   -0.0509   -3.3423 C   0  0  0  0  0  0  0  0  0  0  0  0
   -1.6199   -1.0613   -2.7518 O   0  0  0  0  0  0  0  0  0  0  0  0
   -3.3243   -0.0235   -3.9975 C   0  0  0  0  0  0  0  0  0  0  0  0
   -3.2886   -0.3689   -5.0432 H   0  0  0  0  0  0  0  0  0  0  0  0
   -4.0503   -0.6845   -3.4973 H   0  0  0  0  0  0  0  0  0  0  0  0
   -3.8104    0.9645   -4.0351 H   0  0  0  0  0  0  0  0  0  0  0  0
   -1.2607    1.1231   -3.4768 N   0  0  0  0  0  0  0  0  0  0  0  0
    0.0536    1.3115   -2.9213 C   0  0  2  0  0  0  0  0  0  0  0  0
    0.0266    0.8315   -1.4761 C   0  0  0  0  0  0  0  0  0  0  0  0
   -1.0065    0.7530   -0.8146 O   0  0  0  0  0  0  0  0  0  0  0  0
    0.4852    2.7674   -3.0025 C   0  0  0  0  0  0  0  0  0  0  0  0
   -1.6809    1.8924   -3.9952 H   0  0  0  0  0  0  0  0  0  0  0  0
    0.7360    0.6822   -3.5030 H   0  0  0  0  0  0  0  0  0  0  0  0
   -0.1867    3.4133   -2.4256 H   0  0  0  0  0  0  0  0  0  0  0  0
    1.4966    2.9042   -2.6056 H   0  0  0  0  0  0  0  0  0  0  0  0
    0.4754    3.1196   -4.0397 H   0  0  0  0  0  0  0  0  0  0  0  0
    1.2978    0.5411   -0.9947 N   0  0  0  0  0  0  0  0  0  0  0  0
    1.5371    0.0807    0.3489 C   0  0  2  0  0  0  0  0  0  0  0  0
    0.4988   -0.9945    0.6496 C   0  0  0  0  0  0  0  0  0  0  0  0
    0.6132   -1.7945    1.5758 O   0  0  0  0  0  0  0  0  0  0  0  0
    1.4417    1.2163    1.3757 C   0  0  0  0  0  0  0  0  0  0  0  0
    2.5538    2.2576    1.2361 C   0  0  0  0  0  0  0  0  0  0  0  0
    2.4479    3.3947    2.2352 C   0  0  0  0  0  0  0  0  0  0  0  0
    1.5243    3.5233    3.0334 O   0  0  0  0  0  0  0  0  0  0  0  0
    3.4950    4.2849    2.1289 N   0  0  0  0  0  0  0  0  0  0  0  0
    2.0949    0.6178   -1.6227 H   0  0  0  0  0  0  0  0  0  0  0  0
    2.5332   -0.3747    0.3521 H   0  0  0  0  0  0  0  0  0  0  0  0
    0.4750    1.7249    1.2619 H   0  0  0  0  0  0  0  0  0  0  0  0
    1.4515    0.8051    2.3930 H   0  0  0  0  0  0  0  0  0  0  0  0
    2.4938    2.7053    0.2364 H   0  0  0  0  0  0  0  0  0  0  0  0
    3.5400    1.7883    1.3237 H   0  0  0  0  0  0  0  0  0  0  0  0
    4.2112    4.1164    1.4303 H   0  0  0  0  0  0  0  0  0  0  0  0
    3.5754    5.1028    2.7245 H   0  0  0  0  0  0  0  0  0  0  0  0
   -0.5415   -0.9841   -0.2692 N   0  0  0  0  0  0  0  0  0  0  0  0
   -1.6470   -1.9140   -0.2266 C   0  0  2  0  0  0  0  0  0  0  0  0
   -2.1868   -1.9378    1.1974 C   0  0  0  0  0  0  0  0  0  0  0  0
   -1.5198   -1.6007    2.1733 O   0  0  0  0  0  0  0  0  0  0  0  0
   -1.2179   -3.3044   -0.6686 C   0  0  0  0  0  0  0  0  0  0  0  0
   -0.5249   -0.2880   -1.0087 H   0  0  0  0  0  0  0  0  0  0  0  0
   -2.4153   -1.5231   -0.9025 H   0  0  0  0  0  0  0  0  0  0  0  0
   -0.4484   -3.7125   -0.0032 H   0  0  0  0  0  0  0  0  0  0  0  0
   -2.0629   -4.0009   -0.6630 H   0  0  0  0  0  0  0  0  0  0  0  0
   -0.8024   -3.2803   -1.6818 H   0  0  0  0  0  0  0  0  0  0  0  0
   -3.4866   -2.4209    1.2547 N   0  0  0  0  0  0  0  0  0  0  0  0
   -4.2155   -2.5523    2.4946 C   0  0  0  0  0  0  0  0  0  0  0  0
   -3.9696   -2.6593    0.3935 H   0  0  0  0  0  0  0  0  0  0  0  0
   -4.0741   -3.5659    2.8980 H   0  0  0  0  0  0  0  0  0  0  0  0
   -3.8420   -1.8140    3.2194 H   0  0  0  0  0  0  0  0  0  0  0  0
   -5.2858   -2.3769    2.3110 H   0  0  0  0  0  0  0  0  0  0  0  0
  1  3  1  0  0  0  0
  1  7  1  0  0  0  0
  1  2  2  0  0  0  0
 22 23  1  0  0  0  0
 23 25  1  0  0  0  0
 23 24  2  0  0  0  0
 35 36  1  0  0  0  0
 36 44  1  0  0  0  0
 36 37  2  0  0  0  0
  8  9  1  0  0  0  0
  9 17  1  0  0  0  0
  9 10  2  0  0  0  0
 18 19  1  0  0  0  0
 19 34  1  0  0  0  0
 19 20  2  0  0  0  0
 35 38  1  0  0  0  0
  8 11  1  0  0  0  0
 44 45  1  0  0  0  0
 21 22  1  0  0  0  0
 18 21  1  0  0  0  0
 34 35  1  0  0  0  0
  7  8  1  0  0  0  0
 17 18  1  0  0  0  0
  3  4  1  0  0  0  0
  3  5  1  0  0  0  0
  3  6  1  0  0  0  0
 38 41  1  0  0  0  0
 38 42  1  0  0  0  0
 38 43  1  0  0  0  0
 11 14  1  0  0  0  0
 11 15  1  0  0  0  0
 11 16  1  0  0  0  0
 45 47  1  0  0  0  0
 45 48  1  0  0  0  0
 45 49  1  0  0  0  0
 22 30  1  0  0  0  0
 22 31  1  0  0  0  0
 21 28  1  0  0  0  0
 21 29  1  0  0  0  0
 35 40  1  0  0  0  0
  8 13  1  0  0  0  0
 18 27  1  0  0  0  0
 25 32  1  0  0  0  0
 25 33  1  0  0  0  0
 44 46  1  0  0  0  0
  7 12  1  0  0  0  0
 34 39  1  0  0  0  0
 17 26  1  0  0  0  0
M  END
$$$$

  -OEChem-05262214473D

 49 48  0     1  0  0  0  0  0999 V2000
   -1.9833   -0.0509   -3.3423 C   0  0  0  0  0  0  0  0  0  0  0  0
   -1.6199   -1.0613   -2.7518 O   0  0  0  0  0  0  0  0  0  0  0  0
   -3.3243   -0.0235   -3.9975 C   0  0  0  0  0  0  0  0  0  0  0  0
   -3.2886   -0.3689   -5.0432 H   0  0  0  0  0  0  0  0  0  0  0  0
   -4.0503   -0.6845   -3.4973 H   0  0  0  0  0  0  0  0  0  0  0  0
   -3.8104    0.9645   -4.0351 H   0  0  0  0  0  0  0  0  0  0  0  0
   -1.2607    1.1231   -3.4768 N   0  0  0  0  0  0  0  0  0  0  0  0
    0.0536    1.3115   -2.9213 C   0  0  2  0  0  0  0  0  0  0  0  0
    0.0266    0.8315   -1.4761 C   0  0  0  0  0  0  0  0  0  0  0  0
   -1.0065    0.7530   -0.8146 O   0  0  0  0  0  0  0  0  0  0  0  0
    0.4852    2.7674   -3.0025 C   0  0  0  0  0  0  0  0  0  0  0  0
   -1.6809    1.8924   -3.9952 H   0  0  0  0  0  0  0  0  0  0  0  0
    0.7360    0.6822   -3.5030 H   0  0  0  0  0  0  0  0  0  0  0  0
   -0.1867    3.4133   -2.4256 H   0  0  0  0  0  0  0  0  0  0  0  0
    1.4966    2.9042   -2.6056 H   0  0  0  0  0  0  0  0  0  0  0  0
    0.4754    3.1196   -4.0397 H   0  0  0  0  0  0  0  0  0  0  0  0
    1.2978    0.5411   -0.9947 N   0  0  0  0  0  0  0  0  0  0  0  0
    1.5371    0.0807    0.3489 C   0  0  2  0  0  0  0  0  0  0  0  0
    0.4988   -0.9945    0.6496 C   0  0  0  0  0  0  0  0  0  0  0  0
    0.4656   -1.6142    1.7106 O   0  0  0  0  0  0  0  0  0  0  0  0
    1.4417    1.2163    1.3757 C   0  0  0  0  0  0  0  0  0  0  0  0
    2.5538    2.2576    1.2361 C   0  0  0  0  0  0  0  0  0  0  0  0
    2.4479    3.3947    2.2352 C   0  0  0  0  0  0  0  0  0  0  0  0
    1.5243    3.5233    3.0334 O   0  0  0  0  0  0  0  0  0  0  0  0
    3.4950    4.2849    2.1289 N   0  0  0  0  0  0  0  0  0  0  0  0
    2.0949    0.6178   -1.6227 H   0  0  0  0  0  0  0  0  0  0  0  0
    2.5332   -0.3747    0.3521 H   0  0  0  0  0  0  0  0  0  0  0  0
    0.4750    1.7249    1.2619 H   0  0  0  0  0  0  0  0  0  0  0  0
    1.4515    0.8051    2.3930 H   0  0  0  0  0  0  0  0  0  0  0  0
    2.4938    2.7053    0.2364 H   0  0  0  0  0  0  0  0  0  0  0  0
    3.5400    1.7883    1.3237 H   0  0  0  0  0  0  0  0  0  0  0  0
    4.2112    4.1164    1.4303 H   0  0  0  0  0  0  0  0  0  0  0  0
    3.5754    5.1028    2.7245 H   0  0  0  0  0  0  0  0  0  0  0  0
   -0.3509   -1.2120   -0.4261 N   0  0  0  0  0  0  0  0  0  0  0  0
   -1.4120   -2.1931   -0.4133 C   0  0  2  0  0  0  0  0  0  0  0  0
   -2.2075   -2.0087    0.8722 C   0  0  0  0  0  0  0  0  0  0  0  0
   -1.7470   -1.4650    1.8739 O   0  0  0  0  0  0  0  0  0  0  0  0
   -0.8599   -3.6066   -0.5128 C   0  0  0  0  0  0  0  0  0  0  0  0
   -0.2205   -0.6535   -1.2644 H   0  0  0  0  0  0  0  0  0  0  0  0
   -2.0534   -1.9766   -1.2746 H   0  0  0  0  0  0  0  0  0  0  0  0
   -0.2147   -3.8417    0.3416 H   0  0  0  0  0  0  0  0  0  0  0  0
   -1.6662   -4.3472   -0.5318 H   0  0  0  0  0  0  0  0  0  0  0  0
   -0.2632   -3.7288   -1.4233 H   0  0  0  0  0  0  0  0  0  0  0  0
   -3.4776   -2.5613    0.7838 N   0  0  0  0  0  0  0  0  0  0  0  0
   -4.4206   -2.5269    1.8772 C   0  0  0  0  0  0  0  0  0  0  0  0
   -3.7823   -2.9758   -0.0920 H   0  0  0  0  0  0  0  0  0  0  0  0
   -4.3221   -3.4444    2.4760 H   0  0  0  0  0  0  0  0  0  0  0  0
   -4.2151   -1.6517    2.5111 H   0  0  0  0  0  0  0  0  0  0  0  0
   -5.4431   -2.4581    1.4774 H   0  0  0  0  0  0  0  0  0  0  0  0
  1  3  1  0  0  0  0
  1  7  1  0  0  0  0
  1  2  2  0  0  0  0
 22 23  1  0  0  0  0
 23 25  1  0  0  0  0
 23 24  2  0  0  0  0
 35 36  1  0  0  0  0
 36 44  1  0  0  0  0
 36 37  2  0  0  0  0
  8  9  1  0  0  0  0
  9 17  1  0  0  0  0
  9 10  2  0  0  0  0
 18 19  1  0  0  0  0
 19 34  1  0  0  0  0
 19 20  2  0  0  0  0
 35 38  1  0  0  0  0
  8 11  1  0  0  0  0
 44 45  1  0  0  0  0
 21 22  1  0  0  0  0
 18 21  1  0  0  0  0
 34 35  1  0  0  0  0
  7  8  1  0  0  0  0
 17 18  1  0  0  0  0
  3  4  1  0  0  0  0
  3  5  1  0  0  0  0
  3  6  1  0  0  0  0
 38 41  1  0  0  0  0
 38 42  1  0  0  0  0
 38 43  1  0  0  0  0
 11 14  1  0  0  0  0
 11 15  1  0  0  0  0
 11 16  1  0  0  0  0
 45 47  1  0  0  0  0
 45 48  1  0  0  0  0
 45 49  1  0  0  0  0
 22 30  1  0  0  0  0
 22 31  1  0  0  0  0
 21 28  1  0  0  0  0
 21 29  1  0  0  0  0
 35 40  1  0  0  0  0
  8 13  1  0  0  0  0
 18 27  1  0  0  0  0
 25 32  1  0  0  0  0
 25 33  1  0  0  0  0
 44 46  1  0  0  0  0
  7 12  1  0  0  0  0
 34 39  1  0  0  0  0
 17 26  1  0  0  0  0
M  END
$$$$

  -OEChem-05262214473D

 49 48  0     1  0  0  0  0  0999 V2000
   -1.9833   -0.0509   -3.3423 C   0  0  0  0  0  0  0  0  0  0  0  0
   -1.6199   -1.0613   -2.7518 O   0  0  0  0  0  0  0  0  0  0  0  0
   -3.3243   -0.0235   -3.9975 C   0  0  0  0  0  0  0  0  0  0  0  0
   -3.2886   -0.3689   -5.0432 H   0  0  0  0  0  0  0  0  0  0  0  0
   -4.0503   -0.6845   -3.4973 H   0  0  0  0  0  0  0  0  0  0  0  0
   -3.8104    0.9645   -4.0351 H   0  0  0  0  0  0  0  0  0  0  0  0
   -1.2607    1.1231   -3.4768 N   0  0  0  0  0  0  0  0  0  0  0  0
    0.0536    1.3115   -2.9213 C   0  0  2  0  0  0  0  0  0  0  0  0
    0.0266    0.8315   -1.4761 C   0  0  0  0  0  0  0  0  0  0  0  0
   -1.0065    0.7530   -0.8146 O   0  0  0  0  0  0  0  0  0  0  0  0
    0.4852    2.7674   -3.0025 C   0  0  0  0  0  0  0  0  0  0  0  0
   -1.6809    1.8924   -3.9952 H   0  0  0  0  0  0  0  0  0  0  0  0
    0.7360    0.6822   -3.5030 H   0  0  0  0  0  0  0  0  0  0  0  0
   -0.1867    3.4133   -2.4256 H   0  0  0  0  0  0  0  0  0  0  0  0
    1.4966    2.9042   -2.6056 H   0  0  0  0  0  0  0  0  0  0  0  0
    0.4754    3.1196   -4.0397 H   0  0  0  0  0  0  0  0  0  0  0  0
    1.2978    0.5411   -0.9947 N   0  0  0  0  0  0  0  0  0  0  0  0
    1.5371    0.0807    0.3489 C   0  0  2  0  0  0  0  0  0  0  0  0
    0.4988   -0.9945    0.6496 C   0  0  0  0  0  0  0  0  0  0  0  0
    0.2892   -1.4238    1.7821 O   0  0  0  0  0  0  0  0  0  0  0  0
    1.4417    1.2163    1.3757 C   0  0  0  0  0  0  0  0  0  0  0  0
    2.5538    2.2576    1.2361 C   0  0  0  0  0  0  0  0  0  0  0  0
    2.4479    3.3947    2.2352 C   0  0  0  0  0  0  0  0  0  0  0  0
    1.5243    3.5233    3.0334 O   0  0  0  0  0  0  0  0  0  0  0  0
    3.4950    4.2849    2.1289 N   0  0  0  0  0  0  0  0  0  0  0  0
    2.0949    0.6178   -1.6227 H   0  0  0  0  0  0  0  0  0  0  0  0
    2.5332   -0.3747    0.3521 H   0  0  0  0  0  0  0  0  0  0  0  0
    0.4750    1.7249    1.2619 H   0  0  0  0  0  0  0  0  0  0  0  0
    1.4515    0.8051    2.3930 H   0  0  0  0  0  0  0  0  0  0  0  0
    2.4938    2.7053    0.2364 H   0  0  0  0  0  0  0  0  0  0  0  0
    3.5400    1.7883    1.3237 H   0  0  0  0  0  0  0  0  0  0  0  0
    4.2112    4.1164    1.4303 H   0  0  0  0  0  0  0  0  0  0  0  0
    3.5754    5.1028    2.7245 H   0  0  0  0  0  0  0  0  0  0  0  0
   -0.1266   -1.4500   -0.5027 N   0  0  0  0  0  0  0  0  0  0  0  0
   -1.1367   -2.4837   -0.5016 C   0  0  2  0  0  0  0  0  0  0  0  0
   -2.1646   -2.1356    0.5669 C   0  0  0  0  0  0  0  0  0  0  0  0
   -1.9187   -1.3983    1.5193 O   0  0  0  0  0  0  0  0  0  0  0  0
   -0.5270   -3.8528   -0.2437 C   0  0  0  0  0  0  0  0  0  0  0  0
    0.1390   -1.0361   -1.3915 H   0  0  0  0  0  0  0  0  0  0  0  0
   -1.6127   -2.4619   -1.4880 H   0  0  0  0  0  0  0  0  0  0  0  0
   -0.0454   -3.8939    0.7400 H   0  0  0  0  0  0  0  0  0  0  0  0
   -1.2894   -4.6383   -0.2715 H   0  0  0  0  0  0  0  0  0  0  0  0
    0.2333   -4.0888   -0.9961 H   0  0  0  0  0  0  0  0  0  0  0  0
   -3.3757   -2.7794    0.3554 N   0  0  0  0  0  0  0  0  0  0  0  0
   -4.5073   -2.6217    1.2390 C   0  0  0  0  0  0  0  0  0  0  0  0
   -3.4966   -3.3576   -0.4709 H   0  0  0  0  0  0  0  0  0  0  0  0
   -4.4908   -3.4141    2.0017 H   0  0  0  0  0  0  0  0  0  0  0  0
   -4.4545   -1.6389    1.7303 H   0  0  0  0  0  0  0  0  0  0  0  0
   -5.4386   -2.6916    0.6579 H   0  0  0  0  0  0  0  0  0  0  0  0
  1  3  1  0  0  0  0
  1  7  1  0  0  0  0
  1  2  2  0  0  0  0
 22 23  1  0  0  0  0
 23 25  1  0  0  0  0
 23 24  2  0  0  0  0
 35 36  1  0  0  0  0
 36 44  1  0  0  0  0
 36 37  2  0  0  0  0
  8  9  1  0  0  0  0
  9 17  1  0  0  0  0
  9 10  2  0  0  0  0
 18 19  1  0  0  0  0
 19 34  1  0  0  0  0
 19 20  2  0  0  0  0
 35 38  1  0  0  0  0
  8 11  1  0  0  0  0
 44 45  1  0  0  0  0
 21 22  1  0  0  0  0
 18 21  1  0  0  0  0
 34 35  1  0  0  0  0
  7  8  1  0  0  0  0
 17 18  1  0  0  0  0
  3  4  1  0  0  0  0
  3  5  1  0  0  0  0
  3  6  1  0  0  0  0
 38 41  1  0  0  0  0
 38 42  1  0  0  0  0
 38 43  1  0  0  0  0
 11 14  1  0  0  0  0
 11 15  1  0  0  0  0
 11 16  1  0  0  0  0
 45 47  1  0  0  0  0
 45 48  1  0  0  0  0
 45 49  1  0  0  0  0
 22 30  1  0  0  0  0
 22 31  1  0  0  0  0
 21 28  1  0  0  0  0
 21 29  1  0  0  0  0
 35 40  1  0  0  0  0
  8 13  1  0  0  0  0
 18 27  1  0  0  0  0
 25 32  1  0  0  0  0
 25 33  1  0  0  0  0
 44 46  1  0  0  0  0
  7 12  1  0  0  0  0
 34 39  1  0  0  0  0
 17 26  1  0  0  0  0
M  END
$$$$

  -OEChem-05262214473D

 49 48  0     1  0  0  0  0  0999 V2000
   -1.9833   -0.0509   -3.3423 C   0  0  0  0  0  0  0  0  0  0  0  0
   -1.6199   -1.0613   -2.7518 O   0  0  0  0  0  0  0  0  0  0  0  0
   -3.3243   -0.0235   -3.9975 C   0  0  0  0  0  0  0  0  0  0  0  0
   -3.2886   -0.3689   -5.0432 H   0  0  0  0  0  0  0  0  0  0  0  0
   -4.0503   -0.6845   -3.4973 H   0  0  0  0  0  0  0  0  0  0  0  0
   -3.8104    0.9645   -4.0351 H   0  0  0  0  0  0  0  0  0  0  0  0
   -1.2607    1.1231   -3.4768 N   0  0  0  0  0  0  0  0  0  0  0  0
    0.0536    1.3115   -2.9213 C   0  0  2  0  0  0  0  0  0  0  0  0
    0.0266    0.8315   -1.4761 C   0  0  0  0  0  0  0  0  0  0  0  0
   -1.0065    0.7530   -0.8146 O   0  0  0  0  0  0  0  0  0  0  0  0
    0.4852    2.7674   -3.0025 C   0  0  0  0  0  0  0  0  0  0  0  0
   -1.6809    1.8924   -3.9952 H   0  0  0  0  0  0  0  0  0  0  0  0
    0.7360    0.6822   -3.5030 H   0  0  0  0  0  0  0  0  0  0  0  0
   -0.1867    3.4133   -2.4256 H   0  0  0  0  0  0  0  0  0  0  0  0
    1.4966    2.9042   -2.6056 H   0  0  0  0  0  0  0  0  0  0  0  0
    0.4754    3.1196   -4.0397 H   0  0  0  0  0  0  0  0  0  0  0  0
    1.2978    0.5411   -0.9947 N   0  0  0  0  0  0  0  0  0  0  0  0
    1.5371    0.0807    0.3489 C   0  0  2  0  0  0  0  0  0  0  0  0
    0.4988   -0.9945    0.6496 C   0  0  0  0  0  0  0  0  0  0  0  0
    0.0960   -1.2364    1.7854 O   0  0  0  0  0  0  0  0  0  0  0  0
    1.4417    1.2163    1.3757 C   0  0  0  0  0  0  0  0  0  0  0  0
    2.5538    2.2576    1.2361 C   0  0  0  0  0  0  0  0  0  0  0  0
    2.4479    3.3947    2.2352 C   0  0  0  0  0  0  0  0  0  0  0  0
    1.5243    3.5233    3.0334 O   0  0  0  0  0  0  0  0  0  0  0  0
    3.4950    4.2849    2.1289 N   0  0  0  0  0  0  0  0  0  0  0  0
    2.0949    0.6178   -1.6227 H   0  0  0  0  0  0  0  0  0  0  0  0
    2.5332   -0.3747    0.3521 H   0  0  0  0  0  0  0  0  0  0  0  0
    0.4750    1.7249    1.2619 H   0  0  0  0  0  0  0  0  0  0  0  0
    1.4515    0.8051    2.3930 H   0  0  0  0  0  0  0  0  0  0  0  0
    2.4938    2.7053    0.2364 H   0  0  0  0  0  0  0  0  0  0  0  0
    3.5400    1.7883    1.3237 H   0  0  0  0  0  0  0  0  0  0  0  0
    4.2112    4.1164    1.4303 H   0  0  0  0  0  0  0  0  0  0  0  0
    3.5754    5.1028    2.7245 H   0  0  0  0  0  0  0  0  0  0  0  0
    0.1162   -1.6820   -0.4939 N   0  0  0  0  0  0  0  0  0  0  0  0
   -0.8398   -2.7659   -0.4854 C   0  0  2  0  0  0  0  0  0  0  0  0
   -2.0609   -2.3097    0.3022 C   0  0  0  0  0  0  0  0  0  0  0  0
   -2.0233   -1.4051    1.1337 O   0  0  0  0  0  0  0  0  0  0  0  0
   -0.2420   -4.0262    0.1203 C   0  0  0  0  0  0  0  0  0  0  0  0
    0.5289   -1.4097   -1.3811 H   0  0  0  0  0  0  0  0  0  0  0  0
   -1.1233   -2.9457   -1.5281 H   0  0  0  0  0  0  0  0  0  0  0  0
    0.0482   -3.8654    1.1650 H   0  0  0  0  0  0  0  0  0  0  0  0
   -0.9581   -4.8544    0.0999 H   0  0  0  0  0  0  0  0  0  0  0  0
    0.6534   -4.3360   -0.4294 H   0  0  0  0  0  0  0  0  0  0  0  0
   -3.1880   -3.0604   -0.0014 N   0  0  0  0  0  0  0  0  0  0  0  0
   -4.4697   -2.8301    0.6234 C   0  0  0  0  0  0  0  0  0  0  0  0
   -3.1321   -3.7786   -0.7175 H   0  0  0  0  0  0  0  0  0  0  0  0
   -4.5688   -3.4770    1.5075 H   0  0  0  0  0  0  0  0  0  0  0  0
   -4.5439   -1.7764    0.9301 H   0  0  0  0  0  0  0  0  0  0  0  0
   -5.2729   -3.0612   -0.0918 H   0  0  0  0  0  0  0  0  0  0  0  0
  1  3  1  0  0  0  0
  1  7  1  0  0  0  0
  1  2  2  0  0  0  0
 22 23  1  0  0  0  0
 23 25  1  0  0  0  0
 23 24  2  0  0  0  0
 35 36  1  0  0  0  0
 36 44  1  0  0  0  0
 36 37  2  0  0  0  0
  8  9  1  0  0  0  0
  9 17  1  0  0  0  0
  9 10  2  0  0  0  0
 18 19  1  0  0  0  0
 19 34  1  0  0  0  0
 19 20  2  0  0  0  0
 35 38  1  0  0  0  0
  8 11  1  0  0  0  0
 44 45  1  0  0  0  0
 21 22  1  0  0  0  0
 18 21  1  0  0  0  0
 34 35  1  0  0  0  0
  7  8  1  0  0  0  0
 17 18  1  0  0  0  0
  3  4  1  0  0  0  0
  3  5  1  0  0  0  0
  3  6  1  0  0  0  0
 38 41  1  0  0  0  0
 38 42  1  0  0  0  0
 38 43  1  0  0  0  0
 11 14  1  0  0  0  0
 11 15  1  0  0  0  0
 11 16  1  0  0  0  0
 45 47  1  0  0  0  0
 45 48  1  0  0  0  0
 45 49  1  0  0  0  0
 22 30  1  0  0  0  0
 22 31  1  0  0  0  0
 21 28  1  0  0  0  0
 21 29  1  0  0  0  0
 35 40  1  0  0  0  0
  8 13  1  0  0  0  0
 18 27  1  0  0  0  0
 25 32  1  0  0  0  0
 25 33  1  0  0  0  0
 44 46  1  0  0  0  0
  7 12  1  0  0  0  0
 34 39  1  0  0  0  0
 17 26  1  0  0  0  0
M  END
$$$$

  -OEChem-05262214473D

 49 48  0     1  0  0  0  0  0999 V2000
   -1.9833   -0.0509   -3.3423 C   0  0  0  0  0  0  0  0  0  0  0  0
   -1.6199   -1.0613   -2.7518 O   0  0  0  0  0  0  0  0  0  0  0  0
   -3.3243   -0.0235   -3.9975 C   0  0  0  0  0  0  0  0  0  0  0  0
   -3.2886   -0.3689   -5.0432 H   0  0  0  0  0  0  0  0  0  0  0  0
   -4.0503   -0.6845   -3.4973 H   0  0  0  0  0  0  0  0  0  0  0  0
   -3.8104    0.9645   -4.0351 H   0  0  0  0  0  0  0  0  0  0  0  0
   -1.2607    1.1231   -3.4768 N   0  0  0  0  0  0  0  0  0  0  0  0
    0.0536    1.3115   -2.9213 C   0  0  2  0  0  0  0  0  0  0  0  0
    0.0266    0.8315   -1.4761 C   0  0  0  0  0  0  0  0  0  0  0  0
   -1.0065    0.7530   -0.8146 O   0  0  0  0  0  0  0  0  0  0  0  0
    0.4852    2.7674   -3.0025 C   0  0  0  0  0  0  0  0  0  0  0  0
   -1.6809    1.8924   -3.9952 H   0  0  0  0  0  0  0  0  0  0  0  0
    0.7360    0.6822   -3.5030 H   0  0  0  0  0  0  0  0  0  0  0  0
   -0.1867    3.4133   -2.4256 H   0  0  0  0  0  0  0  0  0  0  0  0
    1.4966    2.9042   -2.6056 H   0  0  0  0  0  0  0  0  0  0  0  0
    0.4754    3.1196   -4.0397 H   0  0  0  0  0  0  0  0  0  0  0  0
    1.2978    0.5411   -0.9947 N   0  0  0  0  0  0  0  0  0  0  0  0
    1.5371    0.0807    0.3489 C   0  0  2  0  0  0  0  0  0  0  0  0
    0.4988   -0.9945    0.6496 C   0  0  0  0  0  0  0  0  0  0  0  0
   -0.1008   -1.0645    1.7203 O   0  0  0  0  0  0  0  0  0  0  0  0
    1.4417    1.2163    1.3757 C   0  0  0  0  0  0  0  0  0  0  0  0
    2.5538    2.2576    1.2361 C   0  0  0  0  0  0  0  0  0  0  0  0
    2.4479    3.3947    2.2352 C   0  0  0  0  0  0  0  0  0  0  0  0
    1.5243    3.5233    3.0334 O   0  0  0  0  0  0  0  0  0  0  0  0
    3.4950    4.2849    2.1289 N   0  0  0  0  0  0  0  0  0  0  0  0
    2.0949    0.6178   -1.6227 H   0  0  0  0  0  0  0  0  0  0  0  0
    2.5332   -0.3747    0.3521 H   0  0  0  0  0  0  0  0  0  0  0  0
    0.4750    1.7249    1.2619 H   0  0  0  0  0  0  0  0  0  0  0  0
    1.4515    0.8051    2.3930 H   0  0  0  0  0  0  0  0  0  0  0  0
    2.4938    2.7053    0.2364 H   0  0  0  0  0  0  0  0  0  0  0  0
    3.5400    1.7883    1.3237 H   0  0  0  0  0  0  0  0  0  0  0  0
    4.2112    4.1164    1.4303 H   0  0  0  0  0  0  0  0  0  0  0  0
    3.5754    5.1028    2.7245 H   0  0  0  0  0  0  0  0  0  0  0  0
    0.3610   -1.8922   -0.4001 N   0  0  0  0  0  0  0  0  0  0  0  0
   -0.5416   -3.0204   -0.3658 C   0  0  2  0  0  0  0  0  0  0  0  0
   -1.9035   -2.5193    0.0961 C   0  0  0  0  0  0  0  0  0  0  0  0
   -2.0536   -1.4850    0.7434 O   0  0  0  0  0  0  0  0  0  0  0  0
   -0.0243   -4.1150    0.5546 C   0  0  0  0  0  0  0  0  0  0  0  0
    0.9226   -1.7489   -1.2341 H   0  0  0  0  0  0  0  0  0  0  0  0
   -0.6185   -3.3951   -1.3923 H   0  0  0  0  0  0  0  0  0  0  0  0
    0.0595   -3.7582    1.5876 H   0  0  0  0  0  0  0  0  0  0  0  0
   -0.6948   -4.9807    0.5573 H   0  0  0  0  0  0  0  0  0  0  0  0
    0.9683   -4.4534    0.2382 H   0  0  0  0  0  0  0  0  0  0  0  0
   -2.9272   -3.3852   -0.2622 N   0  0  0  0  0  0  0  0  0  0  0  0
   -4.3104   -3.1380    0.0723 C   0  0  0  0  0  0  0  0  0  0  0  0
   -2.7134   -4.2102   -0.8149 H   0  0  0  0  0  0  0  0  0  0  0  0
   -4.5506   -3.6289    1.0270 H   0  0  0  0  0  0  0  0  0  0  0  0
   -4.4771   -2.0547    0.1651 H   0  0  0  0  0  0  0  0  0  0  0  0
   -4.9571   -3.5420   -0.7205 H   0  0  0  0  0  0  0  0  0  0  0  0
  1  3  1  0  0  0  0
  1  7  1  0  0  0  0
  1  2  2  0  0  0  0
 22 23  1  0  0  0  0
 23 25  1  0  0  0  0
 23 24  2  0  0  0  0
 35 36  1  0  0  0  0
 36 44  1  0  0  0  0
 36 37  2  0  0  0  0
  8  9  1  0  0  0  0
  9 17  1  0  0  0  0
  9 10  2  0  0  0  0
 18 19  1  0  0  0  0
 19 34  1  0  0  0  0
 19 20  2  0  0  0  0
 35 38  1  0  0  0  0
  8 11  1  0  0  0  0
 44 45  1  0  0  0  0
 21 22  1  0  0  0  0
 18 21  1  0  0  0  0
 34 35  1  0  0  0  0
  7  8  1  0  0  0  0
 17 18  1  0  0  0  0
  3  4  1  0  0  0  0
  3  5  1  0  0  0  0
  3  6  1  0  0  0  0
 38 41  1  0  0  0  0
 38 42  1  0  0  0  0
 38 43  1  0  0  0  0
 11 14  1  0  0  0  0
 11 15  1  0  0  0  0
 11 16  1  0  0  0  0
 45 47  1  0  0  0  0
 45 48  1  0  0  0  0
 45 49  1  0  0  0  0
 22 30  1  0  0  0  0
 22 31  1  0  0  0  0
 21 28  1  0  0  0  0
 21 29  1  0  0  0  0
 35 40  1  0  0  0  0
  8 13  1  0  0  0  0
 18 27  1  0  0  0  0
 25 32  1  0  0  0  0
 25 33  1  0  0  0  0
 44 46  1  0  0  0  0
  7 12  1  0  0  0  0
 34 39  1  0  0  0  0
 17 26  1  0  0  0  0
M  END
$$$$

  -OEChem-05262214473D

 49 48  0     1  0  0  0  0  0999 V2000
   -1.9833   -0.0509   -3.3423 C   0  0  0  0  0  0  0  0  0  0  0  0
   -1.6199   -1.0613   -2.7518 O   0  0  0  0  0  0  0  0  0  0  0  0
   -3.3243   -0.0235   -3.9975 C   0  0  0  0  0  0  0  0  0  0  0  0
   -3.2886   -0.3689   -5.0432 H   0  0  0  0  0  0  0  0  0  0  0  0
   -4.0503   -0.6845   -3.4973 H   0  0  0  0  0  0  0  0  0  0  0  0
   -3.8104    0.9645   -4.0351 H   0  0  0  0  0  0  0  0  0  0  0  0
   -1.2607    1.1231   -3.4768 N   0  0  0  0  0  0  0  0  0  0  0  0
    0.0536    1.3115   -2.9213 C   0  0  2  0  0  0  0  0  0  0  0  0
    0.0266    0.8315   -1.4761 C   0  0  0  0  0  0  0  0  0  0  0  0
   -1.0065    0.7530   -0.8146 O   0  0  0  0  0  0  0  0  0  0  0  0
    0.4852    2.7674   -3.0025 C   0  0  0  0  0  0  0  0  0  0  0  0
   -1.6809    1.8924   -3.9952 H   0  0  0  0  0  0  0  0  0  0  0  0
    0.7360    0.6822   -3.5030 H   0  0  0  0  0  0  0  0  0  0  0  0
   -0.1867    3.4133   -2.4256 H   0  0  0  0  0  0  0  0  0  0  0  0
    1.4966    2.9042   -2.6056 H   0  0  0  0  0  0  0  0  0  0  0  0
    0.4754    3.1196   -4.0397 H   0  0  0  0  0  0  0  0  0  0  0  0
    1.2978    0.5411   -0.9947 N   0  0  0  0  0  0  0  0  0  0  0  0
    1.5371    0.0807    0.3489 C   0  0  2  0  0  0  0  0  0  0  0  0
    0.4988   -0.9945    0.6496 C   0  0  0  0  0  0  0  0  0  0  0  0
   -0.2878   -0.9201    1.5912 O   0  0  0  0  0  0  0  0  0  0  0  0
    1.4417    1.2163    1.3757 C   0  0  0  0  0  0  0  0  0  0  0  0
    2.5538    2.2576    1.2361 C   0  0  0  0  0  0  0  0  0  0  0  0
    2.4479    3.3947    2.2352 C   0  0  0  0  0  0  0  0  0  0  0  0
    1.5243    3.5233    3.0334 O   0  0  0  0  0  0  0  0  0  0  0  0
    3.4950    4.2849    2.1289 N   0  0  0  0  0  0  0  0  0  0  0  0
    2.0949    0.6178   -1.6227 H   0  0  0  0  0  0  0  0  0  0  0  0
    2.5332   -0.3747    0.3521 H   0  0  0  0  0  0  0  0  0  0  0  0
    0.4750    1.7249    1.2619 H   0  0  0  0  0  0  0  0  0  0  0  0
    1.4515    0.8051    2.3930 H   0  0  0  0  0  0  0  0  0  0  0  0
    2.4938    2.7053    0.2364 H   0  0  0  0  0  0  0  0  0  0  0  0
    3.5400    1.7883    1.3237 H   0  0  0  0  0  0  0  0  0  0  0  0
    4.2112    4.1164    1.4303 H   0  0  0  0  0  0  0  0  0  0  0  0
    3.5754    5.1028    2.7245 H   0  0  0  0  0  0  0  0  0  0  0  0
    0.5910   -2.0661   -0.2277 N   0  0  0  0  0  0  0  0  0  0  0  0
   -0.2623   -3.2300   -0.1510 C   0  0  2  0  0  0  0  0  0  0  0  0
   -1.7032   -2.7500   -0.0373 C   0  0  0  0  0  0  0  0  0  0  0  0
   -2.0075   -1.6326    0.3749 O   0  0  0  0  0  0  0  0  0  0  0  0
    0.1112   -4.1131    1.0294 C   0  0  0  0  0  0  0  0  0  0  0  0
    1.2935   -2.0305   -0.9605 H   0  0  0  0  0  0  0  0  0  0  0  0
   -0.1329   -3.7795   -1.0898 H   0  0  0  0  0  0  0  0  0  0  0  0
   -0.0122   -3.5796    1.9789 H   0  0  0  0  0  0  0  0  0  0  0  0
   -0.5175   -5.0087    1.0694 H   0  0  0  0  0  0  0  0  0  0  0  0
    1.1566   -4.4331    0.9613 H   0  0  0  0  0  0  0  0  0  0  0  0
   -2.6112   -3.7316   -0.4093 N   0  0  0  0  0  0  0  0  0  0  0  0
   -4.0402   -3.5245   -0.3766 C   0  0  0  0  0  0  0  0  0  0  0  0
   -2.2692   -4.6228   -0.7565 H   0  0  0  0  0  0  0  0  0  0  0  0
   -4.4376   -3.8594    0.5929 H   0  0  0  0  0  0  0  0  0  0  0  0
   -4.2588   -2.4550   -0.5126 H   0  0  0  0  0  0  0  0  0  0  0  0
   -4.5127   -4.1011   -1.1854 H   0  0  0  0  0  0  0  0  0  0  0  0
  1  3  1  0  0  0  0
  1  7  1  0  0  0  0
  1  2  2  0  0  0  0
 22 23  1  0  0  0  0
 23 25  1  0  0  0  0
 23 24  2  0  0  0  0
 35 36  1  0  0  0  0
 36 44  1  0  0  0  0
 36 37  2  0  0  0  0
  8  9  1  0  0  0  0
  9 17  1  0  0  0  0
  9 10  2  0  0  0  0
 18 19  1  0  0  0  0
 19 34  1  0  0  0  0
 19 20  2  0  0  0  0
 35 38  1  0  0  0  0
  8 11  1  0  0  0  0
 44 45  1  0  0  0  0
 21 22  1  0  0  0  0
 18 21  1  0  0  0  0
 34 35  1  0  0  0  0
  7  8  1  0  0  0  0
 17 18  1  0  0  0  0
  3  4  1  0  0  0  0
  3  5  1  0  0  0  0
  3  6  1  0  0  0  0
 38 41  1  0  0  0  0
 38 42  1  0  0  0  0
 38 43  1  0  0  0  0
 11 14  1  0  0  0  0
 11 15  1  0  0  0  0
 11 16  1  0  0  0  0
 45 47  1  0  0  0  0
 45 48  1  0  0  0  0
 45 49  1  0  0  0  0
 22 30  1  0  0  0  0
 22 31  1  0  0  0  0
 21 28  1  0  0  0  0
 21 29  1  0  0  0  0
 35 40  1  0  0  0  0
  8 13  1  0  0  0  0
 18 27  1  0  0  0  0
 25 32  1  0  0  0  0
 25 33  1  0  0  0  0
 44 46  1  0  0  0  0
  7 12  1  0  0  0  0
 34 39  1  0  0  0  0
 17 26  1  0  0  0  0
M  END
$$$$

  -OEChem-05262214473D

 49 48  0     1  0  0  0  0  0999 V2000
   -1.9833   -0.0509   -3.3423 C   0  0  0  0  0  0  0  0  0  0  0  0
   -1.6199   -1.0613   -2.7518 O   0  0  0  0  0  0  0  0  0  0  0  0
   -3.3243   -0.0235   -3.9975 C   0  0  0  0  0  0  0  0  0  0  0  0
   -3.2886   -0.3689   -5.0432 H   0  0  0  0  0  0  0  0  0  0  0  0
   -4.0503   -0.6845   -3.4973 H   0  0  0  0  0  0  0  0  0  0  0  0
   -3.8104    0.9645   -4.0351 H   0  0  0  0  0  0  0  0  0  0  0  0
   -1.2607    1.1231   -3.4768 N   0  0  0  0  0  0  0  0  0  0  0  0
    0.0536    1.3115   -2.9213 C   0  0  2  0  0  0  0  0  0  0  0  0
    0.0266    0.8315   -1.4761 C   0  0  0  0  0  0  0  0  0  0  0  0
   -1.0065    0.7530   -0.8146 O   0  0  0  0  0  0  0  0  0  0  0  0
    0.4852    2.7674   -3.0025 C   0  0  0  0  0  0  0  0  0  0  0  0
   -1.6809    1.8924   -3.9952 H   0  0  0  0  0  0  0  0  0  0  0  0
    0.7360    0.6822   -3.5030 H   0  0  0  0  0  0  0  0  0  0  0  0
   -0.1867    3.4133   -2.4256 H   0  0  0  0  0  0  0  0  0  0  0  0
    1.4966    2.9042   -2.6056 H   0  0  0  0  0  0  0  0  0  0  0  0
    0.4754    3.1196   -4.0397 H   0  0  0  0  0  0  0  0  0  0  0  0
    1.2978    0.5411   -0.9947 N   0  0  0  0  0  0  0  0  0  0  0  0
    1.5371    0.0807    0.3489 C   0  0  2  0  0  0  0  0  0  0  0  0
    0.4988   -0.9945    0.6496 C   0  0  0  0  0  0  0  0  0  0  0  0
   -0.4522   -0.8129    1.4069 O   0  0  0  0  0  0  0  0  0  0  0  0
    1.4417    1.2163    1.3757 C   0  0  0  0  0  0  0  0  0  0  0  0
    2.5538    2.2576    1.2361 C   0  0  0  0  0  0  0  0  0  0  0  0
    2.4479    3.3947    2.2352 C   0  0  0  0  0  0  0  0  0  0  0  0
    1.5243    3.5233    3.0334 O   0  0  0  0  0  0  0  0  0  0  0  0
    3.4950    4.2849    2.1289 N   0  0  0  0  0  0  0  0  0  0  0  0
    2.0949    0.6178   -1.6227 H   0  0  0  0  0  0  0  0  0  0  0  0
    2.5332   -0.3747    0.3521 H   0  0  0  0  0  0  0  0  0  0  0  0
    0.4750    1.7249    1.2619 H   0  0  0  0  0  0  0  0  0  0  0  0
    1.4515    0.8051    2.3930 H   0  0  0  0  0  0  0  0  0  0  0  0
    2.4938    2.7053    0.2364 H   0  0  0  0  0  0  0  0  0  0  0  0
    3.5400    1.7883    1.3237 H   0  0  0  0  0  0  0  0  0  0  0  0
    4.2112    4.1164    1.4303 H   0  0  0  0  0  0  0  0  0  0  0  0
    3.5754    5.1028    2.7245 H   0  0  0  0  0  0  0  0  0  0  0  0
    0.7906   -2.1920    0.0114 N   0  0  0  0  0  0  0  0  0  0  0  0
   -0.0211   -3.3803    0.1444 C   0  0  2  0  0  0  0  0  0  0  0  0
   -1.4736   -2.9862   -0.0889 C   0  0  0  0  0  0  0  0  0  0  0  0
   -1.8882   -1.8377    0.0534 O   0  0  0  0  0  0  0  0  0  0  0  0
    0.1553   -4.0207    1.5124 C   0  0  0  0  0  0  0  0  0  0  0  0
    1.6161   -2.2354   -0.5788 H   0  0  0  0  0  0  0  0  0  0  0  0
    0.3007   -4.0727   -0.6411 H   0  0  0  0  0  0  0  0  0  0  0  0
   -0.1619   -3.3417    2.3123 H   0  0  0  0  0  0  0  0  0  0  0  0
   -0.4383   -4.9365    1.6014 H   0  0  0  0  0  0  0  0  0  0  0  0
    1.2054   -4.2764    1.6905 H   0  0  0  0  0  0  0  0  0  0  0  0
   -2.2613   -4.0759   -0.4326 N   0  0  0  0  0  0  0  0  0  0  0  0
   -3.6775   -3.9631   -0.6928 C   0  0  0  0  0  0  0  0  0  0  0  0
   -1.8298   -4.9884   -0.5463 H   0  0  0  0  0  0  0  0  0  0  0  0
   -4.2375   -4.1528    0.2348 H   0  0  0  0  0  0  0  0  0  0  0  0
   -3.9038   -2.9500   -1.0568 H   0  0  0  0  0  0  0  0  0  0  0  0
   -3.9701   -4.7004   -1.4548 H   0  0  0  0  0  0  0  0  0  0  0  0
  1  3  1  0  0  0  0
  1  7  1  0  0  0  0
  1  2  2  0  0  0  0
 22 23  1  0  0  0  0
 23 25  1  0  0  0  0
 23 24  2  0  0  0  0
 35 36  1  0  0  0  0
 36 44  1  0  0  0  0
 36 37  2  0  0  0  0
  8  9  1  0  0  0  0
  9 17  1  0  0  0  0
  9 10  2  0  0  0  0
 18 19  1  0  0  0  0
 19 34  1  0  0  0  0
 19 20  2  0  0  0  0
 35 38  1  0  0  0  0
  8 11  1  0  0  0  0
 44 45  1  0  0  0  0
 21 22  1  0  0  0  0
 18 21  1  0  0  0  0
 34 35  1  0  0  0  0
  7  8  1  0  0  0  0
 17 18  1  0  0  0  0
  3  4  1  0  0  0  0
  3  5  1  0  0  0  0
  3  6  1  0  0  0  0
 38 41  1  0  0  0  0
 38 42  1  0  0  0  0
 38 43  1  0  0  0  0
 11 14  1  0  0  0  0
 11 15  1  0  0  0  0
 11 16  1  0  0  0  0
 45 47  1  0  0  0  0
 45 48  1  0  0  0  0
 45 49  1  0  0  0  0
 22 30  1  0  0  0  0
 22 31  1  0  0  0  0
 21 28  1  0  0  0  0
 21 29  1  0  0  0  0
 35 40  1  0  0  0  0
  8 13  1  0  0  0  0
 18 27  1  0  0  0  0
 25 32  1  0  0  0  0
 25 33  1  0  0  0  0
 44 46  1  0  0  0  0
  7 12  1  0  0  0  0
 34 39  1  0  0  0  0
 17 26  1  0  0  0  0
M  END
$$$$

  -OEChem-05262214473D

 49 48  0     1  0  0  0  0  0999 V2000
   -1.9833   -0.0509   -3.3423 C   0  0  0  0  0  0  0  0  0  0  0  0
   -1.6199   -1.0613   -2.7518 O   0  0  0  0  0  0  0  0  0  0  0  0
   -3.3243   -0.0235   -3.9975 C   0  0  0  0  0  0  0  0  0  0  0  0
   -3.2886   -0.3689   -5.0432 H   0  0  0  0  0  0  0  0  0  0  0  0
   -4.0503   -0.6845   -3.4973 H   0  0  0  0  0  0  0  0  0  0  0  0
   -3.8104    0.9645   -4.0351 H   0  0  0  0  0  0  0  0  0  0  0  0
   -1.2607    1.1231   -3.4768 N   0  0  0  0  0  0  0  0  0  0  0  0
    0.0536    1.3115   -2.9213 C   0  0  2  0  0  0  0  0  0  0  0  0
    0.0266    0.8315   -1.4761 C   0  0  0  0  0  0  0  0  0  0  0  0
   -1.0065    0.7530   -0.8146 O   0  0  0  0  0  0  0  0  0  0  0  0
    0.4852    2.7674   -3.0025 C   0  0  0  0  0  0  0  0  0  0  0  0
   -1.6809    1.8924   -3.9952 H   0  0  0  0  0  0  0  0  0  0  0  0
    0.7360    0.6822   -3.5030 H   0  0  0  0  0  0  0  0  0  0  0  0
   -0.1867    3.4133   -2.4256 H   0  0  0  0  0  0  0  0  0  0  0  0
    1.4966    2.9042   -2.6056 H   0  0  0  0  0  0  0  0  0  0  0  0
    0.4754    3.1196   -4.0397 H   0  0  0  0  0  0  0  0  0  0  0  0
    1.2978    0.5411   -0.9947 N   0  0  0  0  0  0  0  0  0  0  0  0
    1.5371    0.0807    0.3489 C   0  0  2  0  0  0  0  0  0  0  0  0
    0.4988   -0.9945    0.6496 C   0  0  0  0  0  0  0  0  0  0  0  0
   -0.5828   -0.7502    1.1800 O   0  0  0  0  0  0  0  0  0  0  0  0
    1.4417    1.2163    1.3757 C   0  0  0  0  0  0  0  0  0  0  0  0
    2.5538    2.2576    1.2361 C   0  0  0  0  0  0  0  0  0  0  0  0
    2.4479    3.3947    2.2352 C   0  0  0  0  0  0  0  0  0  0  0  0
    1.5243    3.5233    3.0334 O   0  0  0  0  0  0  0  0  0  0  0  0
    3.4950    4.2849    2.1289 N   0  0  0  0  0  0  0  0  0  0  0  0
    2.0949    0.6178   -1.6227 H   0  0  0  0  0  0  0  0  0  0  0  0
    2.5332   -0.3747    0.3521 H   0  0  0  0  0  0  0  0  0  0  0  0
    0.4750    1.7249    1.2619 H   0  0  0  0  0  0  0  0  0  0  0  0
    1.4515    0.8051    2.3930 H   0  0  0  0  0  0  0  0  0  0  0  0
    2.4938    2.7053    0.2364 H   0  0  0  0  0  0  0  0  0  0  0  0
    3.5400    1.7883    1.3237 H   0  0  0  0  0  0  0  0  0  0  0  0
    4.2112    4.1164    1.4303 H   0  0  0  0  0  0  0  0  0  0  0  0
    3.5754    5.1028    2.7245 H   0  0  0  0  0  0  0  0  0  0  0  0
    0.9462   -2.2613    0.3009 N   0  0  0  0  0  0  0  0  0  0  0  0
    0.1656   -3.4611    0.5002 C   0  0  2  0  0  0  0  0  0  0  0  0
   -1.2304   -3.2117   -0.0552 C   0  0  0  0  0  0  0  0  0  0  0  0
   -1.7038   -2.0864   -0.1993 O   0  0  0  0  0  0  0  0  0  0  0  0
    0.1051   -3.8440    1.9708 C   0  0  0  0  0  0  0  0  0  0  0  0
    1.8686   -2.3495   -0.1152 H   0  0  0  0  0  0  0  0  0  0  0  0
    0.6525   -4.2547   -0.0770 H   0  0  0  0  0  0  0  0  0  0  0  0
   -0.3796   -3.0609    2.5651 H   0  0  0  0  0  0  0  0  0  0  0  0
   -0.4626   -4.7689    2.1169 H   0  0  0  0  0  0  0  0  0  0  0  0
    1.1116   -3.9940    2.3762 H   0  0  0  0  0  0  0  0  0  0  0  0
   -1.9016   -4.3948   -0.3307 N   0  0  0  0  0  0  0  0  0  0  0  0
   -3.2471   -4.4240   -0.8547 C   0  0  0  0  0  0  0  0  0  0  0  0
   -1.4250   -5.2820   -0.1987 H   0  0  0  0  0  0  0  0  0  0  0  0
   -3.9639   -4.4891   -0.0228 H   0  0  0  0  0  0  0  0  0  0  0  0
   -3.4363   -3.5060   -1.4304 H   0  0  0  0  0  0  0  0  0  0  0  0
   -3.3662   -5.2991   -1.5104 H   0  0  0  0  0  0  0  0  0  0  0  0
  1  3  1  0  0  0  0
  1  7  1  0  0  0  0
  1  2  2  0  0  0  0
 22 23  1  0  0  0  0
 23 25  1  0  0  0  0
 23 24  2  0  0  0  0
 35 36  1  0  0  0  0
 36 44  1  0  0  0  0
 36 37  2  0  0  0  0
  8  9  1  0  0  0  0
  9 17  1  0  0  0  0
  9 10  2  0  0  0  0
 18 19  1  0  0  0  0
 19 34  1  0  0  0  0
 19 20  2  0  0  0  0
 35 38  1  0  0  0  0
  8 11  1  0  0  0  0
 44 45  1  0  0  0  0
 21 22  1  0  0  0  0
 18 21  1  0  0  0  0
 34 35  1  0  0  0  0
  7  8  1  0  0  0  0
 17 18  1  0  0  0  0
  3  4  1  0  0  0  0
  3  5  1  0  0  0  0
  3  6  1  0  0  0  0
 38 41  1  0  0  0  0
 38 42  1  0  0  0  0
 38 43  1  0  0  0  0
 11 14  1  0  0  0  0
 11 15  1  0  0  0  0
 11 16  1  0  0  0  0
 45 47  1  0  0  0  0
 45 48  1  0  0  0  0
 45 49  1  0  0  0  0
 22 30  1  0  0  0  0
 22 31  1  0  0  0  0
 21 28  1  0  0  0  0
 21 29  1  0  0  0  0
 35 40  1  0  0  0  0
  8 13  1  0  0  0  0
 18 27  1  0  0  0  0
 25 32  1  0  0  0  0
 25 33  1  0  0  0  0
 44 46  1  0  0  0  0
  7 12  1  0  0  0  0
 34 39  1  0  0  0  0
 17 26  1  0  0  0  0
M  END
$$$$

  -OEChem-05262214473D

 49 48  0     1  0  0  0  0  0999 V2000
   -1.9833   -0.0509   -3.3423 C   0  0  0  0  0  0  0  0  0  0  0  0
   -1.6199   -1.0613   -2.7518 O   0  0  0  0  0  0  0  0  0  0  0  0
   -3.3243   -0.0235   -3.9975 C   0  0  0  0  0  0  0  0  0  0  0  0
   -3.2886   -0.3689   -5.0432 H   0  0  0  0  0  0  0  0  0  0  0  0
   -4.0503   -0.6845   -3.4973 H   0  0  0  0  0  0  0  0  0  0  0  0
   -3.8104    0.9645   -4.0351 H   0  0  0  0  0  0  0  0  0  0  0  0
   -1.2607    1.1231   -3.4768 N   0  0  0  0  0  0  0  0  0  0  0  0
    0.0536    1.3115   -2.9213 C   0  0  2  0  0  0  0  0  0  0  0  0
    0.0266    0.8315   -1.4761 C   0  0  0  0  0  0  0  0  0  0  0  0
   -1.0065    0.7530   -0.8146 O   0  0  0  0  0  0  0  0  0  0  0  0
    0.4852    2.7674   -3.0025 C   0  0  0  0  0  0  0  0  0  0  0  0
   -1.6809    1.8924   -3.9952 H   0  0  0  0  0  0  0  0  0  0  0  0
    0.7360    0.6822   -3.5030 H   0  0  0  0  0  0  0  0  0  0  0  0
   -0.1867    3.4133   -2.4256 H   0  0  0  0  0  0  0  0  0  0  0  0
    1.4966    2.9042   -2.6056 H   0  0  0  0  0  0  0  0  0  0  0  0
    0.4754    3.1196   -4.0397 H   0  0  0  0  0  0  0  0  0  0  0  0
    1.2978    0.5411   -0.9947 N   0  0  0  0  0  0  0  0  0  0  0  0
    1.5371    0.0807    0.3489 C   0  0  2  0  0  0  0  0  0  0  0  0
    0.4988   -0.9945    0.6496 C   0  0  0  0  0  0  0  0  0  0  0  0
   -0.6707   -0.7363    0.9260 O   0  0  0  0  0  0  0  0  0  0  0  0
    1.4417    1.2163    1.3757 C   0  0  0  0  0  0  0  0  0  0  0  0
    2.5538    2.2576    1.2361 C   0  0  0  0  0  0  0  0  0  0  0  0
    2.4479    3.3947    2.2352 C   0  0  0  0  0  0  0  0  0  0  0  0
    1.5243    3.5233    3.0334 O   0  0  0  0  0  0  0  0  0  0  0  0
    3.4950    4.2849    2.1289 N   0  0  0  0  0  0  0  0  0  0  0  0
    2.0949    0.6178   -1.6227 H   0  0  0  0  0  0  0  0  0  0  0  0
    2.5332   -0.3747    0.3521 H   0  0  0  0  0  0  0  0  0  0  0  0
    0.4750    1.7249    1.2619 H   0  0  0  0  0  0  0  0  0  0  0  0
    1.4515    0.8051    2.3930 H   0  0  0  0  0  0  0  0  0  0  0  0
    2.4938    2.7053    0.2364 H   0  0  0  0  0  0  0  0  0  0  0  0
    3.5400    1.7883    1.3237 H   0  0  0  0  0  0  0  0  0  0  0  0
    4.2112    4.1164    1.4303 H   0  0  0  0  0  0  0  0  0  0  0  0
    3.5754    5.1028    2.7245 H   0  0  0  0  0  0  0  0  0  0  0  0
    1.0472   -2.2692    0.6212 N   0  0  0  0  0  0  0  0  0  0  0  0
    0.2852   -3.4670    0.8923 C   0  0  2  0  0  0  0  0  0  0  0  0
   -0.9901   -3.4111    0.0615 C   0  0  0  0  0  0  0  0  0  0  0  0
   -1.4669   -2.3617   -0.3658 O   0  0  0  0  0  0  0  0  0  0  0  0
   -0.0361   -3.5951    2.3732 C   0  0  0  0  0  0  0  0  0  0  0  0
    2.0336   -2.3651    0.3989 H   0  0  0  0  0  0  0  0  0  0  0  0
    0.8987   -4.3132    0.5643 H   0  0  0  0  0  0  0  0  0  0  0  0
   -0.6503   -2.7561    2.7201 H   0  0  0  0  0  0  0  0  0  0  0  0
   -0.5887   -4.5173    2.5809 H   0  0  0  0  0  0  0  0  0  0  0  0
    0.8813   -3.6052    2.9716 H   0  0  0  0  0  0  0  0  0  0  0  0
   -1.5564   -4.6665   -0.1103 N   0  0  0  0  0  0  0  0  0  0  0  0
   -2.7784   -4.8757   -0.8513 C   0  0  0  0  0  0  0  0  0  0  0  0
   -1.0825   -5.4837    0.2628 H   0  0  0  0  0  0  0  0  0  0  0  0
   -3.6354   -4.8453   -0.1624 H   0  0  0  0  0  0  0  0  0  0  0  0
   -2.8881   -4.0849   -1.6080 H   0  0  0  0  0  0  0  0  0  0  0  0
   -2.7422   -5.8564   -1.3483 H   0  0  0  0  0  0  0  0  0  0  0  0
  1  3  1  0  0  0  0
  1  7  1  0  0  0  0
  1  2  2  0  0  0  0
 22 23  1  0  0  0  0
 23 25  1  0  0  0  0
 23 24  2  0  0  0  0
 35 36  1  0  0  0  0
 36 44  1  0  0  0  0
 36 37  2  0  0  0  0
  8  9  1  0  0  0  0
  9 17  1  0  0  0  0
  9 10  2  0  0  0  0
 18 19  1  0  0  0  0
 19 34  1  0  0  0  0
 19 20  2  0  0  0  0
 35 38  1  0  0  0  0
  8 11  1  0  0  0  0
 44 45  1  0  0  0  0
 21 22  1  0  0  0  0
 18 21  1  0  0  0  0
 34 35  1  0  0  0  0
  7  8  1  0  0  0  0
 17 18  1  0  0  0  0
  3  4  1  0  0  0  0
  3  5  1  0  0  0  0
  3  6  1  0  0  0  0
 38 41  1  0  0  0  0
 38 42  1  0  0  0  0
 38 43  1  0  0  0  0
 11 14  1  0  0  0  0
 11 15  1  0  0  0  0
 11 16  1  0  0  0  0
 45 47  1  0  0  0  0
 45 48  1  0  0  0  0
 45 49  1  0  0  0  0
 22 30  1  0  0  0  0
 22 31  1  0  0  0  0
 21 28  1  0  0  0  0
 21 29  1  0  0  0  0
 35 40  1  0  0  0  0
  8 13  1  0  0  0  0
 18 27  1  0  0  0  0
 25 32  1  0  0  0  0
 25 33  1  0  0  0  0
 44 46  1  0  0  0  0
  7 12  1  0  0  0  0
 34 39  1  0  0  0  0
 17 26  1  0  0  0  0
M  END
$$$$

  -OEChem-05262214473D

 49 48  0     1  0  0  0  0  0999 V2000
   -1.9833   -0.0509   -3.3423 C   0  0  0  0  0  0  0  0  0  0  0  0
   -1.6199   -1.0613   -2.7518 O   0  0  0  0  0  0  0  0  0  0  0  0
   -3.3243   -0.0235   -3.9975 C   0  0  0  0  0  0  0  0  0  0  0  0
   -3.2886   -0.3689   -5.0432 H   0  0  0  0  0  0  0  0  0  0  0  0
   -4.0503   -0.6845   -3.4973 H   0  0  0  0  0  0  0  0  0  0  0  0
   -3.8104    0.9645   -4.0351 H   0  0  0  0  0  0  0  0  0  0  0  0
   -1.2607    1.1231   -3.4768 N   0  0  0  0  0  0  0  0  0  0  0  0
    0.0536    1.3115   -2.9213 C   0  0  2  0  0  0  0  0  0  0  0  0
    0.0266    0.8315   -1.4761 C   0  0  0  0  0  0  0  0  0  0  0  0
   -1.0065    0.7530   -0.8146 O   0  0  0  0  0  0  0  0  0  0  0  0
    0.4852    2.7674   -3.0025 C   0  0  0  0  0  0  0  0  0  0  0  0
   -1.6809    1.8924   -3.9952 H   0  0  0  0  0  0  0  0  0  0  0  0
    0.7360    0.6822   -3.5030 H   0  0  0  0  0  0  0  0  0  0  0  0
   -0.1867    3.4133   -2.4256 H   0  0  0  0  0  0  0  0  0  0  0  0
    1.4966    2.9042   -2.6056 H   0  0  0  0  0  0  0  0  0  0  0  0
    0.4754    3.1196   -4.0397 H   0  0  0  0  0  0  0  0  0  0  0  0
    1.2978    0.5411   -0.9947 N   0  0  0  0  0  0  0  0  0  0  0  0
    1.5371    0.0807    0.3489 C   0  0  2  0  0  0  0  0  0  0  0  0
    0.4988   -0.9945    0.6496 C   0  0  0  0  0  0  0  0  0  0  0  0
   -0.7100   -0.7721    0.6620 O   0  0  0  0  0  0  0  0  0  0  0  0
    1.4417    1.2163    1.3757 C   0  0  0  0  0  0  0  0  0  0  0  0
    2.5538    2.2576    1.2361 C   0  0  0  0  0  0  0  0  0  0  0  0
    2.4479    3.3947    2.2352 C   0  0  0  0  0  0  0  0  0  0  0  0
    1.5243    3.5233    3.0334 O   0  0  0  0  0  0  0  0  0  0  0  0
    3.4950    4.2849    2.1289 N   0  0  0  0  0  0  0  0  0  0  0  0
    2.0949    0.6178   -1.6227 H   0  0  0  0  0  0  0  0  0  0  0  0
    2.5332   -0.3747    0.3521 H   0  0  0  0  0  0  0  0  0  0  0  0
    0.4750    1.7249    1.2619 H   0  0  0  0  0  0  0  0  0  0  0  0
    1.4515    0.8051    2.3930 H   0  0  0  0  0  0  0  0  0  0  0  0
    2.4938    2.7053    0.2364 H   0  0  0  0  0  0  0  0  0  0  0  0
    3.5400    1.7883    1.3237 H   0  0  0  0  0  0  0  0  0  0  0  0
    4.2112    4.1164    1.4303 H   0  0  0  0  0  0  0  0  0  0  0  0
    3.5754    5.1028    2.7245 H   0  0  0  0  0  0  0  0  0  0  0  0
    1.0867   -2.2153    0.9505 N   0  0  0  0  0  0  0  0  0  0  0  0
    0.3294   -3.3974    1.2938 C   0  0  2  0  0  0  0  0  0  0  0  0
   -0.7690   -3.5709    0.2532 C   0  0  0  0  0  0  0  0  0  0  0  0
   -1.1936   -2.6450   -0.4349 O   0  0  0  0  0  0  0  0  0  0  0  0
   -0.2587   -3.2910    2.6922 C   0  0  0  0  0  0  0  0  0  0  0  0
    2.1000   -2.2812    0.9283 H   0  0  0  0  0  0  0  0  0  0  0  0
    1.0224   -4.2440    1.2389 H   0  0  0  0  0  0  0  0  0  0  0  0
   -0.9556   -2.4483    2.7666 H   0  0  0  0  0  0  0  0  0  0  0  0
   -0.8081   -4.1990    2.9618 H   0  0  0  0  0  0  0  0  0  0  0  0
    0.5304   -3.1364    3.4361 H   0  0  0  0  0  0  0  0  0  0  0  0
   -1.2494   -4.8724    0.2135 N   0  0  0  0  0  0  0  0  0  0  0  0
   -2.3031   -5.2875   -0.6828 C   0  0  0  0  0  0  0  0  0  0  0  0
   -0.8256   -5.5798    0.8066 H   0  0  0  0  0  0  0  0  0  0  0  0
   -3.2744   -5.1973   -0.1745 H   0  0  0  0  0  0  0  0  0  0  0  0
   -2.2967   -4.6475   -1.5774 H   0  0  0  0  0  0  0  0  0  0  0  0
   -2.1406   -6.3342   -0.9797 H   0  0  0  0  0  0  0  0  0  0  0  0
  1  3  1  0  0  0  0
  1  7  1  0  0  0  0
  1  2  2  0  0  0  0
 22 23  1  0  0  0  0
 23 25  1  0  0  0  0
 23 24  2  0  0  0  0
 35 36  1  0  0  0  0
 36 44  1  0  0  0  0
 36 37  2  0  0  0  0
  8  9  1  0  0  0  0
  9 17  1  0  0  0  0
  9 10  2  0  0  0  0
 18 19  1  0  0  0  0
 19 34  1  0  0  0  0
 19 20  2  0  0  0  0
 35 38  1  0  0  0  0
  8 11  1  0  0  0  0
 44 45  1  0  0  0  0
 21 22  1  0  0  0  0
 18 21  1  0  0  0  0
 34 35  1  0  0  0  0
  7  8  1  0  0  0  0
 17 18  1  0  0  0  0
  3  4  1  0  0  0  0
  3  5  1  0  0  0  0
  3  6  1  0  0  0  0
 38 41  1  0  0  0  0
 38 42  1  0  0  0  0
 38 43  1  0  0  0  0
 11 14  1  0  0  0  0
 11 15  1  0  0  0  0
 11 16  1  0  0  0  0
 45 47  1  0  0  0  0
 45 48  1  0  0  0  0
 45 49  1  0  0  0  0
 22 30  1  0  0  0  0
 22 31  1  0  0  0  0
 21 28  1  0  0  0  0
 21 29  1  0  0  0  0
 35 40  1  0  0  0  0
  8 13  1  0  0  0  0
 18 27  1  0  0  0  0
 25 32  1  0  0  0  0
 25 33  1  0  0  0  0
 44 46  1  0  0  0  0
  7 12  1  0  0  0  0
 34 39  1  0  0  0  0
 17 26  1  0  0  0  0
M  END
$$$$

  -OEChem-05262214473D

 49 48  0     1  0  0  0  0  0999 V2000
   -1.9833   -0.0509   -3.3423 C   0  0  0  0  0  0  0  0  0  0  0  0
   -1.6199   -1.0613   -2.7518 O   0  0  0  0  0  0  0  0  0  0  0  0
   -3.3243   -0.0235   -3.9975 C   0  0  0  0  0  0  0  0  0  0  0  0
   -3.2886   -0.3689   -5.0432 H   0  0  0  0  0  0  0  0  0  0  0  0
   -4.0503   -0.6845   -3.4973 H   0  0  0  0  0  0  0  0  0  0  0  0
   -3.8104    0.9645   -4.0351 H   0  0  0  0  0  0  0  0  0  0  0  0
   -1.2607    1.1231   -3.4768 N   0  0  0  0  0  0  0  0  0  0  0  0
    0.0536    1.3115   -2.9213 C   0  0  2  0  0  0  0  0  0  0  0  0
    0.0266    0.8315   -1.4761 C   0  0  0  0  0  0  0  0  0  0  0  0
   -1.0065    0.7530   -0.8146 O   0  0  0  0  0  0  0  0  0  0  0  0
    0.4852    2.7674   -3.0025 C   0  0  0  0  0  0  0  0  0  0  0  0
   -1.6809    1.8924   -3.9952 H   0  0  0  0  0  0  0  0  0  0  0  0
    0.7360    0.6822   -3.5030 H   0  0  0  0  0  0  0  0  0  0  0  0
   -0.1867    3.4133   -2.4256 H   0  0  0  0  0  0  0  0  0  0  0  0
    1.4966    2.9042   -2.6056 H   0  0  0  0  0  0  0  0  0  0  0  0
    0.4754    3.1196   -4.0397 H   0  0  0  0  0  0  0  0  0  0  0  0
    1.2978    0.5411   -0.9947 N   0  0  0  0  0  0  0  0  0  0  0  0
    1.5371    0.0807    0.3489 C   0  0  2  0  0  0  0  0  0  0  0  0
    0.4988   -0.9945    0.6496 C   0  0  0  0  0  0  0  0  0  0  0  0
   -0.6980   -0.8553    0.4063 O   0  0  0  0  0  0  0  0  0  0  0  0
    1.4417    1.2163    1.3757 C   0  0  0  0  0  0  0  0  0  0  0  0
    2.5538    2.2576    1.2361 C   0  0  0  0  0  0  0  0  0  0  0  0
    2.4479    3.3947    2.2352 C   0  0  0  0  0  0  0  0  0  0  0  0
    1.5243    3.5233    3.0334 O   0  0  0  0  0  0  0  0  0  0  0  0
    3.4950    4.2849    2.1289 N   0  0  0  0  0  0  0  0  0  0  0  0
    2.0949    0.6178   -1.6227 H   0  0  0  0  0  0  0  0  0  0  0  0
    2.5332   -0.3747    0.3521 H   0  0  0  0  0  0  0  0  0  0  0  0
    0.4750    1.7249    1.2619 H   0  0  0  0  0  0  0  0  0  0  0  0
    1.4515    0.8051    2.3930 H   0  0  0  0  0  0  0  0  0  0  0  0
    2.4938    2.7053    0.2364 H   0  0  0  0  0  0  0  0  0  0  0  0
    3.5400    1.7883    1.3237 H   0  0  0  0  0  0  0  0  0  0  0  0
    4.2112    4.1164    1.4303 H   0  0  0  0  0  0  0  0  0  0  0  0
    3.5754    5.1028    2.7245 H   0  0  0  0  0  0  0  0  0  0  0  0
    1.0620   -2.1032    1.2662 N   0  0  0  0  0  0  0  0  0  0  0  0
    0.2952   -3.2572    1.6775 C   0  0  2  0  0  0  0  0  0  0  0  0
   -0.5824   -3.6803    0.5069 C   0  0  0  0  0  0  0  0  0  0  0  0
   -0.9025   -2.9168   -0.4018 O   0  0  0  0  0  0  0  0  0  0  0  0
   -0.5474   -2.9524    2.9062 C   0  0  0  0  0  0  0  0  0  0  0  0
    2.0632   -2.1035    1.4369 H   0  0  0  0  0  0  0  0  0  0  0  0
    1.0152   -4.0520    1.9009 H   0  0  0  0  0  0  0  0  0  0  0  0
   -1.2747   -2.1583    2.7016 H   0  0  0  0  0  0  0  0  0  0  0  0
   -1.1057   -3.8356    3.2335 H   0  0  0  0  0  0  0  0  0  0  0  0
    0.0827   -2.6196    3.7381 H   0  0  0  0  0  0  0  0  0  0  0  0
   -1.0014   -4.9986    0.6186 N   0  0  0  0  0  0  0  0  0  0  0  0
   -1.8538   -5.6314   -0.3608 C   0  0  0  0  0  0  0  0  0  0  0  0
   -0.6718   -5.5636    1.3957 H   0  0  0  0  0  0  0  0  0  0  0  0
   -2.9056   -5.5209   -0.0583 H   0  0  0  0  0  0  0  0  0  0  0  0
   -1.7023   -5.1553   -1.3408 H   0  0  0  0  0  0  0  0  0  0  0  0
   -1.6025   -6.7001   -0.4295 H   0  0  0  0  0  0  0  0  0  0  0  0
  1  3  1  0  0  0  0
  1  7  1  0  0  0  0
  1  2  2  0  0  0  0
 22 23  1  0  0  0  0
 23 25  1  0  0  0  0
 23 24  2  0  0  0  0
 35 36  1  0  0  0  0
 36 44  1  0  0  0  0
 36 37  2  0  0  0  0
  8  9  1  0  0  0  0
  9 17  1  0  0  0  0
  9 10  2  0  0  0  0
 18 19  1  0  0  0  0
 19 34  1  0  0  0  0
 19 20  2  0  0  0  0
 35 38  1  0  0  0  0
  8 11  1  0  0  0  0
 44 45  1  0  0  0  0
 21 22  1  0  0  0  0
 18 21  1  0  0  0  0
 34 35  1  0  0  0  0
  7  8  1  0  0  0  0
 17 18  1  0  0  0  0
  3  4  1  0  0  0  0
  3  5  1  0  0  0  0
  3  6  1  0  0  0  0
 38 41  1  0  0  0  0
 38 42  1  0  0  0  0
 38 43  1  0  0  0  0
 11 14  1  0  0  0  0
 11 15  1  0  0  0  0
 11 16  1  0  0  0  0
 45 47  1  0  0  0  0
 45 48  1  0  0  0  0
 45 49  1  0  0  0  0
 22 30  1  0  0  0  0
 22 31  1  0  0  0  0
 21 28  1  0  0  0  0
 21 29  1  0  0  0  0
 35 40  1  0  0  0  0
  8 13  1  0  0  0  0
 18 27  1  0  0  0  0
 25 32  1  0  0  0  0
 25 33  1  0  0  0  0
 44 46  1  0  0  0  0
  7 12  1  0  0  0  0
 34 39  1  0  0  0  0
 17 26  1  0  0  0  0
M  END
$$$$

  -OEChem-05262214473D

 49 48  0     1  0  0  0  0  0999 V2000
   -1.9833   -0.0509   -3.3423 C   0  0  0  0  0  0  0  0  0  0  0  0
   -1.6199   -1.0613   -2.7518 O   0  0  0  0  0  0  0  0  0  0  0  0
   -3.3243   -0.0235   -3.9975 C   0  0  0  0  0  0  0  0  0  0  0  0
   -3.2886   -0.3689   -5.0432 H   0  0  0  0  0  0  0  0  0  0  0  0
   -4.0503   -0.6845   -3.4973 H   0  0  0  0  0  0  0  0  0  0  0  0
   -3.8104    0.9645   -4.0351 H   0  0  0  0  0  0  0  0  0  0  0  0
   -1.2607    1.1231   -3.4768 N   0  0  0  0  0  0  0  0  0  0  0  0
    0.0536    1.3115   -2.9213 C   0  0  2  0  0  0  0  0  0  0  0  0
    0.0266    0.8315   -1.4761 C   0  0  0  0  0  0  0  0  0  0  0  0
   -1.0065    0.7530   -0.8146 O   0  0  0  0  0  0  0  0  0  0  0  0
    0.4852    2.7674   -3.0025 C   0  0  0  0  0  0  0  0  0  0  0  0
   -1.6809    1.8924   -3.9952 H   0  0  0  0  0  0  0  0  0  0  0  0
    0.7360    0.6822   -3.5030 H   0  0  0  0  0  0  0  0  0  0  0  0
   -0.1867    3.4133   -2.4256 H   0  0  0  0  0  0  0  0  0  0  0  0
    1.4966    2.9042   -2.6056 H   0  0  0  0  0  0  0  0  0  0  0  0
    0.4754    3.1196   -4.0397 H   0  0  0  0  0  0  0  0  0  0  0  0
    1.2978    0.5411   -0.9947 N   0  0  0  0  0  0  0  0  0  0  0  0
    1.5371    0.0807    0.3489 C   0  0  2  0  0  0  0  0  0  0  0  0
    0.4988   -0.9945    0.6496 C   0  0  0  0  0  0  0  0  0  0  0  0
   -0.6354   -0.9801    0.1761 O   0  0  0  0  0  0  0  0  0  0  0  0
    1.4417    1.2163    1.3757 C   0  0  0  0  0  0  0  0  0  0  0  0
    2.5538    2.2576    1.2361 C   0  0  0  0  0  0  0  0  0  0  0  0
    2.4479    3.3947    2.2352 C   0  0  0  0  0  0  0  0  0  0  0  0
    1.5243    3.5233    3.0334 O   0  0  0  0  0  0  0  0  0  0  0  0
    3.4950    4.2849    2.1289 N   0  0  0  0  0  0  0  0  0  0  0  0
    2.0949    0.6178   -1.6227 H   0  0  0  0  0  0  0  0  0  0  0  0
    2.5332   -0.3747    0.3521 H   0  0  0  0  0  0  0  0  0  0  0  0
    0.4750    1.7249    1.2619 H   0  0  0  0  0  0  0  0  0  0  0  0
    1.4515    0.8051    2.3930 H   0  0  0  0  0  0  0  0  0  0  0  0
    2.4938    2.7053    0.2364 H   0  0  0  0  0  0  0  0  0  0  0  0
    3.5400    1.7883    1.3237 H   0  0  0  0  0  0  0  0  0  0  0  0
    4.2112    4.1164    1.4303 H   0  0  0  0  0  0  0  0  0  0  0  0
    3.5754    5.1028    2.7245 H   0  0  0  0  0  0  0  0  0  0  0  0
    0.9747   -1.9405    1.5469 N   0  0  0  0  0  0  0  0  0  0  0  0
    0.1851   -3.0558    2.0171 C   0  0  2  0  0  0  0  0  0  0  0  0
   -0.4428   -3.7316    0.8053 C   0  0  0  0  0  0  0  0  0  0  0  0
   -0.6136   -3.1586   -0.2688 O   0  0  0  0  0  0  0  0  0  0  0  0
   -0.8826   -2.6023    3.0005 C   0  0  0  0  0  0  0  0  0  0  0  0
    1.9257   -1.8440    1.8903 H   0  0  0  0  0  0  0  0  0  0  0  0
    0.8777   -3.7502    2.5052 H   0  0  0  0  0  0  0  0  0  0  0  0
   -1.5859   -1.9059    2.5294 H   0  0  0  0  0  0  0  0  0  0  0  0
   -1.4614   -3.4519    3.3776 H   0  0  0  0  0  0  0  0  0  0  0  0
   -0.4312   -2.0901    3.8571 H   0  0  0  0  0  0  0  0  0  0  0  0
   -0.8294   -5.0365    1.0774 N   0  0  0  0  0  0  0  0  0  0  0  0
   -1.4610   -5.8838    0.0930 C   0  0  0  0  0  0  0  0  0  0  0  0
   -0.6316   -5.4362    1.9899 H   0  0  0  0  0  0  0  0  0  0  0  0
   -2.5540   -5.7943    0.1784 H   0  0  0  0  0  0  0  0  0  0  0  0
   -1.1454   -5.5738   -0.9142 H   0  0  0  0  0  0  0  0  0  0  0  0
   -1.1644   -6.9291    0.2646 H   0  0  0  0  0  0  0  0  0  0  0  0
  1  3  1  0  0  0  0
  1  7  1  0  0  0  0
  1  2  2  0  0  0  0
 22 23  1  0  0  0  0
 23 25  1  0  0  0  0
 23 24  2  0  0  0  0
 35 36  1  0  0  0  0
 36 44  1  0  0  0  0
 36 37  2  0  0  0  0
  8  9  1  0  0  0  0
  9 17  1  0  0  0  0
  9 10  2  0  0  0  0
 18 19  1  0  0  0  0
 19 34  1  0  0  0  0
 19 20  2  0  0  0  0
 35 38  1  0  0  0  0
  8 11  1  0  0  0  0
 44 45  1  0  0  0  0
 21 22  1  0  0  0  0
 18 21  1  0  0  0  0
 34 35  1  0  0  0  0
  7  8  1  0  0  0  0
 17 18  1  0  0  0  0
  3  4  1  0  0  0  0
  3  5  1  0  0  0  0
  3  6  1  0  0  0  0
 38 41  1  0  0  0  0
 38 42  1  0  0  0  0
 38 43  1  0  0  0  0
 11 14  1  0  0  0  0
 11 15  1  0  0  0  0
 11 16  1  0  0  0  0
 45 47  1  0  0  0  0
 45 48  1  0  0  0  0
 45 49  1  0  0  0  0
 22 30  1  0  0  0  0
 22 31  1  0  0  0  0
 21 28  1  0  0  0  0
 21 29  1  0  0  0  0
 35 40  1  0  0  0  0
  8 13  1  0  0  0  0
 18 27  1  0  0  0  0
 25 32  1  0  0  0  0
 25 33  1  0  0  0  0
 44 46  1  0  0  0  0
  7 12  1  0  0  0  0
 34 39  1  0  0  0  0
 17 26  1  0  0  0  0
M  END
$$$$

  -OEChem-05262214473D

 49 48  0     1  0  0  0  0  0999 V2000
   -1.9833   -0.0509   -3.3423 C   0  0  0  0  0  0  0  0  0  0  0  0
   -1.6199   -1.0613   -2.7518 O   0  0  0  0  0  0  0  0  0  0  0  0
   -3.3243   -0.0235   -3.9975 C   0  0  0  0  0  0  0  0  0  0  0  0
   -3.2886   -0.3689   -5.0432 H   0  0  0  0  0  0  0  0  0  0  0  0
   -4.0503   -0.6845   -3.4973 H   0  0  0  0  0  0  0  0  0  0  0  0
   -3.8104    0.9645   -4.0351 H   0  0  0  0  0  0  0  0  0  0  0  0
   -1.2607    1.1231   -3.4768 N   0  0  0  0  0  0  0  0  0  0  0  0
    0.0536    1.3115   -2.9213 C   0  0  2  0  0  0  0  0  0  0  0  0
    0.0266    0.8315   -1.4761 C   0  0  0  0  0  0  0  0  0  0  0  0
   -1.0065    0.7530   -0.8146 O   0  0  0  0  0  0  0  0  0  0  0  0
    0.4852    2.7674   -3.0025 C   0  0  0  0  0  0  0  0  0  0  0  0
   -1.6809    1.8924   -3.9952 H   0  0  0  0  0  0  0  0  0  0  0  0
    0.7360    0.6822   -3.5030 H   0  0  0  0  0  0  0  0  0  0  0  0
   -0.1867    3.4133   -2.4256 H   0  0  0  0  0  0  0  0  0  0  0  0
    1.4966    2.9042   -2.6056 H   0  0  0  0  0  0  0  0  0  0  0  0
    0.4754    3.1196   -4.0397 H   0  0  0  0  0  0  0  0  0  0  0  0
    1.2978    0.5411   -0.9947 N   0  0  0  0  0  0  0  0  0  0  0  0
    1.5371    0.0807    0.3489 C   0  0  2  0  0  0  0  0  0  0  0  0
    0.4988   -0.9945    0.6496 C   0  0  0  0  0  0  0  0  0  0  0  0
   -0.5266   -1.1380   -0.0129 O   0  0  0  0  0  0  0  0  0  0  0  0
    1.4417    1.2163    1.3757 C   0  0  0  0  0  0  0  0  0  0  0  0
    2.5538    2.2576    1.2361 C   0  0  0  0  0  0  0  0  0  0  0  0
    2.4479    3.3947    2.2352 C   0  0  0  0  0  0  0  0  0  0  0  0
    1.5243    3.5233    3.0334 O   0  0  0  0  0  0  0  0  0  0  0  0
    3.4950    4.2849    2.1289 N   0  0  0  0  0  0  0  0  0  0  0  0
    2.0949    0.6178   -1.6227 H   0  0  0  0  0  0  0  0  0  0  0  0
    2.5332   -0.3747    0.3521 H   0  0  0  0  0  0  0  0  0  0  0  0
    0.4750    1.7249    1.2619 H   0  0  0  0  0  0  0  0  0  0  0  0
    1.4515    0.8051    2.3930 H   0  0  0  0  0  0  0  0  0  0  0  0
    2.4938    2.7053    0.2364 H   0  0  0  0  0  0  0  0  0  0  0  0
    3.5400    1.7883    1.3237 H   0  0  0  0  0  0  0  0  0  0  0  0
    4.2112    4.1164    1.4303 H   0  0  0  0  0  0  0  0  0  0  0  0
    3.5754    5.1028    2.7245 H   0  0  0  0  0  0  0  0  0  0  0  0
    0.8309   -1.7383    1.7734 N   0  0  0  0  0  0  0  0  0  0  0  0
    0.0064   -2.8071    2.2896 C   0  0  2  0  0  0  0  0  0  0  0  0
   -0.3598   -3.7215    1.1280 C   0  0  0  0  0  0  0  0  0  0  0  0
   -0.3464   -3.3540   -0.0450 O   0  0  0  0  0  0  0  0  0  0  0  0
   -1.2415   -2.2646    2.9687 C   0  0  0  0  0  0  0  0  0  0  0  0
    1.6970   -1.5204    2.2573 H   0  0  0  0  0  0  0  0  0  0  0  0
    0.6191   -3.3592    3.0106 H   0  0  0  0  0  0  0  0  0  0  0  0
   -1.8680   -1.7084    2.2619 H   0  0  0  0  0  0  0  0  0  0  0  0
   -1.8508   -3.0740    3.3842 H   0  0  0  0  0  0  0  0  0  0  0  0
   -0.9764   -1.5839    3.7848 H   0  0  0  0  0  0  0  0  0  0  0  0
   -0.7450   -4.9834    1.5586 N   0  0  0  0  0  0  0  0  0  0  0  0
   -1.1515   -6.0276    0.6474 C   0  0  0  0  0  0  0  0  0  0  0  0
   -0.7077   -5.2065    2.5488 H   0  0  0  0  0  0  0  0  0  0  0  0
   -2.2437   -5.9986    0.5193 H   0  0  0  0  0  0  0  0  0  0  0  0
   -0.6640   -5.8744   -0.3267 H   0  0  0  0  0  0  0  0  0  0  0  0
   -0.8562   -7.0056    1.0554 H   0  0  0  0  0  0  0  0  0  0  0  0
  1  3  1  0  0  0  0
  1  7  1  0  0  0  0
  1  2  2  0  0  0  0
 22 23  1  0  0  0  0
 23 25  1  0  0  0  0
 23 24  2  0  0  0  0
 35 36  1  0  0  0  0
 36 44  1  0  0  0  0
 36 37  2  0  0  0  0
  8  9  1  0  0  0  0
  9 17  1  0  0  0  0
  9 10  2  0  0  0  0
 18 19  1  0  0  0  0
 19 34  1  0  0  0  0
 19 20  2  0  0  0  0
 35 38  1  0  0  0  0
  8 11  1  0  0  0  0
 44 45  1  0  0  0  0
 21 22  1  0  0  0  0
 18 21  1  0  0  0  0
 34 35  1  0  0  0  0
  7  8  1  0  0  0  0
 17 18  1  0  0  0  0
  3  4  1  0  0  0  0
  3  5  1  0  0  0  0
  3  6  1  0  0  0  0
 38 41  1  0  0  0  0
 38 42  1  0  0  0  0
 38 43  1  0  0  0  0
 11 14  1  0  0  0  0
 11 15  1  0  0  0  0
 11 16  1  0  0  0  0
 45 47  1  0  0  0  0
 45 48  1  0  0  0  0
 45 49  1  0  0  0  0
 22 30  1  0  0  0  0
 22 31  1  0  0  0  0
 21 28  1  0  0  0  0
 21 29  1  0  0  0  0
 35 40  1  0  0  0  0
  8 13  1  0  0  0  0
 18 27  1  0  0  0  0
 25 32  1  0  0  0  0
 25 33  1  0  0  0  0
 44 46  1  0  0  0  0
  7 12  1  0  0  0  0
 34 39  1  0  0  0  0
 17 26  1  0  0  0  0
M  END
$$$$

  -OEChem-05262214473D

 49 48  0     1  0  0  0  0  0999 V2000
   -1.9833   -0.0509   -3.3423 C   0  0  0  0  0  0  0  0  0  0  0  0
   -1.6199   -1.0613   -2.7518 O   0  0  0  0  0  0  0  0  0  0  0  0
   -3.3243   -0.0235   -3.9975 C   0  0  0  0  0  0  0  0  0  0  0  0
   -3.2886   -0.3689   -5.0432 H   0  0  0  0  0  0  0  0  0  0  0  0
   -4.0503   -0.6845   -3.4973 H   0  0  0  0  0  0  0  0  0  0  0  0
   -3.8104    0.9645   -4.0351 H   0  0  0  0  0  0  0  0  0  0  0  0
   -1.2607    1.1231   -3.4768 N   0  0  0  0  0  0  0  0  0  0  0  0
    0.0536    1.3115   -2.9213 C   0  0  2  0  0  0  0  0  0  0  0  0
    0.0266    0.8315   -1.4761 C   0  0  0  0  0  0  0  0  0  0  0  0
   -1.0065    0.7530   -0.8146 O   0  0  0  0  0  0  0  0  0  0  0  0
    0.4852    2.7674   -3.0025 C   0  0  0  0  0  0  0  0  0  0  0  0
   -1.6809    1.8924   -3.9952 H   0  0  0  0  0  0  0  0  0  0  0  0
    0.7360    0.6822   -3.5030 H   0  0  0  0  0  0  0  0  0  0  0  0
   -0.1867    3.4133   -2.4256 H   0  0  0  0  0  0  0  0  0  0  0  0
    1.4966    2.9042   -2.6056 H   0  0  0  0  0  0  0  0  0  0  0  0
    0.4754    3.1196   -4.0397 H   0  0  0  0  0  0  0  0  0  0  0  0
    1.2978    0.5411   -0.9947 N   0  0  0  0  0  0  0  0  0  0  0  0
    1.5371    0.0807    0.3489 C   0  0  2  0  0  0  0  0  0  0  0  0
    0.7715   -1.2264    0.5215 C   0  0  0  0  0  0  0  0  0  0  0  0
    0.0633   -1.7082   -0.3601 O   0  0  0  0  0  0  0  0  0  0  0  0
    1.0891    1.1041    1.4001 C   0  0  0  0  0  0  0  0  0  0  0  0
    1.9218    2.3875    1.3932 C   0  0  0  0  0  0  0  0  0  0  0  0
    1.4655    3.4113    2.4159 C   0  0  0  0  0  0  0  0  0  0  0  0
    0.4794    3.2722    3.1335 O   0  0  0  0  0  0  0  0  0  0  0  0
    2.2696    4.5308    2.4315 N   0  0  0  0  0  0  0  0  0  0  0  0
    2.0949    0.6178   -1.6227 H   0  0  0  0  0  0  0  0  0  0  0  0
    2.6107   -0.1223    0.4248 H   0  0  0  0  0  0  0  0  0  0  0  0
    0.0396    1.3716    1.2184 H   0  0  0  0  0  0  0  0  0  0  0  0
    1.1198    0.6537    2.4002 H   0  0  0  0  0  0  0  0  0  0  0  0
    1.8324    2.8602    0.4073 H   0  0  0  0  0  0  0  0  0  0  0  0
    2.9828    2.1642    1.5518 H   0  0  0  0  0  0  0  0  0  0  0  0
    3.0571    4.5763    1.7934 H   0  0  0  0  0  0  0  0  0  0  0  0
    2.1022    5.3113    3.0584 H   0  0  0  0  0  0  0  0  0  0  0  0
    0.9347   -1.7607    1.7921 N   0  0  0  0  0  0  0  0  0  0  0  0
    0.2997   -2.9843    2.2258 C   0  0  2  0  0  0  0  0  0  0  0  0
    0.5452   -4.0447    1.1606 C   0  0  0  0  0  0  0  0  0  0  0  0
    0.8115   -3.7724   -0.0082 O   0  0  0  0  0  0  0  0  0  0  0  0
   -1.1895   -2.7825    2.4589 C   0  0  0  0  0  0  0  0  0  0  0  0
    1.5303   -1.2668    2.4502 H   0  0  0  0  0  0  0  0  0  0  0  0
    0.7910   -3.2822    3.1585 H   0  0  0  0  0  0  0  0  0  0  0  0
   -1.6988   -2.4837    1.5354 H   0  0  0  0  0  0  0  0  0  0  0  0
   -1.6637   -3.7031    2.8148 H   0  0  0  0  0  0  0  0  0  0  0  0
   -1.3647   -1.9987    3.2036 H   0  0  0  0  0  0  0  0  0  0  0  0
    0.3894   -5.3307    1.6587 N   0  0  0  0  0  0  0  0  0  0  0  0
    0.5569   -6.5092    0.8407 C   0  0  0  0  0  0  0  0  0  0  0  0
    0.1867   -5.4634    2.6451 H   0  0  0  0  0  0  0  0  0  0  0  0
   -0.4162   -6.8085    0.4241 H   0  0  0  0  0  0  0  0  0  0  0  0
    1.2551   -6.2893    0.0196 H   0  0  0  0  0  0  0  0  0  0  0  0
    0.9599   -7.3277    1.4553 H   0  0  0  0  0  0  0  0  0  0  0  0
  1  3  1  0  0  0  0
  1  7  1  0  0  0  0
  1  2  2  0  0  0  0
 22 23  1  0  0  0  0
 23 25  1  0  0  0  0
 23 24  2  0  0  0  0
 35 36  1  0  0  0  0
 36 44  1  0  0  0  0
 36 37  2  0  0  0  0
  8  9  1  0  0  0  0
  9 17  1  0  0  0  0
  9 10  2  0  0  0  0
 18 19  1  0  0  0  0
 19 34  1  0  0  0  0
 19 20  2  0  0  0  0
 35 38  1  0  0  0  0
  8 11  1  0  0  0  0
 44 45  1  0  0  0  0
 21 22  1  0  0  0  0
 18 21  1  0  0  0  0
 34 35  1  0  0  0  0
  7  8  1  0  0  0  0
 17 18  1  0  0  0  0
  3  4  1  0  0  0  0
  3  5  1  0  0  0  0
  3  6  1  0  0  0  0
 38 41  1  0  0  0  0
 38 42  1  0  0  0  0
 38 43  1  0  0  0  0
 11 14  1  0  0  0  0
 11 15  1  0  0  0  0
 11 16  1  0  0  0  0
 45 47  1  0  0  0  0
 45 48  1  0  0  0  0
 45 49  1  0  0  0  0
 22 30  1  0  0  0  0
 22 31  1  0  0  0  0
 21 28  1  0  0  0  0
 21 29  1  0  0  0  0
 35 40  1  0  0  0  0
  8 13  1  0  0  0  0
 18 27  1  0  0  0  0
 25 32  1  0  0  0  0
 25 33  1  0  0  0  0
 44 46  1  0  0  0  0
  7 12  1  0  0  0  0
 34 39  1  0  0  0  0
 17 26  1  0  0  0  0
M  END
$$$$

  -OEChem-05262214473D

 49 48  0     1  0  0  0  0  0999 V2000
   -1.9833   -0.0509   -3.3423 C   0  0  0  0  0  0  0  0  0  0  0  0
   -1.6199   -1.0613   -2.7518 O   0  0  0  0  0  0  0  0  0  0  0  0
   -3.3243   -0.0235   -3.9975 C   0  0  0  0  0  0  0  0  0  0  0  0
   -3.2886   -0.3689   -5.0432 H   0  0  0  0  0  0  0  0  0  0  0  0
   -4.0503   -0.6845   -3.4973 H   0  0  0  0  0  0  0  0  0  0  0  0
   -3.8104    0.9645   -4.0351 H   0  0  0  0  0  0  0  0  0  0  0  0
   -1.2607    1.1231   -3.4768 N   0  0  0  0  0  0  0  0  0  0  0  0
    0.0536    1.3115   -2.9213 C   0  0  2  0  0  0  0  0  0  0  0  0
    0.0266    0.8315   -1.4761 C   0  0  0  0  0  0  0  0  0  0  0  0
   -1.0065    0.7530   -0.8146 O   0  0  0  0  0  0  0  0  0  0  0  0
    0.4852    2.7674   -3.0025 C   0  0  0  0  0  0  0  0  0  0  0  0
   -1.6809    1.8924   -3.9952 H   0  0  0  0  0  0  0  0  0  0  0  0
    0.7360    0.6822   -3.5030 H   0  0  0  0  0  0  0  0  0  0  0  0
   -0.1867    3.4133   -2.4256 H   0  0  0  0  0  0  0  0  0  0  0  0
    1.4966    2.9042   -2.6056 H   0  0  0  0  0  0  0  0  0  0  0  0
    0.4754    3.1196   -4.0397 H   0  0  0  0  0  0  0  0  0  0  0  0
    1.2978    0.5411   -0.9947 N   0  0  0  0  0  0  0  0  0  0  0  0
    1.5371    0.0807    0.3489 C   0  0  2  0  0  0  0  0  0  0  0  0
    0.7715   -1.2264    0.5215 C   0  0  0  0  0  0  0  0  0  0  0  0
    0.2857   -1.8467   -0.4220 O   0  0  0  0  0  0  0  0  0  0  0  0
    1.0891    1.1041    1.4001 C   0  0  0  0  0  0  0  0  0  0  0  0
    1.9218    2.3875    1.3932 C   0  0  0  0  0  0  0  0  0  0  0  0
    1.4655    3.4113    2.4159 C   0  0  0  0  0  0  0  0  0  0  0  0
    0.4794    3.2722    3.1335 O   0  0  0  0  0  0  0  0  0  0  0  0
    2.2696    4.5308    2.4315 N   0  0  0  0  0  0  0  0  0  0  0  0
    2.0949    0.6178   -1.6227 H   0  0  0  0  0  0  0  0  0  0  0  0
    2.6107   -0.1223    0.4248 H   0  0  0  0  0  0  0  0  0  0  0  0
    0.0396    1.3716    1.2184 H   0  0  0  0  0  0  0  0  0  0  0  0
    1.1198    0.6537    2.4002 H   0  0  0  0  0  0  0  0  0  0  0  0
    1.8324    2.8602    0.4073 H   0  0  0  0  0  0  0  0  0  0  0  0
    2.9828    2.1642    1.5518 H   0  0  0  0  0  0  0  0  0  0  0  0
    3.0571    4.5763    1.7934 H   0  0  0  0  0  0  0  0  0  0  0  0
    2.1022    5.3113    3.0584 H   0  0  0  0  0  0  0  0  0  0  0  0
    0.6539   -1.5877    1.8565 N   0  0  0  0  0  0  0  0  0  0  0  0
   -0.0440   -2.7733    2.2990 C   0  0  2  0  0  0  0  0  0  0  0  0
    0.4491   -3.9483    1.4649 C   0  0  0  0  0  0  0  0  0  0  0  0
    0.9663   -3.8147    0.3578 O   0  0  0  0  0  0  0  0  0  0  0  0
   -1.5504   -2.6093    2.1698 C   0  0  0  0  0  0  0  0  0  0  0  0
    1.0798   -0.9888    2.5576 H   0  0  0  0  0  0  0  0  0  0  0  0
    0.2303   -2.9288    3.3481 H   0  0  0  0  0  0  0  0  0  0  0  0
   -1.8444   -2.4525    1.1255 H   0  0  0  0  0  0  0  0  0  0  0  0
   -2.0787   -3.4973    2.5321 H   0  0  0  0  0  0  0  0  0  0  0  0
   -1.8993   -1.7459    2.7465 H   0  0  0  0  0  0  0  0  0  0  0  0
    0.2046   -5.1665    2.0834 N   0  0  0  0  0  0  0  0  0  0  0  0
    0.5683   -6.4305    1.4869 C   0  0  0  0  0  0  0  0  0  0  0  0
   -0.2117   -5.1819    3.0097 H   0  0  0  0  0  0  0  0  0  0  0  0
   -0.2824   -6.8226    0.9101 H   0  0  0  0  0  0  0  0  0  0  0  0
    1.4292   -6.2859    0.8177 H   0  0  0  0  0  0  0  0  0  0  0  0
    0.8353   -7.1461    2.2785 H   0  0  0  0  0  0  0  0  0  0  0  0
  1  3  1  0  0  0  0
  1  7  1  0  0  0  0
  1  2  2  0  0  0  0
 22 23  1  0  0  0  0
 23 25  1  0  0  0  0
 23 24  2  0  0  0  0
 35 36  1  0  0  0  0
 36 44  1  0  0  0  0
 36 37  2  0  0  0  0
  8  9  1  0  0  0  0
  9 17  1  0  0  0  0
  9 10  2  0  0  0  0
 18 19  1  0  0  0  0
 19 34  1  0  0  0  0
 19 20  2  0  0  0  0
 35 38  1  0  0  0  0
  8 11  1  0  0  0  0
 44 45  1  0  0  0  0
 21 22  1  0  0  0  0
 18 21  1  0  0  0  0
 34 35  1  0  0  0  0
  7  8  1  0  0  0  0
 17 18  1  0  0  0  0
  3  4  1  0  0  0  0
  3  5  1  0  0  0  0
  3  6  1  0  0  0  0
 38 41  1  0  0  0  0
 38 42  1  0  0  0  0
 38 43  1  0  0  0  0
 11 14  1  0  0  0  0
 11 15  1  0  0  0  0
 11 16  1  0  0  0  0
 45 47  1  0  0  0  0
 45 48  1  0  0  0  0
 45 49  1  0  0  0  0
 22 30  1  0  0  0  0
 22 31  1  0  0  0  0
 21 28  1  0  0  0  0
 21 29  1  0  0  0  0
 35 40  1  0  0  0  0
  8 13  1  0  0  0  0
 18 27  1  0  0  0  0
 25 32  1  0  0  0  0
 25 33  1  0  0  0  0
 44 46  1  0  0  0  0
  7 12  1  0  0  0  0
 34 39  1  0  0  0  0
 17 26  1  0  0  0  0
M  END
$$$$

  -OEChem-05262214473D

 49 48  0     1  0  0  0  0  0999 V2000
   -1.9833   -0.0509   -3.3423 C   0  0  0  0  0  0  0  0  0  0  0  0
   -1.6199   -1.0613   -2.7518 O   0  0  0  0  0  0  0  0  0  0  0  0
   -3.3243   -0.0235   -3.9975 C   0  0  0  0  0  0  0  0  0  0  0  0
   -3.2886   -0.3689   -5.0432 H   0  0  0  0  0  0  0  0  0  0  0  0
   -4.0503   -0.6845   -3.4973 H   0  0  0  0  0  0  0  0  0  0  0  0
   -3.8104    0.9645   -4.0351 H   0  0  0  0  0  0  0  0  0  0  0  0
   -1.2607    1.1231   -3.4768 N   0  0  0  0  0  0  0  0  0  0  0  0
    0.0536    1.3115   -2.9213 C   0  0  2  0  0  0  0  0  0  0  0  0
    0.0266    0.8315   -1.4761 C   0  0  0  0  0  0  0  0  0  0  0  0
   -1.0065    0.7530   -0.8146 O   0  0  0  0  0  0  0  0  0  0  0  0
    0.4852    2.7674   -3.0025 C   0  0  0  0  0  0  0  0  0  0  0  0
   -1.6809    1.8924   -3.9952 H   0  0  0  0  0  0  0  0  0  0  0  0
    0.7360    0.6822   -3.5030 H   0  0  0  0  0  0  0  0  0  0  0  0
   -0.1867    3.4133   -2.4256 H   0  0  0  0  0  0  0  0  0  0  0  0
    1.4966    2.9042   -2.6056 H   0  0  0  0  0  0  0  0  0  0  0  0
    0.4754    3.1196   -4.0397 H   0  0  0  0  0  0  0  0  0  0  0  0
    1.2978    0.5411   -0.9947 N   0  0  0  0  0  0  0  0  0  0  0  0
    1.5371    0.0807    0.3489 C   0  0  2  0  0  0  0  0  0  0  0  0
    0.7715   -1.2264    0.5215 C   0  0  0  0  0  0  0  0  0  0  0  0
    0.5184   -1.9819   -0.4144 O   0  0  0  0  0  0  0  0  0  0  0  0
    1.0891    1.1041    1.4001 C   0  0  0  0  0  0  0  0  0  0  0  0
    1.9218    2.3875    1.3932 C   0  0  0  0  0  0  0  0  0  0  0  0
    1.4655    3.4113    2.4159 C   0  0  0  0  0  0  0  0  0  0  0  0
    0.4794    3.2722    3.1335 O   0  0  0  0  0  0  0  0  0  0  0  0
    2.2696    4.5308    2.4315 N   0  0  0  0  0  0  0  0  0  0  0  0
    2.0949    0.6178   -1.6227 H   0  0  0  0  0  0  0  0  0  0  0  0
    2.6107   -0.1223    0.4248 H   0  0  0  0  0  0  0  0  0  0  0  0
    0.0396    1.3716    1.2184 H   0  0  0  0  0  0  0  0  0  0  0  0
    1.1198    0.6537    2.4002 H   0  0  0  0  0  0  0  0  0  0  0  0
    1.8324    2.8602    0.4073 H   0  0  0  0  0  0  0  0  0  0  0  0
    2.9828    2.1642    1.5518 H   0  0  0  0  0  0  0  0  0  0  0  0
    3.0571    4.5763    1.7934 H   0  0  0  0  0  0  0  0  0  0  0  0
    2.1022    5.3113    3.0584 H   0  0  0  0  0  0  0  0  0  0  0  0
    0.3634   -1.4205    1.8339 N   0  0  0  0  0  0  0  0  0  0  0  0
   -0.3985   -2.5701    2.2660 C   0  0  2  0  0  0  0  0  0  0  0  0
    0.2860   -3.8184    1.7251 C   0  0  0  0  0  0  0  0  0  0  0  0
    1.0359   -3.8035    0.7511 O   0  0  0  0  0  0  0  0  0  0  0  0
   -1.8399   -2.4901    1.7879 C   0  0  0  0  0  0  0  0  0  0  0  0
    0.6128   -0.7195    2.5252 H   0  0  0  0  0  0  0  0  0  0  0  0
   -0.3636   -2.5792    3.3609 H   0  0  0  0  0  0  0  0  0  0  0  0
   -1.8949   -2.4800    0.6933 H   0  0  0  0  0  0  0  0  0  0  0  0
   -2.4229   -3.3475    2.1402 H   0  0  0  0  0  0  0  0  0  0  0  0
   -2.3217   -1.5768    2.1534 H   0  0  0  0  0  0  0  0  0  0  0  0
   -0.0728   -4.9580    2.4313 N   0  0  0  0  0  0  0  0  0  0  0  0
    0.4335   -6.2702    2.1033 C   0  0  0  0  0  0  0  0  0  0  0  0
   -0.6857   -4.8742    3.2370 H   0  0  0  0  0  0  0  0  0  0  0  0
   -0.2606   -6.7692    1.4111 H   0  0  0  0  0  0  0  0  0  0  0  0
    1.4202   -6.1738    1.6267 H   0  0  0  0  0  0  0  0  0  0  0  0
    0.5271   -6.8673    3.0224 H   0  0  0  0  0  0  0  0  0  0  0  0
  1  3  1  0  0  0  0
  1  7  1  0  0  0  0
  1  2  2  0  0  0  0
 22 23  1  0  0  0  0
 23 25  1  0  0  0  0
 23 24  2  0  0  0  0
 35 36  1  0  0  0  0
 36 44  1  0  0  0  0
 36 37  2  0  0  0  0
  8  9  1  0  0  0  0
  9 17  1  0  0  0  0
  9 10  2  0  0  0  0
 18 19  1  0  0  0  0
 19 34  1  0  0  0  0
 19 20  2  0  0  0  0
 35 38  1  0  0  0  0
  8 11  1  0  0  0  0
 44 45  1  0  0  0  0
 21 22  1  0  0  0  0
 18 21  1  0  0  0  0
 34 35  1  0  0  0  0
  7  8  1  0  0  0  0
 17 18  1  0  0  0  0
  3  4  1  0  0  0  0
  3  5  1  0  0  0  0
  3  6  1  0  0  0  0
 38 41  1  0  0  0  0
 38 42  1  0  0  0  0
 38 43  1  0  0  0  0
 11 14  1  0  0  0  0
 11 15  1  0  0  0  0
 11 16  1  0  0  0  0
 45 47  1  0  0  0  0
 45 48  1  0  0  0  0
 45 49  1  0  0  0  0
 22 30  1  0  0  0  0
 22 31  1  0  0  0  0
 21 28  1  0  0  0  0
 21 29  1  0  0  0  0
 35 40  1  0  0  0  0
  8 13  1  0  0  0  0
 18 27  1  0  0  0  0
 25 32  1  0  0  0  0
 25 33  1  0  0  0  0
 44 46  1  0  0  0  0
  7 12  1  0  0  0  0
 34 39  1  0  0  0  0
 17 26  1  0  0  0  0
M  END
$$$$

  -OEChem-05262214473D

 49 48  0     1  0  0  0  0  0999 V2000
   -1.9833   -0.0509   -3.3423 C   0  0  0  0  0  0  0  0  0  0  0  0
   -1.6199   -1.0613   -2.7518 O   0  0  0  0  0  0  0  0  0  0  0  0
   -3.3243   -0.0235   -3.9975 C   0  0  0  0  0  0  0  0  0  0  0  0
   -3.2886   -0.3689   -5.0432 H   0  0  0  0  0  0  0  0  0  0  0  0
   -4.0503   -0.6845   -3.4973 H   0  0  0  0  0  0  0  0  0  0  0  0
   -3.8104    0.9645   -4.0351 H   0  0  0  0  0  0  0  0  0  0  0  0
   -1.2607    1.1231   -3.4768 N   0  0  0  0  0  0  0  0  0  0  0  0
    0.0536    1.3115   -2.9213 C   0  0  2  0  0  0  0  0  0  0  0  0
    0.0266    0.8315   -1.4761 C   0  0  0  0  0  0  0  0  0  0  0  0
   -1.0065    0.7530   -0.8146 O   0  0  0  0  0  0  0  0  0  0  0  0
    0.4852    2.7674   -3.0025 C   0  0  0  0  0  0  0  0  0  0  0  0
   -1.6809    1.8924   -3.9952 H   0  0  0  0  0  0  0  0  0  0  0  0
    0.7360    0.6822   -3.5030 H   0  0  0  0  0  0  0  0  0  0  0  0
   -0.1867    3.4133   -2.4256 H   0  0  0  0  0  0  0  0  0  0  0  0
    1.4966    2.9042   -2.6056 H   0  0  0  0  0  0  0  0  0  0  0  0
    0.4754    3.1196   -4.0397 H   0  0  0  0  0  0  0  0  0  0  0  0
    1.2978    0.5411   -0.9947 N   0  0  0  0  0  0  0  0  0  0  0  0
    1.5371    0.0807    0.3489 C   0  0  2  0  0  0  0  0  0  0  0  0
    0.7715   -1.2264    0.5215 C   0  0  0  0  0  0  0  0  0  0  0  0
    0.7454   -2.1048   -0.3379 O   0  0  0  0  0  0  0  0  0  0  0  0
    1.0891    1.1041    1.4001 C   0  0  0  0  0  0  0  0  0  0  0  0
    1.9218    2.3875    1.3932 C   0  0  0  0  0  0  0  0  0  0  0  0
    1.4655    3.4113    2.4159 C   0  0  0  0  0  0  0  0  0  0  0  0
    0.4794    3.2722    3.1335 O   0  0  0  0  0  0  0  0  0  0  0  0
    2.2696    4.5308    2.4315 N   0  0  0  0  0  0  0  0  0  0  0  0
    2.0949    0.6178   -1.6227 H   0  0  0  0  0  0  0  0  0  0  0  0
    2.6107   -0.1223    0.4248 H   0  0  0  0  0  0  0  0  0  0  0  0
    0.0396    1.3716    1.2184 H   0  0  0  0  0  0  0  0  0  0  0  0
    1.1198    0.6537    2.4002 H   0  0  0  0  0  0  0  0  0  0  0  0
    1.8324    2.8602    0.4073 H   0  0  0  0  0  0  0  0  0  0  0  0
    2.9828    2.1642    1.5518 H   0  0  0  0  0  0  0  0  0  0  0  0
    3.0571    4.5763    1.7934 H   0  0  0  0  0  0  0  0  0  0  0  0
    2.1022    5.3113    3.0584 H   0  0  0  0  0  0  0  0  0  0  0  0
    0.0829   -1.2705    1.7258 N   0  0  0  0  0  0  0  0  0  0  0  0
   -0.7395   -2.3884    2.1291 C   0  0  2  0  0  0  0  0  0  0  0  0
    0.0669   -3.6639    1.9233 C   0  0  0  0  0  0  0  0  0  0  0  0
    1.0155   -3.7396    1.1450 O   0  0  0  0  0  0  0  0  0  0  0  0
   -2.0383   -2.4332    1.3394 C   0  0  0  0  0  0  0  0  0  0  0  0
    0.1609   -0.4772    2.3554 H   0  0  0  0  0  0  0  0  0  0  0  0
   -0.9504   -2.2572    3.1960 H   0  0  0  0  0  0  0  0  0  0  0  0
   -1.8471   -2.5641    0.2681 H   0  0  0  0  0  0  0  0  0  0  0  0
   -2.6728   -3.2638    1.6658 H   0  0  0  0  0  0  0  0  0  0  0  0
   -2.6030   -1.5030    1.4649 H   0  0  0  0  0  0  0  0  0  0  0  0
   -0.4242   -4.7195    2.6787 N   0  0  0  0  0  0  0  0  0  0  0  0
    0.1619   -6.0392    2.6480 C   0  0  0  0  0  0  0  0  0  0  0  0
   -1.2030   -4.5614    3.3113 H   0  0  0  0  0  0  0  0  0  0  0  0
   -0.3523   -6.6519    1.8929 H   0  0  0  0  0  0  0  0  0  0  0  0
    1.2287   -5.9606    2.3916 H   0  0  0  0  0  0  0  0  0  0  0  0
    0.0561   -6.5103    3.6364 H   0  0  0  0  0  0  0  0  0  0  0  0
  1  3  1  0  0  0  0
  1  7  1  0  0  0  0
  1  2  2  0  0  0  0
 22 23  1  0  0  0  0
 23 25  1  0  0  0  0
 23 24  2  0  0  0  0
 35 36  1  0  0  0  0
 36 44  1  0  0  0  0
 36 37  2  0  0  0  0
  8  9  1  0  0  0  0
  9 17  1  0  0  0  0
  9 10  2  0  0  0  0
 18 19  1  0  0  0  0
 19 34  1  0  0  0  0
 19 20  2  0  0  0  0
 35 38  1  0  0  0  0
  8 11  1  0  0  0  0
 44 45  1  0  0  0  0
 21 22  1  0  0  0  0
 18 21  1  0  0  0  0
 34 35  1  0  0  0  0
  7  8  1  0  0  0  0
 17 18  1  0  0  0  0
  3  4  1  0  0  0  0
  3  5  1  0  0  0  0
  3  6  1  0  0  0  0
 38 41  1  0  0  0  0
 38 42  1  0  0  0  0
 38 43  1  0  0  0  0
 11 14  1  0  0  0  0
 11 15  1  0  0  0  0
 11 16  1  0  0  0  0
 45 47  1  0  0  0  0
 45 48  1  0  0  0  0
 45 49  1  0  0  0  0
 22 30  1  0  0  0  0
 22 31  1  0  0  0  0
 21 28  1  0  0  0  0
 21 29  1  0  0  0  0
 35 40  1  0  0  0  0
  8 13  1  0  0  0  0
 18 27  1  0  0  0  0
 25 32  1  0  0  0  0
 25 33  1  0  0  0  0
 44 46  1  0  0  0  0
  7 12  1  0  0  0  0
 34 39  1  0  0  0  0
 17 26  1  0  0  0  0
M  END
$$$$

  -OEChem-05262214473D

 49 48  0     1  0  0  0  0  0999 V2000
   -1.9833   -0.0509   -3.3423 C   0  0  0  0  0  0  0  0  0  0  0  0
   -1.6199   -1.0613   -2.7518 O   0  0  0  0  0  0  0  0  0  0  0  0
   -3.3243   -0.0235   -3.9975 C   0  0  0  0  0  0  0  0  0  0  0  0
   -3.2886   -0.3689   -5.0432 H   0  0  0  0  0  0  0  0  0  0  0  0
   -4.0503   -0.6845   -3.4973 H   0  0  0  0  0  0  0  0  0  0  0  0
   -3.8104    0.9645   -4.0351 H   0  0  0  0  0  0  0  0  0  0  0  0
   -1.2607    1.1231   -3.4768 N   0  0  0  0  0  0  0  0  0  0  0  0
    0.0536    1.3115   -2.9213 C   0  0  2  0  0  0  0  0  0  0  0  0
    0.0266    0.8315   -1.4761 C   0  0  0  0  0  0  0  0  0  0  0  0
   -1.0065    0.7530   -0.8146 O   0  0  0  0  0  0  0  0  0  0  0  0
    0.4852    2.7674   -3.0025 C   0  0  0  0  0  0  0  0  0  0  0  0
   -1.6809    1.8924   -3.9952 H   0  0  0  0  0  0  0  0  0  0  0  0
    0.7360    0.6822   -3.5030 H   0  0  0  0  0  0  0  0  0  0  0  0
   -0.1867    3.4133   -2.4256 H   0  0  0  0  0  0  0  0  0  0  0  0
    1.4966    2.9042   -2.6056 H   0  0  0  0  0  0  0  0  0  0  0  0
    0.4754    3.1196   -4.0397 H   0  0  0  0  0  0  0  0  0  0  0  0
    1.2978    0.5411   -0.9947 N   0  0  0  0  0  0  0  0  0  0  0  0
    1.5371    0.0807    0.3489 C   0  0  2  0  0  0  0  0  0  0  0  0
    0.7715   -1.2264    0.5215 C   0  0  0  0  0  0  0  0  0  0  0  0
    0.9513   -2.2069   -0.1977 O   0  0  0  0  0  0  0  0  0  0  0  0
    1.0891    1.1041    1.4001 C   0  0  0  0  0  0  0  0  0  0  0  0
    1.9218    2.3875    1.3932 C   0  0  0  0  0  0  0  0  0  0  0  0
    1.4655    3.4113    2.4159 C   0  0  0  0  0  0  0  0  0  0  0  0
    0.4794    3.2722    3.1335 O   0  0  0  0  0  0  0  0  0  0  0  0
    2.2696    4.5308    2.4315 N   0  0  0  0  0  0  0  0  0  0  0  0
    2.0949    0.6178   -1.6227 H   0  0  0  0  0  0  0  0  0  0  0  0
    2.6107   -0.1223    0.4248 H   0  0  0  0  0  0  0  0  0  0  0  0
    0.0396    1.3716    1.2184 H   0  0  0  0  0  0  0  0  0  0  0  0
    1.1198    0.6537    2.4002 H   0  0  0  0  0  0  0  0  0  0  0  0
    1.8324    2.8602    0.4073 H   0  0  0  0  0  0  0  0  0  0  0  0
    2.9828    2.1642    1.5518 H   0  0  0  0  0  0  0  0  0  0  0  0
    3.0571    4.5763    1.7934 H   0  0  0  0  0  0  0  0  0  0  0  0
    2.1022    5.3113    3.0584 H   0  0  0  0  0  0  0  0  0  0  0  0
   -0.1684   -1.1478    1.5398 N   0  0  0  0  0  0  0  0  0  0  0  0
   -1.0438   -2.2408    1.8976 C   0  0  2  0  0  0  0  0  0  0  0  0
   -0.1932   -3.4953    2.0460 C   0  0  0  0  0  0  0  0  0  0  0  0
    0.9065   -3.6272    1.5127 O   0  0  0  0  0  0  0  0  0  0  0  0
   -2.1321   -2.4422    0.8547 C   0  0  0  0  0  0  0  0  0  0  0  0
   -0.2449   -0.2786    2.0595 H   0  0  0  0  0  0  0  0  0  0  0  0
   -1.4901   -1.9849    2.8647 H   0  0  0  0  0  0  0  0  0  0  0  0
   -1.7041   -2.6993   -0.1211 H   0  0  0  0  0  0  0  0  0  0  0  0
   -2.8113   -3.2519    1.1413 H   0  0  0  0  0  0  0  0  0  0  0  0
   -2.7241   -1.5294    0.7278 H   0  0  0  0  0  0  0  0  0  0  0  0
   -0.8254   -4.4673    2.8087 N   0  0  0  0  0  0  0  0  0  0  0  0
   -0.2281   -5.7532    3.0838 C   0  0  0  0  0  0  0  0  0  0  0  0
   -1.7283   -4.2647    3.2276 H   0  0  0  0  0  0  0  0  0  0  0  0
   -0.5513   -6.4786    2.3227 H   0  0  0  0  0  0  0  0  0  0  0  0
    0.8678   -5.6608    3.0603 H   0  0  0  0  0  0  0  0  0  0  0  0
   -0.5456   -6.0995    4.0785 H   0  0  0  0  0  0  0  0  0  0  0  0
  1  3  1  0  0  0  0
  1  7  1  0  0  0  0
  1  2  2  0  0  0  0
 22 23  1  0  0  0  0
 23 25  1  0  0  0  0
 23 24  2  0  0  0  0
 35 36  1  0  0  0  0
 36 44  1  0  0  0  0
 36 37  2  0  0  0  0
  8  9  1  0  0  0  0
  9 17  1  0  0  0  0
  9 10  2  0  0  0  0
 18 19  1  0  0  0  0
 19 34  1  0  0  0  0
 19 20  2  0  0  0  0
 35 38  1  0  0  0  0
  8 11  1  0  0  0  0
 44 45  1  0  0  0  0
 21 22  1  0  0  0  0
 18 21  1  0  0  0  0
 34 35  1  0  0  0  0
  7  8  1  0  0  0  0
 17 18  1  0  0  0  0
  3  4  1  0  0  0  0
  3  5  1  0  0  0  0
  3  6  1  0  0  0  0
 38 41  1  0  0  0  0
 38 42  1  0  0  0  0
 38 43  1  0  0  0  0
 11 14  1  0  0  0  0
 11 15  1  0  0  0  0
 11 16  1  0  0  0  0
 45 47  1  0  0  0  0
 45 48  1  0  0  0  0
 45 49  1  0  0  0  0
 22 30  1  0  0  0  0
 22 31  1  0  0  0  0
 21 28  1  0  0  0  0
 21 29  1  0  0  0  0
 35 40  1  0  0  0  0
  8 13  1  0  0  0  0
 18 27  1  0  0  0  0
 25 32  1  0  0  0  0
 25 33  1  0  0  0  0
 44 46  1  0  0  0  0
  7 12  1  0  0  0  0
 34 39  1  0  0  0  0
 17 26  1  0  0  0  0
M  END
$$$$

  -OEChem-05262214473D

 49 48  0     1  0  0  0  0  0999 V2000
   -1.9833   -0.0509   -3.3423 C   0  0  0  0  0  0  0  0  0  0  0  0
   -1.6199   -1.0613   -2.7518 O   0  0  0  0  0  0  0  0  0  0  0  0
   -3.3243   -0.0235   -3.9975 C   0  0  0  0  0  0  0  0  0  0  0  0
   -3.2886   -0.3689   -5.0432 H   0  0  0  0  0  0  0  0  0  0  0  0
   -4.0503   -0.6845   -3.4973 H   0  0  0  0  0  0  0  0  0  0  0  0
   -3.8104    0.9645   -4.0351 H   0  0  0  0  0  0  0  0  0  0  0  0
   -1.2607    1.1231   -3.4768 N   0  0  0  0  0  0  0  0  0  0  0  0
    0.0536    1.3115   -2.9213 C   0  0  2  0  0  0  0  0  0  0  0  0
    0.0266    0.8315   -1.4761 C   0  0  0  0  0  0  0  0  0  0  0  0
   -1.0065    0.7530   -0.8146 O   0  0  0  0  0  0  0  0  0  0  0  0
    0.4852    2.7674   -3.0025 C   0  0  0  0  0  0  0  0  0  0  0  0
   -1.6809    1.8924   -3.9952 H   0  0  0  0  0  0  0  0  0  0  0  0
    0.7360    0.6822   -3.5030 H   0  0  0  0  0  0  0  0  0  0  0  0
   -0.1867    3.4133   -2.4256 H   0  0  0  0  0  0  0  0  0  0  0  0
    1.4966    2.9042   -2.6056 H   0  0  0  0  0  0  0  0  0  0  0  0
    0.4754    3.1196   -4.0397 H   0  0  0  0  0  0  0  0  0  0  0  0
    1.2978    0.5411   -0.9947 N   0  0  0  0  0  0  0  0  0  0  0  0
    1.5371    0.0807    0.3489 C   0  0  2  0  0  0  0  0  0  0  0  0
    0.7715   -1.2264    0.5215 C   0  0  0  0  0  0  0  0  0  0  0  0
    1.1220   -2.2812   -0.0033 O   0  0  0  0  0  0  0  0  0  0  0  0
    1.0891    1.1041    1.4001 C   0  0  0  0  0  0  0  0  0  0  0  0
    1.9218    2.3875    1.3932 C   0  0  0  0  0  0  0  0  0  0  0  0
    1.4655    3.4113    2.4159 C   0  0  0  0  0  0  0  0  0  0  0  0
    0.4794    3.2722    3.1335 O   0  0  0  0  0  0  0  0  0  0  0  0
    2.2696    4.5308    2.4315 N   0  0  0  0  0  0  0  0  0  0  0  0
    2.0949    0.6178   -1.6227 H   0  0  0  0  0  0  0  0  0  0  0  0
    2.6107   -0.1223    0.4248 H   0  0  0  0  0  0  0  0  0  0  0  0
    0.0396    1.3716    1.2184 H   0  0  0  0  0  0  0  0  0  0  0  0
    1.1198    0.6537    2.4002 H   0  0  0  0  0  0  0  0  0  0  0  0
    1.8324    2.8602    0.4073 H   0  0  0  0  0  0  0  0  0  0  0  0
    2.9828    2.1642    1.5518 H   0  0  0  0  0  0  0  0  0  0  0  0
    3.0571    4.5763    1.7934 H   0  0  0  0  0  0  0  0  0  0  0  0
    2.1022    5.3113    3.0584 H   0  0  0  0  0  0  0  0  0  0  0  0
   -0.3736   -1.0609    1.2883 N   0  0  0  0  0  0  0  0  0  0  0  0
   -1.2907   -2.1371    1.5872 C   0  0  2  0  0  0  0  0  0  0  0  0
   -0.4766   -3.3242    2.0849 C   0  0  0  0  0  0  0  0  0  0  0  0
    0.7163   -3.4740    1.8290 O   0  0  0  0  0  0  0  0  0  0  0  0
   -2.1149   -2.5167    0.3669 C   0  0  0  0  0  0  0  0  0  0  0  0
   -0.5772   -0.1370    1.6579 H   0  0  0  0  0  0  0  0  0  0  0  0
   -1.9458   -1.7807    2.3895 H   0  0  0  0  0  0  0  0  0  0  0  0
   -1.4756   -2.8763   -0.4477 H   0  0  0  0  0  0  0  0  0  0  0  0
   -2.8291   -3.3127    0.6024 H   0  0  0  0  0  0  0  0  0  0  0  0
   -2.6768   -1.6542   -0.0076 H   0  0  0  0  0  0  0  0  0  0  0  0
   -1.2492   -4.2186    2.8125 N   0  0  0  0  0  0  0  0  0  0  0  0
   -0.7099   -5.4317    3.3811 C   0  0  0  0  0  0  0  0  0  0  0  0
   -2.2259   -4.0045    2.9917 H   0  0  0  0  0  0  0  0  0  0  0  0
   -0.8439   -6.2612    2.6712 H   0  0  0  0  0  0  0  0  0  0  0  0
    0.3620   -5.2950    3.5871 H   0  0  0  0  0  0  0  0  0  0  0  0
   -1.2368   -5.6629    4.3186 H   0  0  0  0  0  0  0  0  0  0  0  0
  1  3  1  0  0  0  0
  1  7  1  0  0  0  0
  1  2  2  0  0  0  0
 22 23  1  0  0  0  0
 23 25  1  0  0  0  0
 23 24  2  0  0  0  0
 35 36  1  0  0  0  0
 36 44  1  0  0  0  0
 36 37  2  0  0  0  0
  8  9  1  0  0  0  0
  9 17  1  0  0  0  0
  9 10  2  0  0  0  0
 18 19  1  0  0  0  0
 19 34  1  0  0  0  0
 19 20  2  0  0  0  0
 35 38  1  0  0  0  0
  8 11  1  0  0  0  0
 44 45  1  0  0  0  0
 21 22  1  0  0  0  0
 18 21  1  0  0  0  0
 34 35  1  0  0  0  0
  7  8  1  0  0  0  0
 17 18  1  0  0  0  0
  3  4  1  0  0  0  0
  3  5  1  0  0  0  0
  3  6  1  0  0  0  0
 38 41  1  0  0  0  0
 38 42  1  0  0  0  0
 38 43  1  0  0  0  0
 11 14  1  0  0  0  0
 11 15  1  0  0  0  0
 11 16  1  0  0  0  0
 45 47  1  0  0  0  0
 45 48  1  0  0  0  0
 45 49  1  0  0  0  0
 22 30  1  0  0  0  0
 22 31  1  0  0  0  0
 21 28  1  0  0  0  0
 21 29  1  0  0  0  0
 35 40  1  0  0  0  0
  8 13  1  0  0  0  0
 18 27  1  0  0  0  0
 25 32  1  0  0  0  0
 25 33  1  0  0  0  0
 44 46  1  0  0  0  0
  7 12  1  0  0  0  0
 34 39  1  0  0  0  0
 17 26  1  0  0  0  0
M  END
$$$$

  -OEChem-05262214473D

 49 48  0     1  0  0  0  0  0999 V2000
   -1.9833   -0.0509   -3.3423 C   0  0  0  0  0  0  0  0  0  0  0  0
   -1.6199   -1.0613   -2.7518 O   0  0  0  0  0  0  0  0  0  0  0  0
   -3.3243   -0.0235   -3.9975 C   0  0  0  0  0  0  0  0  0  0  0  0
   -3.2886   -0.3689   -5.0432 H   0  0  0  0  0  0  0  0  0  0  0  0
   -4.0503   -0.6845   -3.4973 H   0  0  0  0  0  0  0  0  0  0  0  0
   -3.8104    0.9645   -4.0351 H   0  0  0  0  0  0  0  0  0  0  0  0
   -1.2607    1.1231   -3.4768 N   0  0  0  0  0  0  0  0  0  0  0  0
    0.0536    1.3115   -2.9213 C   0  0  2  0  0  0  0  0  0  0  0  0
    0.0266    0.8315   -1.4761 C   0  0  0  0  0  0  0  0  0  0  0  0
   -1.0065    0.7530   -0.8146 O   0  0  0  0  0  0  0  0  0  0  0  0
    0.4852    2.7674   -3.0025 C   0  0  0  0  0  0  0  0  0  0  0  0
   -1.6809    1.8924   -3.9952 H   0  0  0  0  0  0  0  0  0  0  0  0
    0.7360    0.6822   -3.5030 H   0  0  0  0  0  0  0  0  0  0  0  0
   -0.1867    3.4133   -2.4256 H   0  0  0  0  0  0  0  0  0  0  0  0
    1.4966    2.9042   -2.6056 H   0  0  0  0  0  0  0  0  0  0  0  0
    0.4754    3.1196   -4.0397 H   0  0  0  0  0  0  0  0  0  0  0  0
    1.2978    0.5411   -0.9947 N   0  0  0  0  0  0  0  0  0  0  0  0
    1.5371    0.0807    0.3489 C   0  0  2  0  0  0  0  0  0  0  0  0
    0.7715   -1.2264    0.5215 C   0  0  0  0  0  0  0  0  0  0  0  0
    1.2460   -2.3228    0.2320 O   0  0  0  0  0  0  0  0  0  0  0  0
    1.0891    1.1041    1.4001 C   0  0  0  0  0  0  0  0  0  0  0  0
    1.9218    2.3875    1.3932 C   0  0  0  0  0  0  0  0  0  0  0  0
    1.4655    3.4113    2.4159 C   0  0  0  0  0  0  0  0  0  0  0  0
    0.4794    3.2722    3.1335 O   0  0  0  0  0  0  0  0  0  0  0  0
    2.2696    4.5308    2.4315 N   0  0  0  0  0  0  0  0  0  0  0  0
    2.0949    0.6178   -1.6227 H   0  0  0  0  0  0  0  0  0  0  0  0
    2.6107   -0.1223    0.4248 H   0  0  0  0  0  0  0  0  0  0  0  0
    0.0396    1.3716    1.2184 H   0  0  0  0  0  0  0  0  0  0  0  0
    1.1198    0.6537    2.4002 H   0  0  0  0  0  0  0  0  0  0  0  0
    1.8324    2.8602    0.4073 H   0  0  0  0  0  0  0  0  0  0  0  0
    2.9828    2.1642    1.5518 H   0  0  0  0  0  0  0  0  0  0  0  0
    3.0571    4.5763    1.7934 H   0  0  0  0  0  0  0  0  0  0  0  0
    2.1022    5.3113    3.0584 H   0  0  0  0  0  0  0  0  0  0  0  0
   -0.5184   -1.0156    0.9886 N   0  0  0  0  0  0  0  0  0  0  0  0
   -1.4633   -2.0846    1.2192 C   0  0  2  0  0  0  0  0  0  0  0  0
   -0.7640   -3.1621    2.0374 C   0  0  0  0  0  0  0  0  0  0  0  0
    0.4580   -3.2905    2.0724 O   0  0  0  0  0  0  0  0  0  0  0  0
   -1.9879   -2.6516   -0.0908 C   0  0  0  0  0  0  0  0  0  0  0  0
   -0.8131   -0.0622    1.1778 H   0  0  0  0  0  0  0  0  0  0  0  0
   -2.2866   -1.6586    1.8029 H   0  0  0  0  0  0  0  0  0  0  0  0
   -1.1772   -3.0830   -0.6894 H   0  0  0  0  0  0  0  0  0  0  0  0
   -2.7249   -3.4419    0.0857 H   0  0  0  0  0  0  0  0  0  0  0  0
   -2.4642   -1.8690   -0.6913 H   0  0  0  0  0  0  0  0  0  0  0  0
   -1.6667   -3.9902    2.6897 N   0  0  0  0  0  0  0  0  0  0  0  0
   -1.2507   -5.0967    3.5196 C   0  0  0  0  0  0  0  0  0  0  0  0
   -2.6617   -3.7983    2.6196 H   0  0  0  0  0  0  0  0  0  0  0  0
   -1.2102   -6.0145    2.9146 H   0  0  0  0  0  0  0  0  0  0  0  0
   -0.2542   -4.8880    3.9361 H   0  0  0  0  0  0  0  0  0  0  0  0
   -1.9706   -5.2302    4.3404 H   0  0  0  0  0  0  0  0  0  0  0  0
  1  3  1  0  0  0  0
  1  7  1  0  0  0  0
  1  2  2  0  0  0  0
 22 23  1  0  0  0  0
 23 25  1  0  0  0  0
 23 24  2  0  0  0  0
 35 36  1  0  0  0  0
 36 44  1  0  0  0  0
 36 37  2  0  0  0  0
  8  9  1  0  0  0  0
  9 17  1  0  0  0  0
  9 10  2  0  0  0  0
 18 19  1  0  0  0  0
 19 34  1  0  0  0  0
 19 20  2  0  0  0  0
 35 38  1  0  0  0  0
  8 11  1  0  0  0  0
 44 45  1  0  0  0  0
 21 22  1  0  0  0  0
 18 21  1  0  0  0  0
 34 35  1  0  0  0  0
  7  8  1  0  0  0  0
 17 18  1  0  0  0  0
  3  4  1  0  0  0  0
  3  5  1  0  0  0  0
  3  6  1  0  0  0  0
 38 41  1  0  0  0  0
 38 42  1  0  0  0  0
 38 43  1  0  0  0  0
 11 14  1  0  0  0  0
 11 15  1  0  0  0  0
 11 16  1  0  0  0  0
 45 47  1  0  0  0  0
 45 48  1  0  0  0  0
 45 49  1  0  0  0  0
 22 30  1  0  0  0  0
 22 31  1  0  0  0  0
 21 28  1  0  0  0  0
 21 29  1  0  0  0  0
 35 40  1  0  0  0  0
  8 13  1  0  0  0  0
 18 27  1  0  0  0  0
 25 32  1  0  0  0  0
 25 33  1  0  0  0  0
 44 46  1  0  0  0  0
  7 12  1  0  0  0  0
 34 39  1  0  0  0  0
 17 26  1  0  0  0  0
M  END
$$$$

  -OEChem-05262214473D

 49 48  0     1  0  0  0  0  0999 V2000
   -1.9833   -0.0509   -3.3423 C   0  0  0  0  0  0  0  0  0  0  0  0
   -1.6199   -1.0613   -2.7518 O   0  0  0  0  0  0  0  0  0  0  0  0
   -3.3243   -0.0235   -3.9975 C   0  0  0  0  0  0  0  0  0  0  0  0
   -3.2886   -0.3689   -5.0432 H   0  0  0  0  0  0  0  0  0  0  0  0
   -4.0503   -0.6845   -3.4973 H   0  0  0  0  0  0  0  0  0  0  0  0
   -3.8104    0.9645   -4.0351 H   0  0  0  0  0  0  0  0  0  0  0  0
   -1.2607    1.1231   -3.4768 N   0  0  0  0  0  0  0  0  0  0  0  0
    0.0536    1.3115   -2.9213 C   0  0  2  0  0  0  0  0  0  0  0  0
    0.0266    0.8315   -1.4761 C   0  0  0  0  0  0  0  0  0  0  0  0
   -1.0065    0.7530   -0.8146 O   0  0  0  0  0  0  0  0  0  0  0  0
    0.4852    2.7674   -3.0025 C   0  0  0  0  0  0  0  0  0  0  0  0
   -1.6809    1.8924   -3.9952 H   0  0  0  0  0  0  0  0  0  0  0  0
    0.7360    0.6822   -3.5030 H   0  0  0  0  0  0  0  0  0  0  0  0
   -0.1867    3.4133   -2.4256 H   0  0  0  0  0  0  0  0  0  0  0  0
    1.4966    2.9042   -2.6056 H   0  0  0  0  0  0  0  0  0  0  0  0
    0.4754    3.1196   -4.0397 H   0  0  0  0  0  0  0  0  0  0  0  0
    1.2978    0.5411   -0.9947 N   0  0  0  0  0  0  0  0  0  0  0  0
    1.5371    0.0807    0.3489 C   0  0  2  0  0  0  0  0  0  0  0  0
    0.7715   -1.2264    0.5215 C   0  0  0  0  0  0  0  0  0  0  0  0
    1.3147   -2.3287    0.4923 O   0  0  0  0  0  0  0  0  0  0  0  0
    1.0891    1.1041    1.4001 C   0  0  0  0  0  0  0  0  0  0  0  0
    1.9218    2.3875    1.3932 C   0  0  0  0  0  0  0  0  0  0  0  0
    1.4655    3.4113    2.4159 C   0  0  0  0  0  0  0  0  0  0  0  0
    0.4794    3.2722    3.1335 O   0  0  0  0  0  0  0  0  0  0  0  0
    2.2696    4.5308    2.4315 N   0  0  0  0  0  0  0  0  0  0  0  0
    2.0949    0.6178   -1.6227 H   0  0  0  0  0  0  0  0  0  0  0  0
    2.6107   -0.1223    0.4248 H   0  0  0  0  0  0  0  0  0  0  0  0
    0.0396    1.3716    1.2184 H   0  0  0  0  0  0  0  0  0  0  0  0
    1.1198    0.6537    2.4002 H   0  0  0  0  0  0  0  0  0  0  0  0
    1.8324    2.8602    0.4073 H   0  0  0  0  0  0  0  0  0  0  0  0
    2.9828    2.1642    1.5518 H   0  0  0  0  0  0  0  0  0  0  0  0
    3.0571    4.5763    1.7934 H   0  0  0  0  0  0  0  0  0  0  0  0
    2.1022    5.3113    3.0584 H   0  0  0  0  0  0  0  0  0  0  0  0
   -0.5932   -1.0151    0.6611 N   0  0  0  0  0  0  0  0  0  0  0  0
   -1.5500   -2.0868    0.8185 C   0  0  2  0  0  0  0  0  0  0  0  0
   -1.0359   -3.0201    1.9067 C   0  0  0  0  0  0  0  0  0  0  0  0
    0.1490   -3.0892    2.2264 O   0  0  0  0  0  0  0  0  0  0  0  0
   -1.7596   -2.8376   -0.4872 C   0  0  0  0  0  0  0  0  0  0  0  0
   -0.9367   -0.0593    0.6521 H   0  0  0  0  0  0  0  0  0  0  0  0
   -2.4892   -1.6268    1.1447 H   0  0  0  0  0  0  0  0  0  0  0  0
   -0.8294   -3.3053   -0.8299 H   0  0  0  0  0  0  0  0  0  0  0  0
   -2.5059   -3.6309   -0.3734 H   0  0  0  0  0  0  0  0  0  0  0  0
   -2.1009   -2.1591   -1.2765 H   0  0  0  0  0  0  0  0  0  0  0  0
   -2.0495   -3.7979    2.4488 N   0  0  0  0  0  0  0  0  0  0  0  0
   -1.8135   -4.7709    3.4898 C   0  0  0  0  0  0  0  0  0  0  0  0
   -3.0062   -3.6603    2.1367 H   0  0  0  0  0  0  0  0  0  0  0  0
   -1.6252   -5.7553    3.0364 H   0  0  0  0  0  0  0  0  0  0  0  0
   -0.9388   -4.4675    4.0837 H   0  0  0  0  0  0  0  0  0  0  0  0
   -2.6969   -4.8309    4.1425 H   0  0  0  0  0  0  0  0  0  0  0  0
  1  3  1  0  0  0  0
  1  7  1  0  0  0  0
  1  2  2  0  0  0  0
 22 23  1  0  0  0  0
 23 25  1  0  0  0  0
 23 24  2  0  0  0  0
 35 36  1  0  0  0  0
 36 44  1  0  0  0  0
 36 37  2  0  0  0  0
  8  9  1  0  0  0  0
  9 17  1  0  0  0  0
  9 10  2  0  0  0  0
 18 19  1  0  0  0  0
 19 34  1  0  0  0  0
 19 20  2  0  0  0  0
 35 38  1  0  0  0  0
  8 11  1  0  0  0  0
 44 45  1  0  0  0  0
 21 22  1  0  0  0  0
 18 21  1  0  0  0  0
 34 35  1  0  0  0  0
  7  8  1  0  0  0  0
 17 18  1  0  0  0  0
  3  4  1  0  0  0  0
  3  5  1  0  0  0  0
  3  6  1  0  0  0  0
 38 41  1  0  0  0  0
 38 42  1  0  0  0  0
 38 43  1  0  0  0  0
 11 14  1  0  0  0  0
 11 15  1  0  0  0  0
 11 16  1  0  0  0  0
 45 47  1  0  0  0  0
 45 48  1  0  0  0  0
 45 49  1  0  0  0  0
 22 30  1  0  0  0  0
 22 31  1  0  0  0  0
 21 28  1  0  0  0  0
 21 29  1  0  0  0  0
 35 40  1  0  0  0  0
  8 13  1  0  0  0  0
 18 27  1  0  0  0  0
 25 32  1  0  0  0  0
 25 33  1  0  0  0  0
 44 46  1  0  0  0  0
  7 12  1  0  0  0  0
 34 39  1  0  0  0  0
 17 26  1  0  0  0  0
M  END
$$$$

  -OEChem-05262214473D

 49 48  0     1  0  0  0  0  0999 V2000
   -1.9833   -0.0509   -3.3423 C   0  0  0  0  0  0  0  0  0  0  0  0
   -1.6199   -1.0613   -2.7518 O   0  0  0  0  0  0  0  0  0  0  0  0
   -3.3243   -0.0235   -3.9975 C   0  0  0  0  0  0  0  0  0  0  0  0
   -3.2886   -0.3689   -5.0432 H   0  0  0  0  0  0  0  0  0  0  0  0
   -4.0503   -0.6845   -3.4973 H   0  0  0  0  0  0  0  0  0  0  0  0
   -3.8104    0.9645   -4.0351 H   0  0  0  0  0  0  0  0  0  0  0  0
   -1.2607    1.1231   -3.4768 N   0  0  0  0  0  0  0  0  0  0  0  0
    0.0536    1.3115   -2.9213 C   0  0  2  0  0  0  0  0  0  0  0  0
    0.0266    0.8315   -1.4761 C   0  0  0  0  0  0  0  0  0  0  0  0
   -1.0065    0.7530   -0.8146 O   0  0  0  0  0  0  0  0  0  0  0  0
    0.4852    2.7674   -3.0025 C   0  0  0  0  0  0  0  0  0  0  0  0
   -1.6809    1.8924   -3.9952 H   0  0  0  0  0  0  0  0  0  0  0  0
    0.7360    0.6822   -3.5030 H   0  0  0  0  0  0  0  0  0  0  0  0
   -0.1867    3.4133   -2.4256 H   0  0  0  0  0  0  0  0  0  0  0  0
    1.4966    2.9042   -2.6056 H   0  0  0  0  0  0  0  0  0  0  0  0
    0.4754    3.1196   -4.0397 H   0  0  0  0  0  0  0  0  0  0  0  0
    1.2978    0.5411   -0.9947 N   0  0  0  0  0  0  0  0  0  0  0  0
    1.5371    0.0807    0.3489 C   0  0  2  0  0  0  0  0  0  0  0  0
    0.7715   -1.2264    0.5215 C   0  0  0  0  0  0  0  0  0  0  0  0
    1.3236   -2.2985    0.7597 O   0  0  0  0  0  0  0  0  0  0  0  0
    1.0891    1.1041    1.4001 C   0  0  0  0  0  0  0  0  0  0  0  0
    1.9218    2.3875    1.3932 C   0  0  0  0  0  0  0  0  0  0  0  0
    1.4655    3.4113    2.4159 C   0  0  0  0  0  0  0  0  0  0  0  0
    0.4794    3.2722    3.1335 O   0  0  0  0  0  0  0  0  0  0  0  0
    2.2696    4.5308    2.4315 N   0  0  0  0  0  0  0  0  0  0  0  0
    2.0949    0.6178   -1.6227 H   0  0  0  0  0  0  0  0  0  0  0  0
    2.6107   -0.1223    0.4248 H   0  0  0  0  0  0  0  0  0  0  0  0
    0.0396    1.3716    1.2184 H   0  0  0  0  0  0  0  0  0  0  0  0
    1.1198    0.6537    2.4002 H   0  0  0  0  0  0  0  0  0  0  0  0
    1.8324    2.8602    0.4073 H   0  0  0  0  0  0  0  0  0  0  0  0
    2.9828    2.1642    1.5518 H   0  0  0  0  0  0  0  0  0  0  0  0
    3.0571    4.5763    1.7934 H   0  0  0  0  0  0  0  0  0  0  0  0
    2.1022    5.3113    3.0584 H   0  0  0  0  0  0  0  0  0  0  0  0
   -0.5927   -1.0593    0.3280 N   0  0  0  0  0  0  0  0  0  0  0  0
   -1.5447   -2.1435    0.4126 C   0  0  2  0  0  0  0  0  0  0  0  0
   -1.2736   -2.9079    1.7016 C   0  0  0  0  0  0  0  0  0  0  0  0
   -0.1894   -2.8838    2.2804 O   0  0  0  0  0  0  0  0  0  0  0  0
   -1.4458   -3.0622   -0.7953 C   0  0  0  0  0  0  0  0  0  0  0  0
   -0.9394   -0.1284    0.1164 H   0  0  0  0  0  0  0  0  0  0  0  0
   -2.5397   -1.6877    0.4600 H   0  0  0  0  0  0  0  0  0  0  0  0
   -0.4557   -3.5281   -0.8595 H   0  0  0  0  0  0  0  0  0  0  0  0
   -2.1869   -3.8666   -0.7437 H   0  0  0  0  0  0  0  0  0  0  0  0
   -1.6116   -2.5048   -1.7235 H   0  0  0  0  0  0  0  0  0  0  0  0
   -2.3713   -3.6546    2.1063 N   0  0  0  0  0  0  0  0  0  0  0  0
   -2.3602   -4.4766    3.2937 C   0  0  0  0  0  0  0  0  0  0  0  0
   -3.2358   -3.5999    1.5758 H   0  0  0  0  0  0  0  0  0  0  0  0
   -2.0608   -5.5012    3.0282 H   0  0  0  0  0  0  0  0  0  0  0  0
   -1.6451   -4.0623    4.0197 H   0  0  0  0  0  0  0  0  0  0  0  0
   -3.3663   -4.4922    3.7382 H   0  0  0  0  0  0  0  0  0  0  0  0
  1  3  1  0  0  0  0
  1  7  1  0  0  0  0
  1  2  2  0  0  0  0
 22 23  1  0  0  0  0
 23 25  1  0  0  0  0
 23 24  2  0  0  0  0
 35 36  1  0  0  0  0
 36 44  1  0  0  0  0
 36 37  2  0  0  0  0
  8  9  1  0  0  0  0
  9 17  1  0  0  0  0
  9 10  2  0  0  0  0
 18 19  1  0  0  0  0
 19 34  1  0  0  0  0
 19 20  2  0  0  0  0
 35 38  1  0  0  0  0
  8 11  1  0  0  0  0
 44 45  1  0  0  0  0
 21 22  1  0  0  0  0
 18 21  1  0  0  0  0
 34 35  1  0  0  0  0
  7  8  1  0  0  0  0
 17 18  1  0  0  0  0
  3  4  1  0  0  0  0
  3  5  1  0  0  0  0
  3  6  1  0  0  0  0
 38 41  1  0  0  0  0
 38 42  1  0  0  0  0
 38 43  1  0  0  0  0
 11 14  1  0  0  0  0
 11 15  1  0  0  0  0
 11 16  1  0  0  0  0
 45 47  1  0  0  0  0
 45 48  1  0  0  0  0
 45 49  1  0  0  0  0
 22 30  1  0  0  0  0
 22 31  1  0  0  0  0
 21 28  1  0  0  0  0
 21 29  1  0  0  0  0
 35 40  1  0  0  0  0
  8 13  1  0  0  0  0
 18 27  1  0  0  0  0
 25 32  1  0  0  0  0
 25 33  1  0  0  0  0
 44 46  1  0  0  0  0
  7 12  1  0  0  0  0
 34 39  1  0  0  0  0
 17 26  1  0  0  0  0
M  END
$$$$

  -OEChem-05262214473D

 49 48  0     1  0  0  0  0  0999 V2000
   -1.9833   -0.0509   -3.3423 C   0  0  0  0  0  0  0  0  0  0  0  0
   -1.6199   -1.0613   -2.7518 O   0  0  0  0  0  0  0  0  0  0  0  0
   -3.3243   -0.0235   -3.9975 C   0  0  0  0  0  0  0  0  0  0  0  0
   -3.2886   -0.3689   -5.0432 H   0  0  0  0  0  0  0  0  0  0  0  0
   -4.0503   -0.6845   -3.4973 H   0  0  0  0  0  0  0  0  0  0  0  0
   -3.8104    0.9645   -4.0351 H   0  0  0  0  0  0  0  0  0  0  0  0
   -1.2607    1.1231   -3.4768 N   0  0  0  0  0  0  0  0  0  0  0  0
    0.0536    1.3115   -2.9213 C   0  0  2  0  0  0  0  0  0  0  0  0
    0.0266    0.8315   -1.4761 C   0  0  0  0  0  0  0  0  0  0  0  0
   -1.0065    0.7530   -0.8146 O   0  0  0  0  0  0  0  0  0  0  0  0
    0.4852    2.7674   -3.0025 C   0  0  0  0  0  0  0  0  0  0  0  0
   -1.6809    1.8924   -3.9952 H   0  0  0  0  0  0  0  0  0  0  0  0
    0.7360    0.6822   -3.5030 H   0  0  0  0  0  0  0  0  0  0  0  0
   -0.1867    3.4133   -2.4256 H   0  0  0  0  0  0  0  0  0  0  0  0
    1.4966    2.9042   -2.6056 H   0  0  0  0  0  0  0  0  0  0  0  0
    0.4754    3.1196   -4.0397 H   0  0  0  0  0  0  0  0  0  0  0  0
    1.2978    0.5411   -0.9947 N   0  0  0  0  0  0  0  0  0  0  0  0
    1.5371    0.0807    0.3489 C   0  0  2  0  0  0  0  0  0  0  0  0
    0.7715   -1.2264    0.5215 C   0  0  0  0  0  0  0  0  0  0  0  0
    1.2719   -2.2344    1.0160 O   0  0  0  0  0  0  0  0  0  0  0  0
    1.0891    1.1041    1.4001 C   0  0  0  0  0  0  0  0  0  0  0  0
    1.9218    2.3875    1.3932 C   0  0  0  0  0  0  0  0  0  0  0  0
    1.4655    3.4113    2.4159 C   0  0  0  0  0  0  0  0  0  0  0  0
    0.4794    3.2722    3.1335 O   0  0  0  0  0  0  0  0  0  0  0  0
    2.2696    4.5308    2.4315 N   0  0  0  0  0  0  0  0  0  0  0  0
    2.0949    0.6178   -1.6227 H   0  0  0  0  0  0  0  0  0  0  0  0
    2.6107   -0.1223    0.4248 H   0  0  0  0  0  0  0  0  0  0  0  0
    0.0396    1.3716    1.2184 H   0  0  0  0  0  0  0  0  0  0  0  0
    1.1198    0.6537    2.4002 H   0  0  0  0  0  0  0  0  0  0  0  0
    1.8324    2.8602    0.4073 H   0  0  0  0  0  0  0  0  0  0  0  0
    2.9828    2.1642    1.5518 H   0  0  0  0  0  0  0  0  0  0  0  0
    3.0571    4.5763    1.7934 H   0  0  0  0  0  0  0  0  0  0  0  0
    2.1022    5.3113    3.0584 H   0  0  0  0  0  0  0  0  0  0  0  0
   -0.5171   -1.1453    0.0122 N   0  0  0  0  0  0  0  0  0  0  0  0
   -1.4479   -2.2508    0.0290 C   0  0  2  0  0  0  0  0  0  0  0  0
   -1.4610   -2.8332    1.4362 C   0  0  0  0  0  0  0  0  0  0  0  0
   -0.5344   -2.6883    2.2308 O   0  0  0  0  0  0  0  0  0  0  0  0
   -1.0677   -3.3099   -0.9940 C   0  0  0  0  0  0  0  0  0  0  0  0
   -0.8212   -0.2649   -0.3926 H   0  0  0  0  0  0  0  0  0  0  0  0
   -2.4348   -1.8369   -0.2048 H   0  0  0  0  0  0  0  0  0  0  0  0
   -0.0816   -3.7362   -0.7762 H   0  0  0  0  0  0  0  0  0  0  0  0
   -1.7896   -4.1331   -0.9999 H   0  0  0  0  0  0  0  0  0  0  0  0
   -1.0296   -2.8824   -2.0018 H   0  0  0  0  0  0  0  0  0  0  0  0
   -2.6104   -3.5701    1.6853 N   0  0  0  0  0  0  0  0  0  0  0  0
   -2.8533   -4.2338    2.9449 C   0  0  0  0  0  0  0  0  0  0  0  0
   -3.3350   -3.6211    0.9752 H   0  0  0  0  0  0  0  0  0  0  0  0
   -2.4871   -5.2697    2.8907 H   0  0  0  0  0  0  0  0  0  0  0  0
   -2.3250   -3.6998    3.7484 H   0  0  0  0  0  0  0  0  0  0  0  0
   -3.9330   -4.2373    3.1551 H   0  0  0  0  0  0  0  0  0  0  0  0
  1  3  1  0  0  0  0
  1  7  1  0  0  0  0
  1  2  2  0  0  0  0
 22 23  1  0  0  0  0
 23 25  1  0  0  0  0
 23 24  2  0  0  0  0
 35 36  1  0  0  0  0
 36 44  1  0  0  0  0
 36 37  2  0  0  0  0
  8  9  1  0  0  0  0
  9 17  1  0  0  0  0
  9 10  2  0  0  0  0
 18 19  1  0  0  0  0
 19 34  1  0  0  0  0
 19 20  2  0  0  0  0
 35 38  1  0  0  0  0
  8 11  1  0  0  0  0
 44 45  1  0  0  0  0
 21 22  1  0  0  0  0
 18 21  1  0  0  0  0
 34 35  1  0  0  0  0
  7  8  1  0  0  0  0
 17 18  1  0  0  0  0
  3  4  1  0  0  0  0
  3  5  1  0  0  0  0
  3  6  1  0  0  0  0
 38 41  1  0  0  0  0
 38 42  1  0  0  0  0
 38 43  1  0  0  0  0
 11 14  1  0  0  0  0
 11 15  1  0  0  0  0
 11 16  1  0  0  0  0
 45 47  1  0  0  0  0
 45 48  1  0  0  0  0
 45 49  1  0  0  0  0
 22 30  1  0  0  0  0
 22 31  1  0  0  0  0
 21 28  1  0  0  0  0
 21 29  1  0  0  0  0
 35 40  1  0  0  0  0
  8 13  1  0  0  0  0
 18 27  1  0  0  0  0
 25 32  1  0  0  0  0
 25 33  1  0  0  0  0
 44 46  1  0  0  0  0
  7 12  1  0  0  0  0
 34 39  1  0  0  0  0
 17 26  1  0  0  0  0
M  END
$$$$

  -OEChem-05262214473D

 49 48  0     1  0  0  0  0  0999 V2000
   -1.9833   -0.0509   -3.3423 C   0  0  0  0  0  0  0  0  0  0  0  0
   -1.6199   -1.0613   -2.7518 O   0  0  0  0  0  0  0  0  0  0  0  0
   -3.3243   -0.0235   -3.9975 C   0  0  0  0  0  0  0  0  0  0  0  0
   -3.2886   -0.3689   -5.0432 H   0  0  0  0  0  0  0  0  0  0  0  0
   -4.0503   -0.6845   -3.4973 H   0  0  0  0  0  0  0  0  0  0  0  0
   -3.8104    0.9645   -4.0351 H   0  0  0  0  0  0  0  0  0  0  0  0
   -1.2607    1.1231   -3.4768 N   0  0  0  0  0  0  0  0  0  0  0  0
    0.0536    1.3115   -2.9213 C   0  0  2  0  0  0  0  0  0  0  0  0
    0.0266    0.8315   -1.4761 C   0  0  0  0  0  0  0  0  0  0  0  0
   -1.0065    0.7530   -0.8146 O   0  0  0  0  0  0  0  0  0  0  0  0
    0.4852    2.7674   -3.0025 C   0  0  0  0  0  0  0  0  0  0  0  0
   -1.6809    1.8924   -3.9952 H   0  0  0  0  0  0  0  0  0  0  0  0
    0.7360    0.6822   -3.5030 H   0  0  0  0  0  0  0  0  0  0  0  0
   -0.1867    3.4133   -2.4256 H   0  0  0  0  0  0  0  0  0  0  0  0
    1.4966    2.9042   -2.6056 H   0  0  0  0  0  0  0  0  0  0  0  0
    0.4754    3.1196   -4.0397 H   0  0  0  0  0  0  0  0  0  0  0  0
    1.2978    0.5411   -0.9947 N   0  0  0  0  0  0  0  0  0  0  0  0
    1.5371    0.0807    0.3489 C   0  0  2  0  0  0  0  0  0  0  0  0
    0.7715   -1.2264    0.5215 C   0  0  0  0  0  0  0  0  0  0  0  0
    1.1632   -2.1407    1.2437 O   0  0  0  0  0  0  0  0  0  0  0  0
    1.0891    1.1041    1.4001 C   0  0  0  0  0  0  0  0  0  0  0  0
    1.9218    2.3875    1.3932 C   0  0  0  0  0  0  0  0  0  0  0  0
    1.4655    3.4113    2.4159 C   0  0  0  0  0  0  0  0  0  0  0  0
    0.4794    3.2722    3.1335 O   0  0  0  0  0  0  0  0  0  0  0  0
    2.2696    4.5308    2.4315 N   0  0  0  0  0  0  0  0  0  0  0  0
    2.0949    0.6178   -1.6227 H   0  0  0  0  0  0  0  0  0  0  0  0
    2.6107   -0.1223    0.4248 H   0  0  0  0  0  0  0  0  0  0  0  0
    0.0396    1.3716    1.2184 H   0  0  0  0  0  0  0  0  0  0  0  0
    1.1198    0.6537    2.4002 H   0  0  0  0  0  0  0  0  0  0  0  0
    1.8324    2.8602    0.4073 H   0  0  0  0  0  0  0  0  0  0  0  0
    2.9828    2.1642    1.5518 H   0  0  0  0  0  0  0  0  0  0  0  0
    3.0571    4.5763    1.7934 H   0  0  0  0  0  0  0  0  0  0  0  0
    2.1022    5.3113    3.0584 H   0  0  0  0  0  0  0  0  0  0  0  0
   -0.3715   -1.2673   -0.2649 N   0  0  0  0  0  0  0  0  0  0  0  0
   -1.2661   -2.4016   -0.3060 C   0  0  2  0  0  0  0  0  0  0  0  0
   -1.5854   -2.8010    1.1285 C   0  0  0  0  0  0  0  0  0  0  0  0
   -0.8623   -2.5161    2.0809 O   0  0  0  0  0  0  0  0  0  0  0  0
   -0.6511   -3.5639   -1.0699 C   0  0  0  0  0  0  0  0  0  0  0  0
   -0.5901   -0.4594   -0.8404 H   0  0  0  0  0  0  0  0  0  0  0  0
   -2.1816   -2.0644   -0.8042 H   0  0  0  0  0  0  0  0  0  0  0  0
    0.2673   -3.9154   -0.5857 H   0  0  0  0  0  0  0  0  0  0  0  0
   -1.3413   -4.4122   -1.1247 H   0  0  0  0  0  0  0  0  0  0  0  0
   -0.3947   -3.2662   -2.0924 H   0  0  0  0  0  0  0  0  0  0  0  0
   -2.7504   -3.5502    1.2147 N   0  0  0  0  0  0  0  0  0  0  0  0
   -3.2594   -4.0591    2.4669 C   0  0  0  0  0  0  0  0  0  0  0  0
   -3.2968   -3.7226    0.3759 H   0  0  0  0  0  0  0  0  0  0  0  0
   -2.8752   -5.0763    2.6331 H   0  0  0  0  0  0  0  0  0  0  0  0
   -2.9321   -3.4049    3.2884 H   0  0  0  0  0  0  0  0  0  0  0  0
   -4.3586   -4.0834    2.4330 H   0  0  0  0  0  0  0  0  0  0  0  0
  1  3  1  0  0  0  0
  1  7  1  0  0  0  0
  1  2  2  0  0  0  0
 22 23  1  0  0  0  0
 23 25  1  0  0  0  0
 23 24  2  0  0  0  0
 35 36  1  0  0  0  0
 36 44  1  0  0  0  0
 36 37  2  0  0  0  0
  8  9  1  0  0  0  0
  9 17  1  0  0  0  0
  9 10  2  0  0  0  0
 18 19  1  0  0  0  0
 19 34  1  0  0  0  0
 19 20  2  0  0  0  0
 35 38  1  0  0  0  0
  8 11  1  0  0  0  0
 44 45  1  0  0  0  0
 21 22  1  0  0  0  0
 18 21  1  0  0  0  0
 34 35  1  0  0  0  0
  7  8  1  0  0  0  0
 17 18  1  0  0  0  0
  3  4  1  0  0  0  0
  3  5  1  0  0  0  0
  3  6  1  0  0  0  0
 38 41  1  0  0  0  0
 38 42  1  0  0  0  0
 38 43  1  0  0  0  0
 11 14  1  0  0  0  0
 11 15  1  0  0  0  0
 11 16  1  0  0  0  0
 45 47  1  0  0  0  0
 45 48  1  0  0  0  0
 45 49  1  0  0  0  0
 22 30  1  0  0  0  0
 22 31  1  0  0  0  0
 21 28  1  0  0  0  0
 21 29  1  0  0  0  0
 35 40  1  0  0  0  0
  8 13  1  0  0  0  0
 18 27  1  0  0  0  0
 25 32  1  0  0  0  0
 25 33  1  0  0  0  0
 44 46  1  0  0  0  0
  7 12  1  0  0  0  0
 34 39  1  0  0  0  0
 17 26  1  0  0  0  0
M  END
$$$$

  -OEChem-05262214473D

 49 48  0     1  0  0  0  0  0999 V2000
   -1.9833   -0.0509   -3.3423 C   0  0  0  0  0  0  0  0  0  0  0  0
   -1.6199   -1.0613   -2.7518 O   0  0  0  0  0  0  0  0  0  0  0  0
   -3.3243   -0.0235   -3.9975 C   0  0  0  0  0  0  0  0  0  0  0  0
   -3.2886   -0.3689   -5.0432 H   0  0  0  0  0  0  0  0  0  0  0  0
   -4.0503   -0.6845   -3.4973 H   0  0  0  0  0  0  0  0  0  0  0  0
   -3.8104    0.9645   -4.0351 H   0  0  0  0  0  0  0  0  0  0  0  0
   -1.2607    1.1231   -3.4768 N   0  0  0  0  0  0  0  0  0  0  0  0
    0.0536    1.3115   -2.9213 C   0  0  2  0  0  0  0  0  0  0  0  0
    0.0266    0.8315   -1.4761 C   0  0  0  0  0  0  0  0  0  0  0  0
   -1.0065    0.7530   -0.8146 O   0  0  0  0  0  0  0  0  0  0  0  0
    0.4852    2.7674   -3.0025 C   0  0  0  0  0  0  0  0  0  0  0  0
   -1.6809    1.8924   -3.9952 H   0  0  0  0  0  0  0  0  0  0  0  0
    0.7360    0.6822   -3.5030 H   0  0  0  0  0  0  0  0  0  0  0  0
   -0.1867    3.4133   -2.4256 H   0  0  0  0  0  0  0  0  0  0  0  0
    1.4966    2.9042   -2.6056 H   0  0  0  0  0  0  0  0  0  0  0  0
    0.4754    3.1196   -4.0397 H   0  0  0  0  0  0  0  0  0  0  0  0
    1.2978    0.5411   -0.9947 N   0  0  0  0  0  0  0  0  0  0  0  0
    1.5371    0.0807    0.3489 C   0  0  2  0  0  0  0  0  0  0  0  0
    0.7715   -1.2264    0.5215 C   0  0  0  0  0  0  0  0  0  0  0  0
    1.0050   -2.0237    1.4275 O   0  0  0  0  0  0  0  0  0  0  0  0
    1.0891    1.1041    1.4001 C   0  0  0  0  0  0  0  0  0  0  0  0
    1.9218    2.3875    1.3932 C   0  0  0  0  0  0  0  0  0  0  0  0
    1.4655    3.4113    2.4159 C   0  0  0  0  0  0  0  0  0  0  0  0
    0.4794    3.2722    3.1335 O   0  0  0  0  0  0  0  0  0  0  0  0
    2.2696    4.5308    2.4315 N   0  0  0  0  0  0  0  0  0  0  0  0
    2.0949    0.6178   -1.6227 H   0  0  0  0  0  0  0  0  0  0  0  0
    2.6107   -0.1223    0.4248 H   0  0  0  0  0  0  0  0  0  0  0  0
    0.0396    1.3716    1.2184 H   0  0  0  0  0  0  0  0  0  0  0  0
    1.1198    0.6537    2.4002 H   0  0  0  0  0  0  0  0  0  0  0  0
    1.8324    2.8602    0.4073 H   0  0  0  0  0  0  0  0  0  0  0  0
    2.9828    2.1642    1.5518 H   0  0  0  0  0  0  0  0  0  0  0  0
    3.0571    4.5763    1.7934 H   0  0  0  0  0  0  0  0  0  0  0  0
    2.1022    5.3113    3.0584 H   0  0  0  0  0  0  0  0  0  0  0  0
   -0.1657   -1.4168   -0.4844 N   0  0  0  0  0  0  0  0  0  0  0  0
   -1.0117   -2.5854   -0.5698 C   0  0  2  0  0  0  0  0  0  0  0  0
   -1.6381   -2.8136    0.7996 C   0  0  0  0  0  0  0  0  0  0  0  0
   -1.1508   -2.3787    1.8410 O   0  0  0  0  0  0  0  0  0  0  0  0
   -0.2244   -3.8069   -1.0177 C   0  0  0  0  0  0  0  0  0  0  0  0
   -0.2618   -0.6987   -1.1963 H   0  0  0  0  0  0  0  0  0  0  0  0
   -1.7973   -2.3546   -1.2975 H   0  0  0  0  0  0  0  0  0  0  0  0
    0.5673   -4.0535   -0.3009 H   0  0  0  0  0  0  0  0  0  0  0  0
   -0.8724   -4.6849   -1.1094 H   0  0  0  0  0  0  0  0  0  0  0  0
    0.2499   -3.6302   -1.9891 H   0  0  0  0  0  0  0  0  0  0  0  0
   -2.7818   -3.5963    0.7264 N   0  0  0  0  0  0  0  0  0  0  0  0
   -3.5506   -3.9644    1.8924 C   0  0  0  0  0  0  0  0  0  0  0  0
   -3.1241   -3.8974   -0.1813 H   0  0  0  0  0  0  0  0  0  0  0  0
   -3.1986   -4.9345    2.2731 H   0  0  0  0  0  0  0  0  0  0  0  0
   -3.4252   -3.1976    2.6711 H   0  0  0  0  0  0  0  0  0  0  0  0
   -4.6139   -4.0410    1.6211 H   0  0  0  0  0  0  0  0  0  0  0  0
  1  3  1  0  0  0  0
  1  7  1  0  0  0  0
  1  2  2  0  0  0  0
 22 23  1  0  0  0  0
 23 25  1  0  0  0  0
 23 24  2  0  0  0  0
 35 36  1  0  0  0  0
 36 44  1  0  0  0  0
 36 37  2  0  0  0  0
  8  9  1  0  0  0  0
  9 17  1  0  0  0  0
  9 10  2  0  0  0  0
 18 19  1  0  0  0  0
 19 34  1  0  0  0  0
 19 20  2  0  0  0  0
 35 38  1  0  0  0  0
  8 11  1  0  0  0  0
 44 45  1  0  0  0  0
 21 22  1  0  0  0  0
 18 21  1  0  0  0  0
 34 35  1  0  0  0  0
  7  8  1  0  0  0  0
 17 18  1  0  0  0  0
  3  4  1  0  0  0  0
  3  5  1  0  0  0  0
  3  6  1  0  0  0  0
 38 41  1  0  0  0  0
 38 42  1  0  0  0  0
 38 43  1  0  0  0  0
 11 14  1  0  0  0  0
 11 15  1  0  0  0  0
 11 16  1  0  0  0  0
 45 47  1  0  0  0  0
 45 48  1  0  0  0  0
 45 49  1  0  0  0  0
 22 30  1  0  0  0  0
 22 31  1  0  0  0  0
 21 28  1  0  0  0  0
 21 29  1  0  0  0  0
 35 40  1  0  0  0  0
  8 13  1  0  0  0  0
 18 27  1  0  0  0  0
 25 32  1  0  0  0  0
 25 33  1  0  0  0  0
 44 46  1  0  0  0  0
  7 12  1  0  0  0  0
 34 39  1  0  0  0  0
 17 26  1  0  0  0  0
M  END
$$$$

  -OEChem-05262214473D

 49 48  0     1  0  0  0  0  0999 V2000
   -1.9833   -0.0509   -3.3423 C   0  0  0  0  0  0  0  0  0  0  0  0
   -1.6199   -1.0613   -2.7518 O   0  0  0  0  0  0  0  0  0  0  0  0
   -3.3243   -0.0235   -3.9975 C   0  0  0  0  0  0  0  0  0  0  0  0
   -3.2886   -0.3689   -5.0432 H   0  0  0  0  0  0  0  0  0  0  0  0
   -4.0503   -0.6845   -3.4973 H   0  0  0  0  0  0  0  0  0  0  0  0
   -3.8104    0.9645   -4.0351 H   0  0  0  0  0  0  0  0  0  0  0  0
   -1.2607    1.1231   -3.4768 N   0  0  0  0  0  0  0  0  0  0  0  0
    0.0536    1.3115   -2.9213 C   0  0  2  0  0  0  0  0  0  0  0  0
    0.0266    0.8315   -1.4761 C   0  0  0  0  0  0  0  0  0  0  0  0
   -1.0065    0.7530   -0.8146 O   0  0  0  0  0  0  0  0  0  0  0  0
    0.4852    2.7674   -3.0025 C   0  0  0  0  0  0  0  0  0  0  0  0
   -1.6809    1.8924   -3.9952 H   0  0  0  0  0  0  0  0  0  0  0  0
    0.7360    0.6822   -3.5030 H   0  0  0  0  0  0  0  0  0  0  0  0
   -0.1867    3.4133   -2.4256 H   0  0  0  0  0  0  0  0  0  0  0  0
    1.4966    2.9042   -2.6056 H   0  0  0  0  0  0  0  0  0  0  0  0
    0.4754    3.1196   -4.0397 H   0  0  0  0  0  0  0  0  0  0  0  0
    1.2978    0.5411   -0.9947 N   0  0  0  0  0  0  0  0  0  0  0  0
    1.5371    0.0807    0.3489 C   0  0  2  0  0  0  0  0  0  0  0  0
    0.7715   -1.2264    0.5215 C   0  0  0  0  0  0  0  0  0  0  0  0
    0.8079   -1.8915    1.5546 O   0  0  0  0  0  0  0  0  0  0  0  0
    1.0891    1.1041    1.4001 C   0  0  0  0  0  0  0  0  0  0  0  0
    1.9218    2.3875    1.3932 C   0  0  0  0  0  0  0  0  0  0  0  0
    1.4655    3.4113    2.4159 C   0  0  0  0  0  0  0  0  0  0  0  0
    0.4794    3.2722    3.1335 O   0  0  0  0  0  0  0  0  0  0  0  0
    2.2696    4.5308    2.4315 N   0  0  0  0  0  0  0  0  0  0  0  0
    2.0949    0.6178   -1.6227 H   0  0  0  0  0  0  0  0  0  0  0  0
    2.6107   -0.1223    0.4248 H   0  0  0  0  0  0  0  0  0  0  0  0
    0.0396    1.3716    1.2184 H   0  0  0  0  0  0  0  0  0  0  0  0
    1.1198    0.6537    2.4002 H   0  0  0  0  0  0  0  0  0  0  0  0
    1.8324    2.8602    0.4073 H   0  0  0  0  0  0  0  0  0  0  0  0
    2.9828    2.1642    1.5518 H   0  0  0  0  0  0  0  0  0  0  0  0
    3.0571    4.5763    1.7934 H   0  0  0  0  0  0  0  0  0  0  0  0
    2.1022    5.3113    3.0584 H   0  0  0  0  0  0  0  0  0  0  0  0
    0.0861   -1.5837   -0.6313 N   0  0  0  0  0  0  0  0  0  0  0  0
   -0.7021   -2.7897   -0.7442 C   0  0  2  0  0  0  0  0  0  0  0  0
   -1.6157   -2.8700    0.4717 C   0  0  0  0  0  0  0  0  0  0  0  0
   -1.3803   -2.2857    1.5274 O   0  0  0  0  0  0  0  0  0  0  0  0
    0.1832   -4.0224   -0.8411 C   0  0  0  0  0  0  0  0  0  0  0  0
    0.1413   -0.9665   -1.4361 H   0  0  0  0  0  0  0  0  0  0  0  0
   -1.3082   -2.6878   -1.6510 H   0  0  0  0  0  0  0  0  0  0  0  0
    0.7980   -4.1412    0.0586 H   0  0  0  0  0  0  0  0  0  0  0  0
   -0.4148   -4.9325   -0.9552 H   0  0  0  0  0  0  0  0  0  0  0  0
    0.8603   -3.9494   -1.6990 H   0  0  0  0  0  0  0  0  0  0  0  0
   -2.7025   -3.7052    0.2538 N   0  0  0  0  0  0  0  0  0  0  0  0
   -3.7072   -3.9561    1.2605 C   0  0  0  0  0  0  0  0  0  0  0  0
   -2.8284   -4.1336   -0.6586 H   0  0  0  0  0  0  0  0  0  0  0  0
   -3.4352   -4.8537    1.8352 H   0  0  0  0  0  0  0  0  0  0  0  0
   -3.7706   -3.0921    1.9384 H   0  0  0  0  0  0  0  0  0  0  0  0
   -4.6816   -4.1131    0.7747 H   0  0  0  0  0  0  0  0  0  0  0  0
  1  3  1  0  0  0  0
  1  7  1  0  0  0  0
  1  2  2  0  0  0  0
 22 23  1  0  0  0  0
 23 25  1  0  0  0  0
 23 24  2  0  0  0  0
 35 36  1  0  0  0  0
 36 44  1  0  0  0  0
 36 37  2  0  0  0  0
  8  9  1  0  0  0  0
  9 17  1  0  0  0  0
  9 10  2  0  0  0  0
 18 19  1  0  0  0  0
 19 34  1  0  0  0  0
 19 20  2  0  0  0  0
 35 38  1  0  0  0  0
  8 11  1  0  0  0  0
 44 45  1  0  0  0  0
 21 22  1  0  0  0  0
 18 21  1  0  0  0  0
 34 35  1  0  0  0  0
  7  8  1  0  0  0  0
 17 18  1  0  0  0  0
  3  4  1  0  0  0  0
  3  5  1  0  0  0  0
  3  6  1  0  0  0  0
 38 41  1  0  0  0  0
 38 42  1  0  0  0  0
 38 43  1  0  0  0  0
 11 14  1  0  0  0  0
 11 15  1  0  0  0  0
 11 16  1  0  0  0  0
 45 47  1  0  0  0  0
 45 48  1  0  0  0  0
 45 49  1  0  0  0  0
 22 30  1  0  0  0  0
 22 31  1  0  0  0  0
 21 28  1  0  0  0  0
 21 29  1  0  0  0  0
 35 40  1  0  0  0  0
  8 13  1  0  0  0  0
 18 27  1  0  0  0  0
 25 32  1  0  0  0  0
 25 33  1  0  0  0  0
 44 46  1  0  0  0  0
  7 12  1  0  0  0  0
 34 39  1  0  0  0  0
 17 26  1  0  0  0  0
M  END
$$$$

  -OEChem-05262214473D

 49 48  0     1  0  0  0  0  0999 V2000
   -1.9833   -0.0509   -3.3423 C   0  0  0  0  0  0  0  0  0  0  0  0
   -1.6199   -1.0613   -2.7518 O   0  0  0  0  0  0  0  0  0  0  0  0
   -3.3243   -0.0235   -3.9975 C   0  0  0  0  0  0  0  0  0  0  0  0
   -3.2886   -0.3689   -5.0432 H   0  0  0  0  0  0  0  0  0  0  0  0
   -4.0503   -0.6845   -3.4973 H   0  0  0  0  0  0  0  0  0  0  0  0
   -3.8104    0.9645   -4.0351 H   0  0  0  0  0  0  0  0  0  0  0  0
   -1.2607    1.1231   -3.4768 N   0  0  0  0  0  0  0  0  0  0  0  0
    0.0536    1.3115   -2.9213 C   0  0  2  0  0  0  0  0  0  0  0  0
    0.0266    0.8315   -1.4761 C   0  0  0  0  0  0  0  0  0  0  0  0
   -1.0065    0.7530   -0.8146 O   0  0  0  0  0  0  0  0  0  0  0  0
    0.4852    2.7674   -3.0025 C   0  0  0  0  0  0  0  0  0  0  0  0
   -1.6809    1.8924   -3.9952 H   0  0  0  0  0  0  0  0  0  0  0  0
    0.7360    0.6822   -3.5030 H   0  0  0  0  0  0  0  0  0  0  0  0
   -0.1867    3.4133   -2.4256 H   0  0  0  0  0  0  0  0  0  0  0  0
    1.4966    2.9042   -2.6056 H   0  0  0  0  0  0  0  0  0  0  0  0
    0.4754    3.1196   -4.0397 H   0  0  0  0  0  0  0  0  0  0  0  0
    1.2978    0.5411   -0.9947 N   0  0  0  0  0  0  0  0  0  0  0  0
    1.5371    0.0807    0.3489 C   0  0  2  0  0  0  0  0  0  0  0  0
    0.7715   -1.2264    0.5215 C   0  0  0  0  0  0  0  0  0  0  0  0
    0.5855   -1.7530    1.6165 O   0  0  0  0  0  0  0  0  0  0  0  0
    1.0891    1.1041    1.4001 C   0  0  0  0  0  0  0  0  0  0  0  0
    1.9218    2.3875    1.3932 C   0  0  0  0  0  0  0  0  0  0  0  0
    1.4655    3.4113    2.4159 C   0  0  0  0  0  0  0  0  0  0  0  0
    0.4794    3.2722    3.1335 O   0  0  0  0  0  0  0  0  0  0  0  0
    2.2696    4.5308    2.4315 N   0  0  0  0  0  0  0  0  0  0  0  0
    2.0949    0.6178   -1.6227 H   0  0  0  0  0  0  0  0  0  0  0  0
    2.6107   -0.1223    0.4248 H   0  0  0  0  0  0  0  0  0  0  0  0
    0.0396    1.3716    1.2184 H   0  0  0  0  0  0  0  0  0  0  0  0
    1.1198    0.6537    2.4002 H   0  0  0  0  0  0  0  0  0  0  0  0
    1.8324    2.8602    0.4073 H   0  0  0  0  0  0  0  0  0  0  0  0
    2.9828    2.1642    1.5518 H   0  0  0  0  0  0  0  0  0  0  0  0
    3.0571    4.5763    1.7934 H   0  0  0  0  0  0  0  0  0  0  0  0
    2.1022    5.3113    3.0584 H   0  0  0  0  0  0  0  0  0  0  0  0
    0.3668   -1.7566   -0.6957 N   0  0  0  0  0  0  0  0  0  0  0  0
   -0.3584   -3.0008   -0.8174 C   0  0  2  0  0  0  0  0  0  0  0  0
   -1.5197   -2.9664    0.1674 C   0  0  0  0  0  0  0  0  0  0  0  0
   -1.5351   -2.2434    1.1614 O   0  0  0  0  0  0  0  0  0  0  0  0
    0.5441   -4.1956   -0.5520 C   0  0  0  0  0  0  0  0  0  0  0  0
    0.5917   -1.2445   -1.5435 H   0  0  0  0  0  0  0  0  0  0  0  0
   -0.7476   -3.0412   -1.8406 H   0  0  0  0  0  0  0  0  0  0  0  0
    0.9436   -4.1723    0.4685 H   0  0  0  0  0  0  0  0  0  0  0  0
    0.0002   -5.1383   -0.6725 H   0  0  0  0  0  0  0  0  0  0  0  0
    1.3949   -4.2022   -1.2418 H   0  0  0  0  0  0  0  0  0  0  0  0
   -2.5177   -3.8695   -0.1709 N   0  0  0  0  0  0  0  0  0  0  0  0
   -3.7186   -4.0348    0.6143 C   0  0  0  0  0  0  0  0  0  0  0  0
   -2.4300   -4.4151   -1.0232 H   0  0  0  0  0  0  0  0  0  0  0  0
   -3.5690   -4.8396    1.3491 H   0  0  0  0  0  0  0  0  0  0  0  0
   -3.9447   -3.0955    1.1404 H   0  0  0  0  0  0  0  0  0  0  0  0
   -4.5571   -4.2948   -0.0485 H   0  0  0  0  0  0  0  0  0  0  0  0
  1  3  1  0  0  0  0
  1  7  1  0  0  0  0
  1  2  2  0  0  0  0
 22 23  1  0  0  0  0
 23 25  1  0  0  0  0
 23 24  2  0  0  0  0
 35 36  1  0  0  0  0
 36 44  1  0  0  0  0
 36 37  2  0  0  0  0
  8  9  1  0  0  0  0
  9 17  1  0  0  0  0
  9 10  2  0  0  0  0
 18 19  1  0  0  0  0
 19 34  1  0  0  0  0
 19 20  2  0  0  0  0
 35 38  1  0  0  0  0
  8 11  1  0  0  0  0
 44 45  1  0  0  0  0
 21 22  1  0  0  0  0
 18 21  1  0  0  0  0
 34 35  1  0  0  0  0
  7  8  1  0  0  0  0
 17 18  1  0  0  0  0
  3  4  1  0  0  0  0
  3  5  1  0  0  0  0
  3  6  1  0  0  0  0
 38 41  1  0  0  0  0
 38 42  1  0  0  0  0
 38 43  1  0  0  0  0
 11 14  1  0  0  0  0
 11 15  1  0  0  0  0
 11 16  1  0  0  0  0
 45 47  1  0  0  0  0
 45 48  1  0  0  0  0
 45 49  1  0  0  0  0
 22 30  1  0  0  0  0
 22 31  1  0  0  0  0
 21 28  1  0  0  0  0
 21 29  1  0  0  0  0
 35 40  1  0  0  0  0
  8 13  1  0  0  0  0
 18 27  1  0  0  0  0
 25 32  1  0  0  0  0
 25 33  1  0  0  0  0
 44 46  1  0  0  0  0
  7 12  1  0  0  0  0
 34 39  1  0  0  0  0
 17 26  1  0  0  0  0
M  END
$$$$

  -OEChem-05262214473D

 49 48  0     1  0  0  0  0  0999 V2000
   -1.9833   -0.0509   -3.3423 C   0  0  0  0  0  0  0  0  0  0  0  0
   -1.6199   -1.0613   -2.7518 O   0  0  0  0  0  0  0  0  0  0  0  0
   -3.3243   -0.0235   -3.9975 C   0  0  0  0  0  0  0  0  0  0  0  0
   -3.2886   -0.3689   -5.0432 H   0  0  0  0  0  0  0  0  0  0  0  0
   -4.0503   -0.6845   -3.4973 H   0  0  0  0  0  0  0  0  0  0  0  0
   -3.8104    0.9645   -4.0351 H   0  0  0  0  0  0  0  0  0  0  0  0
   -1.2607    1.1231   -3.4768 N   0  0  0  0  0  0  0  0  0  0  0  0
    0.0536    1.3115   -2.9213 C   0  0  2  0  0  0  0  0  0  0  0  0
    0.0266    0.8315   -1.4761 C   0  0  0  0  0  0  0  0  0  0  0  0
   -1.0065    0.7530   -0.8146 O   0  0  0  0  0  0  0  0  0  0  0  0
    0.4852    2.7674   -3.0025 C   0  0  0  0  0  0  0  0  0  0  0  0
   -1.6809    1.8924   -3.9952 H   0  0  0  0  0  0  0  0  0  0  0  0
    0.7360    0.6822   -3.5030 H   0  0  0  0  0  0  0  0  0  0  0  0
   -0.1867    3.4133   -2.4256 H   0  0  0  0  0  0  0  0  0  0  0  0
    1.4966    2.9042   -2.6056 H   0  0  0  0  0  0  0  0  0  0  0  0
    0.4754    3.1196   -4.0397 H   0  0  0  0  0  0  0  0  0  0  0  0
    1.2978    0.5411   -0.9947 N   0  0  0  0  0  0  0  0  0  0  0  0
    1.5371    0.0807    0.3489 C   0  0  2  0  0  0  0  0  0  0  0  0
    0.7715   -1.2264    0.5215 C   0  0  0  0  0  0  0  0  0  0  0  0
    0.3528   -1.6178    1.6090 O   0  0  0  0  0  0  0  0  0  0  0  0
    1.0891    1.1041    1.4001 C   0  0  0  0  0  0  0  0  0  0  0  0
    1.9218    2.3875    1.3932 C   0  0  0  0  0  0  0  0  0  0  0  0
    1.4655    3.4113    2.4159 C   0  0  0  0  0  0  0  0  0  0  0  0
    0.4794    3.2722    3.1335 O   0  0  0  0  0  0  0  0  0  0  0  0
    2.2696    4.5308    2.4315 N   0  0  0  0  0  0  0  0  0  0  0  0
    2.0949    0.6178   -1.6227 H   0  0  0  0  0  0  0  0  0  0  0  0
    2.6107   -0.1223    0.4248 H   0  0  0  0  0  0  0  0  0  0  0  0
    0.0396    1.3716    1.2184 H   0  0  0  0  0  0  0  0  0  0  0  0
    1.1198    0.6537    2.4002 H   0  0  0  0  0  0  0  0  0  0  0  0
    1.8324    2.8602    0.4073 H   0  0  0  0  0  0  0  0  0  0  0  0
    2.9828    2.1642    1.5518 H   0  0  0  0  0  0  0  0  0  0  0  0
    3.0571    4.5763    1.7934 H   0  0  0  0  0  0  0  0  0  0  0  0
    2.1022    5.3113    3.0584 H   0  0  0  0  0  0  0  0  0  0  0  0
    0.6574   -1.9238   -0.6731 N   0  0  0  0  0  0  0  0  0  0  0  0
   -0.0040   -3.2040   -0.7844 C   0  0  2  0  0  0  0  0  0  0  0  0
   -1.3566   -3.0963   -0.0927 C   0  0  0  0  0  0  0  0  0  0  0  0
   -1.6047   -2.2546    0.7681 O   0  0  0  0  0  0  0  0  0  0  0  0
    0.8337   -4.3148   -0.1701 C   0  0  0  0  0  0  0  0  0  0  0  0
    1.0588   -1.5138   -1.5112 H   0  0  0  0  0  0  0  0  0  0  0  0
   -0.1536   -3.3908   -1.8534 H   0  0  0  0  0  0  0  0  0  0  0  0
    0.9942   -4.1449    0.9008 H   0  0  0  0  0  0  0  0  0  0  0  0
    0.3443   -5.2881   -0.2806 H   0  0  0  0  0  0  0  0  0  0  0  0
    1.8173   -4.3713   -0.6488 H   0  0  0  0  0  0  0  0  0  0  0  0
   -2.2403   -4.0780   -0.5188 N   0  0  0  0  0  0  0  0  0  0  0  0
   -3.5838   -4.1951   -0.0021 C   0  0  0  0  0  0  0  0  0  0  0  0
   -1.9560   -4.7228   -1.2504 H   0  0  0  0  0  0  0  0  0  0  0  0
   -3.5907   -4.8930    0.8482 H   0  0  0  0  0  0  0  0  0  0  0  0
   -3.9356   -3.2076    0.3314 H   0  0  0  0  0  0  0  0  0  0  0  0
   -4.2488   -4.5736   -0.7924 H   0  0  0  0  0  0  0  0  0  0  0  0
  1  3  1  0  0  0  0
  1  7  1  0  0  0  0
  1  2  2  0  0  0  0
 22 23  1  0  0  0  0
 23 25  1  0  0  0  0
 23 24  2  0  0  0  0
 35 36  1  0  0  0  0
 36 44  1  0  0  0  0
 36 37  2  0  0  0  0
  8  9  1  0  0  0  0
  9 17  1  0  0  0  0
  9 10  2  0  0  0  0
 18 19  1  0  0  0  0
 19 34  1  0  0  0  0
 19 20  2  0  0  0  0
 35 38  1  0  0  0  0
  8 11  1  0  0  0  0
 44 45  1  0  0  0  0
 21 22  1  0  0  0  0
 18 21  1  0  0  0  0
 34 35  1  0  0  0  0
  7  8  1  0  0  0  0
 17 18  1  0  0  0  0
  3  4  1  0  0  0  0
  3  5  1  0  0  0  0
  3  6  1  0  0  0  0
 38 41  1  0  0  0  0
 38 42  1  0  0  0  0
 38 43  1  0  0  0  0
 11 14  1  0  0  0  0
 11 15  1  0  0  0  0
 11 16  1  0  0  0  0
 45 47  1  0  0  0  0
 45 48  1  0  0  0  0
 45 49  1  0  0  0  0
 22 30  1  0  0  0  0
 22 31  1  0  0  0  0
 21 28  1  0  0  0  0
 21 29  1  0  0  0  0
 35 40  1  0  0  0  0
  8 13  1  0  0  0  0
 18 27  1  0  0  0  0
 25 32  1  0  0  0  0
 25 33  1  0  0  0  0
 44 46  1  0  0  0  0
  7 12  1  0  0  0  0
 34 39  1  0  0  0  0
 17 26  1  0  0  0  0
M  END
$$$$

  -OEChem-05262214473D

 49 48  0     1  0  0  0  0  0999 V2000
   -1.9833   -0.0509   -3.3423 C   0  0  0  0  0  0  0  0  0  0  0  0
   -1.6199   -1.0613   -2.7518 O   0  0  0  0  0  0  0  0  0  0  0  0
   -3.3243   -0.0235   -3.9975 C   0  0  0  0  0  0  0  0  0  0  0  0
   -3.2886   -0.3689   -5.0432 H   0  0  0  0  0  0  0  0  0  0  0  0
   -4.0503   -0.6845   -3.4973 H   0  0  0  0  0  0  0  0  0  0  0  0
   -3.8104    0.9645   -4.0351 H   0  0  0  0  0  0  0  0  0  0  0  0
   -1.2607    1.1231   -3.4768 N   0  0  0  0  0  0  0  0  0  0  0  0
    0.0536    1.3115   -2.9213 C   0  0  2  0  0  0  0  0  0  0  0  0
    0.0266    0.8315   -1.4761 C   0  0  0  0  0  0  0  0  0  0  0  0
   -1.0065    0.7530   -0.8146 O   0  0  0  0  0  0  0  0  0  0  0  0
    0.4852    2.7674   -3.0025 C   0  0  0  0  0  0  0  0  0  0  0  0
   -1.6809    1.8924   -3.9952 H   0  0  0  0  0  0  0  0  0  0  0  0
    0.7360    0.6822   -3.5030 H   0  0  0  0  0  0  0  0  0  0  0  0
   -0.1867    3.4133   -2.4256 H   0  0  0  0  0  0  0  0  0  0  0  0
    1.4966    2.9042   -2.6056 H   0  0  0  0  0  0  0  0  0  0  0  0
    0.4754    3.1196   -4.0397 H   0  0  0  0  0  0  0  0  0  0  0  0
    1.2978    0.5411   -0.9947 N   0  0  0  0  0  0  0  0  0  0  0  0
    1.5371    0.0807    0.3489 C   0  0  2  0  0  0  0  0  0  0  0  0
    0.7715   -1.2264    0.5215 C   0  0  0  0  0  0  0  0  0  0  0  0
    0.1258   -1.4949    1.5325 O   0  0  0  0  0  0  0  0  0  0  0  0
    1.0891    1.1041    1.4001 C   0  0  0  0  0  0  0  0  0  0  0  0
    1.9218    2.3875    1.3932 C   0  0  0  0  0  0  0  0  0  0  0  0
    1.4655    3.4113    2.4159 C   0  0  0  0  0  0  0  0  0  0  0  0
    0.4794    3.2722    3.1335 O   0  0  0  0  0  0  0  0  0  0  0  0
    2.2696    4.5308    2.4315 N   0  0  0  0  0  0  0  0  0  0  0  0
    2.0949    0.6178   -1.6227 H   0  0  0  0  0  0  0  0  0  0  0  0
    2.6107   -0.1223    0.4248 H   0  0  0  0  0  0  0  0  0  0  0  0
    0.0396    1.3716    1.2184 H   0  0  0  0  0  0  0  0  0  0  0  0
    1.1198    0.6537    2.4002 H   0  0  0  0  0  0  0  0  0  0  0  0
    1.8324    2.8602    0.4073 H   0  0  0  0  0  0  0  0  0  0  0  0
    2.9828    2.1642    1.5518 H   0  0  0  0  0  0  0  0  0  0  0  0
    3.0571    4.5763    1.7934 H   0  0  0  0  0  0  0  0  0  0  0  0
    2.1022    5.3113    3.0584 H   0  0  0  0  0  0  0  0  0  0  0  0
    0.9379   -2.0738   -0.5650 N   0  0  0  0  0  0  0  0  0  0  0  0
    0.3370   -3.3857   -0.6474 C   0  0  2  0  0  0  0  0  0  0  0  0
   -1.1375   -3.2508   -0.2909 C   0  0  0  0  0  0  0  0  0  0  0  0
   -1.5843   -2.3186    0.3742 O   0  0  0  0  0  0  0  0  0  0  0  0
    1.0321   -4.3718    0.2784 C   0  0  0  0  0  0  0  0  0  0  0  0
    1.5107   -1.7560   -1.3413 H   0  0  0  0  0  0  0  0  0  0  0  0
    0.4332   -3.7128   -1.6885 H   0  0  0  0  0  0  0  0  0  0  0  0
    0.9463   -4.0607    1.3260 H   0  0  0  0  0  0  0  0  0  0  0  0
    0.5942   -5.3718    0.1937 H   0  0  0  0  0  0  0  0  0  0  0  0
    2.0986   -4.4451    0.0398 H   0  0  0  0  0  0  0  0  0  0  0  0
   -1.8889   -4.3165   -0.7662 N   0  0  0  0  0  0  0  0  0  0  0  0
   -3.3122   -4.4261   -0.5468 C   0  0  0  0  0  0  0  0  0  0  0  0
   -1.4387   -5.0356   -1.3247 H   0  0  0  0  0  0  0  0  0  0  0  0
   -3.4990   -5.0103    0.3664 H   0  0  0  0  0  0  0  0  0  0  0  0
   -3.7441   -3.4208   -0.4335 H   0  0  0  0  0  0  0  0  0  0  0  0
   -3.7778   -4.9306   -1.4063 H   0  0  0  0  0  0  0  0  0  0  0  0
  1  3  1  0  0  0  0
  1  7  1  0  0  0  0
  1  2  2  0  0  0  0
 22 23  1  0  0  0  0
 23 25  1  0  0  0  0
 23 24  2  0  0  0  0
 35 36  1  0  0  0  0
 36 44  1  0  0  0  0
 36 37  2  0  0  0  0
  8  9  1  0  0  0  0
  9 17  1  0  0  0  0
  9 10  2  0  0  0  0
 18 19  1  0  0  0  0
 19 34  1  0  0  0  0
 19 20  2  0  0  0  0
 35 38  1  0  0  0  0
  8 11  1  0  0  0  0
 44 45  1  0  0  0  0
 21 22  1  0  0  0  0
 18 21  1  0  0  0  0
 34 35  1  0  0  0  0
  7  8  1  0  0  0  0
 17 18  1  0  0  0  0
  3  4  1  0  0  0  0
  3  5  1  0  0  0  0
  3  6  1  0  0  0  0
 38 41  1  0  0  0  0
 38 42  1  0  0  0  0
 38 43  1  0  0  0  0
 11 14  1  0  0  0  0
 11 15  1  0  0  0  0
 11 16  1  0  0  0  0
 45 47  1  0  0  0  0
 45 48  1  0  0  0  0
 45 49  1  0  0  0  0
 22 30  1  0  0  0  0
 22 31  1  0  0  0  0
 21 28  1  0  0  0  0
 21 29  1  0  0  0  0
 35 40  1  0  0  0  0
  8 13  1  0  0  0  0
 18 27  1  0  0  0  0
 25 32  1  0  0  0  0
 25 33  1  0  0  0  0
 44 46  1  0  0  0  0
  7 12  1  0  0  0  0
 34 39  1  0  0  0  0
 17 26  1  0  0  0  0
M  END
$$$$

  -OEChem-05262214473D

 49 48  0     1  0  0  0  0  0999 V2000
   -1.9833   -0.0509   -3.3423 C   0  0  0  0  0  0  0  0  0  0  0  0
   -1.6199   -1.0613   -2.7518 O   0  0  0  0  0  0  0  0  0  0  0  0
   -3.3243   -0.0235   -3.9975 C   0  0  0  0  0  0  0  0  0  0  0  0
   -3.2886   -0.3689   -5.0432 H   0  0  0  0  0  0  0  0  0  0  0  0
   -4.0503   -0.6845   -3.4973 H   0  0  0  0  0  0  0  0  0  0  0  0
   -3.8104    0.9645   -4.0351 H   0  0  0  0  0  0  0  0  0  0  0  0
   -1.2607    1.1231   -3.4768 N   0  0  0  0  0  0  0  0  0  0  0  0
    0.0536    1.3115   -2.9213 C   0  0  2  0  0  0  0  0  0  0  0  0
    0.0266    0.8315   -1.4761 C   0  0  0  0  0  0  0  0  0  0  0  0
   -1.0065    0.7530   -0.8146 O   0  0  0  0  0  0  0  0  0  0  0  0
    0.4852    2.7674   -3.0025 C   0  0  0  0  0  0  0  0  0  0  0  0
   -1.6809    1.8924   -3.9952 H   0  0  0  0  0  0  0  0  0  0  0  0
    0.7360    0.6822   -3.5030 H   0  0  0  0  0  0  0  0  0  0  0  0
   -0.1867    3.4133   -2.4256 H   0  0  0  0  0  0  0  0  0  0  0  0
    1.4966    2.9042   -2.6056 H   0  0  0  0  0  0  0  0  0  0  0  0
    0.4754    3.1196   -4.0397 H   0  0  0  0  0  0  0  0  0  0  0  0
    1.2978    0.5411   -0.9947 N   0  0  0  0  0  0  0  0  0  0  0  0
    1.5371    0.0807    0.3489 C   0  0  2  0  0  0  0  0  0  0  0  0
    0.7715   -1.2264    0.5215 C   0  0  0  0  0  0  0  0  0  0  0  0
   -0.0801   -1.3928    1.3922 O   0  0  0  0  0  0  0  0  0  0  0  0
    1.0891    1.1041    1.4001 C   0  0  0  0  0  0  0  0  0  0  0  0
    1.9218    2.3875    1.3932 C   0  0  0  0  0  0  0  0  0  0  0  0
    1.4655    3.4113    2.4159 C   0  0  0  0  0  0  0  0  0  0  0  0
    0.4794    3.2722    3.1335 O   0  0  0  0  0  0  0  0  0  0  0  0
    2.2696    4.5308    2.4315 N   0  0  0  0  0  0  0  0  0  0  0  0
    2.0949    0.6178   -1.6227 H   0  0  0  0  0  0  0  0  0  0  0  0
    2.6107   -0.1223    0.4248 H   0  0  0  0  0  0  0  0  0  0  0  0
    0.0396    1.3716    1.2184 H   0  0  0  0  0  0  0  0  0  0  0  0
    1.1198    0.6537    2.4002 H   0  0  0  0  0  0  0  0  0  0  0  0
    1.8324    2.8602    0.4073 H   0  0  0  0  0  0  0  0  0  0  0  0
    2.9828    2.1642    1.5518 H   0  0  0  0  0  0  0  0  0  0  0  0
    3.0571    4.5763    1.7934 H   0  0  0  0  0  0  0  0  0  0  0  0
    2.1022    5.3113    3.0584 H   0  0  0  0  0  0  0  0  0  0  0  0
    1.1892   -2.1965   -0.3790 N   0  0  0  0  0  0  0  0  0  0  0  0
    0.6413   -3.5333   -0.4159 C   0  0  2  0  0  0  0  0  0  0  0  0
   -0.8774   -3.4194   -0.4137 C   0  0  0  0  0  0  0  0  0  0  0  0
   -1.4753   -2.4310    0.0065 O   0  0  0  0  0  0  0  0  0  0  0  0
    1.1259   -4.3627    0.7631 C   0  0  0  0  0  0  0  0  0  0  0  0
    1.9165   -1.9547   -1.0455 H   0  0  0  0  0  0  0  0  0  0  0  0
    0.9729   -3.9851   -1.3571 H   0  0  0  0  0  0  0  0  0  0  0  0
    0.8033   -3.9255    1.7151 H   0  0  0  0  0  0  0  0  0  0  0  0
    0.7328   -5.3837    0.7183 H   0  0  0  0  0  0  0  0  0  0  0  0
    2.2197   -4.4187    0.7769 H   0  0  0  0  0  0  0  0  0  0  0  0
   -1.4877   -4.5687   -0.8962 N   0  0  0  0  0  0  0  0  0  0  0  0
   -2.9222   -4.7121   -0.9826 C   0  0  0  0  0  0  0  0  0  0  0  0
   -0.9134   -5.3322   -1.2411 H   0  0  0  0  0  0  0  0  0  0  0  0
   -3.3001   -5.1836   -0.0634 H   0  0  0  0  0  0  0  0  0  0  0  0
   -3.3832   -3.7206   -1.1022 H   0  0  0  0  0  0  0  0  0  0  0  0
   -3.1762   -5.3413   -1.8484 H   0  0  0  0  0  0  0  0  0  0  0  0
  1  3  1  0  0  0  0
  1  7  1  0  0  0  0
  1  2  2  0  0  0  0
 22 23  1  0  0  0  0
 23 25  1  0  0  0  0
 23 24  2  0  0  0  0
 35 36  1  0  0  0  0
 36 44  1  0  0  0  0
 36 37  2  0  0  0  0
  8  9  1  0  0  0  0
  9 17  1  0  0  0  0
  9 10  2  0  0  0  0
 18 19  1  0  0  0  0
 19 34  1  0  0  0  0
 19 20  2  0  0  0  0
 35 38  1  0  0  0  0
  8 11  1  0  0  0  0
 44 45  1  0  0  0  0
 21 22  1  0  0  0  0
 18 21  1  0  0  0  0
 34 35  1  0  0  0  0
  7  8  1  0  0  0  0
 17 18  1  0  0  0  0
  3  4  1  0  0  0  0
  3  5  1  0  0  0  0
  3  6  1  0  0  0  0
 38 41  1  0  0  0  0
 38 42  1  0  0  0  0
 38 43  1  0  0  0  0
 11 14  1  0  0  0  0
 11 15  1  0  0  0  0
 11 16  1  0  0  0  0
 45 47  1  0  0  0  0
 45 48  1  0  0  0  0
 45 49  1  0  0  0  0
 22 30  1  0  0  0  0
 22 31  1  0  0  0  0
 21 28  1  0  0  0  0
 21 29  1  0  0  0  0
 35 40  1  0  0  0  0
  8 13  1  0  0  0  0
 18 27  1  0  0  0  0
 25 32  1  0  0  0  0
 25 33  1  0  0  0  0
 44 46  1  0  0  0  0
  7 12  1  0  0  0  0
 34 39  1  0  0  0  0
 17 26  1  0  0  0  0
M  END
$$$$

  -OEChem-05262214473D

 49 48  0     1  0  0  0  0  0999 V2000
   -1.9833   -0.0509   -3.3423 C   0  0  0  0  0  0  0  0  0  0  0  0
   -1.6199   -1.0613   -2.7518 O   0  0  0  0  0  0  0  0  0  0  0  0
   -3.3243   -0.0235   -3.9975 C   0  0  0  0  0  0  0  0  0  0  0  0
   -3.2886   -0.3689   -5.0432 H   0  0  0  0  0  0  0  0  0  0  0  0
   -4.0503   -0.6845   -3.4973 H   0  0  0  0  0  0  0  0  0  0  0  0
   -3.8104    0.9645   -4.0351 H   0  0  0  0  0  0  0  0  0  0  0  0
   -1.2607    1.1231   -3.4768 N   0  0  0  0  0  0  0  0  0  0  0  0
    0.0536    1.3115   -2.9213 C   0  0  2  0  0  0  0  0  0  0  0  0
    0.0266    0.8315   -1.4761 C   0  0  0  0  0  0  0  0  0  0  0  0
   -1.0065    0.7530   -0.8146 O   0  0  0  0  0  0  0  0  0  0  0  0
    0.4852    2.7674   -3.0025 C   0  0  0  0  0  0  0  0  0  0  0  0
   -1.6809    1.8924   -3.9952 H   0  0  0  0  0  0  0  0  0  0  0  0
    0.7360    0.6822   -3.5030 H   0  0  0  0  0  0  0  0  0  0  0  0
   -0.1867    3.4133   -2.4256 H   0  0  0  0  0  0  0  0  0  0  0  0
    1.4966    2.9042   -2.6056 H   0  0  0  0  0  0  0  0  0  0  0  0
    0.4754    3.1196   -4.0397 H   0  0  0  0  0  0  0  0  0  0  0  0
    1.2978    0.5411   -0.9947 N   0  0  0  0  0  0  0  0  0  0  0  0
    1.5371    0.0807    0.3489 C   0  0  2  0  0  0  0  0  0  0  0  0
    0.7715   -1.2264    0.5215 C   0  0  0  0  0  0  0  0  0  0  0  0
   -0.2508   -1.3185    1.1978 O   0  0  0  0  0  0  0  0  0  0  0  0
    1.0891    1.1041    1.4001 C   0  0  0  0  0  0  0  0  0  0  0  0
    1.9218    2.3875    1.3932 C   0  0  0  0  0  0  0  0  0  0  0  0
    1.4655    3.4113    2.4159 C   0  0  0  0  0  0  0  0  0  0  0  0
    0.4794    3.2722    3.1335 O   0  0  0  0  0  0  0  0  0  0  0  0
    2.2696    4.5308    2.4315 N   0  0  0  0  0  0  0  0  0  0  0  0
    2.0949    0.6178   -1.6227 H   0  0  0  0  0  0  0  0  0  0  0  0
    2.6107   -0.1223    0.4248 H   0  0  0  0  0  0  0  0  0  0  0  0
    0.0396    1.3716    1.2184 H   0  0  0  0  0  0  0  0  0  0  0  0
    1.1198    0.6537    2.4002 H   0  0  0  0  0  0  0  0  0  0  0  0
    1.8324    2.8602    0.4073 H   0  0  0  0  0  0  0  0  0  0  0  0
    2.9828    2.1642    1.5518 H   0  0  0  0  0  0  0  0  0  0  0  0
    3.0571    4.5763    1.7934 H   0  0  0  0  0  0  0  0  0  0  0  0
    2.1022    5.3113    3.0584 H   0  0  0  0  0  0  0  0  0  0  0  0
    1.3943   -2.2834   -0.1275 N   0  0  0  0  0  0  0  0  0  0  0  0
    0.8882   -3.6370   -0.1055 C   0  0  2  0  0  0  0  0  0  0  0  0
   -0.5940   -3.5906   -0.4526 C   0  0  0  0  0  0  0  0  0  0  0  0
   -1.2851   -2.5841   -0.3098 O   0  0  0  0  0  0  0  0  0  0  0  0
    1.1087   -4.2882    1.2510 C   0  0  0  0  0  0  0  0  0  0  0  0
    2.2487   -2.0963   -0.6438 H   0  0  0  0  0  0  0  0  0  0  0  0
    1.4286   -4.1893   -0.8820 H   0  0  0  0  0  0  0  0  0  0  0  0
    0.5748   -3.7485    2.0417 H   0  0  0  0  0  0  0  0  0  0  0  0
    0.7505   -5.3229    1.2572 H   0  0  0  0  0  0  0  0  0  0  0  0
    2.1724   -4.2939    1.5123 H   0  0  0  0  0  0  0  0  0  0  0  0
   -1.0639   -4.8174   -0.9000 N   0  0  0  0  0  0  0  0  0  0  0  0
   -2.4404   -5.0336   -1.2799 C   0  0  0  0  0  0  0  0  0  0  0  0
   -0.4158   -5.5925   -1.0052 H   0  0  0  0  0  0  0  0  0  0  0  0
   -3.0075   -5.4010   -0.4119 H   0  0  0  0  0  0  0  0  0  0  0  0
   -2.8774   -4.0864   -1.6290 H   0  0  0  0  0  0  0  0  0  0  0  0
   -2.4849   -5.7780   -2.0886 H   0  0  0  0  0  0  0  0  0  0  0  0
  1  3  1  0  0  0  0
  1  7  1  0  0  0  0
  1  2  2  0  0  0  0
 22 23  1  0  0  0  0
 23 25  1  0  0  0  0
 23 24  2  0  0  0  0
 35 36  1  0  0  0  0
 36 44  1  0  0  0  0
 36 37  2  0  0  0  0
  8  9  1  0  0  0  0
  9 17  1  0  0  0  0
  9 10  2  0  0  0  0
 18 19  1  0  0  0  0
 19 34  1  0  0  0  0
 19 20  2  0  0  0  0
 35 38  1  0  0  0  0
  8 11  1  0  0  0  0
 44 45  1  0  0  0  0
 21 22  1  0  0  0  0
 18 21  1  0  0  0  0
 34 35  1  0  0  0  0
  7  8  1  0  0  0  0
 17 18  1  0  0  0  0
  3  4  1  0  0  0  0
  3  5  1  0  0  0  0
  3  6  1  0  0  0  0
 38 41  1  0  0  0  0
 38 42  1  0  0  0  0
 38 43  1  0  0  0  0
 11 14  1  0  0  0  0
 11 15  1  0  0  0  0
 11 16  1  0  0  0  0
 45 47  1  0  0  0  0
 45 48  1  0  0  0  0
 45 49  1  0  0  0  0
 22 30  1  0  0  0  0
 22 31  1  0  0  0  0
 21 28  1  0  0  0  0
 21 29  1  0  0  0  0
 35 40  1  0  0  0  0
  8 13  1  0  0  0  0
 18 27  1  0  0  0  0
 25 32  1  0  0  0  0
 25 33  1  0  0  0  0
 44 46  1  0  0  0  0
  7 12  1  0  0  0  0
 34 39  1  0  0  0  0
 17 26  1  0  0  0  0
M  END
$$$$

  -OEChem-05262214473D

 49 48  0     1  0  0  0  0  0999 V2000
   -1.9833   -0.0509   -3.3423 C   0  0  0  0  0  0  0  0  0  0  0  0
   -1.6199   -1.0613   -2.7518 O   0  0  0  0  0  0  0  0  0  0  0  0
   -3.3243   -0.0235   -3.9975 C   0  0  0  0  0  0  0  0  0  0  0  0
   -3.2886   -0.3689   -5.0432 H   0  0  0  0  0  0  0  0  0  0  0  0
   -4.0503   -0.6845   -3.4973 H   0  0  0  0  0  0  0  0  0  0  0  0
   -3.8104    0.9645   -4.0351 H   0  0  0  0  0  0  0  0  0  0  0  0
   -1.2607    1.1231   -3.4768 N   0  0  0  0  0  0  0  0  0  0  0  0
    0.0536    1.3115   -2.9213 C   0  0  2  0  0  0  0  0  0  0  0  0
    0.0266    0.8315   -1.4761 C   0  0  0  0  0  0  0  0  0  0  0  0
   -1.0065    0.7530   -0.8146 O   0  0  0  0  0  0  0  0  0  0  0  0
    0.4852    2.7674   -3.0025 C   0  0  0  0  0  0  0  0  0  0  0  0
   -1.6809    1.8924   -3.9952 H   0  0  0  0  0  0  0  0  0  0  0  0
    0.7360    0.6822   -3.5030 H   0  0  0  0  0  0  0  0  0  0  0  0
   -0.1867    3.4133   -2.4256 H   0  0  0  0  0  0  0  0  0  0  0  0
    1.4966    2.9042   -2.6056 H   0  0  0  0  0  0  0  0  0  0  0  0
    0.4754    3.1196   -4.0397 H   0  0  0  0  0  0  0  0  0  0  0  0
    1.2978    0.5411   -0.9947 N   0  0  0  0  0  0  0  0  0  0  0  0
    1.5371    0.0807    0.3489 C   0  0  2  0  0  0  0  0  0  0  0  0
    0.7715   -1.2264    0.5215 C   0  0  0  0  0  0  0  0  0  0  0  0
   -0.3748   -1.2769    0.9625 O   0  0  0  0  0  0  0  0  0  0  0  0
    1.0891    1.1041    1.4001 C   0  0  0  0  0  0  0  0  0  0  0  0
    1.9218    2.3875    1.3932 C   0  0  0  0  0  0  0  0  0  0  0  0
    1.4655    3.4113    2.4159 C   0  0  0  0  0  0  0  0  0  0  0  0
    0.4794    3.2722    3.1335 O   0  0  0  0  0  0  0  0  0  0  0  0
    2.2696    4.5308    2.4315 N   0  0  0  0  0  0  0  0  0  0  0  0
    2.0949    0.6178   -1.6227 H   0  0  0  0  0  0  0  0  0  0  0  0
    2.6107   -0.1223    0.4248 H   0  0  0  0  0  0  0  0  0  0  0  0
    0.0396    1.3716    1.2184 H   0  0  0  0  0  0  0  0  0  0  0  0
    1.1198    0.6537    2.4002 H   0  0  0  0  0  0  0  0  0  0  0  0
    1.8324    2.8602    0.4073 H   0  0  0  0  0  0  0  0  0  0  0  0
    2.9828    2.1642    1.5518 H   0  0  0  0  0  0  0  0  0  0  0  0
    3.0571    4.5763    1.7934 H   0  0  0  0  0  0  0  0  0  0  0  0
    2.1022    5.3113    3.0584 H   0  0  0  0  0  0  0  0  0  0  0  0
    1.5392   -2.3287    0.1722 N   0  0  0  0  0  0  0  0  0  0  0  0
    1.0609   -3.6895    0.2625 C   0  0  2  0  0  0  0  0  0  0  0  0
   -0.3065   -3.7526   -0.4051 C   0  0  0  0  0  0  0  0  0  0  0  0
   -1.0268   -2.7676   -0.5532 O   0  0  0  0  0  0  0  0  0  0  0  0
    0.9816   -4.1533    1.7087 C   0  0  0  0  0  0  0  0  0  0  0  0
    2.4847   -2.1710   -0.1638 H   0  0  0  0  0  0  0  0  0  0  0  0
    1.7694   -4.3114   -0.2953 H   0  0  0  0  0  0  0  0  0  0  0  0
    0.2765   -3.5419    2.2835 H   0  0  0  0  0  0  0  0  0  0  0  0
    0.6464   -5.1937    1.7739 H   0  0  0  0  0  0  0  0  0  0  0  0
    1.9598   -4.0791    2.1959 H   0  0  0  0  0  0  0  0  0  0  0  0
   -0.6464   -5.0458   -0.7773 N   0  0  0  0  0  0  0  0  0  0  0  0
   -1.8996   -5.3686   -1.4184 C   0  0  0  0  0  0  0  0  0  0  0  0
    0.0200   -5.7987   -0.6331 H   0  0  0  0  0  0  0  0  0  0  0  0
   -2.6412   -5.6477   -0.6553 H   0  0  0  0  0  0  0  0  0  0  0  0
   -2.2612   -4.4934   -1.9781 H   0  0  0  0  0  0  0  0  0  0  0  0
   -1.7511   -6.2107   -2.1104 H   0  0  0  0  0  0  0  0  0  0  0  0
  1  3  1  0  0  0  0
  1  7  1  0  0  0  0
  1  2  2  0  0  0  0
 22 23  1  0  0  0  0
 23 25  1  0  0  0  0
 23 24  2  0  0  0  0
 35 36  1  0  0  0  0
 36 44  1  0  0  0  0
 36 37  2  0  0  0  0
  8  9  1  0  0  0  0
  9 17  1  0  0  0  0
  9 10  2  0  0  0  0
 18 19  1  0  0  0  0
 19 34  1  0  0  0  0
 19 20  2  0  0  0  0
 35 38  1  0  0  0  0
  8 11  1  0  0  0  0
 44 45  1  0  0  0  0
 21 22  1  0  0  0  0
 18 21  1  0  0  0  0
 34 35  1  0  0  0  0
  7  8  1  0  0  0  0
 17 18  1  0  0  0  0
  3  4  1  0  0  0  0
  3  5  1  0  0  0  0
  3  6  1  0  0  0  0
 38 41  1  0  0  0  0
 38 42  1  0  0  0  0
 38 43  1  0  0  0  0
 11 14  1  0  0  0  0
 11 15  1  0  0  0  0
 11 16  1  0  0  0  0
 45 47  1  0  0  0  0
 45 48  1  0  0  0  0
 45 49  1  0  0  0  0
 22 30  1  0  0  0  0
 22 31  1  0  0  0  0
 21 28  1  0  0  0  0
 21 29  1  0  0  0  0
 35 40  1  0  0  0  0
  8 13  1  0  0  0  0
 18 27  1  0  0  0  0
 25 32  1  0  0  0  0
 25 33  1  0  0  0  0
 44 46  1  0  0  0  0
  7 12  1  0  0  0  0
 34 39  1  0  0  0  0
 17 26  1  0  0  0  0
M  END
$$$$

  -OEChem-05262214473D

 49 48  0     1  0  0  0  0  0999 V2000
   -1.9833   -0.0509   -3.3423 C   0  0  0  0  0  0  0  0  0  0  0  0
   -1.6199   -1.0613   -2.7518 O   0  0  0  0  0  0  0  0  0  0  0  0
   -3.3243   -0.0235   -3.9975 C   0  0  0  0  0  0  0  0  0  0  0  0
   -3.2886   -0.3689   -5.0432 H   0  0  0  0  0  0  0  0  0  0  0  0
   -4.0503   -0.6845   -3.4973 H   0  0  0  0  0  0  0  0  0  0  0  0
   -3.8104    0.9645   -4.0351 H   0  0  0  0  0  0  0  0  0  0  0  0
   -1.2607    1.1231   -3.4768 N   0  0  0  0  0  0  0  0  0  0  0  0
    0.0536    1.3115   -2.9213 C   0  0  2  0  0  0  0  0  0  0  0  0
    0.0266    0.8315   -1.4761 C   0  0  0  0  0  0  0  0  0  0  0  0
   -1.0065    0.7530   -0.8146 O   0  0  0  0  0  0  0  0  0  0  0  0
    0.4852    2.7674   -3.0025 C   0  0  0  0  0  0  0  0  0  0  0  0
   -1.6809    1.8924   -3.9952 H   0  0  0  0  0  0  0  0  0  0  0  0
    0.7360    0.6822   -3.5030 H   0  0  0  0  0  0  0  0  0  0  0  0
   -0.1867    3.4133   -2.4256 H   0  0  0  0  0  0  0  0  0  0  0  0
    1.4966    2.9042   -2.6056 H   0  0  0  0  0  0  0  0  0  0  0  0
    0.4754    3.1196   -4.0397 H   0  0  0  0  0  0  0  0  0  0  0  0
    1.2978    0.5411   -0.9947 N   0  0  0  0  0  0  0  0  0  0  0  0
    1.5371    0.0807    0.3489 C   0  0  2  0  0  0  0  0  0  0  0  0
    0.7715   -1.2264    0.5215 C   0  0  0  0  0  0  0  0  0  0  0  0
   -0.4435   -1.2710    0.7023 O   0  0  0  0  0  0  0  0  0  0  0  0
    1.0891    1.1041    1.4001 C   0  0  0  0  0  0  0  0  0  0  0  0
    1.9218    2.3875    1.3932 C   0  0  0  0  0  0  0  0  0  0  0  0
    1.4655    3.4113    2.4159 C   0  0  0  0  0  0  0  0  0  0  0  0
    0.4794    3.2722    3.1335 O   0  0  0  0  0  0  0  0  0  0  0  0
    2.2696    4.5308    2.4315 N   0  0  0  0  0  0  0  0  0  0  0  0
    2.0949    0.6178   -1.6227 H   0  0  0  0  0  0  0  0  0  0  0  0
    2.6107   -0.1223    0.4248 H   0  0  0  0  0  0  0  0  0  0  0  0
    0.0396    1.3716    1.2184 H   0  0  0  0  0  0  0  0  0  0  0  0
    1.1198    0.6537    2.4002 H   0  0  0  0  0  0  0  0  0  0  0  0
    1.8324    2.8602    0.4073 H   0  0  0  0  0  0  0  0  0  0  0  0
    2.9828    2.1642    1.5518 H   0  0  0  0  0  0  0  0  0  0  0  0
    3.0571    4.5763    1.7934 H   0  0  0  0  0  0  0  0  0  0  0  0
    2.1022    5.3113    3.0584 H   0  0  0  0  0  0  0  0  0  0  0  0
    1.6140   -2.3292    0.4997 N   0  0  0  0  0  0  0  0  0  0  0  0
    1.1475   -3.6873    0.6632 C   0  0  2  0  0  0  0  0  0  0  0  0
   -0.0347   -3.8946   -0.2744 C   0  0  0  0  0  0  0  0  0  0  0  0
   -0.7179   -2.9689   -0.7072 O   0  0  0  0  0  0  0  0  0  0  0  0
    0.7534   -3.9673    2.1050 C   0  0  0  0  0  0  0  0  0  0  0  0
    2.6082   -2.1740    0.3620 H   0  0  0  0  0  0  0  0  0  0  0  0
    1.9719   -4.3432    0.3628 H   0  0  0  0  0  0  0  0  0  0  0  0
   -0.0714   -3.3196    2.4239 H   0  0  0  0  0  0  0  0  0  0  0  0
    0.4273   -5.0047    2.2330 H   0  0  0  0  0  0  0  0  0  0  0  0
    1.5965   -3.7890    2.7812 H   0  0  0  0  0  0  0  0  0  0  0  0
   -0.2636   -5.2381   -0.5364 N   0  0  0  0  0  0  0  0  0  0  0  0
   -1.3368   -5.6944   -1.3886 C   0  0  0  0  0  0  0  0  0  0  0  0
    0.3645   -5.9367   -0.1501 H   0  0  0  0  0  0  0  0  0  0  0  0
   -2.2261   -5.9069   -0.7771 H   0  0  0  0  0  0  0  0  0  0  0  0
   -1.5766   -4.9139   -2.1256 H   0  0  0  0  0  0  0  0  0  0  0  0
   -1.0248   -6.6100   -1.9124 H   0  0  0  0  0  0  0  0  0  0  0  0
  1  3  1  0  0  0  0
  1  7  1  0  0  0  0
  1  2  2  0  0  0  0
 22 23  1  0  0  0  0
 23 25  1  0  0  0  0
 23 24  2  0  0  0  0
 35 36  1  0  0  0  0
 36 44  1  0  0  0  0
 36 37  2  0  0  0  0
  8  9  1  0  0  0  0
  9 17  1  0  0  0  0
  9 10  2  0  0  0  0
 18 19  1  0  0  0  0
 19 34  1  0  0  0  0
 19 20  2  0  0  0  0
 35 38  1  0  0  0  0
  8 11  1  0  0  0  0
 44 45  1  0  0  0  0
 21 22  1  0  0  0  0
 18 21  1  0  0  0  0
 34 35  1  0  0  0  0
  7  8  1  0  0  0  0
 17 18  1  0  0  0  0
  3  4  1  0  0  0  0
  3  5  1  0  0  0  0
  3  6  1  0  0  0  0
 38 41  1  0  0  0  0
 38 42  1  0  0  0  0
 38 43  1  0  0  0  0
 11 14  1  0  0  0  0
 11 15  1  0  0  0  0
 11 16  1  0  0  0  0
 45 47  1  0  0  0  0
 45 48  1  0  0  0  0
 45 49  1  0  0  0  0
 22 30  1  0  0  0  0
 22 31  1  0  0  0  0
 21 28  1  0  0  0  0
 21 29  1  0  0  0  0
 35 40  1  0  0  0  0
  8 13  1  0  0  0  0
 18 27  1  0  0  0  0
 25 32  1  0  0  0  0
 25 33  1  0  0  0  0
 44 46  1  0  0  0  0
  7 12  1  0  0  0  0
 34 39  1  0  0  0  0
 17 26  1  0  0  0  0
M  END
$$$$

  -OEChem-05262214473D

 49 48  0     1  0  0  0  0  0999 V2000
   -1.9833   -0.0509   -3.3423 C   0  0  0  0  0  0  0  0  0  0  0  0
   -1.6199   -1.0613   -2.7518 O   0  0  0  0  0  0  0  0  0  0  0  0
   -3.3243   -0.0235   -3.9975 C   0  0  0  0  0  0  0  0  0  0  0  0
   -3.2886   -0.3689   -5.0432 H   0  0  0  0  0  0  0  0  0  0  0  0
   -4.0503   -0.6845   -3.4973 H   0  0  0  0  0  0  0  0  0  0  0  0
   -3.8104    0.9645   -4.0351 H   0  0  0  0  0  0  0  0  0  0  0  0
   -1.2607    1.1231   -3.4768 N   0  0  0  0  0  0  0  0  0  0  0  0
    0.0536    1.3115   -2.9213 C   0  0  2  0  0  0  0  0  0  0  0  0
    0.0266    0.8315   -1.4761 C   0  0  0  0  0  0  0  0  0  0  0  0
   -1.0065    0.7530   -0.8146 O   0  0  0  0  0  0  0  0  0  0  0  0
    0.4852    2.7674   -3.0025 C   0  0  0  0  0  0  0  0  0  0  0  0
   -1.6809    1.8924   -3.9952 H   0  0  0  0  0  0  0  0  0  0  0  0
    0.7360    0.6822   -3.5030 H   0  0  0  0  0  0  0  0  0  0  0  0
   -0.1867    3.4133   -2.4256 H   0  0  0  0  0  0  0  0  0  0  0  0
    1.4966    2.9042   -2.6056 H   0  0  0  0  0  0  0  0  0  0  0  0
    0.4754    3.1196   -4.0397 H   0  0  0  0  0  0  0  0  0  0  0  0
    1.2978    0.5411   -0.9947 N   0  0  0  0  0  0  0  0  0  0  0  0
    1.5371    0.0807    0.3489 C   0  0  2  0  0  0  0  0  0  0  0  0
    0.7715   -1.2264    0.5215 C   0  0  0  0  0  0  0  0  0  0  0  0
   -0.4524   -1.3012    0.4349 O   0  0  0  0  0  0  0  0  0  0  0  0
    1.0891    1.1041    1.4001 C   0  0  0  0  0  0  0  0  0  0  0  0
    1.9218    2.3875    1.3932 C   0  0  0  0  0  0  0  0  0  0  0  0
    1.4655    3.4113    2.4159 C   0  0  0  0  0  0  0  0  0  0  0  0
    0.4794    3.2722    3.1335 O   0  0  0  0  0  0  0  0  0  0  0  0
    2.2696    4.5308    2.4315 N   0  0  0  0  0  0  0  0  0  0  0  0
    2.0949    0.6178   -1.6227 H   0  0  0  0  0  0  0  0  0  0  0  0
    2.6107   -0.1223    0.4248 H   0  0  0  0  0  0  0  0  0  0  0  0
    0.0396    1.3716    1.2184 H   0  0  0  0  0  0  0  0  0  0  0  0
    1.1198    0.6537    2.4002 H   0  0  0  0  0  0  0  0  0  0  0  0
    1.8324    2.8602    0.4073 H   0  0  0  0  0  0  0  0  0  0  0  0
    2.9828    2.1642    1.5518 H   0  0  0  0  0  0  0  0  0  0  0  0
    3.0571    4.5763    1.7934 H   0  0  0  0  0  0  0  0  0  0  0  0
    2.1022    5.3113    3.0584 H   0  0  0  0  0  0  0  0  0  0  0  0
    1.6135   -2.2850    0.8328 N   0  0  0  0  0  0  0  0  0  0  0  0
    1.1423   -3.6306    1.0691 C   0  0  2  0  0  0  0  0  0  0  0  0
    0.2031   -4.0068   -0.0693 C   0  0  0  0  0  0  0  0  0  0  0  0
   -0.3794   -3.1743   -0.7612 O   0  0  0  0  0  0  0  0  0  0  0  0
    0.4395   -3.7427    2.4131 C   0  0  0  0  0  0  0  0  0  0  0  0
    2.6110   -2.1049    0.8977 H   0  0  0  0  0  0  0  0  0  0  0  0
    2.0225   -4.2824    1.0476 H   0  0  0  0  0  0  0  0  0  0  0  0
   -0.4451   -3.0968    2.4535 H   0  0  0  0  0  0  0  0  0  0  0  0
    0.1083   -4.7690    2.6033 H   0  0  0  0  0  0  0  0  0  0  0  0
    1.1072   -3.4433    3.2282 H   0  0  0  0  0  0  0  0  0  0  0  0
    0.0582   -5.3814   -0.1938 N   0  0  0  0  0  0  0  0  0  0  0  0
   -0.7901   -5.9887   -1.1925 C   0  0  0  0  0  0  0  0  0  0  0  0
    0.5942   -5.9971    0.4107 H   0  0  0  0  0  0  0  0  0  0  0  0
   -1.7906   -6.1610   -0.7690 H   0  0  0  0  0  0  0  0  0  0  0  0
   -0.8703   -5.3191   -2.0616 H   0  0  0  0  0  0  0  0  0  0  0  0
   -0.3555   -6.9486   -1.5081 H   0  0  0  0  0  0  0  0  0  0  0  0
  1  3  1  0  0  0  0
  1  7  1  0  0  0  0
  1  2  2  0  0  0  0
 22 23  1  0  0  0  0
 23 25  1  0  0  0  0
 23 24  2  0  0  0  0
 35 36  1  0  0  0  0
 36 44  1  0  0  0  0
 36 37  2  0  0  0  0
  8  9  1  0  0  0  0
  9 17  1  0  0  0  0
  9 10  2  0  0  0  0
 18 19  1  0  0  0  0
 19 34  1  0  0  0  0
 19 20  2  0  0  0  0
 35 38  1  0  0  0  0
  8 11  1  0  0  0  0
 44 45  1  0  0  0  0
 21 22  1  0  0  0  0
 18 21  1  0  0  0  0
 34 35  1  0  0  0  0
  7  8  1  0  0  0  0
 17 18  1  0  0  0  0
  3  4  1  0  0  0  0
  3  5  1  0  0  0  0
  3  6  1  0  0  0  0
 38 41  1  0  0  0  0
 38 42  1  0  0  0  0
 38 43  1  0  0  0  0
 11 14  1  0  0  0  0
 11 15  1  0  0  0  0
 11 16  1  0  0  0  0
 45 47  1  0  0  0  0
 45 48  1  0  0  0  0
 45 49  1  0  0  0  0
 22 30  1  0  0  0  0
 22 31  1  0  0  0  0
 21 28  1  0  0  0  0
 21 29  1  0  0  0  0
 35 40  1  0  0  0  0
  8 13  1  0  0  0  0
 18 27  1  0  0  0  0
 25 32  1  0  0  0  0
 25 33  1  0  0  0  0
 44 46  1  0  0  0  0
  7 12  1  0  0  0  0
 34 39  1  0  0  0  0
 17 26  1  0  0  0  0
M  END
$$$$

  -OEChem-05262214473D

 49 48  0     1  0  0  0  0  0999 V2000
   -1.9833   -0.0509   -3.3423 C   0  0  0  0  0  0  0  0  0  0  0  0
   -1.6199   -1.0613   -2.7518 O   0  0  0  0  0  0  0  0  0  0  0  0
   -3.3243   -0.0235   -3.9975 C   0  0  0  0  0  0  0  0  0  0  0  0
   -3.2886   -0.3689   -5.0432 H   0  0  0  0  0  0  0  0  0  0  0  0
   -4.0503   -0.6845   -3.4973 H   0  0  0  0  0  0  0  0  0  0  0  0
   -3.8104    0.9645   -4.0351 H   0  0  0  0  0  0  0  0  0  0  0  0
   -1.2607    1.1231   -3.4768 N   0  0  0  0  0  0  0  0  0  0  0  0
    0.0536    1.3115   -2.9213 C   0  0  2  0  0  0  0  0  0  0  0  0
    0.0266    0.8315   -1.4761 C   0  0  0  0  0  0  0  0  0  0  0  0
   -1.0065    0.7530   -0.8146 O   0  0  0  0  0  0  0  0  0  0  0  0
    0.4852    2.7674   -3.0025 C   0  0  0  0  0  0  0  0  0  0  0  0
   -1.6809    1.8924   -3.9952 H   0  0  0  0  0  0  0  0  0  0  0  0
    0.7360    0.6822   -3.5030 H   0  0  0  0  0  0  0  0  0  0  0  0
   -0.1867    3.4133   -2.4256 H   0  0  0  0  0  0  0  0  0  0  0  0
    1.4966    2.9042   -2.6056 H   0  0  0  0  0  0  0  0  0  0  0  0
    0.4754    3.1196   -4.0397 H   0  0  0  0  0  0  0  0  0  0  0  0
    1.2978    0.5411   -0.9947 N   0  0  0  0  0  0  0  0  0  0  0  0
    1.5371    0.0807    0.3489 C   0  0  2  0  0  0  0  0  0  0  0  0
    0.7715   -1.2264    0.5215 C   0  0  0  0  0  0  0  0  0  0  0  0
   -0.4007   -1.3653    0.1786 O   0  0  0  0  0  0  0  0  0  0  0  0
    1.0891    1.1041    1.4001 C   0  0  0  0  0  0  0  0  0  0  0  0
    1.9218    2.3875    1.3932 C   0  0  0  0  0  0  0  0  0  0  0  0
    1.4655    3.4113    2.4159 C   0  0  0  0  0  0  0  0  0  0  0  0
    0.4794    3.2722    3.1335 O   0  0  0  0  0  0  0  0  0  0  0  0
    2.2696    4.5308    2.4315 N   0  0  0  0  0  0  0  0  0  0  0  0
    2.0949    0.6178   -1.6227 H   0  0  0  0  0  0  0  0  0  0  0  0
    2.6107   -0.1223    0.4248 H   0  0  0  0  0  0  0  0  0  0  0  0
    0.0396    1.3716    1.2184 H   0  0  0  0  0  0  0  0  0  0  0  0
    1.1198    0.6537    2.4002 H   0  0  0  0  0  0  0  0  0  0  0  0
    1.8324    2.8602    0.4073 H   0  0  0  0  0  0  0  0  0  0  0  0
    2.9828    2.1642    1.5518 H   0  0  0  0  0  0  0  0  0  0  0  0
    3.0571    4.5763    1.7934 H   0  0  0  0  0  0  0  0  0  0  0  0
    2.1022    5.3113    3.0584 H   0  0  0  0  0  0  0  0  0  0  0  0
    1.5379   -2.1990    1.1486 N   0  0  0  0  0  0  0  0  0  0  0  0
    1.0454   -3.5233    1.4527 C   0  0  2  0  0  0  0  0  0  0  0  0
    0.3905   -4.0815    0.1961 C   0  0  0  0  0  0  0  0  0  0  0  0
   -0.0344   -3.3698   -0.7116 O   0  0  0  0  0  0  0  0  0  0  0  0
    0.0614   -3.4950    2.6118 C   0  0  0  0  0  0  0  0  0  0  0  0
    2.4928   -1.9684    1.4067 H   0  0  0  0  0  0  0  0  0  0  0  0
    1.9176   -4.1331    1.7124 H   0  0  0  0  0  0  0  0  0  0  0  0
   -0.8191   -2.8886    2.3702 H   0  0  0  0  0  0  0  0  0  0  0  0
   -0.2889   -4.5025    2.8595 H   0  0  0  0  0  0  0  0  0  0  0  0
    0.5253   -3.0657    3.5065 H   0  0  0  0  0  0  0  0  0  0  0  0
    0.2973   -5.4659    0.2272 N   0  0  0  0  0  0  0  0  0  0  0  0
   -0.2970   -6.2315   -0.8436 C   0  0  0  0  0  0  0  0  0  0  0  0
    0.6933   -5.9759    1.0113 H   0  0  0  0  0  0  0  0  0  0  0  0
   -1.3642   -6.3925   -0.6314 H   0  0  0  0  0  0  0  0  0  0  0  0
   -0.1904   -5.6816   -1.7903 H   0  0  0  0  0  0  0  0  0  0  0  0
    0.2113   -7.2036   -0.9251 H   0  0  0  0  0  0  0  0  0  0  0  0
  1  3  1  0  0  0  0
  1  7  1  0  0  0  0
  1  2  2  0  0  0  0
 22 23  1  0  0  0  0
 23 25  1  0  0  0  0
 23 24  2  0  0  0  0
 35 36  1  0  0  0  0
 36 44  1  0  0  0  0
 36 37  2  0  0  0  0
  8  9  1  0  0  0  0
  9 17  1  0  0  0  0
  9 10  2  0  0  0  0
 18 19  1  0  0  0  0
 19 34  1  0  0  0  0
 19 20  2  0  0  0  0
 35 38  1  0  0  0  0
  8 11  1  0  0  0  0
 44 45  1  0  0  0  0
 21 22  1  0  0  0  0
 18 21  1  0  0  0  0
 34 35  1  0  0  0  0
  7  8  1  0  0  0  0
 17 18  1  0  0  0  0
  3  4  1  0  0  0  0
  3  5  1  0  0  0  0
  3  6  1  0  0  0  0
 38 41  1  0  0  0  0
 38 42  1  0  0  0  0
 38 43  1  0  0  0  0
 11 14  1  0  0  0  0
 11 15  1  0  0  0  0
 11 16  1  0  0  0  0
 45 47  1  0  0  0  0
 45 48  1  0  0  0  0
 45 49  1  0  0  0  0
 22 30  1  0  0  0  0
 22 31  1  0  0  0  0
 21 28  1  0  0  0  0
 21 29  1  0  0  0  0
 35 40  1  0  0  0  0
  8 13  1  0  0  0  0
 18 27  1  0  0  0  0
 25 32  1  0  0  0  0
 25 33  1  0  0  0  0
 44 46  1  0  0  0  0
  7 12  1  0  0  0  0
 34 39  1  0  0  0  0
 17 26  1  0  0  0  0
M  END
$$$$

  -OEChem-05262214473D

 49 48  0     1  0  0  0  0  0999 V2000
   -1.9833   -0.0509   -3.3423 C   0  0  0  0  0  0  0  0  0  0  0  0
   -1.6199   -1.0613   -2.7518 O   0  0  0  0  0  0  0  0  0  0  0  0
   -3.3243   -0.0235   -3.9975 C   0  0  0  0  0  0  0  0  0  0  0  0
   -3.2886   -0.3689   -5.0432 H   0  0  0  0  0  0  0  0  0  0  0  0
   -4.0503   -0.6845   -3.4973 H   0  0  0  0  0  0  0  0  0  0  0  0
   -3.8104    0.9645   -4.0351 H   0  0  0  0  0  0  0  0  0  0  0  0
   -1.2607    1.1231   -3.4768 N   0  0  0  0  0  0  0  0  0  0  0  0
    0.0536    1.3115   -2.9213 C   0  0  2  0  0  0  0  0  0  0  0  0
    0.0266    0.8315   -1.4761 C   0  0  0  0  0  0  0  0  0  0  0  0
   -1.0065    0.7530   -0.8146 O   0  0  0  0  0  0  0  0  0  0  0  0
    0.4852    2.7674   -3.0025 C   0  0  0  0  0  0  0  0  0  0  0  0
   -1.6809    1.8924   -3.9952 H   0  0  0  0  0  0  0  0  0  0  0  0
    0.7360    0.6822   -3.5030 H   0  0  0  0  0  0  0  0  0  0  0  0
   -0.1867    3.4133   -2.4256 H   0  0  0  0  0  0  0  0  0  0  0  0
    1.4966    2.9042   -2.6056 H   0  0  0  0  0  0  0  0  0  0  0  0
    0.4754    3.1196   -4.0397 H   0  0  0  0  0  0  0  0  0  0  0  0
    1.2978    0.5411   -0.9947 N   0  0  0  0  0  0  0  0  0  0  0  0
    1.5371    0.0807    0.3489 C   0  0  2  0  0  0  0  0  0  0  0  0
    0.7715   -1.2264    0.5215 C   0  0  0  0  0  0  0  0  0  0  0  0
   -0.2920   -1.4590   -0.0492 O   0  0  0  0  0  0  0  0  0  0  0  0
    1.0891    1.1041    1.4001 C   0  0  0  0  0  0  0  0  0  0  0  0
    1.9218    2.3875    1.3932 C   0  0  0  0  0  0  0  0  0  0  0  0
    1.4655    3.4113    2.4159 C   0  0  0  0  0  0  0  0  0  0  0  0
    0.4794    3.2722    3.1335 O   0  0  0  0  0  0  0  0  0  0  0  0
    2.2696    4.5308    2.4315 N   0  0  0  0  0  0  0  0  0  0  0  0
    2.0949    0.6178   -1.6227 H   0  0  0  0  0  0  0  0  0  0  0  0
    2.6107   -0.1223    0.4248 H   0  0  0  0  0  0  0  0  0  0  0  0
    0.0396    1.3716    1.2184 H   0  0  0  0  0  0  0  0  0  0  0  0
    1.1198    0.6537    2.4002 H   0  0  0  0  0  0  0  0  0  0  0  0
    1.8324    2.8602    0.4073 H   0  0  0  0  0  0  0  0  0  0  0  0
    2.9828    2.1642    1.5518 H   0  0  0  0  0  0  0  0  0  0  0  0
    3.0571    4.5763    1.7934 H   0  0  0  0  0  0  0  0  0  0  0  0
    2.1022    5.3113    3.0584 H   0  0  0  0  0  0  0  0  0  0  0  0
    1.3922   -2.0771    1.4257 N   0  0  0  0  0  0  0  0  0  0  0  0
    0.8636   -3.3725    1.7877 C   0  0  2  0  0  0  0  0  0  0  0  0
    0.5148   -4.1137    0.5038 C   0  0  0  0  0  0  0  0  0  0  0  0
    0.2935   -3.5421   -0.5617 O   0  0  0  0  0  0  0  0  0  0  0  0
   -0.3552   -3.2410    2.6877 C   0  0  0  0  0  0  0  0  0  0  0  0
    2.2617   -1.7739    1.8544 H   0  0  0  0  0  0  0  0  0  0  0  0
    1.6644   -3.9056    2.3118 H   0  0  0  0  0  0  0  0  0  0  0  0
   -1.1681   -2.7094    2.1797 H   0  0  0  0  0  0  0  0  0  0  0  0
   -0.7373   -4.2234    2.9843 H   0  0  0  0  0  0  0  0  0  0  0  0
   -0.1097   -2.6819    3.5970 H   0  0  0  0  0  0  0  0  0  0  0  0
    0.4374   -5.4857    0.6978 N   0  0  0  0  0  0  0  0  0  0  0  0
    0.1090   -6.4062   -0.3657 C   0  0  0  0  0  0  0  0  0  0  0  0
    0.6552   -5.8744    1.6106 H   0  0  0  0  0  0  0  0  0  0  0  0
   -0.9762   -6.5858   -0.3739 H   0  0  0  0  0  0  0  0  0  0  0  0
    0.4167   -5.9765   -1.3304 H   0  0  0  0  0  0  0  0  0  0  0  0
    0.6368   -7.3575   -0.2030 H   0  0  0  0  0  0  0  0  0  0  0  0
  1  3  1  0  0  0  0
  1  7  1  0  0  0  0
  1  2  2  0  0  0  0
 22 23  1  0  0  0  0
 23 25  1  0  0  0  0
 23 24  2  0  0  0  0
 35 36  1  0  0  0  0
 36 44  1  0  0  0  0
 36 37  2  0  0  0  0
  8  9  1  0  0  0  0
  9 17  1  0  0  0  0
  9 10  2  0  0  0  0
 18 19  1  0  0  0  0
 19 34  1  0  0  0  0
 19 20  2  0  0  0  0
 35 38  1  0  0  0  0
  8 11  1  0  0  0  0
 44 45  1  0  0  0  0
 21 22  1  0  0  0  0
 18 21  1  0  0  0  0
 34 35  1  0  0  0  0
  7  8  1  0  0  0  0
 17 18  1  0  0  0  0
  3  4  1  0  0  0  0
  3  5  1  0  0  0  0
  3  6  1  0  0  0  0
 38 41  1  0  0  0  0
 38 42  1  0  0  0  0
 38 43  1  0  0  0  0
 11 14  1  0  0  0  0
 11 15  1  0  0  0  0
 11 16  1  0  0  0  0
 45 47  1  0  0  0  0
 45 48  1  0  0  0  0
 45 49  1  0  0  0  0
 22 30  1  0  0  0  0
 22 31  1  0  0  0  0
 21 28  1  0  0  0  0
 21 29  1  0  0  0  0
 35 40  1  0  0  0  0
  8 13  1  0  0  0  0
 18 27  1  0  0  0  0
 25 32  1  0  0  0  0
 25 33  1  0  0  0  0
 44 46  1  0  0  0  0
  7 12  1  0  0  0  0
 34 39  1  0  0  0  0
 17 26  1  0  0  0  0
M  END
$$$$

  -OEChem-05262214473D

 49 48  0     1  0  0  0  0  0999 V2000
   -1.9833   -0.0509   -3.3423 C   0  0  0  0  0  0  0  0  0  0  0  0
   -1.6199   -1.0613   -2.7518 O   0  0  0  0  0  0  0  0  0  0  0  0
   -3.3243   -0.0235   -3.9975 C   0  0  0  0  0  0  0  0  0  0  0  0
   -3.2886   -0.3689   -5.0432 H   0  0  0  0  0  0  0  0  0  0  0  0
   -4.0503   -0.6845   -3.4973 H   0  0  0  0  0  0  0  0  0  0  0  0
   -3.8104    0.9645   -4.0351 H   0  0  0  0  0  0  0  0  0  0  0  0
   -1.2607    1.1231   -3.4768 N   0  0  0  0  0  0  0  0  0  0  0  0
    0.0536    1.3115   -2.9213 C   0  0  2  0  0  0  0  0  0  0  0  0
    0.0266    0.8315   -1.4761 C   0  0  0  0  0  0  0  0  0  0  0  0
   -1.0065    0.7530   -0.8146 O   0  0  0  0  0  0  0  0  0  0  0  0
    0.4852    2.7674   -3.0025 C   0  0  0  0  0  0  0  0  0  0  0  0
   -1.6809    1.8924   -3.9952 H   0  0  0  0  0  0  0  0  0  0  0  0
    0.7360    0.6822   -3.5030 H   0  0  0  0  0  0  0  0  0  0  0  0
   -0.1867    3.4133   -2.4256 H   0  0  0  0  0  0  0  0  0  0  0  0
    1.4966    2.9042   -2.6056 H   0  0  0  0  0  0  0  0  0  0  0  0
    0.4754    3.1196   -4.0397 H   0  0  0  0  0  0  0  0  0  0  0  0
    1.2978    0.5411   -0.9947 N   0  0  0  0  0  0  0  0  0  0  0  0
    1.5371    0.0807    0.3489 C   0  0  2  0  0  0  0  0  0  0  0  0
    0.7715   -1.2264    0.5215 C   0  0  0  0  0  0  0  0  0  0  0  0
   -0.1338   -1.5760   -0.2329 O   0  0  0  0  0  0  0  0  0  0  0  0
    1.0891    1.1041    1.4001 C   0  0  0  0  0  0  0  0  0  0  0  0
    1.9218    2.3875    1.3932 C   0  0  0  0  0  0  0  0  0  0  0  0
    1.4655    3.4113    2.4159 C   0  0  0  0  0  0  0  0  0  0  0  0
    0.4794    3.2722    3.1335 O   0  0  0  0  0  0  0  0  0  0  0  0
    2.2696    4.5308    2.4315 N   0  0  0  0  0  0  0  0  0  0  0  0
    2.0949    0.6178   -1.6227 H   0  0  0  0  0  0  0  0  0  0  0  0
    2.6107   -0.1223    0.4248 H   0  0  0  0  0  0  0  0  0  0  0  0
    0.0396    1.3716    1.2184 H   0  0  0  0  0  0  0  0  0  0  0  0
    1.1198    0.6537    2.4002 H   0  0  0  0  0  0  0  0  0  0  0  0
    1.8324    2.8602    0.4073 H   0  0  0  0  0  0  0  0  0  0  0  0
    2.9828    2.1642    1.5518 H   0  0  0  0  0  0  0  0  0  0  0  0
    3.0571    4.5763    1.7934 H   0  0  0  0  0  0  0  0  0  0  0  0
    2.1022    5.3113    3.0584 H   0  0  0  0  0  0  0  0  0  0  0  0
    1.1865   -1.9276    1.6452 N   0  0  0  0  0  0  0  0  0  0  0  0
    0.6093   -3.1887    2.0514 C   0  0  2  0  0  0  0  0  0  0  0  0
    0.5676   -4.1012    0.8327 C   0  0  0  0  0  0  0  0  0  0  0  0
    0.5820   -3.6794   -0.3218 O   0  0  0  0  0  0  0  0  0  0  0  0
   -0.7818   -2.9980    2.6355 C   0  0  0  0  0  0  0  0  0  0  0  0
    1.9334   -1.5346    2.2103 H   0  0  0  0  0  0  0  0  0  0  0  0
    1.2801   -3.6154    2.8051 H   0  0  0  0  0  0  0  0  0  0  0  0
   -1.4681   -2.5713    1.8950 H   0  0  0  0  0  0  0  0  0  0  0  0
   -1.2062   -3.9507    2.9690 H   0  0  0  0  0  0  0  0  0  0  0  0
   -0.7543   -2.3179    3.4938 H   0  0  0  0  0  0  0  0  0  0  0  0
    0.4687   -5.4396    1.1861 N   0  0  0  0  0  0  0  0  0  0  0  0
    0.4003   -6.5009    0.2088 C   0  0  0  0  0  0  0  0  0  0  0  0
    0.4824   -5.6996    2.1679 H   0  0  0  0  0  0  0  0  0  0  0  0
   -0.6528   -6.7277   -0.0138 H   0  0  0  0  0  0  0  0  0  0  0  0
    0.9098   -6.1838   -0.7130 H   0  0  0  0  0  0  0  0  0  0  0  0
    0.8921   -7.3998    0.6089 H   0  0  0  0  0  0  0  0  0  0  0  0
  1  3  1  0  0  0  0
  1  7  1  0  0  0  0
  1  2  2  0  0  0  0
 22 23  1  0  0  0  0
 23 25  1  0  0  0  0
 23 24  2  0  0  0  0
 35 36  1  0  0  0  0
 36 44  1  0  0  0  0
 36 37  2  0  0  0  0
  8  9  1  0  0  0  0
  9 17  1  0  0  0  0
  9 10  2  0  0  0  0
 18 19  1  0  0  0  0
 19 34  1  0  0  0  0
 19 20  2  0  0  0  0
 35 38  1  0  0  0  0
  8 11  1  0  0  0  0
 44 45  1  0  0  0  0
 21 22  1  0  0  0  0
 18 21  1  0  0  0  0
 34 35  1  0  0  0  0
  7  8  1  0  0  0  0
 17 18  1  0  0  0  0
  3  4  1  0  0  0  0
  3  5  1  0  0  0  0
  3  6  1  0  0  0  0
 38 41  1  0  0  0  0
 38 42  1  0  0  0  0
 38 43  1  0  0  0  0
 11 14  1  0  0  0  0
 11 15  1  0  0  0  0
 11 16  1  0  0  0  0
 45 47  1  0  0  0  0
 45 48  1  0  0  0  0
 45 49  1  0  0  0  0
 22 30  1  0  0  0  0
 22 31  1  0  0  0  0
 21 28  1  0  0  0  0
 21 29  1  0  0  0  0
 35 40  1  0  0  0  0
  8 13  1  0  0  0  0
 18 27  1  0  0  0  0
 25 32  1  0  0  0  0
 25 33  1  0  0  0  0
 44 46  1  0  0  0  0
  7 12  1  0  0  0  0
 34 39  1  0  0  0  0
 17 26  1  0  0  0  0
M  END
$$$$

  -OEChem-05262214473D

 49 48  0     1  0  0  0  0  0999 V2000
   -1.9833   -0.0509   -3.3423 C   0  0  0  0  0  0  0  0  0  0  0  0
   -1.6199   -1.0613   -2.7518 O   0  0  0  0  0  0  0  0  0  0  0  0
   -3.3243   -0.0235   -3.9975 C   0  0  0  0  0  0  0  0  0  0  0  0
   -3.2886   -0.3689   -5.0432 H   0  0  0  0  0  0  0  0  0  0  0  0
   -4.0503   -0.6845   -3.4973 H   0  0  0  0  0  0  0  0  0  0  0  0
   -3.8104    0.9645   -4.0351 H   0  0  0  0  0  0  0  0  0  0  0  0
   -1.2607    1.1231   -3.4768 N   0  0  0  0  0  0  0  0  0  0  0  0
    0.0536    1.3115   -2.9213 C   0  0  2  0  0  0  0  0  0  0  0  0
    0.0266    0.8315   -1.4761 C   0  0  0  0  0  0  0  0  0  0  0  0
   -1.0065    0.7530   -0.8146 O   0  0  0  0  0  0  0  0  0  0  0  0
    0.4852    2.7674   -3.0025 C   0  0  0  0  0  0  0  0  0  0  0  0
   -1.6809    1.8924   -3.9952 H   0  0  0  0  0  0  0  0  0  0  0  0
    0.7360    0.6822   -3.5030 H   0  0  0  0  0  0  0  0  0  0  0  0
   -0.1867    3.4133   -2.4256 H   0  0  0  0  0  0  0  0  0  0  0  0
    1.4966    2.9042   -2.6056 H   0  0  0  0  0  0  0  0  0  0  0  0
    0.4754    3.1196   -4.0397 H   0  0  0  0  0  0  0  0  0  0  0  0
    1.2978    0.5411   -0.9947 N   0  0  0  0  0  0  0  0  0  0  0  0
    1.5371    0.0807    0.3489 C   0  0  2  0  0  0  0  0  0  0  0  0
    1.1014   -1.3791    0.4105 C   0  0  0  0  0  0  0  0  0  0  0  0
    0.6022   -1.9690   -0.5454 O   0  0  0  0  0  0  0  0  0  0  0  0
    0.7736    0.9095    1.3896 C   0  0  0  0  0  0  0  0  0  0  0  0
    1.2671    2.3536    1.4982 C   0  0  0  0  0  0  0  0  0  0  0  0
    0.4976    3.1824    2.5098 C   0  0  0  0  0  0  0  0  0  0  0  0
   -0.4776    2.7730    3.1329 O   0  0  0  0  0  0  0  0  0  0  0  0
    1.0016    4.4595    2.6329 N   0  0  0  0  0  0  0  0  0  0  0  0
    2.0949    0.6178   -1.6227 H   0  0  0  0  0  0  0  0  0  0  0  0
    2.6186    0.1372    0.5123 H   0  0  0  0  0  0  0  0  0  0  0  0
   -0.2922    0.9270    1.1252 H   0  0  0  0  0  0  0  0  0  0  0  0
    0.8354    0.4271    2.3733 H   0  0  0  0  0  0  0  0  0  0  0  0
    1.1419    2.8429    0.5243 H   0  0  0  0  0  0  0  0  0  0  0  0
    2.3349    2.3829    1.7421 H   0  0  0  0  0  0  0  0  0  0  0  0
    1.8013    4.7262    2.0684 H   0  0  0  0  0  0  0  0  0  0  0  0
    0.6013    5.1427    3.2679 H   0  0  0  0  0  0  0  0  0  0  0  0
    1.2908   -1.9254    1.6722 N   0  0  0  0  0  0  0  0  0  0  0  0
    0.9409   -3.2869    2.0080 C   0  0  2  0  0  0  0  0  0  0  0  0
    1.5187   -4.1994    0.9342 C   0  0  0  0  0  0  0  0  0  0  0  0
    1.8005   -3.8094   -0.1970 O   0  0  0  0  0  0  0  0  0  0  0  0
   -0.5661   -3.4605    2.1155 C   0  0  0  0  0  0  0  0  0  0  0  0
    1.6955   -1.3389    2.3960 H   0  0  0  0  0  0  0  0  0  0  0  0
    1.4162   -3.5075    2.9700 H   0  0  0  0  0  0  0  0  0  0  0  0
   -1.0597   -3.2437    1.1612 H   0  0  0  0  0  0  0  0  0  0  0  0
   -0.8283   -4.4854    2.3979 H   0  0  0  0  0  0  0  0  0  0  0  0
   -0.9838   -2.7822    2.8673 H   0  0  0  0  0  0  0  0  0  0  0  0
    1.6423   -5.5099    1.3741 N   0  0  0  0  0  0  0  0  0  0  0  0
    2.1543   -6.5687    0.5358 C   0  0  0  0  0  0  0  0  0  0  0  0
    1.4022   -5.7394    2.3340 H   0  0  0  0  0  0  0  0  0  0  0  0
    1.3185   -7.0698    0.0256 H   0  0  0  0  0  0  0  0  0  0  0  0
    2.8395   -6.1445   -0.2129 H   0  0  0  0  0  0  0  0  0  0  0  0
    2.6954   -7.2982    1.1563 H   0  0  0  0  0  0  0  0  0  0  0  0
  1  3  1  0  0  0  0
  1  7  1  0  0  0  0
  1  2  2  0  0  0  0
 22 23  1  0  0  0  0
 23 25  1  0  0  0  0
 23 24  2  0  0  0  0
 35 36  1  0  0  0  0
 36 44  1  0  0  0  0
 36 37  2  0  0  0  0
  8  9  1  0  0  0  0
  9 17  1  0  0  0  0
  9 10  2  0  0  0  0
 18 19  1  0  0  0  0
 19 34  1  0  0  0  0
 19 20  2  0  0  0  0
 35 38  1  0  0  0  0
  8 11  1  0  0  0  0
 44 45  1  0  0  0  0
 21 22  1  0  0  0  0
 18 21  1  0  0  0  0
 34 35  1  0  0  0  0
  7  8  1  0  0  0  0
 17 18  1  0  0  0  0
  3  4  1  0  0  0  0
  3  5  1  0  0  0  0
  3  6  1  0  0  0  0
 38 41  1  0  0  0  0
 38 42  1  0  0  0  0
 38 43  1  0  0  0  0
 11 14  1  0  0  0  0
 11 15  1  0  0  0  0
 11 16  1  0  0  0  0
 45 47  1  0  0  0  0
 45 48  1  0  0  0  0
 45 49  1  0  0  0  0
 22 30  1  0  0  0  0
 22 31  1  0  0  0  0
 21 28  1  0  0  0  0
 21 29  1  0  0  0  0
 35 40  1  0  0  0  0
  8 13  1  0  0  0  0
 18 27  1  0  0  0  0
 25 32  1  0  0  0  0
 25 33  1  0  0  0  0
 44 46  1  0  0  0  0
  7 12  1  0  0  0  0
 34 39  1  0  0  0  0
 17 26  1  0  0  0  0
M  END
$$$$

  -OEChem-05262214473D

 49 48  0     1  0  0  0  0  0999 V2000
   -1.9833   -0.0509   -3.3423 C   0  0  0  0  0  0  0  0  0  0  0  0
   -1.6199   -1.0613   -2.7518 O   0  0  0  0  0  0  0  0  0  0  0  0
   -3.3243   -0.0235   -3.9975 C   0  0  0  0  0  0  0  0  0  0  0  0
   -3.2886   -0.3689   -5.0432 H   0  0  0  0  0  0  0  0  0  0  0  0
   -4.0503   -0.6845   -3.4973 H   0  0  0  0  0  0  0  0  0  0  0  0
   -3.8104    0.9645   -4.0351 H   0  0  0  0  0  0  0  0  0  0  0  0
   -1.2607    1.1231   -3.4768 N   0  0  0  0  0  0  0  0  0  0  0  0
    0.0536    1.3115   -2.9213 C   0  0  2  0  0  0  0  0  0  0  0  0
    0.0266    0.8315   -1.4761 C   0  0  0  0  0  0  0  0  0  0  0  0
   -1.0065    0.7530   -0.8146 O   0  0  0  0  0  0  0  0  0  0  0  0
    0.4852    2.7674   -3.0025 C   0  0  0  0  0  0  0  0  0  0  0  0
   -1.6809    1.8924   -3.9952 H   0  0  0  0  0  0  0  0  0  0  0  0
    0.7360    0.6822   -3.5030 H   0  0  0  0  0  0  0  0  0  0  0  0
   -0.1867    3.4133   -2.4256 H   0  0  0  0  0  0  0  0  0  0  0  0
    1.4966    2.9042   -2.6056 H   0  0  0  0  0  0  0  0  0  0  0  0
    0.4754    3.1196   -4.0397 H   0  0  0  0  0  0  0  0  0  0  0  0
    1.2978    0.5411   -0.9947 N   0  0  0  0  0  0  0  0  0  0  0  0
    1.5371    0.0807    0.3489 C   0  0  2  0  0  0  0  0  0  0  0  0
    1.1014   -1.3791    0.4105 C   0  0  0  0  0  0  0  0  0  0  0  0
    0.8557   -2.0466   -0.5920 O   0  0  0  0  0  0  0  0  0  0  0  0
    0.7736    0.9095    1.3896 C   0  0  0  0  0  0  0  0  0  0  0  0
    1.2671    2.3536    1.4982 C   0  0  0  0  0  0  0  0  0  0  0  0
    0.4976    3.1824    2.5098 C   0  0  0  0  0  0  0  0  0  0  0  0
   -0.4776    2.7730    3.1329 O   0  0  0  0  0  0  0  0  0  0  0  0
    1.0016    4.4595    2.6329 N   0  0  0  0  0  0  0  0  0  0  0  0
    2.0949    0.6178   -1.6227 H   0  0  0  0  0  0  0  0  0  0  0  0
    2.6186    0.1372    0.5123 H   0  0  0  0  0  0  0  0  0  0  0  0
   -0.2922    0.9270    1.1252 H   0  0  0  0  0  0  0  0  0  0  0  0
    0.8354    0.4271    2.3733 H   0  0  0  0  0  0  0  0  0  0  0  0
    1.1419    2.8429    0.5243 H   0  0  0  0  0  0  0  0  0  0  0  0
    2.3349    2.3829    1.7421 H   0  0  0  0  0  0  0  0  0  0  0  0
    1.8013    4.7262    2.0684 H   0  0  0  0  0  0  0  0  0  0  0  0
    0.6013    5.1427    3.2679 H   0  0  0  0  0  0  0  0  0  0  0  0
    0.9723   -1.8285    1.7173 N   0  0  0  0  0  0  0  0  0  0  0  0
    0.5516   -3.1686    2.0575 C   0  0  2  0  0  0  0  0  0  0  0  0
    1.3788   -4.1451    1.2319 C   0  0  0  0  0  0  0  0  0  0  0  0
    1.9321   -3.8328    0.1796 O   0  0  0  0  0  0  0  0  0  0  0  0
   -0.9348   -3.3637    1.8017 C   0  0  0  0  0  0  0  0  0  0  0  0
    1.1841   -1.1831    2.4724 H   0  0  0  0  0  0  0  0  0  0  0  0
    0.7734   -3.3093    3.1210 H   0  0  0  0  0  0  0  0  0  0  0  0
   -1.1763   -3.2266    0.7413 H   0  0  0  0  0  0  0  0  0  0  0  0
   -1.2577   -4.3704    2.0867 H   0  0  0  0  0  0  0  0  0  0  0  0
   -1.5268   -2.6410    2.3735 H   0  0  0  0  0  0  0  0  0  0  0  0
    1.3908   -5.4174    1.7861 N   0  0  0  0  0  0  0  0  0  0  0  0
    2.0961   -6.5240    1.1827 C   0  0  0  0  0  0  0  0  0  0  0  0
    0.9203   -5.5814    2.6712 H   0  0  0  0  0  0  0  0  0  0  0  0
    1.4137   -7.0773    0.5208 H   0  0  0  0  0  0  0  0  0  0  0  0
    2.9452   -6.1419    0.5970 H   0  0  0  0  0  0  0  0  0  0  0  0
    2.4671   -7.1957    1.9709 H   0  0  0  0  0  0  0  0  0  0  0  0
  1  3  1  0  0  0  0
  1  7  1  0  0  0  0
  1  2  2  0  0  0  0
 22 23  1  0  0  0  0
 23 25  1  0  0  0  0
 23 24  2  0  0  0  0
 35 36  1  0  0  0  0
 36 44  1  0  0  0  0
 36 37  2  0  0  0  0
  8  9  1  0  0  0  0
  9 17  1  0  0  0  0
  9 10  2  0  0  0  0
 18 19  1  0  0  0  0
 19 34  1  0  0  0  0
 19 20  2  0  0  0  0
 35 38  1  0  0  0  0
  8 11  1  0  0  0  0
 44 45  1  0  0  0  0
 21 22  1  0  0  0  0
 18 21  1  0  0  0  0
 34 35  1  0  0  0  0
  7  8  1  0  0  0  0
 17 18  1  0  0  0  0
  3  4  1  0  0  0  0
  3  5  1  0  0  0  0
  3  6  1  0  0  0  0
 38 41  1  0  0  0  0
 38 42  1  0  0  0  0
 38 43  1  0  0  0  0
 11 14  1  0  0  0  0
 11 15  1  0  0  0  0
 11 16  1  0  0  0  0
 45 47  1  0  0  0  0
 45 48  1  0  0  0  0
 45 49  1  0  0  0  0
 22 30  1  0  0  0  0
 22 31  1  0  0  0  0
 21 28  1  0  0  0  0
 21 29  1  0  0  0  0
 35 40  1  0  0  0  0
  8 13  1  0  0  0  0
 18 27  1  0  0  0  0
 25 32  1  0  0  0  0
 25 33  1  0  0  0  0
 44 46  1  0  0  0  0
  7 12  1  0  0  0  0
 34 39  1  0  0  0  0
 17 26  1  0  0  0  0
M  END
$$$$

  -OEChem-05262214473D

 49 48  0     1  0  0  0  0  0999 V2000
   -1.9833   -0.0509   -3.3423 C   0  0  0  0  0  0  0  0  0  0  0  0
   -1.6199   -1.0613   -2.7518 O   0  0  0  0  0  0  0  0  0  0  0  0
   -3.3243   -0.0235   -3.9975 C   0  0  0  0  0  0  0  0  0  0  0  0
   -3.2886   -0.3689   -5.0432 H   0  0  0  0  0  0  0  0  0  0  0  0
   -4.0503   -0.6845   -3.4973 H   0  0  0  0  0  0  0  0  0  0  0  0
   -3.8104    0.9645   -4.0351 H   0  0  0  0  0  0  0  0  0  0  0  0
   -1.2607    1.1231   -3.4768 N   0  0  0  0  0  0  0  0  0  0  0  0
    0.0536    1.3115   -2.9213 C   0  0  2  0  0  0  0  0  0  0  0  0
    0.0266    0.8315   -1.4761 C   0  0  0  0  0  0  0  0  0  0  0  0
   -1.0065    0.7530   -0.8146 O   0  0  0  0  0  0  0  0  0  0  0  0
    0.4852    2.7674   -3.0025 C   0  0  0  0  0  0  0  0  0  0  0  0
   -1.6809    1.8924   -3.9952 H   0  0  0  0  0  0  0  0  0  0  0  0
    0.7360    0.6822   -3.5030 H   0  0  0  0  0  0  0  0  0  0  0  0
   -0.1867    3.4133   -2.4256 H   0  0  0  0  0  0  0  0  0  0  0  0
    1.4966    2.9042   -2.6056 H   0  0  0  0  0  0  0  0  0  0  0  0
    0.4754    3.1196   -4.0397 H   0  0  0  0  0  0  0  0  0  0  0  0
    1.2978    0.5411   -0.9947 N   0  0  0  0  0  0  0  0  0  0  0  0
    1.5371    0.0807    0.3489 C   0  0  2  0  0  0  0  0  0  0  0  0
    1.1014   -1.3791    0.4105 C   0  0  0  0  0  0  0  0  0  0  0  0
    1.1130   -2.1224   -0.5685 O   0  0  0  0  0  0  0  0  0  0  0  0
    0.7736    0.9095    1.3896 C   0  0  0  0  0  0  0  0  0  0  0  0
    1.2671    2.3536    1.4982 C   0  0  0  0  0  0  0  0  0  0  0  0
    0.4976    3.1824    2.5098 C   0  0  0  0  0  0  0  0  0  0  0  0
   -0.4776    2.7730    3.1329 O   0  0  0  0  0  0  0  0  0  0  0  0
    1.0016    4.4595    2.6329 N   0  0  0  0  0  0  0  0  0  0  0  0
    2.0949    0.6178   -1.6227 H   0  0  0  0  0  0  0  0  0  0  0  0
    2.6186    0.1372    0.5123 H   0  0  0  0  0  0  0  0  0  0  0  0
   -0.2922    0.9270    1.1252 H   0  0  0  0  0  0  0  0  0  0  0  0
    0.8354    0.4271    2.3733 H   0  0  0  0  0  0  0  0  0  0  0  0
    1.1419    2.8429    0.5243 H   0  0  0  0  0  0  0  0  0  0  0  0
    2.3349    2.3829    1.7421 H   0  0  0  0  0  0  0  0  0  0  0  0
    1.8013    4.7262    2.0684 H   0  0  0  0  0  0  0  0  0  0  0  0
    0.6013    5.1427    3.2679 H   0  0  0  0  0  0  0  0  0  0  0  0
    0.6525   -1.7348    1.6747 N   0  0  0  0  0  0  0  0  0  0  0  0
    0.1620   -3.0547    2.0002 C   0  0  2  0  0  0  0  0  0  0  0  0
    1.1694   -4.0721    1.4808 C   0  0  0  0  0  0  0  0  0  0  0  0
    1.9662   -3.8262    0.5776 O   0  0  0  0  0  0  0  0  0  0  0  0
   -1.2141   -3.2972    1.3999 C   0  0  0  0  0  0  0  0  0  0  0  0
    0.6695   -1.0322    2.4080 H   0  0  0  0  0  0  0  0  0  0  0  0
    0.1131   -3.1134    3.0930 H   0  0  0  0  0  0  0  0  0  0  0  0
   -1.1850   -3.2424    0.3056 H   0  0  0  0  0  0  0  0  0  0  0  0
   -1.5965   -4.2868    1.6712 H   0  0  0  0  0  0  0  0  0  0  0  0
   -1.9304   -2.5467    1.7514 H   0  0  0  0  0  0  0  0  0  0  0  0
    1.0449   -5.3003    2.1149 N   0  0  0  0  0  0  0  0  0  0  0  0
    1.8791   -6.4336    1.7898 C   0  0  0  0  0  0  0  0  0  0  0  0
    0.3695   -5.4088    2.8658 H   0  0  0  0  0  0  0  0  0  0  0  0
    1.3829   -7.0469    1.0232 H   0  0  0  0  0  0  0  0  0  0  0  0
    2.8466   -6.0784    1.4054 H   0  0  0  0  0  0  0  0  0  0  0  0
    2.0436   -7.0389    2.6935 H   0  0  0  0  0  0  0  0  0  0  0  0
  1  3  1  0  0  0  0
  1  7  1  0  0  0  0
  1  2  2  0  0  0  0
 22 23  1  0  0  0  0
 23 25  1  0  0  0  0
 23 24  2  0  0  0  0
 35 36  1  0  0  0  0
 36 44  1  0  0  0  0
 36 37  2  0  0  0  0
  8  9  1  0  0  0  0
  9 17  1  0  0  0  0
  9 10  2  0  0  0  0
 18 19  1  0  0  0  0
 19 34  1  0  0  0  0
 19 20  2  0  0  0  0
 35 38  1  0  0  0  0
  8 11  1  0  0  0  0
 44 45  1  0  0  0  0
 21 22  1  0  0  0  0
 18 21  1  0  0  0  0
 34 35  1  0  0  0  0
  7  8  1  0  0  0  0
 17 18  1  0  0  0  0
  3  4  1  0  0  0  0
  3  5  1  0  0  0  0
  3  6  1  0  0  0  0
 38 41  1  0  0  0  0
 38 42  1  0  0  0  0
 38 43  1  0  0  0  0
 11 14  1  0  0  0  0
 11 15  1  0  0  0  0
 11 16  1  0  0  0  0
 45 47  1  0  0  0  0
 45 48  1  0  0  0  0
 45 49  1  0  0  0  0
 22 30  1  0  0  0  0
 22 31  1  0  0  0  0
 21 28  1  0  0  0  0
 21 29  1  0  0  0  0
 35 40  1  0  0  0  0
  8 13  1  0  0  0  0
 18 27  1  0  0  0  0
 25 32  1  0  0  0  0
 25 33  1  0  0  0  0
 44 46  1  0  0  0  0
  7 12  1  0  0  0  0
 34 39  1  0  0  0  0
 17 26  1  0  0  0  0
M  END
$$$$

  -OEChem-05262214473D

 49 48  0     1  0  0  0  0  0999 V2000
   -1.9833   -0.0509   -3.3423 C   0  0  0  0  0  0  0  0  0  0  0  0
   -1.6199   -1.0613   -2.7518 O   0  0  0  0  0  0  0  0  0  0  0  0
   -3.3243   -0.0235   -3.9975 C   0  0  0  0  0  0  0  0  0  0  0  0
   -3.2886   -0.3689   -5.0432 H   0  0  0  0  0  0  0  0  0  0  0  0
   -4.0503   -0.6845   -3.4973 H   0  0  0  0  0  0  0  0  0  0  0  0
   -3.8104    0.9645   -4.0351 H   0  0  0  0  0  0  0  0  0  0  0  0
   -1.2607    1.1231   -3.4768 N   0  0  0  0  0  0  0  0  0  0  0  0
    0.0536    1.3115   -2.9213 C   0  0  2  0  0  0  0  0  0  0  0  0
    0.0266    0.8315   -1.4761 C   0  0  0  0  0  0  0  0  0  0  0  0
   -1.0065    0.7530   -0.8146 O   0  0  0  0  0  0  0  0  0  0  0  0
    0.4852    2.7674   -3.0025 C   0  0  0  0  0  0  0  0  0  0  0  0
   -1.6809    1.8924   -3.9952 H   0  0  0  0  0  0  0  0  0  0  0  0
    0.7360    0.6822   -3.5030 H   0  0  0  0  0  0  0  0  0  0  0  0
   -0.1867    3.4133   -2.4256 H   0  0  0  0  0  0  0  0  0  0  0  0
    1.4966    2.9042   -2.6056 H   0  0  0  0  0  0  0  0  0  0  0  0
    0.4754    3.1196   -4.0397 H   0  0  0  0  0  0  0  0  0  0  0  0
    1.2978    0.5411   -0.9947 N   0  0  0  0  0  0  0  0  0  0  0  0
    1.5371    0.0807    0.3489 C   0  0  2  0  0  0  0  0  0  0  0  0
    1.1014   -1.3791    0.4105 C   0  0  0  0  0  0  0  0  0  0  0  0
    1.3564   -2.1912   -0.4764 O   0  0  0  0  0  0  0  0  0  0  0  0
    0.7736    0.9095    1.3896 C   0  0  0  0  0  0  0  0  0  0  0  0
    1.2671    2.3536    1.4982 C   0  0  0  0  0  0  0  0  0  0  0  0
    0.4976    3.1824    2.5098 C   0  0  0  0  0  0  0  0  0  0  0  0
   -0.4776    2.7730    3.1329 O   0  0  0  0  0  0  0  0  0  0  0  0
    1.0016    4.4595    2.6329 N   0  0  0  0  0  0  0  0  0  0  0  0
    2.0949    0.6178   -1.6227 H   0  0  0  0  0  0  0  0  0  0  0  0
    2.6186    0.1372    0.5123 H   0  0  0  0  0  0  0  0  0  0  0  0
   -0.2922    0.9270    1.1252 H   0  0  0  0  0  0  0  0  0  0  0  0
    0.8354    0.4271    2.3733 H   0  0  0  0  0  0  0  0  0  0  0  0
    1.1419    2.8429    0.5243 H   0  0  0  0  0  0  0  0  0  0  0  0
    2.3349    2.3829    1.7421 H   0  0  0  0  0  0  0  0  0  0  0  0
    1.8013    4.7262    2.0684 H   0  0  0  0  0  0  0  0  0  0  0  0
    0.6013    5.1427    3.2679 H   0  0  0  0  0  0  0  0  0  0  0  0
    0.3531   -1.6508    1.5474 N   0  0  0  0  0  0  0  0  0  0  0  0
   -0.2013   -2.9531    1.8398 C   0  0  2  0  0  0  0  0  0  0  0  0
    0.9046   -3.9853    1.6639 C   0  0  0  0  0  0  0  0  0  0  0  0
    1.9004   -3.7900    0.9701 O   0  0  0  0  0  0  0  0  0  0  0  0
   -1.3851   -3.2657    0.9378 C   0  0  0  0  0  0  0  0  0  0  0  0
    0.1868   -0.8966    2.2071 H   0  0  0  0  0  0  0  0  0  0  0  0
   -0.5198   -2.9332    2.8877 H   0  0  0  0  0  0  0  0  0  0  0  0
   -1.0853   -3.2899   -0.1163 H   0  0  0  0  0  0  0  0  0  0  0  0
   -1.8217   -4.2403    1.1797 H   0  0  0  0  0  0  0  0  0  0  0  0
   -2.1670   -2.5060    1.0436 H   0  0  0  0  0  0  0  0  0  0  0  0
    0.6280   -5.1665    2.3381 N   0  0  0  0  0  0  0  0  0  0  0  0
    1.5181   -6.3037    2.3158 C   0  0  0  0  0  0  0  0  0  0  0  0
   -0.2124   -5.2335    2.9046 H   0  0  0  0  0  0  0  0  0  0  0  0
    1.2284   -6.9808    1.4987 H   0  0  0  0  0  0  0  0  0  0  0  0
    2.5503   -5.9582    2.1570 H   0  0  0  0  0  0  0  0  0  0  0  0
    1.4538   -6.8383    3.2750 H   0  0  0  0  0  0  0  0  0  0  0  0
  1  3  1  0  0  0  0
  1  7  1  0  0  0  0
  1  2  2  0  0  0  0
 22 23  1  0  0  0  0
 23 25  1  0  0  0  0
 23 24  2  0  0  0  0
 35 36  1  0  0  0  0
 36 44  1  0  0  0  0
 36 37  2  0  0  0  0
  8  9  1  0  0  0  0
  9 17  1  0  0  0  0
  9 10  2  0  0  0  0
 18 19  1  0  0  0  0
 19 34  1  0  0  0  0
 19 20  2  0  0  0  0
 35 38  1  0  0  0  0
  8 11  1  0  0  0  0
 44 45  1  0  0  0  0
 21 22  1  0  0  0  0
 18 21  1  0  0  0  0
 34 35  1  0  0  0  0
  7  8  1  0  0  0  0
 17 18  1  0  0  0  0
  3  4  1  0  0  0  0
  3  5  1  0  0  0  0
  3  6  1  0  0  0  0
 38 41  1  0  0  0  0
 38 42  1  0  0  0  0
 38 43  1  0  0  0  0
 11 14  1  0  0  0  0
 11 15  1  0  0  0  0
 11 16  1  0  0  0  0
 45 47  1  0  0  0  0
 45 48  1  0  0  0  0
 45 49  1  0  0  0  0
 22 30  1  0  0  0  0
 22 31  1  0  0  0  0
 21 28  1  0  0  0  0
 21 29  1  0  0  0  0
 35 40  1  0  0  0  0
  8 13  1  0  0  0  0
 18 27  1  0  0  0  0
 25 32  1  0  0  0  0
 25 33  1  0  0  0  0
 44 46  1  0  0  0  0
  7 12  1  0  0  0  0
 34 39  1  0  0  0  0
 17 26  1  0  0  0  0
M  END
$$$$

  -OEChem-05262214473D

 49 48  0     1  0  0  0  0  0999 V2000
   -1.9833   -0.0509   -3.3423 C   0  0  0  0  0  0  0  0  0  0  0  0
   -1.6199   -1.0613   -2.7518 O   0  0  0  0  0  0  0  0  0  0  0  0
   -3.3243   -0.0235   -3.9975 C   0  0  0  0  0  0  0  0  0  0  0  0
   -3.2886   -0.3689   -5.0432 H   0  0  0  0  0  0  0  0  0  0  0  0
   -4.0503   -0.6845   -3.4973 H   0  0  0  0  0  0  0  0  0  0  0  0
   -3.8104    0.9645   -4.0351 H   0  0  0  0  0  0  0  0  0  0  0  0
   -1.2607    1.1231   -3.4768 N   0  0  0  0  0  0  0  0  0  0  0  0
    0.0536    1.3115   -2.9213 C   0  0  2  0  0  0  0  0  0  0  0  0
    0.0266    0.8315   -1.4761 C   0  0  0  0  0  0  0  0  0  0  0  0
   -1.0065    0.7530   -0.8146 O   0  0  0  0  0  0  0  0  0  0  0  0
    0.4852    2.7674   -3.0025 C   0  0  0  0  0  0  0  0  0  0  0  0
   -1.6809    1.8924   -3.9952 H   0  0  0  0  0  0  0  0  0  0  0  0
    0.7360    0.6822   -3.5030 H   0  0  0  0  0  0  0  0  0  0  0  0
   -0.1867    3.4133   -2.4256 H   0  0  0  0  0  0  0  0  0  0  0  0
    1.4966    2.9042   -2.6056 H   0  0  0  0  0  0  0  0  0  0  0  0
    0.4754    3.1196   -4.0397 H   0  0  0  0  0  0  0  0  0  0  0  0
    1.2978    0.5411   -0.9947 N   0  0  0  0  0  0  0  0  0  0  0  0
    1.5371    0.0807    0.3489 C   0  0  2  0  0  0  0  0  0  0  0  0
    1.1014   -1.3791    0.4105 C   0  0  0  0  0  0  0  0  0  0  0  0
    1.5695   -2.2482   -0.3220 O   0  0  0  0  0  0  0  0  0  0  0  0
    0.7736    0.9095    1.3896 C   0  0  0  0  0  0  0  0  0  0  0  0
    1.2671    2.3536    1.4982 C   0  0  0  0  0  0  0  0  0  0  0  0
    0.4976    3.1824    2.5098 C   0  0  0  0  0  0  0  0  0  0  0  0
   -0.4776    2.7730    3.1329 O   0  0  0  0  0  0  0  0  0  0  0  0
    1.0016    4.4595    2.6329 N   0  0  0  0  0  0  0  0  0  0  0  0
    2.0949    0.6178   -1.6227 H   0  0  0  0  0  0  0  0  0  0  0  0
    2.6186    0.1372    0.5123 H   0  0  0  0  0  0  0  0  0  0  0  0
   -0.2922    0.9270    1.1252 H   0  0  0  0  0  0  0  0  0  0  0  0
    0.8354    0.4271    2.3733 H   0  0  0  0  0  0  0  0  0  0  0  0
    1.1419    2.8429    0.5243 H   0  0  0  0  0  0  0  0  0  0  0  0
    2.3349    2.3829    1.7421 H   0  0  0  0  0  0  0  0  0  0  0  0
    1.8013    4.7262    2.0684 H   0  0  0  0  0  0  0  0  0  0  0  0
    0.6013    5.1427    3.2679 H   0  0  0  0  0  0  0  0  0  0  0  0
    0.0947   -1.5823    1.3440 N   0  0  0  0  0  0  0  0  0  0  0  0
   -0.5135   -2.8705    1.5873 C   0  0  2  0  0  0  0  0  0  0  0  0
    0.6026   -3.8908    1.7688 C   0  0  0  0  0  0  0  0  0  0  0  0
    1.7392   -3.7267    1.3302 O   0  0  0  0  0  0  0  0  0  0  0  0
   -1.4360   -3.2712    0.4467 C   0  0  0  0  0  0  0  0  0  0  0  0
   -0.2310   -0.7856    1.8833 H   0  0  0  0  0  0  0  0  0  0  0  0
   -1.0822   -2.7809    2.5193 H   0  0  0  0  0  0  0  0  0  0  0  0
   -0.8840   -3.3660   -0.4956 H   0  0  0  0  0  0  0  0  0  0  0  0
   -1.9180   -4.2341    0.6457 H   0  0  0  0  0  0  0  0  0  0  0  0
   -2.2206   -2.5214    0.2982 H   0  0  0  0  0  0  0  0  0  0  0  0
    0.1687   -5.0251    2.4405 N   0  0  0  0  0  0  0  0  0  0  0  0
    1.0377   -6.1431    2.7248 C   0  0  0  0  0  0  0  0  0  0  0  0
   -0.7860   -5.0673    2.7848 H   0  0  0  0  0  0  0  0  0  0  0  0
    0.9606   -6.8833    1.9148 H   0  0  0  0  0  0  0  0  0  0  0  0
    2.0766   -5.7897    2.8008 H   0  0  0  0  0  0  0  0  0  0  0  0
    0.7380   -6.6078    3.6757 H   0  0  0  0  0  0  0  0  0  0  0  0
  1  3  1  0  0  0  0
  1  7  1  0  0  0  0
  1  2  2  0  0  0  0
 22 23  1  0  0  0  0
 23 25  1  0  0  0  0
 23 24  2  0  0  0  0
 35 36  1  0  0  0  0
 36 44  1  0  0  0  0
 36 37  2  0  0  0  0
  8  9  1  0  0  0  0
  9 17  1  0  0  0  0
  9 10  2  0  0  0  0
 18 19  1  0  0  0  0
 19 34  1  0  0  0  0
 19 20  2  0  0  0  0
 35 38  1  0  0  0  0
  8 11  1  0  0  0  0
 44 45  1  0  0  0  0
 21 22  1  0  0  0  0
 18 21  1  0  0  0  0
 34 35  1  0  0  0  0
  7  8  1  0  0  0  0
 17 18  1  0  0  0  0
  3  4  1  0  0  0  0
  3  5  1  0  0  0  0
  3  6  1  0  0  0  0
 38 41  1  0  0  0  0
 38 42  1  0  0  0  0
 38 43  1  0  0  0  0
 11 14  1  0  0  0  0
 11 15  1  0  0  0  0
 11 16  1  0  0  0  0
 45 47  1  0  0  0  0
 45 48  1  0  0  0  0
 45 49  1  0  0  0  0
 22 30  1  0  0  0  0
 22 31  1  0  0  0  0
 21 28  1  0  0  0  0
 21 29  1  0  0  0  0
 35 40  1  0  0  0  0
  8 13  1  0  0  0  0
 18 27  1  0  0  0  0
 25 32  1  0  0  0  0
 25 33  1  0  0  0  0
 44 46  1  0  0  0  0
  7 12  1  0  0  0  0
 34 39  1  0  0  0  0
 17 26  1  0  0  0  0
M  END
$$$$

  -OEChem-05262214473D

 49 48  0     1  0  0  0  0  0999 V2000
   -1.9833   -0.0509   -3.3423 C   0  0  0  0  0  0  0  0  0  0  0  0
   -1.6199   -1.0613   -2.7518 O   0  0  0  0  0  0  0  0  0  0  0  0
   -3.3243   -0.0235   -3.9975 C   0  0  0  0  0  0  0  0  0  0  0  0
   -3.2886   -0.3689   -5.0432 H   0  0  0  0  0  0  0  0  0  0  0  0
   -4.0503   -0.6845   -3.4973 H   0  0  0  0  0  0  0  0  0  0  0  0
   -3.8104    0.9645   -4.0351 H   0  0  0  0  0  0  0  0  0  0  0  0
   -1.2607    1.1231   -3.4768 N   0  0  0  0  0  0  0  0  0  0  0  0
    0.0536    1.3115   -2.9213 C   0  0  2  0  0  0  0  0  0  0  0  0
    0.0266    0.8315   -1.4761 C   0  0  0  0  0  0  0  0  0  0  0  0
   -1.0065    0.7530   -0.8146 O   0  0  0  0  0  0  0  0  0  0  0  0
    0.4852    2.7674   -3.0025 C   0  0  0  0  0  0  0  0  0  0  0  0
   -1.6809    1.8924   -3.9952 H   0  0  0  0  0  0  0  0  0  0  0  0
    0.7360    0.6822   -3.5030 H   0  0  0  0  0  0  0  0  0  0  0  0
   -0.1867    3.4133   -2.4256 H   0  0  0  0  0  0  0  0  0  0  0  0
    1.4966    2.9042   -2.6056 H   0  0  0  0  0  0  0  0  0  0  0  0
    0.4754    3.1196   -4.0397 H   0  0  0  0  0  0  0  0  0  0  0  0
    1.2978    0.5411   -0.9947 N   0  0  0  0  0  0  0  0  0  0  0  0
    1.5371    0.0807    0.3489 C   0  0  2  0  0  0  0  0  0  0  0  0
    1.1014   -1.3791    0.4105 C   0  0  0  0  0  0  0  0  0  0  0  0
    1.7376   -2.2897   -0.1158 O   0  0  0  0  0  0  0  0  0  0  0  0
    0.7736    0.9095    1.3896 C   0  0  0  0  0  0  0  0  0  0  0  0
    1.2671    2.3536    1.4982 C   0  0  0  0  0  0  0  0  0  0  0  0
    0.4976    3.1824    2.5098 C   0  0  0  0  0  0  0  0  0  0  0  0
   -0.4776    2.7730    3.1329 O   0  0  0  0  0  0  0  0  0  0  0  0
    1.0016    4.4595    2.6329 N   0  0  0  0  0  0  0  0  0  0  0  0
    2.0949    0.6178   -1.6227 H   0  0  0  0  0  0  0  0  0  0  0  0
    2.6186    0.1372    0.5123 H   0  0  0  0  0  0  0  0  0  0  0  0
   -0.2922    0.9270    1.1252 H   0  0  0  0  0  0  0  0  0  0  0  0
    0.8354    0.4271    2.3733 H   0  0  0  0  0  0  0  0  0  0  0  0
    1.1419    2.8429    0.5243 H   0  0  0  0  0  0  0  0  0  0  0  0
    2.3349    2.3829    1.7421 H   0  0  0  0  0  0  0  0  0  0  0  0
    1.8013    4.7262    2.0684 H   0  0  0  0  0  0  0  0  0  0  0  0
    0.6013    5.1427    3.2679 H   0  0  0  0  0  0  0  0  0  0  0  0
   -0.1053   -1.5338    1.0785 N   0  0  0  0  0  0  0  0  0  0  0  0
   -0.7534   -2.8127    1.2600 C   0  0  2  0  0  0  0  0  0  0  0  0
    0.2839   -3.7948    1.7882 C   0  0  0  0  0  0  0  0  0  0  0  0
    1.4936   -3.6406    1.6335 O   0  0  0  0  0  0  0  0  0  0  0  0
   -1.3635   -3.3134   -0.0399 C   0  0  0  0  0  0  0  0  0  0  0  0
   -0.5555   -0.7066    1.4589 H   0  0  0  0  0  0  0  0  0  0  0  0
   -1.5357   -2.6669    2.0128 H   0  0  0  0  0  0  0  0  0  0  0  0
   -0.5948   -3.4654   -0.8064 H   0  0  0  0  0  0  0  0  0  0  0  0
   -1.8786   -4.2686    0.1055 H   0  0  0  0  0  0  0  0  0  0  0  0
   -2.0875   -2.5920   -0.4339 H   0  0  0  0  0  0  0  0  0  0  0  0
   -0.3019   -4.8857    2.4151 N   0  0  0  0  0  0  0  0  0  0  0  0
    0.4706   -5.9627    2.9889 C   0  0  0  0  0  0  0  0  0  0  0  0
   -1.3121   -4.9217    2.5147 H   0  0  0  0  0  0  0  0  0  0  0  0
    0.5979   -6.7612    2.2431 H   0  0  0  0  0  0  0  0  0  0  0  0
    1.4578   -5.5843    3.2928 H   0  0  0  0  0  0  0  0  0  0  0  0
   -0.0552   -6.3629    3.8683 H   0  0  0  0  0  0  0  0  0  0  0  0
  1  3  1  0  0  0  0
  1  7  1  0  0  0  0
  1  2  2  0  0  0  0
 22 23  1  0  0  0  0
 23 25  1  0  0  0  0
 23 24  2  0  0  0  0
 35 36  1  0  0  0  0
 36 44  1  0  0  0  0
 36 37  2  0  0  0  0
  8  9  1  0  0  0  0
  9 17  1  0  0  0  0
  9 10  2  0  0  0  0
 18 19  1  0  0  0  0
 19 34  1  0  0  0  0
 19 20  2  0  0  0  0
 35 38  1  0  0  0  0
  8 11  1  0  0  0  0
 44 45  1  0  0  0  0
 21 22  1  0  0  0  0
 18 21  1  0  0  0  0
 34 35  1  0  0  0  0
  7  8  1  0  0  0  0
 17 18  1  0  0  0  0
  3  4  1  0  0  0  0
  3  5  1  0  0  0  0
  3  6  1  0  0  0  0
 38 41  1  0  0  0  0
 38 42  1  0  0  0  0
 38 43  1  0  0  0  0
 11 14  1  0  0  0  0
 11 15  1  0  0  0  0
 11 16  1  0  0  0  0
 45 47  1  0  0  0  0
 45 48  1  0  0  0  0
 45 49  1  0  0  0  0
 22 30  1  0  0  0  0
 22 31  1  0  0  0  0
 21 28  1  0  0  0  0
 21 29  1  0  0  0  0
 35 40  1  0  0  0  0
  8 13  1  0  0  0  0
 18 27  1  0  0  0  0
 25 32  1  0  0  0  0
 25 33  1  0  0  0  0
 44 46  1  0  0  0  0
  7 12  1  0  0  0  0
 34 39  1  0  0  0  0
 17 26  1  0  0  0  0
M  END
$$$$

  -OEChem-05262214473D

 49 48  0     1  0  0  0  0  0999 V2000
   -1.9833   -0.0509   -3.3423 C   0  0  0  0  0  0  0  0  0  0  0  0
   -1.6199   -1.0613   -2.7518 O   0  0  0  0  0  0  0  0  0  0  0  0
   -3.3243   -0.0235   -3.9975 C   0  0  0  0  0  0  0  0  0  0  0  0
   -3.2886   -0.3689   -5.0432 H   0  0  0  0  0  0  0  0  0  0  0  0
   -4.0503   -0.6845   -3.4973 H   0  0  0  0  0  0  0  0  0  0  0  0
   -3.8104    0.9645   -4.0351 H   0  0  0  0  0  0  0  0  0  0  0  0
   -1.2607    1.1231   -3.4768 N   0  0  0  0  0  0  0  0  0  0  0  0
    0.0536    1.3115   -2.9213 C   0  0  2  0  0  0  0  0  0  0  0  0
    0.0266    0.8315   -1.4761 C   0  0  0  0  0  0  0  0  0  0  0  0
   -1.0065    0.7530   -0.8146 O   0  0  0  0  0  0  0  0  0  0  0  0
    0.4852    2.7674   -3.0025 C   0  0  0  0  0  0  0  0  0  0  0  0
   -1.6809    1.8924   -3.9952 H   0  0  0  0  0  0  0  0  0  0  0  0
    0.7360    0.6822   -3.5030 H   0  0  0  0  0  0  0  0  0  0  0  0
   -0.1867    3.4133   -2.4256 H   0  0  0  0  0  0  0  0  0  0  0  0
    1.4966    2.9042   -2.6056 H   0  0  0  0  0  0  0  0  0  0  0  0
    0.4754    3.1196   -4.0397 H   0  0  0  0  0  0  0  0  0  0  0  0
    1.2978    0.5411   -0.9947 N   0  0  0  0  0  0  0  0  0  0  0  0
    1.5371    0.0807    0.3489 C   0  0  2  0  0  0  0  0  0  0  0  0
    1.1014   -1.3791    0.4105 C   0  0  0  0  0  0  0  0  0  0  0  0
    1.8493   -2.3128    0.1280 O   0  0  0  0  0  0  0  0  0  0  0  0
    0.7736    0.9095    1.3896 C   0  0  0  0  0  0  0  0  0  0  0  0
    1.2671    2.3536    1.4982 C   0  0  0  0  0  0  0  0  0  0  0  0
    0.4976    3.1824    2.5098 C   0  0  0  0  0  0  0  0  0  0  0  0
   -0.4776    2.7730    3.1329 O   0  0  0  0  0  0  0  0  0  0  0  0
    1.0016    4.4595    2.6329 N   0  0  0  0  0  0  0  0  0  0  0  0
    2.0949    0.6178   -1.6227 H   0  0  0  0  0  0  0  0  0  0  0  0
    2.6186    0.1372    0.5123 H   0  0  0  0  0  0  0  0  0  0  0  0
   -0.2922    0.9270    1.1252 H   0  0  0  0  0  0  0  0  0  0  0  0
    0.8354    0.4271    2.3733 H   0  0  0  0  0  0  0  0  0  0  0  0
    1.1419    2.8429    0.5243 H   0  0  0  0  0  0  0  0  0  0  0  0
    2.3349    2.3829    1.7421 H   0  0  0  0  0  0  0  0  0  0  0  0
    1.8013    4.7262    2.0684 H   0  0  0  0  0  0  0  0  0  0  0  0
    0.6013    5.1427    3.2679 H   0  0  0  0  0  0  0  0  0  0  0  0
   -0.2332   -1.5087    0.7688 N   0  0  0  0  0  0  0  0  0  0  0  0
   -0.9046   -2.7836    0.8801 C   0  0  2  0  0  0  0  0  0  0  0  0
   -0.0298   -3.7041    1.7209 C   0  0  0  0  0  0  0  0  0  0  0  0
    1.1803   -3.5376    1.8591 O   0  0  0  0  0  0  0  0  0  0  0  0
   -1.1724   -3.3893   -0.4889 C   0  0  0  0  0  0  0  0  0  0  0  0
   -0.7647   -0.6651    0.9626 H   0  0  0  0  0  0  0  0  0  0  0  0
   -1.8494   -2.5989    1.4028 H   0  0  0  0  0  0  0  0  0  0  0  0
   -0.2373   -3.5814   -1.0276 H   0  0  0  0  0  0  0  0  0  0  0  0
   -1.7064   -4.3415   -0.4039 H   0  0  0  0  0  0  0  0  0  0  0  0
   -1.7768   -2.7129   -1.1029 H   0  0  0  0  0  0  0  0  0  0  0  0
   -0.7516   -4.7579    2.2637 N   0  0  0  0  0  0  0  0  0  0  0  0
   -0.1444   -5.7749    3.0902 C   0  0  0  0  0  0  0  0  0  0  0  0
   -1.7549   -4.8065    2.1126 H   0  0  0  0  0  0  0  0  0  0  0  0
    0.1648   -6.6227    2.4613 H   0  0  0  0  0  0  0  0  0  0  0  0
    0.7360   -5.3559    3.5994 H   0  0  0  0  0  0  0  0  0  0  0  0
   -0.8716   -6.1205    3.8397 H   0  0  0  0  0  0  0  0  0  0  0  0
  1  3  1  0  0  0  0
  1  7  1  0  0  0  0
  1  2  2  0  0  0  0
 22 23  1  0  0  0  0
 23 25  1  0  0  0  0
 23 24  2  0  0  0  0
 35 36  1  0  0  0  0
 36 44  1  0  0  0  0
 36 37  2  0  0  0  0
  8  9  1  0  0  0  0
  9 17  1  0  0  0  0
  9 10  2  0  0  0  0
 18 19  1  0  0  0  0
 19 34  1  0  0  0  0
 19 20  2  0  0  0  0
 35 38  1  0  0  0  0
  8 11  1  0  0  0  0
 44 45  1  0  0  0  0
 21 22  1  0  0  0  0
 18 21  1  0  0  0  0
 34 35  1  0  0  0  0
  7  8  1  0  0  0  0
 17 18  1  0  0  0  0
  3  4  1  0  0  0  0
  3  5  1  0  0  0  0
  3  6  1  0  0  0  0
 38 41  1  0  0  0  0
 38 42  1  0  0  0  0
 38 43  1  0  0  0  0
 11 14  1  0  0  0  0
 11 15  1  0  0  0  0
 11 16  1  0  0  0  0
 45 47  1  0  0  0  0
 45 48  1  0  0  0  0
 45 49  1  0  0  0  0
 22 30  1  0  0  0  0
 22 31  1  0  0  0  0
 21 28  1  0  0  0  0
 21 29  1  0  0  0  0
 35 40  1  0  0  0  0
  8 13  1  0  0  0  0
 18 27  1  0  0  0  0
 25 32  1  0  0  0  0
 25 33  1  0  0  0  0
 44 46  1  0  0  0  0
  7 12  1  0  0  0  0
 34 39  1  0  0  0  0
 17 26  1  0  0  0  0
M  END
$$$$

  -OEChem-05262214473D

 49 48  0     1  0  0  0  0  0999 V2000
   -1.9833   -0.0509   -3.3423 C   0  0  0  0  0  0  0  0  0  0  0  0
   -1.6199   -1.0613   -2.7518 O   0  0  0  0  0  0  0  0  0  0  0  0
   -3.3243   -0.0235   -3.9975 C   0  0  0  0  0  0  0  0  0  0  0  0
   -3.2886   -0.3689   -5.0432 H   0  0  0  0  0  0  0  0  0  0  0  0
   -4.0503   -0.6845   -3.4973 H   0  0  0  0  0  0  0  0  0  0  0  0
   -3.8104    0.9645   -4.0351 H   0  0  0  0  0  0  0  0  0  0  0  0
   -1.2607    1.1231   -3.4768 N   0  0  0  0  0  0  0  0  0  0  0  0
    0.0536    1.3115   -2.9213 C   0  0  2  0  0  0  0  0  0  0  0  0
    0.0266    0.8315   -1.4761 C   0  0  0  0  0  0  0  0  0  0  0  0
   -1.0065    0.7530   -0.8146 O   0  0  0  0  0  0  0  0  0  0  0  0
    0.4852    2.7674   -3.0025 C   0  0  0  0  0  0  0  0  0  0  0  0
   -1.6809    1.8924   -3.9952 H   0  0  0  0  0  0  0  0  0  0  0  0
    0.7360    0.6822   -3.5030 H   0  0  0  0  0  0  0  0  0  0  0  0
   -0.1867    3.4133   -2.4256 H   0  0  0  0  0  0  0  0  0  0  0  0
    1.4966    2.9042   -2.6056 H   0  0  0  0  0  0  0  0  0  0  0  0
    0.4754    3.1196   -4.0397 H   0  0  0  0  0  0  0  0  0  0  0  0
    1.2978    0.5411   -0.9947 N   0  0  0  0  0  0  0  0  0  0  0  0
    1.5371    0.0807    0.3489 C   0  0  2  0  0  0  0  0  0  0  0  0
    1.1014   -1.3791    0.4105 C   0  0  0  0  0  0  0  0  0  0  0  0
    1.8971   -2.3159    0.3929 O   0  0  0  0  0  0  0  0  0  0  0  0
    0.7736    0.9095    1.3896 C   0  0  0  0  0  0  0  0  0  0  0  0
    1.2671    2.3536    1.4982 C   0  0  0  0  0  0  0  0  0  0  0  0
    0.4976    3.1824    2.5098 C   0  0  0  0  0  0  0  0  0  0  0  0
   -0.4776    2.7730    3.1329 O   0  0  0  0  0  0  0  0  0  0  0  0
    1.0016    4.4595    2.6329 N   0  0  0  0  0  0  0  0  0  0  0  0
    2.0949    0.6178   -1.6227 H   0  0  0  0  0  0  0  0  0  0  0  0
    2.6186    0.1372    0.5123 H   0  0  0  0  0  0  0  0  0  0  0  0
   -0.2922    0.9270    1.1252 H   0  0  0  0  0  0  0  0  0  0  0  0
    0.8354    0.4271    2.3733 H   0  0  0  0  0  0  0  0  0  0  0  0
    1.1419    2.8429    0.5243 H   0  0  0  0  0  0  0  0  0  0  0  0
    2.3349    2.3829    1.7421 H   0  0  0  0  0  0  0  0  0  0  0  0
    1.8013    4.7262    2.0684 H   0  0  0  0  0  0  0  0  0  0  0  0
    0.6013    5.1427    3.2679 H   0  0  0  0  0  0  0  0  0  0  0  0
   -0.2802   -1.5087    0.4362 N   0  0  0  0  0  0  0  0  0  0  0  0
   -0.9568   -2.7852    0.4736 C   0  0  2  0  0  0  0  0  0  0  0  0
   -0.3170   -3.6246    1.5715 C   0  0  0  0  0  0  0  0  0  0  0  0
    0.8207   -3.4247    1.9918 O   0  0  0  0  0  0  0  0  0  0  0  0
   -0.8758   -3.4939   -0.8695 C   0  0  0  0  0  0  0  0  0  0  0  0
   -0.8441   -0.6639    0.4284 H   0  0  0  0  0  0  0  0  0  0  0  0
   -2.0020   -2.5817    0.7308 H   0  0  0  0  0  0  0  0  0  0  0  0
    0.1640   -3.7061   -1.1441 H   0  0  0  0  0  0  0  0  0  0  0  0
   -1.4131   -4.4477   -0.8479 H   0  0  0  0  0  0  0  0  0  0  0  0
   -1.3096   -2.8760   -1.6631 H   0  0  0  0  0  0  0  0  0  0  0  0
   -1.1498   -4.6503    1.9965 N   0  0  0  0  0  0  0  0  0  0  0  0
   -0.7656   -5.5924    3.0217 C   0  0  0  0  0  0  0  0  0  0  0  0
   -2.0841   -4.7296    1.6060 H   0  0  0  0  0  0  0  0  0  0  0  0
   -0.3090   -6.4774    2.5545 H   0  0  0  0  0  0  0  0  0  0  0  0
   -0.0396   -5.1202    3.6999 H   0  0  0  0  0  0  0  0  0  0  0  0
   -1.6557   -5.8969    3.5918 H   0  0  0  0  0  0  0  0  0  0  0  0
  1  3  1  0  0  0  0
  1  7  1  0  0  0  0
  1  2  2  0  0  0  0
 22 23  1  0  0  0  0
 23 25  1  0  0  0  0
 23 24  2  0  0  0  0
 35 36  1  0  0  0  0
 36 44  1  0  0  0  0
 36 37  2  0  0  0  0
  8  9  1  0  0  0  0
  9 17  1  0  0  0  0
  9 10  2  0  0  0  0
 18 19  1  0  0  0  0
 19 34  1  0  0  0  0
 19 20  2  0  0  0  0
 35 38  1  0  0  0  0
  8 11  1  0  0  0  0
 44 45  1  0  0  0  0
 21 22  1  0  0  0  0
 18 21  1  0  0  0  0
 34 35  1  0  0  0  0
  7  8  1  0  0  0  0
 17 18  1  0  0  0  0
  3  4  1  0  0  0  0
  3  5  1  0  0  0  0
  3  6  1  0  0  0  0
 38 41  1  0  0  0  0
 38 42  1  0  0  0  0
 38 43  1  0  0  0  0
 11 14  1  0  0  0  0
 11 15  1  0  0  0  0
 11 16  1  0  0  0  0
 45 47  1  0  0  0  0
 45 48  1  0  0  0  0
 45 49  1  0  0  0  0
 22 30  1  0  0  0  0
 22 31  1  0  0  0  0
 21 28  1  0  0  0  0
 21 29  1  0  0  0  0
 35 40  1  0  0  0  0
  8 13  1  0  0  0  0
 18 27  1  0  0  0  0
 25 32  1  0  0  0  0
 25 33  1  0  0  0  0
 44 46  1  0  0  0  0
  7 12  1  0  0  0  0
 34 39  1  0  0  0  0
 17 26  1  0  0  0  0
M  END
$$$$

  -OEChem-05262214473D

 49 48  0     1  0  0  0  0  0999 V2000
   -1.9833   -0.0509   -3.3423 C   0  0  0  0  0  0  0  0  0  0  0  0
   -1.6199   -1.0613   -2.7518 O   0  0  0  0  0  0  0  0  0  0  0  0
   -3.3243   -0.0235   -3.9975 C   0  0  0  0  0  0  0  0  0  0  0  0
   -3.2886   -0.3689   -5.0432 H   0  0  0  0  0  0  0  0  0  0  0  0
   -4.0503   -0.6845   -3.4973 H   0  0  0  0  0  0  0  0  0  0  0  0
   -3.8104    0.9645   -4.0351 H   0  0  0  0  0  0  0  0  0  0  0  0
   -1.2607    1.1231   -3.4768 N   0  0  0  0  0  0  0  0  0  0  0  0
    0.0536    1.3115   -2.9213 C   0  0  2  0  0  0  0  0  0  0  0  0
    0.0266    0.8315   -1.4761 C   0  0  0  0  0  0  0  0  0  0  0  0
   -1.0065    0.7530   -0.8146 O   0  0  0  0  0  0  0  0  0  0  0  0
    0.4852    2.7674   -3.0025 C   0  0  0  0  0  0  0  0  0  0  0  0
   -1.6809    1.8924   -3.9952 H   0  0  0  0  0  0  0  0  0  0  0  0
    0.7360    0.6822   -3.5030 H   0  0  0  0  0  0  0  0  0  0  0  0
   -0.1867    3.4133   -2.4256 H   0  0  0  0  0  0  0  0  0  0  0  0
    1.4966    2.9042   -2.6056 H   0  0  0  0  0  0  0  0  0  0  0  0
    0.4754    3.1196   -4.0397 H   0  0  0  0  0  0  0  0  0  0  0  0
    1.2978    0.5411   -0.9947 N   0  0  0  0  0  0  0  0  0  0  0  0
    1.5371    0.0807    0.3489 C   0  0  2  0  0  0  0  0  0  0  0  0
    1.1014   -1.3791    0.4105 C   0  0  0  0  0  0  0  0  0  0  0  0
    1.8776   -2.2988    0.6609 O   0  0  0  0  0  0  0  0  0  0  0  0
    0.7736    0.9095    1.3896 C   0  0  0  0  0  0  0  0  0  0  0  0
    1.2671    2.3536    1.4982 C   0  0  0  0  0  0  0  0  0  0  0  0
    0.4976    3.1824    2.5098 C   0  0  0  0  0  0  0  0  0  0  0  0
   -0.4776    2.7730    3.1329 O   0  0  0  0  0  0  0  0  0  0  0  0
    1.0016    4.4595    2.6329 N   0  0  0  0  0  0  0  0  0  0  0  0
    2.0949    0.6178   -1.6227 H   0  0  0  0  0  0  0  0  0  0  0  0
    2.6186    0.1372    0.5123 H   0  0  0  0  0  0  0  0  0  0  0  0
   -0.2922    0.9270    1.1252 H   0  0  0  0  0  0  0  0  0  0  0  0
    0.8354    0.4271    2.3733 H   0  0  0  0  0  0  0  0  0  0  0  0
    1.1419    2.8429    0.5243 H   0  0  0  0  0  0  0  0  0  0  0  0
    2.3349    2.3829    1.7421 H   0  0  0  0  0  0  0  0  0  0  0  0
    1.8013    4.7262    2.0684 H   0  0  0  0  0  0  0  0  0  0  0  0
    0.6013    5.1427    3.2679 H   0  0  0  0  0  0  0  0  0  0  0  0
   -0.2432   -1.5337    0.1033 N   0  0  0  0  0  0  0  0  0  0  0  0
   -0.9065   -2.8173    0.0680 C   0  0  2  0  0  0  0  0  0  0  0  0
   -0.5583   -3.5620    1.3501 C   0  0  0  0  0  0  0  0  0  0  0  0
    0.4393   -3.3096    2.0226 O   0  0  0  0  0  0  0  0  0  0  0  0
   -0.4938   -3.6200   -1.1560 C   0  0  0  0  0  0  0  0  0  0  0  0
   -0.7885   -0.7031   -0.1074 H   0  0  0  0  0  0  0  0  0  0  0  0
   -1.9831   -2.6164    0.0426 H   0  0  0  0  0  0  0  0  0  0  0  0
    0.5818   -3.8310   -1.1480 H   0  0  0  0  0  0  0  0  0  0  0  0
   -1.0187   -4.5802   -1.1962 H   0  0  0  0  0  0  0  0  0  0  0  0
   -0.7178   -3.0700   -2.0764 H   0  0  0  0  0  0  0  0  0  0  0  0
   -1.4693   -4.5703    1.6318 N   0  0  0  0  0  0  0  0  0  0  0  0
   -1.3506   -5.4276    2.7881 C   0  0  0  0  0  0  0  0  0  0  0  0
   -2.2774   -4.6962    1.0294 H   0  0  0  0  0  0  0  0  0  0  0  0
   -0.7913   -6.3351    2.5164 H   0  0  0  0  0  0  0  0  0  0  0  0
   -0.8161   -4.8932    3.5873 H   0  0  0  0  0  0  0  0  0  0  0  0
   -2.3539   -5.7075    3.1415 H   0  0  0  0  0  0  0  0  0  0  0  0
  1  3  1  0  0  0  0
  1  7  1  0  0  0  0
  1  2  2  0  0  0  0
 22 23  1  0  0  0  0
 23 25  1  0  0  0  0
 23 24  2  0  0  0  0
 35 36  1  0  0  0  0
 36 44  1  0  0  0  0
 36 37  2  0  0  0  0
  8  9  1  0  0  0  0
  9 17  1  0  0  0  0
  9 10  2  0  0  0  0
 18 19  1  0  0  0  0
 19 34  1  0  0  0  0
 19 20  2  0  0  0  0
 35 38  1  0  0  0  0
  8 11  1  0  0  0  0
 44 45  1  0  0  0  0
 21 22  1  0  0  0  0
 18 21  1  0  0  0  0
 34 35  1  0  0  0  0
  7  8  1  0  0  0  0
 17 18  1  0  0  0  0
  3  4  1  0  0  0  0
  3  5  1  0  0  0  0
  3  6  1  0  0  0  0
 38 41  1  0  0  0  0
 38 42  1  0  0  0  0
 38 43  1  0  0  0  0
 11 14  1  0  0  0  0
 11 15  1  0  0  0  0
 11 16  1  0  0  0  0
 45 47  1  0  0  0  0
 45 48  1  0  0  0  0
 45 49  1  0  0  0  0
 22 30  1  0  0  0  0
 22 31  1  0  0  0  0
 21 28  1  0  0  0  0
 21 29  1  0  0  0  0
 35 40  1  0  0  0  0
  8 13  1  0  0  0  0
 18 27  1  0  0  0  0
 25 32  1  0  0  0  0
 25 33  1  0  0  0  0
 44 46  1  0  0  0  0
  7 12  1  0  0  0  0
 34 39  1  0  0  0  0
 17 26  1  0  0  0  0
M  END
$$$$

  -OEChem-05262214473D

 49 48  0     1  0  0  0  0  0999 V2000
   -1.9833   -0.0509   -3.3423 C   0  0  0  0  0  0  0  0  0  0  0  0
   -1.6199   -1.0613   -2.7518 O   0  0  0  0  0  0  0  0  0  0  0  0
   -3.3243   -0.0235   -3.9975 C   0  0  0  0  0  0  0  0  0  0  0  0
   -3.2886   -0.3689   -5.0432 H   0  0  0  0  0  0  0  0  0  0  0  0
   -4.0503   -0.6845   -3.4973 H   0  0  0  0  0  0  0  0  0  0  0  0
   -3.8104    0.9645   -4.0351 H   0  0  0  0  0  0  0  0  0  0  0  0
   -1.2607    1.1231   -3.4768 N   0  0  0  0  0  0  0  0  0  0  0  0
    0.0536    1.3115   -2.9213 C   0  0  2  0  0  0  0  0  0  0  0  0
    0.0266    0.8315   -1.4761 C   0  0  0  0  0  0  0  0  0  0  0  0
   -1.0065    0.7530   -0.8146 O   0  0  0  0  0  0  0  0  0  0  0  0
    0.4852    2.7674   -3.0025 C   0  0  0  0  0  0  0  0  0  0  0  0
   -1.6809    1.8924   -3.9952 H   0  0  0  0  0  0  0  0  0  0  0  0
    0.7360    0.6822   -3.5030 H   0  0  0  0  0  0  0  0  0  0  0  0
   -0.1867    3.4133   -2.4256 H   0  0  0  0  0  0  0  0  0  0  0  0
    1.4966    2.9042   -2.6056 H   0  0  0  0  0  0  0  0  0  0  0  0
    0.4754    3.1196   -4.0397 H   0  0  0  0  0  0  0  0  0  0  0  0
    1.2978    0.5411   -0.9947 N   0  0  0  0  0  0  0  0  0  0  0  0
    1.5371    0.0807    0.3489 C   0  0  2  0  0  0  0  0  0  0  0  0
    1.1014   -1.3791    0.4105 C   0  0  0  0  0  0  0  0  0  0  0  0
    1.7922   -2.2626    0.9136 O   0  0  0  0  0  0  0  0  0  0  0  0
    0.7736    0.9095    1.3896 C   0  0  0  0  0  0  0  0  0  0  0  0
    1.2671    2.3536    1.4982 C   0  0  0  0  0  0  0  0  0  0  0  0
    0.4976    3.1824    2.5098 C   0  0  0  0  0  0  0  0  0  0  0  0
   -0.4776    2.7730    3.1329 O   0  0  0  0  0  0  0  0  0  0  0  0
    1.0016    4.4595    2.6329 N   0  0  0  0  0  0  0  0  0  0  0  0
    2.0949    0.6178   -1.6227 H   0  0  0  0  0  0  0  0  0  0  0  0
    2.6186    0.1372    0.5123 H   0  0  0  0  0  0  0  0  0  0  0  0
   -0.2922    0.9270    1.1252 H   0  0  0  0  0  0  0  0  0  0  0  0
    0.8354    0.4271    2.3733 H   0  0  0  0  0  0  0  0  0  0  0  0
    1.1419    2.8429    0.5243 H   0  0  0  0  0  0  0  0  0  0  0  0
    2.3349    2.3829    1.7421 H   0  0  0  0  0  0  0  0  0  0  0  0
    1.8013    4.7262    2.0684 H   0  0  0  0  0  0  0  0  0  0  0  0
    0.6013    5.1427    3.2679 H   0  0  0  0  0  0  0  0  0  0  0  0
   -0.1247   -1.5822   -0.2073 N   0  0  0  0  0  0  0  0  0  0  0  0
   -0.7570   -2.8778   -0.3089 C   0  0  2  0  0  0  0  0  0  0  0  0
   -0.7371   -3.5203    1.0718 C   0  0  0  0  0  0  0  0  0  0  0  0
    0.0621   -3.2001    1.9492 O   0  0  0  0  0  0  0  0  0  0  0  0
   -0.0526   -3.7589   -1.3287 C   0  0  0  0  0  0  0  0  0  0  0  0
   -0.6016   -0.7800   -0.6083 H   0  0  0  0  0  0  0  0  0  0  0  0
   -1.7939   -2.7006   -0.6149 H   0  0  0  0  0  0  0  0  0  0  0  0
    0.9876   -3.9475   -1.0390 H   0  0  0  0  0  0  0  0  0  0  0  0
   -0.5499   -4.7297   -1.4251 H   0  0  0  0  0  0  0  0  0  0  0  0
   -0.0418   -3.2818   -2.3146 H   0  0  0  0  0  0  0  0  0  0  0  0
   -1.6884   -4.5233    1.1945 N   0  0  0  0  0  0  0  0  0  0  0  0
   -1.8594   -5.2919    2.4053 C   0  0  0  0  0  0  0  0  0  0  0  0
   -2.3216   -4.7087    0.4221 H   0  0  0  0  0  0  0  0  0  0  0  0
   -1.2492   -6.2054    2.3496 H   0  0  0  0  0  0  0  0  0  0  0  0
   -1.5407   -4.6904    3.2693 H   0  0  0  0  0  0  0  0  0  0  0  0
   -2.9188   -5.5652    2.5195 H   0  0  0  0  0  0  0  0  0  0  0  0
  1  3  1  0  0  0  0
  1  7  1  0  0  0  0
  1  2  2  0  0  0  0
 22 23  1  0  0  0  0
 23 25  1  0  0  0  0
 23 24  2  0  0  0  0
 35 36  1  0  0  0  0
 36 44  1  0  0  0  0
 36 37  2  0  0  0  0
  8  9  1  0  0  0  0
  9 17  1  0  0  0  0
  9 10  2  0  0  0  0
 18 19  1  0  0  0  0
 19 34  1  0  0  0  0
 19 20  2  0  0  0  0
 35 38  1  0  0  0  0
  8 11  1  0  0  0  0
 44 45  1  0  0  0  0
 21 22  1  0  0  0  0
 18 21  1  0  0  0  0
 34 35  1  0  0  0  0
  7  8  1  0  0  0  0
 17 18  1  0  0  0  0
  3  4  1  0  0  0  0
  3  5  1  0  0  0  0
  3  6  1  0  0  0  0
 38 41  1  0  0  0  0
 38 42  1  0  0  0  0
 38 43  1  0  0  0  0
 11 14  1  0  0  0  0
 11 15  1  0  0  0  0
 11 16  1  0  0  0  0
 45 47  1  0  0  0  0
 45 48  1  0  0  0  0
 45 49  1  0  0  0  0
 22 30  1  0  0  0  0
 22 31  1  0  0  0  0
 21 28  1  0  0  0  0
 21 29  1  0  0  0  0
 35 40  1  0  0  0  0
  8 13  1  0  0  0  0
 18 27  1  0  0  0  0
 25 32  1  0  0  0  0
 25 33  1  0  0  0  0
 44 46  1  0  0  0  0
  7 12  1  0  0  0  0
 34 39  1  0  0  0  0
 17 26  1  0  0  0  0
M  END
$$$$

  -OEChem-05262214473D

 49 48  0     1  0  0  0  0  0999 V2000
   -1.9833   -0.0509   -3.3423 C   0  0  0  0  0  0  0  0  0  0  0  0
   -1.6199   -1.0613   -2.7518 O   0  0  0  0  0  0  0  0  0  0  0  0
   -3.3243   -0.0235   -3.9975 C   0  0  0  0  0  0  0  0  0  0  0  0
   -3.2886   -0.3689   -5.0432 H   0  0  0  0  0  0  0  0  0  0  0  0
   -4.0503   -0.6845   -3.4973 H   0  0  0  0  0  0  0  0  0  0  0  0
   -3.8104    0.9645   -4.0351 H   0  0  0  0  0  0  0  0  0  0  0  0
   -1.2607    1.1231   -3.4768 N   0  0  0  0  0  0  0  0  0  0  0  0
    0.0536    1.3115   -2.9213 C   0  0  2  0  0  0  0  0  0  0  0  0
    0.0266    0.8315   -1.4761 C   0  0  0  0  0  0  0  0  0  0  0  0
   -1.0065    0.7530   -0.8146 O   0  0  0  0  0  0  0  0  0  0  0  0
    0.4852    2.7674   -3.0025 C   0  0  0  0  0  0  0  0  0  0  0  0
   -1.6809    1.8924   -3.9952 H   0  0  0  0  0  0  0  0  0  0  0  0
    0.7360    0.6822   -3.5030 H   0  0  0  0  0  0  0  0  0  0  0  0
   -0.1867    3.4133   -2.4256 H   0  0  0  0  0  0  0  0  0  0  0  0
    1.4966    2.9042   -2.6056 H   0  0  0  0  0  0  0  0  0  0  0  0
    0.4754    3.1196   -4.0397 H   0  0  0  0  0  0  0  0  0  0  0  0
    1.2978    0.5411   -0.9947 N   0  0  0  0  0  0  0  0  0  0  0  0
    1.5371    0.0807    0.3489 C   0  0  2  0  0  0  0  0  0  0  0  0
    1.1014   -1.3791    0.4105 C   0  0  0  0  0  0  0  0  0  0  0  0
    1.6467   -2.2099    1.1339 O   0  0  0  0  0  0  0  0  0  0  0  0
    0.7736    0.9095    1.3896 C   0  0  0  0  0  0  0  0  0  0  0  0
    1.2671    2.3536    1.4982 C   0  0  0  0  0  0  0  0  0  0  0  0
    0.4976    3.1824    2.5098 C   0  0  0  0  0  0  0  0  0  0  0  0
   -0.4776    2.7730    3.1329 O   0  0  0  0  0  0  0  0  0  0  0  0
    1.0016    4.4595    2.6329 N   0  0  0  0  0  0  0  0  0  0  0  0
    2.0949    0.6178   -1.6227 H   0  0  0  0  0  0  0  0  0  0  0  0
    2.6186    0.1372    0.5123 H   0  0  0  0  0  0  0  0  0  0  0  0
   -0.2922    0.9270    1.1252 H   0  0  0  0  0  0  0  0  0  0  0  0
    0.8354    0.4271    2.3733 H   0  0  0  0  0  0  0  0  0  0  0  0
    1.1419    2.8429    0.5243 H   0  0  0  0  0  0  0  0  0  0  0  0
    2.3349    2.3829    1.7421 H   0  0  0  0  0  0  0  0  0  0  0  0
    1.8013    4.7262    2.0684 H   0  0  0  0  0  0  0  0  0  0  0  0
    0.6013    5.1427    3.2679 H   0  0  0  0  0  0  0  0  0  0  0  0
    0.0672   -1.6507   -0.4744 N   0  0  0  0  0  0  0  0  0  0  0  0
   -0.5187   -2.9625   -0.6314 C   0  0  2  0  0  0  0  0  0  0  0  0
   -0.8413   -3.5026    0.7556 C   0  0  0  0  0  0  0  0  0  0  0  0
   -0.2853   -3.1037    1.7768 O   0  0  0  0  0  0  0  0  0  0  0  0
    0.4179   -3.9013   -1.3759 C   0  0  0  0  0  0  0  0  0  0  0  0
   -0.2961   -0.8894   -1.0400 H   0  0  0  0  0  0  0  0  0  0  0  0
   -1.4473   -2.8286   -1.1969 H   0  0  0  0  0  0  0  0  0  0  0  0
    1.3538   -4.0478   -0.8245 H   0  0  0  0  0  0  0  0  0  0  0  0
   -0.0389   -4.8862   -1.5191 H   0  0  0  0  0  0  0  0  0  0  0  0
    0.6725   -3.4970   -2.3615 H   0  0  0  0  0  0  0  0  0  0  0  0
   -1.7922   -4.5126    0.7142 N   0  0  0  0  0  0  0  0  0  0  0  0
   -2.2574   -5.1944    1.8994 C   0  0  0  0  0  0  0  0  0  0  0  0
   -2.2136   -4.7660   -0.1745 H   0  0  0  0  0  0  0  0  0  0  0  0
   -1.6515   -6.0974    2.0653 H   0  0  0  0  0  0  0  0  0  0  0  0
   -2.1638   -4.5255    2.7676 H   0  0  0  0  0  0  0  0  0  0  0  0
   -3.3117   -5.4796    1.7682 H   0  0  0  0  0  0  0  0  0  0  0  0
  1  3  1  0  0  0  0
  1  7  1  0  0  0  0
  1  2  2  0  0  0  0
 22 23  1  0  0  0  0
 23 25  1  0  0  0  0
 23 24  2  0  0  0  0
 35 36  1  0  0  0  0
 36 44  1  0  0  0  0
 36 37  2  0  0  0  0
  8  9  1  0  0  0  0
  9 17  1  0  0  0  0
  9 10  2  0  0  0  0
 18 19  1  0  0  0  0
 19 34  1  0  0  0  0
 19 20  2  0  0  0  0
 35 38  1  0  0  0  0
  8 11  1  0  0  0  0
 44 45  1  0  0  0  0
 21 22  1  0  0  0  0
 18 21  1  0  0  0  0
 34 35  1  0  0  0  0
  7  8  1  0  0  0  0
 17 18  1  0  0  0  0
  3  4  1  0  0  0  0
  3  5  1  0  0  0  0
  3  6  1  0  0  0  0
 38 41  1  0  0  0  0
 38 42  1  0  0  0  0
 38 43  1  0  0  0  0
 11 14  1  0  0  0  0
 11 15  1  0  0  0  0
 11 16  1  0  0  0  0
 45 47  1  0  0  0  0
 45 48  1  0  0  0  0
 45 49  1  0  0  0  0
 22 30  1  0  0  0  0
 22 31  1  0  0  0  0
 21 28  1  0  0  0  0
 21 29  1  0  0  0  0
 35 40  1  0  0  0  0
  8 13  1  0  0  0  0
 18 27  1  0  0  0  0
 25 32  1  0  0  0  0
 25 33  1  0  0  0  0
 44 46  1  0  0  0  0
  7 12  1  0  0  0  0
 34 39  1  0  0  0  0
 17 26  1  0  0  0  0
M  END
$$$$

  -OEChem-05262214473D

 49 48  0     1  0  0  0  0  0999 V2000
   -1.9833   -0.0509   -3.3423 C   0  0  0  0  0  0  0  0  0  0  0  0
   -1.6199   -1.0613   -2.7518 O   0  0  0  0  0  0  0  0  0  0  0  0
   -3.3243   -0.0235   -3.9975 C   0  0  0  0  0  0  0  0  0  0  0  0
   -3.2886   -0.3689   -5.0432 H   0  0  0  0  0  0  0  0  0  0  0  0
   -4.0503   -0.6845   -3.4973 H   0  0  0  0  0  0  0  0  0  0  0  0
   -3.8104    0.9645   -4.0351 H   0  0  0  0  0  0  0  0  0  0  0  0
   -1.2607    1.1231   -3.4768 N   0  0  0  0  0  0  0  0  0  0  0  0
    0.0536    1.3115   -2.9213 C   0  0  2  0  0  0  0  0  0  0  0  0
    0.0266    0.8315   -1.4761 C   0  0  0  0  0  0  0  0  0  0  0  0
   -1.0065    0.7530   -0.8146 O   0  0  0  0  0  0  0  0  0  0  0  0
    0.4852    2.7674   -3.0025 C   0  0  0  0  0  0  0  0  0  0  0  0
   -1.6809    1.8924   -3.9952 H   0  0  0  0  0  0  0  0  0  0  0  0
    0.7360    0.6822   -3.5030 H   0  0  0  0  0  0  0  0  0  0  0  0
   -0.1867    3.4133   -2.4256 H   0  0  0  0  0  0  0  0  0  0  0  0
    1.4966    2.9042   -2.6056 H   0  0  0  0  0  0  0  0  0  0  0  0
    0.4754    3.1196   -4.0397 H   0  0  0  0  0  0  0  0  0  0  0  0
    1.2978    0.5411   -0.9947 N   0  0  0  0  0  0  0  0  0  0  0  0
    1.5371    0.0807    0.3489 C   0  0  2  0  0  0  0  0  0  0  0  0
    1.1014   -1.3791    0.4105 C   0  0  0  0  0  0  0  0  0  0  0  0
    1.4510   -2.1442    1.3068 O   0  0  0  0  0  0  0  0  0  0  0  0
    0.7736    0.9095    1.3896 C   0  0  0  0  0  0  0  0  0  0  0  0
    1.2671    2.3536    1.4982 C   0  0  0  0  0  0  0  0  0  0  0  0
    0.4976    3.1824    2.5098 C   0  0  0  0  0  0  0  0  0  0  0  0
   -0.4776    2.7730    3.1329 O   0  0  0  0  0  0  0  0  0  0  0  0
    1.0016    4.4595    2.6329 N   0  0  0  0  0  0  0  0  0  0  0  0
    2.0949    0.6178   -1.6227 H   0  0  0  0  0  0  0  0  0  0  0  0
    2.6186    0.1372    0.5123 H   0  0  0  0  0  0  0  0  0  0  0  0
   -0.2922    0.9270    1.1252 H   0  0  0  0  0  0  0  0  0  0  0  0
    0.8354    0.4271    2.3733 H   0  0  0  0  0  0  0  0  0  0  0  0
    1.1419    2.8429    0.5243 H   0  0  0  0  0  0  0  0  0  0  0  0
    2.3349    2.3829    1.7421 H   0  0  0  0  0  0  0  0  0  0  0  0
    1.8013    4.7262    2.0684 H   0  0  0  0  0  0  0  0  0  0  0  0
    0.6013    5.1427    3.2679 H   0  0  0  0  0  0  0  0  0  0  0  0
    0.3195   -1.7347   -0.6797 N   0  0  0  0  0  0  0  0  0  0  0  0
   -0.2076   -3.0658   -0.8776 C   0  0  2  0  0  0  0  0  0  0  0  0
   -0.8638   -3.5099    0.4231 C   0  0  0  0  0  0  0  0  0  0  0  0
   -0.5791   -3.0269    1.5171 O   0  0  0  0  0  0  0  0  0  0  0  0
    0.8855   -4.0375   -1.2944 C   0  0  0  0  0  0  0  0  0  0  0  0
    0.1071   -1.0238   -1.3733 H   0  0  0  0  0  0  0  0  0  0  0  0
   -0.9669   -2.9916   -1.6637 H   0  0  0  0  0  0  0  0  0  0  0  0
    1.6555   -4.1249   -0.5192 H   0  0  0  0  0  0  0  0  0  0  0  0
    0.4796   -5.0389   -1.4715 H   0  0  0  0  0  0  0  0  0  0  0  0
    1.3763   -3.7008   -2.2139 H   0  0  0  0  0  0  0  0  0  0  0  0
   -1.7735   -4.5389    0.2239 N   0  0  0  0  0  0  0  0  0  0  0  0
   -2.5176   -5.1418    1.3049 C   0  0  0  0  0  0  0  0  0  0  0  0
   -1.9609   -4.8645   -0.7199 H   0  0  0  0  0  0  0  0  0  0  0  0
   -1.9708   -6.0182    1.6831 H   0  0  0  0  0  0  0  0  0  0  0  0
   -2.6432   -4.4099    2.1164 H   0  0  0  0  0  0  0  0  0  0  0  0
   -3.5060   -5.4565    0.9388 H   0  0  0  0  0  0  0  0  0  0  0  0
  1  3  1  0  0  0  0
  1  7  1  0  0  0  0
  1  2  2  0  0  0  0
 22 23  1  0  0  0  0
 23 25  1  0  0  0  0
 23 24  2  0  0  0  0
 35 36  1  0  0  0  0
 36 44  1  0  0  0  0
 36 37  2  0  0  0  0
  8  9  1  0  0  0  0
  9 17  1  0  0  0  0
  9 10  2  0  0  0  0
 18 19  1  0  0  0  0
 19 34  1  0  0  0  0
 19 20  2  0  0  0  0
 35 38  1  0  0  0  0
  8 11  1  0  0  0  0
 44 45  1  0  0  0  0
 21 22  1  0  0  0  0
 18 21  1  0  0  0  0
 34 35  1  0  0  0  0
  7  8  1  0  0  0  0
 17 18  1  0  0  0  0
  3  4  1  0  0  0  0
  3  5  1  0  0  0  0
  3  6  1  0  0  0  0
 38 41  1  0  0  0  0
 38 42  1  0  0  0  0
 38 43  1  0  0  0  0
 11 14  1  0  0  0  0
 11 15  1  0  0  0  0
 11 16  1  0  0  0  0
 45 47  1  0  0  0  0
 45 48  1  0  0  0  0
 45 49  1  0  0  0  0
 22 30  1  0  0  0  0
 22 31  1  0  0  0  0
 21 28  1  0  0  0  0
 21 29  1  0  0  0  0
 35 40  1  0  0  0  0
  8 13  1  0  0  0  0
 18 27  1  0  0  0  0
 25 32  1  0  0  0  0
 25 33  1  0  0  0  0
 44 46  1  0  0  0  0
  7 12  1  0  0  0  0
 34 39  1  0  0  0  0
 17 26  1  0  0  0  0
M  END
$$$$

  -OEChem-05262214473D

 49 48  0     1  0  0  0  0  0999 V2000
   -1.9833   -0.0509   -3.3423 C   0  0  0  0  0  0  0  0  0  0  0  0
   -1.6199   -1.0613   -2.7518 O   0  0  0  0  0  0  0  0  0  0  0  0
   -3.3243   -0.0235   -3.9975 C   0  0  0  0  0  0  0  0  0  0  0  0
   -3.2886   -0.3689   -5.0432 H   0  0  0  0  0  0  0  0  0  0  0  0
   -4.0503   -0.6845   -3.4973 H   0  0  0  0  0  0  0  0  0  0  0  0
   -3.8104    0.9645   -4.0351 H   0  0  0  0  0  0  0  0  0  0  0  0
   -1.2607    1.1231   -3.4768 N   0  0  0  0  0  0  0  0  0  0  0  0
    0.0536    1.3115   -2.9213 C   0  0  2  0  0  0  0  0  0  0  0  0
    0.0266    0.8315   -1.4761 C   0  0  0  0  0  0  0  0  0  0  0  0
   -1.0065    0.7530   -0.8146 O   0  0  0  0  0  0  0  0  0  0  0  0
    0.4852    2.7674   -3.0025 C   0  0  0  0  0  0  0  0  0  0  0  0
   -1.6809    1.8924   -3.9952 H   0  0  0  0  0  0  0  0  0  0  0  0
    0.7360    0.6822   -3.5030 H   0  0  0  0  0  0  0  0  0  0  0  0
   -0.1867    3.4133   -2.4256 H   0  0  0  0  0  0  0  0  0  0  0  0
    1.4966    2.9042   -2.6056 H   0  0  0  0  0  0  0  0  0  0  0  0
    0.4754    3.1196   -4.0397 H   0  0  0  0  0  0  0  0  0  0  0  0
    1.2978    0.5411   -0.9947 N   0  0  0  0  0  0  0  0  0  0  0  0
    1.5371    0.0807    0.3489 C   0  0  2  0  0  0  0  0  0  0  0  0
    1.1014   -1.3791    0.4105 C   0  0  0  0  0  0  0  0  0  0  0  0
    1.2184   -2.0700    1.4203 O   0  0  0  0  0  0  0  0  0  0  0  0
    0.7736    0.9095    1.3896 C   0  0  0  0  0  0  0  0  0  0  0  0
    1.2671    2.3536    1.4982 C   0  0  0  0  0  0  0  0  0  0  0  0
    0.4976    3.1824    2.5098 C   0  0  0  0  0  0  0  0  0  0  0  0
   -0.4776    2.7730    3.1329 O   0  0  0  0  0  0  0  0  0  0  0  0
    1.0016    4.4595    2.6329 N   0  0  0  0  0  0  0  0  0  0  0  0
    2.0949    0.6178   -1.6227 H   0  0  0  0  0  0  0  0  0  0  0  0
    2.6186    0.1372    0.5123 H   0  0  0  0  0  0  0  0  0  0  0  0
   -0.2922    0.9270    1.1252 H   0  0  0  0  0  0  0  0  0  0  0  0
    0.8354    0.4271    2.3733 H   0  0  0  0  0  0  0  0  0  0  0  0
    1.1419    2.8429    0.5243 H   0  0  0  0  0  0  0  0  0  0  0  0
    2.3349    2.3829    1.7421 H   0  0  0  0  0  0  0  0  0  0  0  0
    1.8013    4.7262    2.0684 H   0  0  0  0  0  0  0  0  0  0  0  0
    0.6013    5.1427    3.2679 H   0  0  0  0  0  0  0  0  0  0  0  0
    0.6150   -1.8283   -0.8093 N   0  0  0  0  0  0  0  0  0  0  0  0
    0.1549   -3.1804   -1.0307 C   0  0  2  0  0  0  0  0  0  0  0  0
   -0.8030   -3.5418    0.0968 C   0  0  0  0  0  0  0  0  0  0  0  0
   -0.7993   -2.9751    1.1877 O   0  0  0  0  0  0  0  0  0  0  0  0
    1.3183   -4.1580   -1.0897 C   0  0  0  0  0  0  0  0  0  0  0  0
    0.5805   -1.1740   -1.5854 H   0  0  0  0  0  0  0  0  0  0  0  0
   -0.3856   -3.1786   -1.9835 H   0  0  0  0  0  0  0  0  0  0  0  0
    1.8719   -4.1737   -0.1438 H   0  0  0  0  0  0  0  0  0  0  0  0
    0.9703   -5.1776   -1.2859 H   0  0  0  0  0  0  0  0  0  0  0  0
    2.0217   -3.8794   -1.8818 H   0  0  0  0  0  0  0  0  0  0  0  0
   -1.6337   -4.6003   -0.2432 N   0  0  0  0  0  0  0  0  0  0  0  0
   -2.6221   -5.1377    0.6624 C   0  0  0  0  0  0  0  0  0  0  0  0
   -1.5806   -4.9972   -1.1767 H   0  0  0  0  0  0  0  0  0  0  0  0
   -2.1853   -5.9733    1.2289 H   0  0  0  0  0  0  0  0  0  0  0  0
   -2.9460   -4.3514    1.3601 H   0  0  0  0  0  0  0  0  0  0  0  0
   -3.4884   -5.4977    0.0878 H   0  0  0  0  0  0  0  0  0  0  0  0
  1  3  1  0  0  0  0
  1  7  1  0  0  0  0
  1  2  2  0  0  0  0
 22 23  1  0  0  0  0
 23 25  1  0  0  0  0
 23 24  2  0  0  0  0
 35 36  1  0  0  0  0
 36 44  1  0  0  0  0
 36 37  2  0  0  0  0
  8  9  1  0  0  0  0
  9 17  1  0  0  0  0
  9 10  2  0  0  0  0
 18 19  1  0  0  0  0
 19 34  1  0  0  0  0
 19 20  2  0  0  0  0
 35 38  1  0  0  0  0
  8 11  1  0  0  0  0
 44 45  1  0  0  0  0
 21 22  1  0  0  0  0
 18 21  1  0  0  0  0
 34 35  1  0  0  0  0
  7  8  1  0  0  0  0
 17 18  1  0  0  0  0
  3  4  1  0  0  0  0
  3  5  1  0  0  0  0
  3  6  1  0  0  0  0
 38 41  1  0  0  0  0
 38 42  1  0  0  0  0
 38 43  1  0  0  0  0
 11 14  1  0  0  0  0
 11 15  1  0  0  0  0
 11 16  1  0  0  0  0
 45 47  1  0  0  0  0
 45 48  1  0  0  0  0
 45 49  1  0  0  0  0
 22 30  1  0  0  0  0
 22 31  1  0  0  0  0
 21 28  1  0  0  0  0
 21 29  1  0  0  0  0
 35 40  1  0  0  0  0
  8 13  1  0  0  0  0
 18 27  1  0  0  0  0
 25 32  1  0  0  0  0
 25 33  1  0  0  0  0
 44 46  1  0  0  0  0
  7 12  1  0  0  0  0
 34 39  1  0  0  0  0
 17 26  1  0  0  0  0
M  END
$$$$

  -OEChem-05262214473D

 49 48  0     1  0  0  0  0  0999 V2000
   -1.9833   -0.0509   -3.3423 C   0  0  0  0  0  0  0  0  0  0  0  0
   -1.6199   -1.0613   -2.7518 O   0  0  0  0  0  0  0  0  0  0  0  0
   -3.3243   -0.0235   -3.9975 C   0  0  0  0  0  0  0  0  0  0  0  0
   -3.2886   -0.3689   -5.0432 H   0  0  0  0  0  0  0  0  0  0  0  0
   -4.0503   -0.6845   -3.4973 H   0  0  0  0  0  0  0  0  0  0  0  0
   -3.8104    0.9645   -4.0351 H   0  0  0  0  0  0  0  0  0  0  0  0
   -1.2607    1.1231   -3.4768 N   0  0  0  0  0  0  0  0  0  0  0  0
    0.0536    1.3115   -2.9213 C   0  0  2  0  0  0  0  0  0  0  0  0
    0.0266    0.8315   -1.4761 C   0  0  0  0  0  0  0  0  0  0  0  0
   -1.0065    0.7530   -0.8146 O   0  0  0  0  0  0  0  0  0  0  0  0
    0.4852    2.7674   -3.0025 C   0  0  0  0  0  0  0  0  0  0  0  0
   -1.6809    1.8924   -3.9952 H   0  0  0  0  0  0  0  0  0  0  0  0
    0.7360    0.6822   -3.5030 H   0  0  0  0  0  0  0  0  0  0  0  0
   -0.1867    3.4133   -2.4256 H   0  0  0  0  0  0  0  0  0  0  0  0
    1.4966    2.9042   -2.6056 H   0  0  0  0  0  0  0  0  0  0  0  0
    0.4754    3.1196   -4.0397 H   0  0  0  0  0  0  0  0  0  0  0  0
    1.2978    0.5411   -0.9947 N   0  0  0  0  0  0  0  0  0  0  0  0
    1.5371    0.0807    0.3489 C   0  0  2  0  0  0  0  0  0  0  0  0
    1.1014   -1.3791    0.4105 C   0  0  0  0  0  0  0  0  0  0  0  0
    0.9649   -1.9924    1.4669 O   0  0  0  0  0  0  0  0  0  0  0  0
    0.7736    0.9095    1.3896 C   0  0  0  0  0  0  0  0  0  0  0  0
    1.2671    2.3536    1.4982 C   0  0  0  0  0  0  0  0  0  0  0  0
    0.4976    3.1824    2.5098 C   0  0  0  0  0  0  0  0  0  0  0  0
   -0.4776    2.7730    3.1329 O   0  0  0  0  0  0  0  0  0  0  0  0
    1.0016    4.4595    2.6329 N   0  0  0  0  0  0  0  0  0  0  0  0
    2.0949    0.6178   -1.6227 H   0  0  0  0  0  0  0  0  0  0  0  0
    2.6186    0.1372    0.5123 H   0  0  0  0  0  0  0  0  0  0  0  0
   -0.2922    0.9270    1.1252 H   0  0  0  0  0  0  0  0  0  0  0  0
    0.8354    0.4271    2.3733 H   0  0  0  0  0  0  0  0  0  0  0  0
    1.1419    2.8429    0.5243 H   0  0  0  0  0  0  0  0  0  0  0  0
    2.3349    2.3829    1.7421 H   0  0  0  0  0  0  0  0  0  0  0  0
    1.8013    4.7262    2.0684 H   0  0  0  0  0  0  0  0  0  0  0  0
    0.6013    5.1427    3.2679 H   0  0  0  0  0  0  0  0  0  0  0  0
    0.9334   -1.9253   -0.8544 N   0  0  0  0  0  0  0  0  0  0  0  0
    0.5443   -3.2987   -1.0802 C   0  0  2  0  0  0  0  0  0  0  0  0
   -0.6632   -3.5961   -0.2009 C   0  0  0  0  0  0  0  0  0  0  0  0
   -0.9309   -2.9517    0.8111 O   0  0  0  0  0  0  0  0  0  0  0  0
    1.6870   -4.2548   -0.7758 C   0  0  0  0  0  0  0  0  0  0  0  0
    1.0920   -1.3299   -1.6619 H   0  0  0  0  0  0  0  0  0  0  0  0
    0.2571   -3.3768   -2.1345 H   0  0  0  0  0  0  0  0  0  0  0  0
    1.9885   -4.1908    0.2761 H   0  0  0  0  0  0  0  0  0  0  0  0
    1.3997   -5.2926   -0.9747 H   0  0  0  0  0  0  0  0  0  0  0  0
    2.5647   -4.0207   -1.3880 H   0  0  0  0  0  0  0  0  0  0  0  0
   -1.3822   -4.6927   -0.6552 N   0  0  0  0  0  0  0  0  0  0  0  0
   -2.5639   -5.1824    0.0155 C   0  0  0  0  0  0  0  0  0  0  0  0
   -1.0986   -5.1553   -1.5139 H   0  0  0  0  0  0  0  0  0  0  0  0
   -2.2804   -5.9658    0.7337 H   0  0  0  0  0  0  0  0  0  0  0  0
   -3.0517   -4.3540    0.5501 H   0  0  0  0  0  0  0  0  0  0  0  0
   -3.2600   -5.6002   -0.7267 H   0  0  0  0  0  0  0  0  0  0  0  0
  1  3  1  0  0  0  0
  1  7  1  0  0  0  0
  1  2  2  0  0  0  0
 22 23  1  0  0  0  0
 23 25  1  0  0  0  0
 23 24  2  0  0  0  0
 35 36  1  0  0  0  0
 36 44  1  0  0  0  0
 36 37  2  0  0  0  0
  8  9  1  0  0  0  0
  9 17  1  0  0  0  0
  9 10  2  0  0  0  0
 18 19  1  0  0  0  0
 19 34  1  0  0  0  0
 19 20  2  0  0  0  0
 35 38  1  0  0  0  0
  8 11  1  0  0  0  0
 44 45  1  0  0  0  0
 21 22  1  0  0  0  0
 18 21  1  0  0  0  0
 34 35  1  0  0  0  0
  7  8  1  0  0  0  0
 17 18  1  0  0  0  0
  3  4  1  0  0  0  0
  3  5  1  0  0  0  0
  3  6  1  0  0  0  0
 38 41  1  0  0  0  0
 38 42  1  0  0  0  0
 38 43  1  0  0  0  0
 11 14  1  0  0  0  0
 11 15  1  0  0  0  0
 11 16  1  0  0  0  0
 45 47  1  0  0  0  0
 45 48  1  0  0  0  0
 45 49  1  0  0  0  0
 22 30  1  0  0  0  0
 22 31  1  0  0  0  0
 21 28  1  0  0  0  0
 21 29  1  0  0  0  0
 35 40  1  0  0  0  0
  8 13  1  0  0  0  0
 18 27  1  0  0  0  0
 25 32  1  0  0  0  0
 25 33  1  0  0  0  0
 44 46  1  0  0  0  0
  7 12  1  0  0  0  0
 34 39  1  0  0  0  0
 17 26  1  0  0  0  0
M  END
$$$$

  -OEChem-05262214473D

 49 48  0     1  0  0  0  0  0999 V2000
   -1.9833   -0.0509   -3.3423 C   0  0  0  0  0  0  0  0  0  0  0  0
   -1.6199   -1.0613   -2.7518 O   0  0  0  0  0  0  0  0  0  0  0  0
   -3.3243   -0.0235   -3.9975 C   0  0  0  0  0  0  0  0  0  0  0  0
   -3.2886   -0.3689   -5.0432 H   0  0  0  0  0  0  0  0  0  0  0  0
   -4.0503   -0.6845   -3.4973 H   0  0  0  0  0  0  0  0  0  0  0  0
   -3.8104    0.9645   -4.0351 H   0  0  0  0  0  0  0  0  0  0  0  0
   -1.2607    1.1231   -3.4768 N   0  0  0  0  0  0  0  0  0  0  0  0
    0.0536    1.3115   -2.9213 C   0  0  2  0  0  0  0  0  0  0  0  0
    0.0266    0.8315   -1.4761 C   0  0  0  0  0  0  0  0  0  0  0  0
   -1.0065    0.7530   -0.8146 O   0  0  0  0  0  0  0  0  0  0  0  0
    0.4852    2.7674   -3.0025 C   0  0  0  0  0  0  0  0  0  0  0  0
   -1.6809    1.8924   -3.9952 H   0  0  0  0  0  0  0  0  0  0  0  0
    0.7360    0.6822   -3.5030 H   0  0  0  0  0  0  0  0  0  0  0  0
   -0.1867    3.4133   -2.4256 H   0  0  0  0  0  0  0  0  0  0  0  0
    1.4966    2.9042   -2.6056 H   0  0  0  0  0  0  0  0  0  0  0  0
    0.4754    3.1196   -4.0397 H   0  0  0  0  0  0  0  0  0  0  0  0
    1.2978    0.5411   -0.9947 N   0  0  0  0  0  0  0  0  0  0  0  0
    1.5371    0.0807    0.3489 C   0  0  2  0  0  0  0  0  0  0  0  0
    1.1014   -1.3791    0.4105 C   0  0  0  0  0  0  0  0  0  0  0  0
    0.7076   -1.9166    1.4434 O   0  0  0  0  0  0  0  0  0  0  0  0
    0.7736    0.9095    1.3896 C   0  0  0  0  0  0  0  0  0  0  0  0
    1.2671    2.3536    1.4982 C   0  0  0  0  0  0  0  0  0  0  0  0
    0.4976    3.1824    2.5098 C   0  0  0  0  0  0  0  0  0  0  0  0
   -0.4776    2.7730    3.1329 O   0  0  0  0  0  0  0  0  0  0  0  0
    1.0016    4.4595    2.6329 N   0  0  0  0  0  0  0  0  0  0  0  0
    2.0949    0.6178   -1.6227 H   0  0  0  0  0  0  0  0  0  0  0  0
    2.6186    0.1372    0.5123 H   0  0  0  0  0  0  0  0  0  0  0  0
   -0.2922    0.9270    1.1252 H   0  0  0  0  0  0  0  0  0  0  0  0
    0.8354    0.4271    2.3733 H   0  0  0  0  0  0  0  0  0  0  0  0
    1.1419    2.8429    0.5243 H   0  0  0  0  0  0  0  0  0  0  0  0
    2.3349    2.3829    1.7421 H   0  0  0  0  0  0  0  0  0  0  0  0
    1.8013    4.7262    2.0684 H   0  0  0  0  0  0  0  0  0  0  0  0
    0.6013    5.1427    3.2679 H   0  0  0  0  0  0  0  0  0  0  0  0
    1.2533   -2.0190   -0.8118 N   0  0  0  0  0  0  0  0  0  0  0  0
    0.9339   -3.4126   -1.0229 C   0  0  2  0  0  0  0  0  0  0  0  0
   -0.4537   -3.6691   -0.4498 C   0  0  0  0  0  0  0  0  0  0  0  0
   -0.9650   -2.9583    0.4130 O   0  0  0  0  0  0  0  0  0  0  0  0
    1.9664   -4.3213   -0.3741 C   0  0  0  0  0  0  0  0  0  0  0  0
    1.6066   -1.4807   -1.5974 H   0  0  0  0  0  0  0  0  0  0  0  0
    0.9174   -3.5727   -2.1064 H   0  0  0  0  0  0  0  0  0  0  0  0
    1.9973   -4.1750    0.7118 H   0  0  0  0  0  0  0  0  0  0  0  0
    1.7386   -5.3762   -0.5591 H   0  0  0  0  0  0  0  0  0  0  0  0
    2.9682   -4.1149   -0.7659 H   0  0  0  0  0  0  0  0  0  0  0  0
   -1.0363   -4.8098   -0.9840 N   0  0  0  0  0  0  0  0  0  0  0  0
   -2.3469   -5.2728   -0.5917 C   0  0  0  0  0  0  0  0  0  0  0  0
   -0.5479   -5.3279   -1.7085 H   0  0  0  0  0  0  0  0  0  0  0  0
   -2.2497   -5.9961    0.2313 H   0  0  0  0  0  0  0  0  0  0  0  0
   -2.9531   -4.4176   -0.2582 H   0  0  0  0  0  0  0  0  0  0  0  0
   -2.8366   -5.7570   -1.4494 H   0  0  0  0  0  0  0  0  0  0  0  0
  1  3  1  0  0  0  0
  1  7  1  0  0  0  0
  1  2  2  0  0  0  0
 22 23  1  0  0  0  0
 23 25  1  0  0  0  0
 23 24  2  0  0  0  0
 35 36  1  0  0  0  0
 36 44  1  0  0  0  0
 36 37  2  0  0  0  0
  8  9  1  0  0  0  0
  9 17  1  0  0  0  0
  9 10  2  0  0  0  0
 18 19  1  0  0  0  0
 19 34  1  0  0  0  0
 19 20  2  0  0  0  0
 35 38  1  0  0  0  0
  8 11  1  0  0  0  0
 44 45  1  0  0  0  0
 21 22  1  0  0  0  0
 18 21  1  0  0  0  0
 34 35  1  0  0  0  0
  7  8  1  0  0  0  0
 17 18  1  0  0  0  0
  3  4  1  0  0  0  0
  3  5  1  0  0  0  0
  3  6  1  0  0  0  0
 38 41  1  0  0  0  0
 38 42  1  0  0  0  0
 38 43  1  0  0  0  0
 11 14  1  0  0  0  0
 11 15  1  0  0  0  0
 11 16  1  0  0  0  0
 45 47  1  0  0  0  0
 45 48  1  0  0  0  0
 45 49  1  0  0  0  0
 22 30  1  0  0  0  0
 22 31  1  0  0  0  0
 21 28  1  0  0  0  0
 21 29  1  0  0  0  0
 35 40  1  0  0  0  0
  8 13  1  0  0  0  0
 18 27  1  0  0  0  0
 25 32  1  0  0  0  0
 25 33  1  0  0  0  0
 44 46  1  0  0  0  0
  7 12  1  0  0  0  0
 34 39  1  0  0  0  0
 17 26  1  0  0  0  0
M  END
$$$$

  -OEChem-05262214473D

 49 48  0     1  0  0  0  0  0999 V2000
   -1.9833   -0.0509   -3.3423 C   0  0  0  0  0  0  0  0  0  0  0  0
   -1.6199   -1.0613   -2.7518 O   0  0  0  0  0  0  0  0  0  0  0  0
   -3.3243   -0.0235   -3.9975 C   0  0  0  0  0  0  0  0  0  0  0  0
   -3.2886   -0.3689   -5.0432 H   0  0  0  0  0  0  0  0  0  0  0  0
   -4.0503   -0.6845   -3.4973 H   0  0  0  0  0  0  0  0  0  0  0  0
   -3.8104    0.9645   -4.0351 H   0  0  0  0  0  0  0  0  0  0  0  0
   -1.2607    1.1231   -3.4768 N   0  0  0  0  0  0  0  0  0  0  0  0
    0.0536    1.3115   -2.9213 C   0  0  2  0  0  0  0  0  0  0  0  0
    0.0266    0.8315   -1.4761 C   0  0  0  0  0  0  0  0  0  0  0  0
   -1.0065    0.7530   -0.8146 O   0  0  0  0  0  0  0  0  0  0  0  0
    0.4852    2.7674   -3.0025 C   0  0  0  0  0  0  0  0  0  0  0  0
   -1.6809    1.8924   -3.9952 H   0  0  0  0  0  0  0  0  0  0  0  0
    0.7360    0.6822   -3.5030 H   0  0  0  0  0  0  0  0  0  0  0  0
   -0.1867    3.4133   -2.4256 H   0  0  0  0  0  0  0  0  0  0  0  0
    1.4966    2.9042   -2.6056 H   0  0  0  0  0  0  0  0  0  0  0  0
    0.4754    3.1196   -4.0397 H   0  0  0  0  0  0  0  0  0  0  0  0
    1.2978    0.5411   -0.9947 N   0  0  0  0  0  0  0  0  0  0  0  0
    1.5371    0.0807    0.3489 C   0  0  2  0  0  0  0  0  0  0  0  0
    1.1014   -1.3791    0.4105 C   0  0  0  0  0  0  0  0  0  0  0  0
    0.4642   -1.8478    1.3513 O   0  0  0  0  0  0  0  0  0  0  0  0
    0.7736    0.9095    1.3896 C   0  0  0  0  0  0  0  0  0  0  0  0
    1.2671    2.3536    1.4982 C   0  0  0  0  0  0  0  0  0  0  0  0
    0.4976    3.1824    2.5098 C   0  0  0  0  0  0  0  0  0  0  0  0
   -0.4776    2.7730    3.1329 O   0  0  0  0  0  0  0  0  0  0  0  0
    1.0016    4.4595    2.6329 N   0  0  0  0  0  0  0  0  0  0  0  0
    2.0949    0.6178   -1.6227 H   0  0  0  0  0  0  0  0  0  0  0  0
    2.6186    0.1372    0.5123 H   0  0  0  0  0  0  0  0  0  0  0  0
   -0.2922    0.9270    1.1252 H   0  0  0  0  0  0  0  0  0  0  0  0
    0.8354    0.4271    2.3733 H   0  0  0  0  0  0  0  0  0  0  0  0
    1.1419    2.8429    0.5243 H   0  0  0  0  0  0  0  0  0  0  0  0
    2.3349    2.3829    1.7421 H   0  0  0  0  0  0  0  0  0  0  0  0
    1.8013    4.7262    2.0684 H   0  0  0  0  0  0  0  0  0  0  0  0
    0.6013    5.1427    3.2679 H   0  0  0  0  0  0  0  0  0  0  0  0
    1.5526   -2.1029   -0.6845 N   0  0  0  0  0  0  0  0  0  0  0  0
    1.2971   -3.5142   -0.8625 C   0  0  2  0  0  0  0  0  0  0  0  0
   -0.1889   -3.7558   -0.6329 C   0  0  0  0  0  0  0  0  0  0  0  0
   -0.8992   -2.9945    0.0206 O   0  0  0  0  0  0  0  0  0  0  0  0
    2.1373   -4.3528    0.0881 C   0  0  0  0  0  0  0  0  0  0  0  0
    2.0892   -1.6163   -1.3965 H   0  0  0  0  0  0  0  0  0  0  0  0
    1.5504   -3.7529   -1.9012 H   0  0  0  0  0  0  0  0  0  0  0  0
    1.8976   -4.1275    1.1337 H   0  0  0  0  0  0  0  0  0  0  0  0
    1.9638   -5.4227   -0.0676 H   0  0  0  0  0  0  0  0  0  0  0  0
    3.2049   -4.1557   -0.0581 H   0  0  0  0  0  0  0  0  0  0  0  0
   -0.6194   -4.9437   -1.2072 N   0  0  0  0  0  0  0  0  0  0  0  0
   -1.9859   -5.4027   -1.1176 C   0  0  0  0  0  0  0  0  0  0  0  0
    0.0341   -5.5032   -1.7473 H   0  0  0  0  0  0  0  0  0  0  0  0
   -2.0951   -6.0623   -0.2441 H   0  0  0  0  0  0  0  0  0  0  0  0
   -2.6568   -4.5377   -1.0099 H   0  0  0  0  0  0  0  0  0  0  0  0
   -2.2468   -5.9576   -2.0309 H   0  0  0  0  0  0  0  0  0  0  0  0
  1  3  1  0  0  0  0
  1  7  1  0  0  0  0
  1  2  2  0  0  0  0
 22 23  1  0  0  0  0
 23 25  1  0  0  0  0
 23 24  2  0  0  0  0
 35 36  1  0  0  0  0
 36 44  1  0  0  0  0
 36 37  2  0  0  0  0
  8  9  1  0  0  0  0
  9 17  1  0  0  0  0
  9 10  2  0  0  0  0
 18 19  1  0  0  0  0
 19 34  1  0  0  0  0
 19 20  2  0  0  0  0
 35 38  1  0  0  0  0
  8 11  1  0  0  0  0
 44 45  1  0  0  0  0
 21 22  1  0  0  0  0
 18 21  1  0  0  0  0
 34 35  1  0  0  0  0
  7  8  1  0  0  0  0
 17 18  1  0  0  0  0
  3  4  1  0  0  0  0
  3  5  1  0  0  0  0
  3  6  1  0  0  0  0
 38 41  1  0  0  0  0
 38 42  1  0  0  0  0
 38 43  1  0  0  0  0
 11 14  1  0  0  0  0
 11 15  1  0  0  0  0
 11 16  1  0  0  0  0
 45 47  1  0  0  0  0
 45 48  1  0  0  0  0
 45 49  1  0  0  0  0
 22 30  1  0  0  0  0
 22 31  1  0  0  0  0
 21 28  1  0  0  0  0
 21 29  1  0  0  0  0
 35 40  1  0  0  0  0
  8 13  1  0  0  0  0
 18 27  1  0  0  0  0
 25 32  1  0  0  0  0
 25 33  1  0  0  0  0
 44 46  1  0  0  0  0
  7 12  1  0  0  0  0
 34 39  1  0  0  0  0
 17 26  1  0  0  0  0
M  END
$$$$

  -OEChem-05262214473D

 49 48  0     1  0  0  0  0  0999 V2000
   -1.9833   -0.0509   -3.3423 C   0  0  0  0  0  0  0  0  0  0  0  0
   -1.6199   -1.0613   -2.7518 O   0  0  0  0  0  0  0  0  0  0  0  0
   -3.3243   -0.0235   -3.9975 C   0  0  0  0  0  0  0  0  0  0  0  0
   -3.2886   -0.3689   -5.0432 H   0  0  0  0  0  0  0  0  0  0  0  0
   -4.0503   -0.6845   -3.4973 H   0  0  0  0  0  0  0  0  0  0  0  0
   -3.8104    0.9645   -4.0351 H   0  0  0  0  0  0  0  0  0  0  0  0
   -1.2607    1.1231   -3.4768 N   0  0  0  0  0  0  0  0  0  0  0  0
    0.0536    1.3115   -2.9213 C   0  0  2  0  0  0  0  0  0  0  0  0
    0.0266    0.8315   -1.4761 C   0  0  0  0  0  0  0  0  0  0  0  0
   -1.0065    0.7530   -0.8146 O   0  0  0  0  0  0  0  0  0  0  0  0
    0.4852    2.7674   -3.0025 C   0  0  0  0  0  0  0  0  0  0  0  0
   -1.6809    1.8924   -3.9952 H   0  0  0  0  0  0  0  0  0  0  0  0
    0.7360    0.6822   -3.5030 H   0  0  0  0  0  0  0  0  0  0  0  0
   -0.1867    3.4133   -2.4256 H   0  0  0  0  0  0  0  0  0  0  0  0
    1.4966    2.9042   -2.6056 H   0  0  0  0  0  0  0  0  0  0  0  0
    0.4754    3.1196   -4.0397 H   0  0  0  0  0  0  0  0  0  0  0  0
    1.2978    0.5411   -0.9947 N   0  0  0  0  0  0  0  0  0  0  0  0
    1.5371    0.0807    0.3489 C   0  0  2  0  0  0  0  0  0  0  0  0
    1.1014   -1.3791    0.4105 C   0  0  0  0  0  0  0  0  0  0  0  0
    0.2512   -1.7907    1.1969 O   0  0  0  0  0  0  0  0  0  0  0  0
    0.7736    0.9095    1.3896 C   0  0  0  0  0  0  0  0  0  0  0  0
    1.2671    2.3536    1.4982 C   0  0  0  0  0  0  0  0  0  0  0  0
    0.4976    3.1824    2.5098 C   0  0  0  0  0  0  0  0  0  0  0  0
   -0.4776    2.7730    3.1329 O   0  0  0  0  0  0  0  0  0  0  0  0
    1.0016    4.4595    2.6329 N   0  0  0  0  0  0  0  0  0  0  0  0
    2.0949    0.6178   -1.6227 H   0  0  0  0  0  0  0  0  0  0  0  0
    2.6186    0.1372    0.5123 H   0  0  0  0  0  0  0  0  0  0  0  0
   -0.2922    0.9270    1.1252 H   0  0  0  0  0  0  0  0  0  0  0  0
    0.8354    0.4271    2.3733 H   0  0  0  0  0  0  0  0  0  0  0  0
    1.1419    2.8429    0.5243 H   0  0  0  0  0  0  0  0  0  0  0  0
    2.3349    2.3829    1.7421 H   0  0  0  0  0  0  0  0  0  0  0  0
    1.8013    4.7262    2.0684 H   0  0  0  0  0  0  0  0  0  0  0  0
    0.6013    5.1427    3.2679 H   0  0  0  0  0  0  0  0  0  0  0  0
    1.8111   -2.1715   -0.4811 N   0  0  0  0  0  0  0  0  0  0  0  0
    1.6094   -3.5968   -0.6100 C   0  0  2  0  0  0  0  0  0  0  0  0
    0.1131   -3.8504   -0.7378 C   0  0  0  0  0  0  0  0  0  0  0  0
   -0.7380   -3.0578   -0.3396 O   0  0  0  0  0  0  0  0  0  0  0  0
    2.1883   -4.3473    0.5792 C   0  0  0  0  0  0  0  0  0  0  0  0
    2.5071   -1.7274   -1.0727 H   0  0  0  0  0  0  0  0  0  0  0  0
    2.1127   -3.9053   -1.5328 H   0  0  0  0  0  0  0  0  0  0  0  0
    1.6963   -4.0514    1.5129 H   0  0  0  0  0  0  0  0  0  0  0  0
    2.0600   -5.4289    0.4664 H   0  0  0  0  0  0  0  0  0  0  0  0
    3.2585   -4.1402    0.6873 H   0  0  0  0  0  0  0  0  0  0  0  0
   -0.1600   -5.0851   -1.3096 N   0  0  0  0  0  0  0  0  0  0  0  0
   -1.5055   -5.5633   -1.5266 C   0  0  0  0  0  0  0  0  0  0  0  0
    0.6077   -5.6693   -1.6275 H   0  0  0  0  0  0  0  0  0  0  0  0
   -1.8274   -6.1598   -0.6602 H   0  0  0  0  0  0  0  0  0  0  0  0
   -2.1831   -4.7062   -1.6536 H   0  0  0  0  0  0  0  0  0  0  0  0
   -1.5309   -6.1881   -2.4316 H   0  0  0  0  0  0  0  0  0  0  0  0
  1  3  1  0  0  0  0
  1  7  1  0  0  0  0
  1  2  2  0  0  0  0
 22 23  1  0  0  0  0
 23 25  1  0  0  0  0
 23 24  2  0  0  0  0
 35 36  1  0  0  0  0
 36 44  1  0  0  0  0
 36 37  2  0  0  0  0
  8  9  1  0  0  0  0
  9 17  1  0  0  0  0
  9 10  2  0  0  0  0
 18 19  1  0  0  0  0
 19 34  1  0  0  0  0
 19 20  2  0  0  0  0
 35 38  1  0  0  0  0
  8 11  1  0  0  0  0
 44 45  1  0  0  0  0
 21 22  1  0  0  0  0
 18 21  1  0  0  0  0
 34 35  1  0  0  0  0
  7  8  1  0  0  0  0
 17 18  1  0  0  0  0
  3  4  1  0  0  0  0
  3  5  1  0  0  0  0
  3  6  1  0  0  0  0
 38 41  1  0  0  0  0
 38 42  1  0  0  0  0
 38 43  1  0  0  0  0
 11 14  1  0  0  0  0
 11 15  1  0  0  0  0
 11 16  1  0  0  0  0
 45 47  1  0  0  0  0
 45 48  1  0  0  0  0
 45 49  1  0  0  0  0
 22 30  1  0  0  0  0
 22 31  1  0  0  0  0
 21 28  1  0  0  0  0
 21 29  1  0  0  0  0
 35 40  1  0  0  0  0
  8 13  1  0  0  0  0
 18 27  1  0  0  0  0
 25 32  1  0  0  0  0
 25 33  1  0  0  0  0
 44 46  1  0  0  0  0
  7 12  1  0  0  0  0
 34 39  1  0  0  0  0
 17 26  1  0  0  0  0
M  END
$$$$

  -OEChem-05262214473D

 49 48  0     1  0  0  0  0  0999 V2000
   -1.9833   -0.0509   -3.3423 C   0  0  0  0  0  0  0  0  0  0  0  0
   -1.6199   -1.0613   -2.7518 O   0  0  0  0  0  0  0  0  0  0  0  0
   -3.3243   -0.0235   -3.9975 C   0  0  0  0  0  0  0  0  0  0  0  0
   -3.2886   -0.3689   -5.0432 H   0  0  0  0  0  0  0  0  0  0  0  0
   -4.0503   -0.6845   -3.4973 H   0  0  0  0  0  0  0  0  0  0  0  0
   -3.8104    0.9645   -4.0351 H   0  0  0  0  0  0  0  0  0  0  0  0
   -1.2607    1.1231   -3.4768 N   0  0  0  0  0  0  0  0  0  0  0  0
    0.0536    1.3115   -2.9213 C   0  0  2  0  0  0  0  0  0  0  0  0
    0.0266    0.8315   -1.4761 C   0  0  0  0  0  0  0  0  0  0  0  0
   -1.0065    0.7530   -0.8146 O   0  0  0  0  0  0  0  0  0  0  0  0
    0.4852    2.7674   -3.0025 C   0  0  0  0  0  0  0  0  0  0  0  0
   -1.6809    1.8924   -3.9952 H   0  0  0  0  0  0  0  0  0  0  0  0
    0.7360    0.6822   -3.5030 H   0  0  0  0  0  0  0  0  0  0  0  0
   -0.1867    3.4133   -2.4256 H   0  0  0  0  0  0  0  0  0  0  0  0
    1.4966    2.9042   -2.6056 H   0  0  0  0  0  0  0  0  0  0  0  0
    0.4754    3.1196   -4.0397 H   0  0  0  0  0  0  0  0  0  0  0  0
    1.2978    0.5411   -0.9947 N   0  0  0  0  0  0  0  0  0  0  0  0
    1.5371    0.0807    0.3489 C   0  0  2  0  0  0  0  0  0  0  0  0
    1.1014   -1.3791    0.4105 C   0  0  0  0  0  0  0  0  0  0  0  0
    0.0830   -1.7493    0.9908 O   0  0  0  0  0  0  0  0  0  0  0  0
    0.7736    0.9095    1.3896 C   0  0  0  0  0  0  0  0  0  0  0  0
    1.2671    2.3536    1.4982 C   0  0  0  0  0  0  0  0  0  0  0  0
    0.4976    3.1824    2.5098 C   0  0  0  0  0  0  0  0  0  0  0  0
   -0.4776    2.7730    3.1329 O   0  0  0  0  0  0  0  0  0  0  0  0
    1.0016    4.4595    2.6329 N   0  0  0  0  0  0  0  0  0  0  0  0
    2.0949    0.6178   -1.6227 H   0  0  0  0  0  0  0  0  0  0  0  0
    2.6186    0.1372    0.5123 H   0  0  0  0  0  0  0  0  0  0  0  0
   -0.2922    0.9270    1.1252 H   0  0  0  0  0  0  0  0  0  0  0  0
    0.8354    0.4271    2.3733 H   0  0  0  0  0  0  0  0  0  0  0  0
    1.1419    2.8429    0.5243 H   0  0  0  0  0  0  0  0  0  0  0  0
    2.3349    2.3829    1.7421 H   0  0  0  0  0  0  0  0  0  0  0  0
    1.8013    4.7262    2.0684 H   0  0  0  0  0  0  0  0  0  0  0  0
    0.6013    5.1427    3.2679 H   0  0  0  0  0  0  0  0  0  0  0  0
    2.0110   -2.2200   -0.2156 N   0  0  0  0  0  0  0  0  0  0  0  0
    1.8492   -3.6546   -0.2827 C   0  0  2  0  0  0  0  0  0  0  0  0
    0.4318   -3.9463   -0.7572 C   0  0  0  0  0  0  0  0  0  0  0  0
   -0.4924   -3.1439   -0.6428 O   0  0  0  0  0  0  0  0  0  0  0  0
    2.1157   -4.3051    1.0658 C   0  0  0  0  0  0  0  0  0  0  0  0
    2.8316   -1.8063   -0.6483 H   0  0  0  0  0  0  0  0  0  0  0  0
    2.5662   -4.0193   -1.0263 H   0  0  0  0  0  0  0  0  0  0  0  0
    1.4071   -3.9520    1.8238 H   0  0  0  0  0  0  0  0  0  0  0  0
    2.0207   -5.3944    1.0065 H   0  0  0  0  0  0  0  0  0  0  0  0
    3.1254   -4.0697    1.4194 H   0  0  0  0  0  0  0  0  0  0  0  0
    0.3105   -5.2245   -1.2842 N   0  0  0  0  0  0  0  0  0  0  0  0
   -0.9384   -5.7437   -1.7907 C   0  0  0  0  0  0  0  0  0  0  0  0
    1.1338   -5.8150   -1.3574 H   0  0  0  0  0  0  0  0  0  0  0  0
   -1.4646   -6.2819   -0.9885 H   0  0  0  0  0  0  0  0  0  0  0  0
   -1.5643   -4.9116   -2.1456 H   0  0  0  0  0  0  0  0  0  0  0  0
   -0.7378   -6.4330   -2.6242 H   0  0  0  0  0  0  0  0  0  0  0  0
  1  3  1  0  0  0  0
  1  7  1  0  0  0  0
  1  2  2  0  0  0  0
 22 23  1  0  0  0  0
 23 25  1  0  0  0  0
 23 24  2  0  0  0  0
 35 36  1  0  0  0  0
 36 44  1  0  0  0  0
 36 37  2  0  0  0  0
  8  9  1  0  0  0  0
  9 17  1  0  0  0  0
  9 10  2  0  0  0  0
 18 19  1  0  0  0  0
 19 34  1  0  0  0  0
 19 20  2  0  0  0  0
 35 38  1  0  0  0  0
  8 11  1  0  0  0  0
 44 45  1  0  0  0  0
 21 22  1  0  0  0  0
 18 21  1  0  0  0  0
 34 35  1  0  0  0  0
  7  8  1  0  0  0  0
 17 18  1  0  0  0  0
  3  4  1  0  0  0  0
  3  5  1  0  0  0  0
  3  6  1  0  0  0  0
 38 41  1  0  0  0  0
 38 42  1  0  0  0  0
 38 43  1  0  0  0  0
 11 14  1  0  0  0  0
 11 15  1  0  0  0  0
 11 16  1  0  0  0  0
 45 47  1  0  0  0  0
 45 48  1  0  0  0  0
 45 49  1  0  0  0  0
 22 30  1  0  0  0  0
 22 31  1  0  0  0  0
 21 28  1  0  0  0  0
 21 29  1  0  0  0  0
 35 40  1  0  0  0  0
  8 13  1  0  0  0  0
 18 27  1  0  0  0  0
 25 32  1  0  0  0  0
 25 33  1  0  0  0  0
 44 46  1  0  0  0  0
  7 12  1  0  0  0  0
 34 39  1  0  0  0  0
 17 26  1  0  0  0  0
M  END
$$$$

  -OEChem-05262214473D

 49 48  0     1  0  0  0  0  0999 V2000
   -1.9833   -0.0509   -3.3423 C   0  0  0  0  0  0  0  0  0  0  0  0
   -1.6199   -1.0613   -2.7518 O   0  0  0  0  0  0  0  0  0  0  0  0
   -3.3243   -0.0235   -3.9975 C   0  0  0  0  0  0  0  0  0  0  0  0
   -3.2886   -0.3689   -5.0432 H   0  0  0  0  0  0  0  0  0  0  0  0
   -4.0503   -0.6845   -3.4973 H   0  0  0  0  0  0  0  0  0  0  0  0
   -3.8104    0.9645   -4.0351 H   0  0  0  0  0  0  0  0  0  0  0  0
   -1.2607    1.1231   -3.4768 N   0  0  0  0  0  0  0  0  0  0  0  0
    0.0536    1.3115   -2.9213 C   0  0  2  0  0  0  0  0  0  0  0  0
    0.0266    0.8315   -1.4761 C   0  0  0  0  0  0  0  0  0  0  0  0
   -1.0065    0.7530   -0.8146 O   0  0  0  0  0  0  0  0  0  0  0  0
    0.4852    2.7674   -3.0025 C   0  0  0  0  0  0  0  0  0  0  0  0
   -1.6809    1.8924   -3.9952 H   0  0  0  0  0  0  0  0  0  0  0  0
    0.7360    0.6822   -3.5030 H   0  0  0  0  0  0  0  0  0  0  0  0
   -0.1867    3.4133   -2.4256 H   0  0  0  0  0  0  0  0  0  0  0  0
    1.4966    2.9042   -2.6056 H   0  0  0  0  0  0  0  0  0  0  0  0
    0.4754    3.1196   -4.0397 H   0  0  0  0  0  0  0  0  0  0  0  0
    1.2978    0.5411   -0.9947 N   0  0  0  0  0  0  0  0  0  0  0  0
    1.5371    0.0807    0.3489 C   0  0  2  0  0  0  0  0  0  0  0  0
    1.1014   -1.3791    0.4105 C   0  0  0  0  0  0  0  0  0  0  0  0
   -0.0287   -1.7262    0.7469 O   0  0  0  0  0  0  0  0  0  0  0  0
    0.7736    0.9095    1.3896 C   0  0  0  0  0  0  0  0  0  0  0  0
    1.2671    2.3536    1.4982 C   0  0  0  0  0  0  0  0  0  0  0  0
    0.4976    3.1824    2.5098 C   0  0  0  0  0  0  0  0  0  0  0  0
   -0.4776    2.7730    3.1329 O   0  0  0  0  0  0  0  0  0  0  0  0
    1.0016    4.4595    2.6329 N   0  0  0  0  0  0  0  0  0  0  0  0
    2.0949    0.6178   -1.6227 H   0  0  0  0  0  0  0  0  0  0  0  0
    2.6186    0.1372    0.5123 H   0  0  0  0  0  0  0  0  0  0  0  0
   -0.2922    0.9270    1.1252 H   0  0  0  0  0  0  0  0  0  0  0  0
    0.8354    0.4271    2.3733 H   0  0  0  0  0  0  0  0  0  0  0  0
    1.1419    2.8429    0.5243 H   0  0  0  0  0  0  0  0  0  0  0  0
    2.3349    2.3829    1.7421 H   0  0  0  0  0  0  0  0  0  0  0  0
    1.8013    4.7262    2.0684 H   0  0  0  0  0  0  0  0  0  0  0  0
    0.6013    5.1427    3.2679 H   0  0  0  0  0  0  0  0  0  0  0  0
    2.1389   -2.2451    0.0941 N   0  0  0  0  0  0  0  0  0  0  0  0
    2.0005   -3.6837    0.0972 C   0  0  2  0  0  0  0  0  0  0  0  0
    0.7454   -4.0371   -0.6899 C   0  0  0  0  0  0  0  0  0  0  0  0
   -0.1791   -3.2469   -0.8684 O   0  0  0  0  0  0  0  0  0  0  0  0
    1.9246   -4.2292    1.5147 C   0  0  0  0  0  0  0  0  0  0  0  0
    3.0407   -1.8478   -0.1521 H   0  0  0  0  0  0  0  0  0  0  0  0
    2.8800   -4.0872   -0.4163 H   0  0  0  0  0  0  0  0  0  0  0  0
    1.0496   -3.8360    2.0450 H   0  0  0  0  0  0  0  0  0  0  0  0
    1.8485   -5.3215    1.5159 H   0  0  0  0  0  0  0  0  0  0  0  0
    2.8146   -3.9487    2.0884 H   0  0  0  0  0  0  0  0  0  0  0  0
    0.7602   -5.3523   -1.1328 N   0  0  0  0  0  0  0  0  0  0  0  0
   -0.3233   -5.9315   -1.8920 C   0  0  0  0  0  0  0  0  0  0  0  0
    1.5765   -5.9302   -0.9553 H   0  0  0  0  0  0  0  0  0  0  0  0
   -1.0316   -6.4203   -1.2068 H   0  0  0  0  0  0  0  0  0  0  0  0
   -0.8425   -5.1400   -2.4523 H   0  0  0  0  0  0  0  0  0  0  0  0
    0.0787   -6.6754   -2.5955 H   0  0  0  0  0  0  0  0  0  0  0  0
  1  3  1  0  0  0  0
  1  7  1  0  0  0  0
  1  2  2  0  0  0  0
 22 23  1  0  0  0  0
 23 25  1  0  0  0  0
 23 24  2  0  0  0  0
 35 36  1  0  0  0  0
 36 44  1  0  0  0  0
 36 37  2  0  0  0  0
  8  9  1  0  0  0  0
  9 17  1  0  0  0  0
  9 10  2  0  0  0  0
 18 19  1  0  0  0  0
 19 34  1  0  0  0  0
 19 20  2  0  0  0  0
 35 38  1  0  0  0  0
  8 11  1  0  0  0  0
 44 45  1  0  0  0  0
 21 22  1  0  0  0  0
 18 21  1  0  0  0  0
 34 35  1  0  0  0  0
  7  8  1  0  0  0  0
 17 18  1  0  0  0  0
  3  4  1  0  0  0  0
  3  5  1  0  0  0  0
  3  6  1  0  0  0  0
 38 41  1  0  0  0  0
 38 42  1  0  0  0  0
 38 43  1  0  0  0  0
 11 14  1  0  0  0  0
 11 15  1  0  0  0  0
 11 16  1  0  0  0  0
 45 47  1  0  0  0  0
 45 48  1  0  0  0  0
 45 49  1  0  0  0  0
 22 30  1  0  0  0  0
 22 31  1  0  0  0  0
 21 28  1  0  0  0  0
 21 29  1  0  0  0  0
 35 40  1  0  0  0  0
  8 13  1  0  0  0  0
 18 27  1  0  0  0  0
 25 32  1  0  0  0  0
 25 33  1  0  0  0  0
 44 46  1  0  0  0  0
  7 12  1  0  0  0  0
 34 39  1  0  0  0  0
 17 26  1  0  0  0  0
M  END
$$$$

  -OEChem-05262214473D

 49 48  0     1  0  0  0  0  0999 V2000
   -1.9833   -0.0509   -3.3423 C   0  0  0  0  0  0  0  0  0  0  0  0
   -1.6199   -1.0613   -2.7518 O   0  0  0  0  0  0  0  0  0  0  0  0
   -3.3243   -0.0235   -3.9975 C   0  0  0  0  0  0  0  0  0  0  0  0
   -3.2886   -0.3689   -5.0432 H   0  0  0  0  0  0  0  0  0  0  0  0
   -4.0503   -0.6845   -3.4973 H   0  0  0  0  0  0  0  0  0  0  0  0
   -3.8104    0.9645   -4.0351 H   0  0  0  0  0  0  0  0  0  0  0  0
   -1.2607    1.1231   -3.4768 N   0  0  0  0  0  0  0  0  0  0  0  0
    0.0536    1.3115   -2.9213 C   0  0  2  0  0  0  0  0  0  0  0  0
    0.0266    0.8315   -1.4761 C   0  0  0  0  0  0  0  0  0  0  0  0
   -1.0065    0.7530   -0.8146 O   0  0  0  0  0  0  0  0  0  0  0  0
    0.4852    2.7674   -3.0025 C   0  0  0  0  0  0  0  0  0  0  0  0
   -1.6809    1.8924   -3.9952 H   0  0  0  0  0  0  0  0  0  0  0  0
    0.7360    0.6822   -3.5030 H   0  0  0  0  0  0  0  0  0  0  0  0
   -0.1867    3.4133   -2.4256 H   0  0  0  0  0  0  0  0  0  0  0  0
    1.4966    2.9042   -2.6056 H   0  0  0  0  0  0  0  0  0  0  0  0
    0.4754    3.1196   -4.0397 H   0  0  0  0  0  0  0  0  0  0  0  0
    1.2978    0.5411   -0.9947 N   0  0  0  0  0  0  0  0  0  0  0  0
    1.5371    0.0807    0.3489 C   0  0  2  0  0  0  0  0  0  0  0  0
    1.1014   -1.3791    0.4105 C   0  0  0  0  0  0  0  0  0  0  0  0
   -0.0765   -1.7231    0.4820 O   0  0  0  0  0  0  0  0  0  0  0  0
    0.7736    0.9095    1.3896 C   0  0  0  0  0  0  0  0  0  0  0  0
    1.2671    2.3536    1.4982 C   0  0  0  0  0  0  0  0  0  0  0  0
    0.4976    3.1824    2.5098 C   0  0  0  0  0  0  0  0  0  0  0  0
   -0.4776    2.7730    3.1329 O   0  0  0  0  0  0  0  0  0  0  0  0
    1.0016    4.4595    2.6329 N   0  0  0  0  0  0  0  0  0  0  0  0
    2.0949    0.6178   -1.6227 H   0  0  0  0  0  0  0  0  0  0  0  0
    2.6186    0.1372    0.5123 H   0  0  0  0  0  0  0  0  0  0  0  0
   -0.2922    0.9270    1.1252 H   0  0  0  0  0  0  0  0  0  0  0  0
    0.8354    0.4271    2.3733 H   0  0  0  0  0  0  0  0  0  0  0  0
    1.1419    2.8429    0.5243 H   0  0  0  0  0  0  0  0  0  0  0  0
    2.3349    2.3829    1.7421 H   0  0  0  0  0  0  0  0  0  0  0  0
    1.8013    4.7262    2.0684 H   0  0  0  0  0  0  0  0  0  0  0  0
    0.6013    5.1427    3.2679 H   0  0  0  0  0  0  0  0  0  0  0  0
    2.1859   -2.2451    0.4267 N   0  0  0  0  0  0  0  0  0  0  0  0
    2.0527   -3.6821    0.5038 C   0  0  2  0  0  0  0  0  0  0  0  0
    1.0327   -4.1165   -0.5405 C   0  0  0  0  0  0  0  0  0  0  0  0
    0.1805   -3.3598   -1.0011 O   0  0  0  0  0  0  0  0  0  0  0  0
    1.6280   -4.1246    1.8954 C   0  0  0  0  0  0  0  0  0  0  0  0
    3.1202   -1.8490    0.3822 H   0  0  0  0  0  0  0  0  0  0  0  0
    3.0326   -4.1044    0.2557 H   0  0  0  0  0  0  0  0  0  0  0  0
    0.6483   -3.7113    2.1615 H   0  0  0  0  0  0  0  0  0  0  0  0
    1.5552   -5.2153    1.9599 H   0  0  0  0  0  0  0  0  0  0  0  0
    2.3475   -3.7857    2.6486 H   0  0  0  0  0  0  0  0  0  0  0  0
    1.1584   -5.4599   -0.8656 N   0  0  0  0  0  0  0  0  0  0  0  0
    0.2978   -6.1140   -1.8235 C   0  0  0  0  0  0  0  0  0  0  0  0
    1.9058   -6.0071   -0.4487 H   0  0  0  0  0  0  0  0  0  0  0  0
   -0.5577   -6.5657   -1.3000 H   0  0  0  0  0  0  0  0  0  0  0  0
   -0.0669   -5.3757   -2.5527 H   0  0  0  0  0  0  0  0  0  0  0  0
    0.8627   -6.8990   -2.3476 H   0  0  0  0  0  0  0  0  0  0  0  0
  1  3  1  0  0  0  0
  1  7  1  0  0  0  0
  1  2  2  0  0  0  0
 22 23  1  0  0  0  0
 23 25  1  0  0  0  0
 23 24  2  0  0  0  0
 35 36  1  0  0  0  0
 36 44  1  0  0  0  0
 36 37  2  0  0  0  0
  8  9  1  0  0  0  0
  9 17  1  0  0  0  0
  9 10  2  0  0  0  0
 18 19  1  0  0  0  0
 19 34  1  0  0  0  0
 19 20  2  0  0  0  0
 35 38  1  0  0  0  0
  8 11  1  0  0  0  0
 44 45  1  0  0  0  0
 21 22  1  0  0  0  0
 18 21  1  0  0  0  0
 34 35  1  0  0  0  0
  7  8  1  0  0  0  0
 17 18  1  0  0  0  0
  3  4  1  0  0  0  0
  3  5  1  0  0  0  0
  3  6  1  0  0  0  0
 38 41  1  0  0  0  0
 38 42  1  0  0  0  0
 38 43  1  0  0  0  0
 11 14  1  0  0  0  0
 11 15  1  0  0  0  0
 11 16  1  0  0  0  0
 45 47  1  0  0  0  0
 45 48  1  0  0  0  0
 45 49  1  0  0  0  0
 22 30  1  0  0  0  0
 22 31  1  0  0  0  0
 21 28  1  0  0  0  0
 21 29  1  0  0  0  0
 35 40  1  0  0  0  0
  8 13  1  0  0  0  0
 18 27  1  0  0  0  0
 25 32  1  0  0  0  0
 25 33  1  0  0  0  0
 44 46  1  0  0  0  0
  7 12  1  0  0  0  0
 34 39  1  0  0  0  0
 17 26  1  0  0  0  0
M  END
$$$$

  -OEChem-05262214473D

 49 48  0     1  0  0  0  0  0999 V2000
   -1.9833   -0.0509   -3.3423 C   0  0  0  0  0  0  0  0  0  0  0  0
   -1.6199   -1.0613   -2.7518 O   0  0  0  0  0  0  0  0  0  0  0  0
   -3.3243   -0.0235   -3.9975 C   0  0  0  0  0  0  0  0  0  0  0  0
   -3.2886   -0.3689   -5.0432 H   0  0  0  0  0  0  0  0  0  0  0  0
   -4.0503   -0.6845   -3.4973 H   0  0  0  0  0  0  0  0  0  0  0  0
   -3.8104    0.9645   -4.0351 H   0  0  0  0  0  0  0  0  0  0  0  0
   -1.2607    1.1231   -3.4768 N   0  0  0  0  0  0  0  0  0  0  0  0
    0.0536    1.3115   -2.9213 C   0  0  2  0  0  0  0  0  0  0  0  0
    0.0266    0.8315   -1.4761 C   0  0  0  0  0  0  0  0  0  0  0  0
   -1.0065    0.7530   -0.8146 O   0  0  0  0  0  0  0  0  0  0  0  0
    0.4852    2.7674   -3.0025 C   0  0  0  0  0  0  0  0  0  0  0  0
   -1.6809    1.8924   -3.9952 H   0  0  0  0  0  0  0  0  0  0  0  0
    0.7360    0.6822   -3.5030 H   0  0  0  0  0  0  0  0  0  0  0  0
   -0.1867    3.4133   -2.4256 H   0  0  0  0  0  0  0  0  0  0  0  0
    1.4966    2.9042   -2.6056 H   0  0  0  0  0  0  0  0  0  0  0  0
    0.4754    3.1196   -4.0397 H   0  0  0  0  0  0  0  0  0  0  0  0
    1.2978    0.5411   -0.9947 N   0  0  0  0  0  0  0  0  0  0  0  0
    1.5371    0.0807    0.3489 C   0  0  2  0  0  0  0  0  0  0  0  0
    1.1014   -1.3791    0.4105 C   0  0  0  0  0  0  0  0  0  0  0  0
   -0.0570   -1.7402    0.2140 O   0  0  0  0  0  0  0  0  0  0  0  0
    0.7736    0.9095    1.3896 C   0  0  0  0  0  0  0  0  0  0  0  0
    1.2671    2.3536    1.4982 C   0  0  0  0  0  0  0  0  0  0  0  0
    0.4976    3.1824    2.5098 C   0  0  0  0  0  0  0  0  0  0  0  0
   -0.4776    2.7730    3.1329 O   0  0  0  0  0  0  0  0  0  0  0  0
    1.0016    4.4595    2.6329 N   0  0  0  0  0  0  0  0  0  0  0  0
    2.0949    0.6178   -1.6227 H   0  0  0  0  0  0  0  0  0  0  0  0
    2.6186    0.1372    0.5123 H   0  0  0  0  0  0  0  0  0  0  0  0
   -0.2922    0.9270    1.1252 H   0  0  0  0  0  0  0  0  0  0  0  0
    0.8354    0.4271    2.3733 H   0  0  0  0  0  0  0  0  0  0  0  0
    1.1419    2.8429    0.5243 H   0  0  0  0  0  0  0  0  0  0  0  0
    2.3349    2.3829    1.7421 H   0  0  0  0  0  0  0  0  0  0  0  0
    1.8013    4.7262    2.0684 H   0  0  0  0  0  0  0  0  0  0  0  0
    0.6013    5.1427    3.2679 H   0  0  0  0  0  0  0  0  0  0  0  0
    2.1490   -2.2200    0.7597 N   0  0  0  0  0  0  0  0  0  0  0  0
    2.0023   -3.6500    0.9093 C   0  0  2  0  0  0  0  0  0  0  0  0
    1.2739   -4.1792   -0.3191 C   0  0  0  0  0  0  0  0  0  0  0  0
    0.5619   -3.4749   -1.0319 O   0  0  0  0  0  0  0  0  0  0  0  0
    1.2461   -3.9985    2.1818 C   0  0  0  0  0  0  0  0  0  0  0  0
    3.0646   -1.8098    0.9180 H   0  0  0  0  0  0  0  0  0  0  0  0
    3.0136   -4.0697    0.9439 H   0  0  0  0  0  0  0  0  0  0  0  0
    0.2305   -3.5864    2.1654 H   0  0  0  0  0  0  0  0  0  0  0  0
    1.1607   -5.0829    2.3083 H   0  0  0  0  0  0  0  0  0  0  0  0
    1.7557   -3.5916    3.0619 H   0  0  0  0  0  0  0  0  0  0  0  0
    1.4779   -5.5399   -0.5009 N   0  0  0  0  0  0  0  0  0  0  0  0
    0.8828   -6.2788   -1.5899 C   0  0  0  0  0  0  0  0  0  0  0  0
    2.0990   -6.0404    0.1279 H   0  0  0  0  0  0  0  0  0  0  0  0
   -0.0755   -6.7080   -1.2619 H   0  0  0  0  0  0  0  0  0  0  0  0
    0.7096   -5.6027   -2.4401 H   0  0  0  0  0  0  0  0  0  0  0  0
    1.5610   -7.0884   -1.8973 H   0  0  0  0  0  0  0  0  0  0  0  0
  1  3  1  0  0  0  0
  1  7  1  0  0  0  0
  1  2  2  0  0  0  0
 22 23  1  0  0  0  0
 23 25  1  0  0  0  0
 23 24  2  0  0  0  0
 35 36  1  0  0  0  0
 36 44  1  0  0  0  0
 36 37  2  0  0  0  0
  8  9  1  0  0  0  0
  9 17  1  0  0  0  0
  9 10  2  0  0  0  0
 18 19  1  0  0  0  0
 19 34  1  0  0  0  0
 19 20  2  0  0  0  0
 35 38  1  0  0  0  0
  8 11  1  0  0  0  0
 44 45  1  0  0  0  0
 21 22  1  0  0  0  0
 18 21  1  0  0  0  0
 34 35  1  0  0  0  0
  7  8  1  0  0  0  0
 17 18  1  0  0  0  0
  3  4  1  0  0  0  0
  3  5  1  0  0  0  0
  3  6  1  0  0  0  0
 38 41  1  0  0  0  0
 38 42  1  0  0  0  0
 38 43  1  0  0  0  0
 11 14  1  0  0  0  0
 11 15  1  0  0  0  0
 11 16  1  0  0  0  0
 45 47  1  0  0  0  0
 45 48  1  0  0  0  0
 45 49  1  0  0  0  0
 22 30  1  0  0  0  0
 22 31  1  0  0  0  0
 21 28  1  0  0  0  0
 21 29  1  0  0  0  0
 35 40  1  0  0  0  0
  8 13  1  0  0  0  0
 18 27  1  0  0  0  0
 25 32  1  0  0  0  0
 25 33  1  0  0  0  0
 44 46  1  0  0  0  0
  7 12  1  0  0  0  0
 34 39  1  0  0  0  0
 17 26  1  0  0  0  0
M  END
$$$$

  -OEChem-05262214473D

 49 48  0     1  0  0  0  0  0999 V2000
   -1.9833   -0.0509   -3.3423 C   0  0  0  0  0  0  0  0  0  0  0  0
   -1.6199   -1.0613   -2.7518 O   0  0  0  0  0  0  0  0  0  0  0  0
   -3.3243   -0.0235   -3.9975 C   0  0  0  0  0  0  0  0  0  0  0  0
   -3.2886   -0.3689   -5.0432 H   0  0  0  0  0  0  0  0  0  0  0  0
   -4.0503   -0.6845   -3.4973 H   0  0  0  0  0  0  0  0  0  0  0  0
   -3.8104    0.9645   -4.0351 H   0  0  0  0  0  0  0  0  0  0  0  0
   -1.2607    1.1231   -3.4768 N   0  0  0  0  0  0  0  0  0  0  0  0
    0.0536    1.3115   -2.9213 C   0  0  2  0  0  0  0  0  0  0  0  0
    0.0266    0.8315   -1.4761 C   0  0  0  0  0  0  0  0  0  0  0  0
   -1.0065    0.7530   -0.8146 O   0  0  0  0  0  0  0  0  0  0  0  0
    0.4852    2.7674   -3.0025 C   0  0  0  0  0  0  0  0  0  0  0  0
   -1.6809    1.8924   -3.9952 H   0  0  0  0  0  0  0  0  0  0  0  0
    0.7360    0.6822   -3.5030 H   0  0  0  0  0  0  0  0  0  0  0  0
   -0.1867    3.4133   -2.4256 H   0  0  0  0  0  0  0  0  0  0  0  0
    1.4966    2.9042   -2.6056 H   0  0  0  0  0  0  0  0  0  0  0  0
    0.4754    3.1196   -4.0397 H   0  0  0  0  0  0  0  0  0  0  0  0
    1.2978    0.5411   -0.9947 N   0  0  0  0  0  0  0  0  0  0  0  0
    1.5371    0.0807    0.3489 C   0  0  2  0  0  0  0  0  0  0  0  0
    1.1014   -1.3791    0.4105 C   0  0  0  0  0  0  0  0  0  0  0  0
    0.0284   -1.7764   -0.0387 O   0  0  0  0  0  0  0  0  0  0  0  0
    0.7736    0.9095    1.3896 C   0  0  0  0  0  0  0  0  0  0  0  0
    1.2671    2.3536    1.4982 C   0  0  0  0  0  0  0  0  0  0  0  0
    0.4976    3.1824    2.5098 C   0  0  0  0  0  0  0  0  0  0  0  0
   -0.4776    2.7730    3.1329 O   0  0  0  0  0  0  0  0  0  0  0  0
    1.0016    4.4595    2.6329 N   0  0  0  0  0  0  0  0  0  0  0  0
    2.0949    0.6178   -1.6227 H   0  0  0  0  0  0  0  0  0  0  0  0
    2.6186    0.1372    0.5123 H   0  0  0  0  0  0  0  0  0  0  0  0
   -0.2922    0.9270    1.1252 H   0  0  0  0  0  0  0  0  0  0  0  0
    0.8354    0.4271    2.3733 H   0  0  0  0  0  0  0  0  0  0  0  0
    1.1419    2.8429    0.5243 H   0  0  0  0  0  0  0  0  0  0  0  0
    2.3349    2.3829    1.7421 H   0  0  0  0  0  0  0  0  0  0  0  0
    1.8013    4.7262    2.0684 H   0  0  0  0  0  0  0  0  0  0  0  0
    0.6013    5.1427    3.2679 H   0  0  0  0  0  0  0  0  0  0  0  0
    2.0305   -2.1716    1.0702 N   0  0  0  0  0  0  0  0  0  0  0  0
    1.8529   -3.5895    1.2862 C   0  0  2  0  0  0  0  0  0  0  0  0
    1.4528   -4.2208   -0.0408 C   0  0  0  0  0  0  0  0  0  0  0  0
    0.9391   -3.5844   -0.9585 O   0  0  0  0  0  0  0  0  0  0  0  0
    0.8049   -3.8596    2.3545 C   0  0  0  0  0  0  0  0  0  0  0  0
    2.8777   -1.7329    1.4188 H   0  0  0  0  0  0  0  0  0  0  0  0
    2.8244   -3.9855    1.6014 H   0  0  0  0  0  0  0  0  0  0  0  0
   -0.1753   -3.4699    2.0564 H   0  0  0  0  0  0  0  0  0  0  0  0
    0.6920   -4.9333    2.5372 H   0  0  0  0  0  0  0  0  0  0  0  0
    1.0796   -3.3798    3.3001 H   0  0  0  0  0  0  0  0  0  0  0  0
    1.6971   -5.5868   -0.0636 N   0  0  0  0  0  0  0  0  0  0  0  0
    1.3916   -6.4145   -1.2071 C   0  0  0  0  0  0  0  0  0  0  0  0
    2.1432   -6.0280    0.7352 H   0  0  0  0  0  0  0  0  0  0  0  0
    0.3824   -6.8376   -1.0950 H   0  0  0  0  0  0  0  0  0  0  0  0
    1.4342   -5.8055   -2.1222 H   0  0  0  0  0  0  0  0  0  0  0  0
    2.1258   -7.2308   -1.2754 H   0  0  0  0  0  0  0  0  0  0  0  0
  1  3  1  0  0  0  0
  1  7  1  0  0  0  0
  1  2  2  0  0  0  0
 22 23  1  0  0  0  0
 23 25  1  0  0  0  0
 23 24  2  0  0  0  0
 35 36  1  0  0  0  0
 36 44  1  0  0  0  0
 36 37  2  0  0  0  0
  8  9  1  0  0  0  0
  9 17  1  0  0  0  0
  9 10  2  0  0  0  0
 18 19  1  0  0  0  0
 19 34  1  0  0  0  0
 19 20  2  0  0  0  0
 35 38  1  0  0  0  0
  8 11  1  0  0  0  0
 44 45  1  0  0  0  0
 21 22  1  0  0  0  0
 18 21  1  0  0  0  0
 34 35  1  0  0  0  0
  7  8  1  0  0  0  0
 17 18  1  0  0  0  0
  3  4  1  0  0  0  0
  3  5  1  0  0  0  0
  3  6  1  0  0  0  0
 38 41  1  0  0  0  0
 38 42  1  0  0  0  0
 38 43  1  0  0  0  0
 11 14  1  0  0  0  0
 11 15  1  0  0  0  0
 11 16  1  0  0  0  0
 45 47  1  0  0  0  0
 45 48  1  0  0  0  0
 45 49  1  0  0  0  0
 22 30  1  0  0  0  0
 22 31  1  0  0  0  0
 21 28  1  0  0  0  0
 21 29  1  0  0  0  0
 35 40  1  0  0  0  0
  8 13  1  0  0  0  0
 18 27  1  0  0  0  0
 25 32  1  0  0  0  0
 25 33  1  0  0  0  0
 44 46  1  0  0  0  0
  7 12  1  0  0  0  0
 34 39  1  0  0  0  0
 17 26  1  0  0  0  0
M  END
$$$$

  -OEChem-05262214473D

 49 48  0     1  0  0  0  0  0999 V2000
   -1.9833   -0.0509   -3.3423 C   0  0  0  0  0  0  0  0  0  0  0  0
   -1.6199   -1.0613   -2.7518 O   0  0  0  0  0  0  0  0  0  0  0  0
   -3.3243   -0.0235   -3.9975 C   0  0  0  0  0  0  0  0  0  0  0  0
   -3.2886   -0.3689   -5.0432 H   0  0  0  0  0  0  0  0  0  0  0  0
   -4.0503   -0.6845   -3.4973 H   0  0  0  0  0  0  0  0  0  0  0  0
   -3.8104    0.9645   -4.0351 H   0  0  0  0  0  0  0  0  0  0  0  0
   -1.2607    1.1231   -3.4768 N   0  0  0  0  0  0  0  0  0  0  0  0
    0.0536    1.3115   -2.9213 C   0  0  2  0  0  0  0  0  0  0  0  0
    0.0266    0.8315   -1.4761 C   0  0  0  0  0  0  0  0  0  0  0  0
   -1.0065    0.7530   -0.8146 O   0  0  0  0  0  0  0  0  0  0  0  0
    0.4852    2.7674   -3.0025 C   0  0  0  0  0  0  0  0  0  0  0  0
   -1.6809    1.8924   -3.9952 H   0  0  0  0  0  0  0  0  0  0  0  0
    0.7360    0.6822   -3.5030 H   0  0  0  0  0  0  0  0  0  0  0  0
   -0.1867    3.4133   -2.4256 H   0  0  0  0  0  0  0  0  0  0  0  0
    1.4966    2.9042   -2.6056 H   0  0  0  0  0  0  0  0  0  0  0  0
    0.4754    3.1196   -4.0397 H   0  0  0  0  0  0  0  0  0  0  0  0
    1.2978    0.5411   -0.9947 N   0  0  0  0  0  0  0  0  0  0  0  0
    1.5371    0.0807    0.3489 C   0  0  2  0  0  0  0  0  0  0  0  0
    1.1014   -1.3791    0.4105 C   0  0  0  0  0  0  0  0  0  0  0  0
    0.1739   -1.8291   -0.2590 O   0  0  0  0  0  0  0  0  0  0  0  0
    0.7736    0.9095    1.3896 C   0  0  0  0  0  0  0  0  0  0  0  0
    1.2671    2.3536    1.4982 C   0  0  0  0  0  0  0  0  0  0  0  0
    0.4976    3.1824    2.5098 C   0  0  0  0  0  0  0  0  0  0  0  0
   -0.4776    2.7730    3.1329 O   0  0  0  0  0  0  0  0  0  0  0  0
    1.0016    4.4595    2.6329 N   0  0  0  0  0  0  0  0  0  0  0  0
    2.0949    0.6178   -1.6227 H   0  0  0  0  0  0  0  0  0  0  0  0
    2.6186    0.1372    0.5123 H   0  0  0  0  0  0  0  0  0  0  0  0
   -0.2922    0.9270    1.1252 H   0  0  0  0  0  0  0  0  0  0  0  0
    0.8354    0.4271    2.3733 H   0  0  0  0  0  0  0  0  0  0  0  0
    1.1419    2.8429    0.5243 H   0  0  0  0  0  0  0  0  0  0  0  0
    2.3349    2.3829    1.7421 H   0  0  0  0  0  0  0  0  0  0  0  0
    1.8013    4.7262    2.0684 H   0  0  0  0  0  0  0  0  0  0  0  0
    0.6013    5.1427    3.2679 H   0  0  0  0  0  0  0  0  0  0  0  0
    1.8385   -2.1030    1.3373 N   0  0  0  0  0  0  0  0  0  0  0  0
    1.6145   -3.5048    1.6087 C   0  0  2  0  0  0  0  0  0  0  0  0
    1.5570   -4.2386    0.2754 C   0  0  0  0  0  0  0  0  0  0  0  0
    1.2865   -3.6808   -0.7861 O   0  0  0  0  0  0  0  0  0  0  0  0
    0.3344   -3.7172    2.4017 C   0  0  0  0  0  0  0  0  0  0  0  0
    2.5722   -1.6236    1.8506 H   0  0  0  0  0  0  0  0  0  0  0  0
    2.4778   -3.8575    2.1834 H   0  0  0  0  0  0  0  0  0  0  0  0
   -0.5415   -3.3696    1.8419 H   0  0  0  0  0  0  0  0  0  0  0  0
    0.1810   -4.7768    2.6311 H   0  0  0  0  0  0  0  0  0  0  0  0
    0.3653   -3.1646    3.3470 H   0  0  0  0  0  0  0  0  0  0  0  0
    1.8008   -5.5975    0.4167 N   0  0  0  0  0  0  0  0  0  0  0  0
    1.7897   -6.5120   -0.7012 C   0  0  0  0  0  0  0  0  0  0  0  0
    2.0352   -5.9706    1.3319 H   0  0  0  0  0  0  0  0  0  0  0  0
    0.7847   -6.9457   -0.8108 H   0  0  0  0  0  0  0  0  0  0  0  0
    2.0573   -5.9704   -1.6205 H   0  0  0  0  0  0  0  0  0  0  0  0
    2.5188   -7.3164   -0.5241 H   0  0  0  0  0  0  0  0  0  0  0  0
  1  3  1  0  0  0  0
  1  7  1  0  0  0  0
  1  2  2  0  0  0  0
 22 23  1  0  0  0  0
 23 25  1  0  0  0  0
 23 24  2  0  0  0  0
 35 36  1  0  0  0  0
 36 44  1  0  0  0  0
 36 37  2  0  0  0  0
  8  9  1  0  0  0  0
  9 17  1  0  0  0  0
  9 10  2  0  0  0  0
 18 19  1  0  0  0  0
 19 34  1  0  0  0  0
 19 20  2  0  0  0  0
 35 38  1  0  0  0  0
  8 11  1  0  0  0  0
 44 45  1  0  0  0  0
 21 22  1  0  0  0  0
 18 21  1  0  0  0  0
 34 35  1  0  0  0  0
  7  8  1  0  0  0  0
 17 18  1  0  0  0  0
  3  4  1  0  0  0  0
  3  5  1  0  0  0  0
  3  6  1  0  0  0  0
 38 41  1  0  0  0  0
 38 42  1  0  0  0  0
 38 43  1  0  0  0  0
 11 14  1  0  0  0  0
 11 15  1  0  0  0  0
 11 16  1  0  0  0  0
 45 47  1  0  0  0  0
 45 48  1  0  0  0  0
 45 49  1  0  0  0  0
 22 30  1  0  0  0  0
 22 31  1  0  0  0  0
 21 28  1  0  0  0  0
 21 29  1  0  0  0  0
 35 40  1  0  0  0  0
  8 13  1  0  0  0  0
 18 27  1  0  0  0  0
 25 32  1  0  0  0  0
 25 33  1  0  0  0  0
 44 46  1  0  0  0  0
  7 12  1  0  0  0  0
 34 39  1  0  0  0  0
 17 26  1  0  0  0  0
M  END
$$$$

  -OEChem-05262214473D

 49 48  0     1  0  0  0  0  0999 V2000
   -1.9833   -0.0509   -3.3423 C   0  0  0  0  0  0  0  0  0  0  0  0
   -1.6199   -1.0613   -2.7518 O   0  0  0  0  0  0  0  0  0  0  0  0
   -3.3243   -0.0235   -3.9975 C   0  0  0  0  0  0  0  0  0  0  0  0
   -3.2886   -0.3689   -5.0432 H   0  0  0  0  0  0  0  0  0  0  0  0
   -4.0503   -0.6845   -3.4973 H   0  0  0  0  0  0  0  0  0  0  0  0
   -3.8104    0.9645   -4.0351 H   0  0  0  0  0  0  0  0  0  0  0  0
   -1.2607    1.1231   -3.4768 N   0  0  0  0  0  0  0  0  0  0  0  0
    0.0536    1.3115   -2.9213 C   0  0  2  0  0  0  0  0  0  0  0  0
    0.0266    0.8315   -1.4761 C   0  0  0  0  0  0  0  0  0  0  0  0
   -1.0065    0.7530   -0.8146 O   0  0  0  0  0  0  0  0  0  0  0  0
    0.4852    2.7674   -3.0025 C   0  0  0  0  0  0  0  0  0  0  0  0
   -1.6809    1.8924   -3.9952 H   0  0  0  0  0  0  0  0  0  0  0  0
    0.7360    0.6822   -3.5030 H   0  0  0  0  0  0  0  0  0  0  0  0
   -0.1867    3.4133   -2.4256 H   0  0  0  0  0  0  0  0  0  0  0  0
    1.4966    2.9042   -2.6056 H   0  0  0  0  0  0  0  0  0  0  0  0
    0.4754    3.1196   -4.0397 H   0  0  0  0  0  0  0  0  0  0  0  0
    1.2978    0.5411   -0.9947 N   0  0  0  0  0  0  0  0  0  0  0  0
    1.5371    0.0807    0.3489 C   0  0  2  0  0  0  0  0  0  0  0  0
    1.1014   -1.3791    0.4105 C   0  0  0  0  0  0  0  0  0  0  0  0
    0.3696   -1.8948   -0.4318 O   0  0  0  0  0  0  0  0  0  0  0  0
    0.7736    0.9095    1.3896 C   0  0  0  0  0  0  0  0  0  0  0  0
    1.2671    2.3536    1.4982 C   0  0  0  0  0  0  0  0  0  0  0  0
    0.4976    3.1824    2.5098 C   0  0  0  0  0  0  0  0  0  0  0  0
   -0.4776    2.7730    3.1329 O   0  0  0  0  0  0  0  0  0  0  0  0
    1.0016    4.4595    2.6329 N   0  0  0  0  0  0  0  0  0  0  0  0
    2.0949    0.6178   -1.6227 H   0  0  0  0  0  0  0  0  0  0  0  0
    2.6186    0.1372    0.5123 H   0  0  0  0  0  0  0  0  0  0  0  0
   -0.2922    0.9270    1.1252 H   0  0  0  0  0  0  0  0  0  0  0  0
    0.8354    0.4271    2.3733 H   0  0  0  0  0  0  0  0  0  0  0  0
    1.1419    2.8429    0.5243 H   0  0  0  0  0  0  0  0  0  0  0  0
    2.3349    2.3829    1.7421 H   0  0  0  0  0  0  0  0  0  0  0  0
    1.8013    4.7262    2.0684 H   0  0  0  0  0  0  0  0  0  0  0  0
    0.6013    5.1427    3.2679 H   0  0  0  0  0  0  0  0  0  0  0  0
    1.5862   -2.0191    1.5426 N   0  0  0  0  0  0  0  0  0  0  0  0
    1.3035   -3.4015    1.8549 C   0  0  2  0  0  0  0  0  0  0  0  0
    1.5795   -4.2313    0.6079 C   0  0  0  0  0  0  0  0  0  0  0  0
    1.5803   -3.7576   -0.5264 O   0  0  0  0  0  0  0  0  0  0  0  0
   -0.1332   -3.5810    2.3202 C   0  0  0  0  0  0  0  0  0  0  0  0
    2.1690   -1.4892    2.1839 H   0  0  0  0  0  0  0  0  0  0  0  0
    1.9975   -3.6945    2.6502 H   0  0  0  0  0  0  0  0  0  0  0  0
   -0.8432   -3.2925    1.5365 H   0  0  0  0  0  0  0  0  0  0  0  0
   -0.3376   -4.6241    2.5836 H   0  0  0  0  0  0  0  0  0  0  0  0
   -0.3385   -2.9608    3.1994 H   0  0  0  0  0  0  0  0  0  0  0  0
    1.7821   -5.5713    0.9070 N   0  0  0  0  0  0  0  0  0  0  0  0
    2.0498   -6.5645   -0.1067 C   0  0  0  0  0  0  0  0  0  0  0  0
    1.7825   -5.8722    1.8772 H   0  0  0  0  0  0  0  0  0  0  0  0
    1.1040   -7.0249   -0.4286 H   0  0  0  0  0  0  0  0  0  0  0  0
    2.5367   -6.0860   -0.9693 H   0  0  0  0  0  0  0  0  0  0  0  0
    2.7130   -7.3394    0.3053 H   0  0  0  0  0  0  0  0  0  0  0  0
  1  3  1  0  0  0  0
  1  7  1  0  0  0  0
  1  2  2  0  0  0  0
 22 23  1  0  0  0  0
 23 25  1  0  0  0  0
 23 24  2  0  0  0  0
 35 36  1  0  0  0  0
 36 44  1  0  0  0  0
 36 37  2  0  0  0  0
  8  9  1  0  0  0  0
  9 17  1  0  0  0  0
  9 10  2  0  0  0  0
 18 19  1  0  0  0  0
 19 34  1  0  0  0  0
 19 20  2  0  0  0  0
 35 38  1  0  0  0  0
  8 11  1  0  0  0  0
 44 45  1  0  0  0  0
 21 22  1  0  0  0  0
 18 21  1  0  0  0  0
 34 35  1  0  0  0  0
  7  8  1  0  0  0  0
 17 18  1  0  0  0  0
  3  4  1  0  0  0  0
  3  5  1  0  0  0  0
  3  6  1  0  0  0  0
 38 41  1  0  0  0  0
 38 42  1  0  0  0  0
 38 43  1  0  0  0  0
 11 14  1  0  0  0  0
 11 15  1  0  0  0  0
 11 16  1  0  0  0  0
 45 47  1  0  0  0  0
 45 48  1  0  0  0  0
 45 49  1  0  0  0  0
 22 30  1  0  0  0  0
 22 31  1  0  0  0  0
 21 28  1  0  0  0  0
 21 29  1  0  0  0  0
 35 40  1  0  0  0  0
  8 13  1  0  0  0  0
 18 27  1  0  0  0  0
 25 32  1  0  0  0  0
 25 33  1  0  0  0  0
 44 46  1  0  0  0  0
  7 12  1  0  0  0  0
 34 39  1  0  0  0  0
 17 26  1  0  0  0  0
M  END
$$$$

  -OEChem-05262214473D

 49 48  0     1  0  0  0  0  0999 V2000
   -1.9833   -0.0509   -3.3423 C   0  0  0  0  0  0  0  0  0  0  0  0
   -1.6199   -1.0613   -2.7518 O   0  0  0  0  0  0  0  0  0  0  0  0
   -3.3243   -0.0235   -3.9975 C   0  0  0  0  0  0  0  0  0  0  0  0
   -3.2886   -0.3689   -5.0432 H   0  0  0  0  0  0  0  0  0  0  0  0
   -4.0503   -0.6845   -3.4973 H   0  0  0  0  0  0  0  0  0  0  0  0
   -3.8104    0.9645   -4.0351 H   0  0  0  0  0  0  0  0  0  0  0  0
   -1.2607    1.1231   -3.4768 N   0  0  0  0  0  0  0  0  0  0  0  0
    0.0536    1.3115   -2.9213 C   0  0  2  0  0  0  0  0  0  0  0  0
    0.0266    0.8315   -1.4761 C   0  0  0  0  0  0  0  0  0  0  0  0
   -1.0065    0.7530   -0.8146 O   0  0  0  0  0  0  0  0  0  0  0  0
    0.4852    2.7674   -3.0025 C   0  0  0  0  0  0  0  0  0  0  0  0
   -1.6809    1.8924   -3.9952 H   0  0  0  0  0  0  0  0  0  0  0  0
    0.7360    0.6822   -3.5030 H   0  0  0  0  0  0  0  0  0  0  0  0
   -0.1867    3.4133   -2.4256 H   0  0  0  0  0  0  0  0  0  0  0  0
    1.4966    2.9042   -2.6056 H   0  0  0  0  0  0  0  0  0  0  0  0
    0.4754    3.1196   -4.0397 H   0  0  0  0  0  0  0  0  0  0  0  0
    1.2978    0.5411   -0.9947 N   0  0  0  0  0  0  0  0  0  0  0  0
    1.5371    0.0807    0.3489 C   0  0  2  0  0  0  0  0  0  0  0  0
    1.4662   -1.4421    0.3239 C   0  0  0  0  0  0  0  0  0  0  0  0
    1.2010   -2.0828   -0.6911 O   0  0  0  0  0  0  0  0  0  0  0  0
    0.5167    0.6459    1.3450 C   0  0  0  0  0  0  0  0  0  0  0  0
    0.6341    2.1583    1.5440 C   0  0  0  0  0  0  0  0  0  0  0  0
   -0.3898    2.7235    2.5106 C   0  0  0  0  0  0  0  0  0  0  0  0
   -1.2813    2.0599    3.0317 O   0  0  0  0  0  0  0  0  0  0  0  0
   -0.2227    4.0758    2.7194 N   0  0  0  0  0  0  0  0  0  0  0  0
    2.0949    0.6178   -1.6227 H   0  0  0  0  0  0  0  0  0  0  0  0
    2.5564    0.3859    0.6086 H   0  0  0  0  0  0  0  0  0  0  0  0
   -0.4976    0.4215    0.9886 H   0  0  0  0  0  0  0  0  0  0  0  0
    0.6176    0.1408    2.3139 H   0  0  0  0  0  0  0  0  0  0  0  0
    0.4695    2.6543    0.5794 H   0  0  0  0  0  0  0  0  0  0  0  0
    1.6405    2.4296    1.8818 H   0  0  0  0  0  0  0  0  0  0  0  0
    0.5294    4.5560    2.2366 H   0  0  0  0  0  0  0  0  0  0  0  0
   -0.8251    4.6084    3.3389 H   0  0  0  0  0  0  0  0  0  0  0  0
    1.6844   -1.9934    1.5788 N   0  0  0  0  0  0  0  0  0  0  0  0
    1.6513   -3.4149    1.8376 C   0  0  2  0  0  0  0  0  0  0  0  0
    2.5151   -4.1040    0.7894 C   0  0  0  0  0  0  0  0  0  0  0  0
    2.7803   -3.5983   -0.2992 O   0  0  0  0  0  0  0  0  0  0  0  0
    0.2282   -3.9501    1.8063 C   0  0  0  0  0  0  0  0  0  0  0  0
    1.8771   -1.3664    2.3543 H   0  0  0  0  0  0  0  0  0  0  0  0
    2.0900   -3.5661    2.8299 H   0  0  0  0  0  0  0  0  0  0  0  0
   -0.2279   -3.8075    0.8198 H   0  0  0  0  0  0  0  0  0  0  0  0
    0.2021   -5.0215    2.0307 H   0  0  0  0  0  0  0  0  0  0  0  0
   -0.3990   -3.4326    2.5403 H   0  0  0  0  0  0  0  0  0  0  0  0
    2.9193   -5.3681    1.1953 N   0  0  0  0  0  0  0  0  0  0  0  0
    3.7369   -6.2273    0.3710 C   0  0  0  0  0  0  0  0  0  0  0  0
    2.6687   -5.6993    2.1222 H   0  0  0  0  0  0  0  0  0  0  0  0
    3.0902   -6.8862   -0.2270 H   0  0  0  0  0  0  0  0  0  0  0  0
    4.3541   -5.6121   -0.3003 H   0  0  0  0  0  0  0  0  0  0  0  0
    4.3894   -6.8378    1.0123 H   0  0  0  0  0  0  0  0  0  0  0  0
  1  3  1  0  0  0  0
  1  7  1  0  0  0  0
  1  2  2  0  0  0  0
 22 23  1  0  0  0  0
 23 25  1  0  0  0  0
 23 24  2  0  0  0  0
 35 36  1  0  0  0  0
 36 44  1  0  0  0  0
 36 37  2  0  0  0  0
  8  9  1  0  0  0  0
  9 17  1  0  0  0  0
  9 10  2  0  0  0  0
 18 19  1  0  0  0  0
 19 34  1  0  0  0  0
 19 20  2  0  0  0  0
 35 38  1  0  0  0  0
  8 11  1  0  0  0  0
 44 45  1  0  0  0  0
 21 22  1  0  0  0  0
 18 21  1  0  0  0  0
 34 35  1  0  0  0  0
  7  8  1  0  0  0  0
 17 18  1  0  0  0  0
  3  4  1  0  0  0  0
  3  5  1  0  0  0  0
  3  6  1  0  0  0  0
 38 41  1  0  0  0  0
 38 42  1  0  0  0  0
 38 43  1  0  0  0  0
 11 14  1  0  0  0  0
 11 15  1  0  0  0  0
 11 16  1  0  0  0  0
 45 47  1  0  0  0  0
 45 48  1  0  0  0  0
 45 49  1  0  0  0  0
 22 30  1  0  0  0  0
 22 31  1  0  0  0  0
 21 28  1  0  0  0  0
 21 29  1  0  0  0  0
 35 40  1  0  0  0  0
  8 13  1  0  0  0  0
 18 27  1  0  0  0  0
 25 32  1  0  0  0  0
 25 33  1  0  0  0  0
 44 46  1  0  0  0  0
  7 12  1  0  0  0  0
 34 39  1  0  0  0  0
 17 26  1  0  0  0  0
M  END
$$$$

  -OEChem-05262214473D

 49 48  0     1  0  0  0  0  0999 V2000
   -1.9833   -0.0509   -3.3423 C   0  0  0  0  0  0  0  0  0  0  0  0
   -1.6199   -1.0613   -2.7518 O   0  0  0  0  0  0  0  0  0  0  0  0
   -3.3243   -0.0235   -3.9975 C   0  0  0  0  0  0  0  0  0  0  0  0
   -3.2886   -0.3689   -5.0432 H   0  0  0  0  0  0  0  0  0  0  0  0
   -4.0503   -0.6845   -3.4973 H   0  0  0  0  0  0  0  0  0  0  0  0
   -3.8104    0.9645   -4.0351 H   0  0  0  0  0  0  0  0  0  0  0  0
   -1.2607    1.1231   -3.4768 N   0  0  0  0  0  0  0  0  0  0  0  0
    0.0536    1.3115   -2.9213 C   0  0  2  0  0  0  0  0  0  0  0  0
    0.0266    0.8315   -1.4761 C   0  0  0  0  0  0  0  0  0  0  0  0
   -1.0065    0.7530   -0.8146 O   0  0  0  0  0  0  0  0  0  0  0  0
    0.4852    2.7674   -3.0025 C   0  0  0  0  0  0  0  0  0  0  0  0
   -1.6809    1.8924   -3.9952 H   0  0  0  0  0  0  0  0  0  0  0  0
    0.7360    0.6822   -3.5030 H   0  0  0  0  0  0  0  0  0  0  0  0
   -0.1867    3.4133   -2.4256 H   0  0  0  0  0  0  0  0  0  0  0  0
    1.4966    2.9042   -2.6056 H   0  0  0  0  0  0  0  0  0  0  0  0
    0.4754    3.1196   -4.0397 H   0  0  0  0  0  0  0  0  0  0  0  0
    1.2978    0.5411   -0.9947 N   0  0  0  0  0  0  0  0  0  0  0  0
    1.5371    0.0807    0.3489 C   0  0  2  0  0  0  0  0  0  0  0  0
    1.4662   -1.4421    0.3239 C   0  0  0  0  0  0  0  0  0  0  0  0
    1.4686   -2.0948   -0.7177 O   0  0  0  0  0  0  0  0  0  0  0  0
    0.5167    0.6459    1.3450 C   0  0  0  0  0  0  0  0  0  0  0  0
    0.6341    2.1583    1.5440 C   0  0  0  0  0  0  0  0  0  0  0  0
   -0.3898    2.7235    2.5106 C   0  0  0  0  0  0  0  0  0  0  0  0
   -1.2813    2.0599    3.0317 O   0  0  0  0  0  0  0  0  0  0  0  0
   -0.2227    4.0758    2.7194 N   0  0  0  0  0  0  0  0  0  0  0  0
    2.0949    0.6178   -1.6227 H   0  0  0  0  0  0  0  0  0  0  0  0
    2.5564    0.3859    0.6086 H   0  0  0  0  0  0  0  0  0  0  0  0
   -0.4976    0.4215    0.9886 H   0  0  0  0  0  0  0  0  0  0  0  0
    0.6176    0.1408    2.3139 H   0  0  0  0  0  0  0  0  0  0  0  0
    0.4695    2.6543    0.5794 H   0  0  0  0  0  0  0  0  0  0  0  0
    1.6405    2.4296    1.8818 H   0  0  0  0  0  0  0  0  0  0  0  0
    0.5294    4.5560    2.2366 H   0  0  0  0  0  0  0  0  0  0  0  0
   -0.8251    4.6084    3.3389 H   0  0  0  0  0  0  0  0  0  0  0  0
    1.3494   -1.9782    1.5988 N   0  0  0  0  0  0  0  0  0  0  0  0
    1.2423   -3.3962    1.8565 C   0  0  2  0  0  0  0  0  0  0  0  0
    2.3436   -4.1007    1.0753 C   0  0  0  0  0  0  0  0  0  0  0  0
    2.8841   -3.6094    0.0866 O   0  0  0  0  0  0  0  0  0  0  0  0
   -0.1275   -3.9279    1.4646 C   0  0  0  0  0  0  0  0  0  0  0  0
    1.3387   -1.3419    2.3905 H   0  0  0  0  0  0  0  0  0  0  0  0
    1.4087   -3.5360    2.9302 H   0  0  0  0  0  0  0  0  0  0  0  0
   -0.3122   -3.7965    0.3921 H   0  0  0  0  0  0  0  0  0  0  0  0
   -0.2169   -4.9963    1.6869 H   0  0  0  0  0  0  0  0  0  0  0  0
   -0.9200   -3.3995    2.0055 H   0  0  0  0  0  0  0  0  0  0  0  0
    2.6218   -5.3607    1.5863 N   0  0  0  0  0  0  0  0  0  0  0  0
    3.6196   -6.2323    1.0113 C   0  0  0  0  0  0  0  0  0  0  0  0
    2.1382   -5.6794    2.4207 H   0  0  0  0  0  0  0  0  0  0  0  0
    3.1456   -6.8970    0.2741 H   0  0  0  0  0  0  0  0  0  0  0  0
    4.3930   -5.6273    0.5155 H   0  0  0  0  0  0  0  0  0  0  0  0
    4.0806   -6.8365    1.8066 H   0  0  0  0  0  0  0  0  0  0  0  0
  1  3  1  0  0  0  0
  1  7  1  0  0  0  0
  1  2  2  0  0  0  0
 22 23  1  0  0  0  0
 23 25  1  0  0  0  0
 23 24  2  0  0  0  0
 35 36  1  0  0  0  0
 36 44  1  0  0  0  0
 36 37  2  0  0  0  0
  8  9  1  0  0  0  0
  9 17  1  0  0  0  0
  9 10  2  0  0  0  0
 18 19  1  0  0  0  0
 19 34  1  0  0  0  0
 19 20  2  0  0  0  0
 35 38  1  0  0  0  0
  8 11  1  0  0  0  0
 44 45  1  0  0  0  0
 21 22  1  0  0  0  0
 18 21  1  0  0  0  0
 34 35  1  0  0  0  0
  7  8  1  0  0  0  0
 17 18  1  0  0  0  0
  3  4  1  0  0  0  0
  3  5  1  0  0  0  0
  3  6  1  0  0  0  0
 38 41  1  0  0  0  0
 38 42  1  0  0  0  0
 38 43  1  0  0  0  0
 11 14  1  0  0  0  0
 11 15  1  0  0  0  0
 11 16  1  0  0  0  0
 45 47  1  0  0  0  0
 45 48  1  0  0  0  0
 45 49  1  0  0  0  0
 22 30  1  0  0  0  0
 22 31  1  0  0  0  0
 21 28  1  0  0  0  0
 21 29  1  0  0  0  0
 35 40  1  0  0  0  0
  8 13  1  0  0  0  0
 18 27  1  0  0  0  0
 25 32  1  0  0  0  0
 25 33  1  0  0  0  0
 44 46  1  0  0  0  0
  7 12  1  0  0  0  0
 34 39  1  0  0  0  0
 17 26  1  0  0  0  0
M  END
$$$$

  -OEChem-05262214473D

 49 48  0     1  0  0  0  0  0999 V2000
   -1.9833   -0.0509   -3.3423 C   0  0  0  0  0  0  0  0  0  0  0  0
   -1.6199   -1.0613   -2.7518 O   0  0  0  0  0  0  0  0  0  0  0  0
   -3.3243   -0.0235   -3.9975 C   0  0  0  0  0  0  0  0  0  0  0  0
   -3.2886   -0.3689   -5.0432 H   0  0  0  0  0  0  0  0  0  0  0  0
   -4.0503   -0.6845   -3.4973 H   0  0  0  0  0  0  0  0  0  0  0  0
   -3.8104    0.9645   -4.0351 H   0  0  0  0  0  0  0  0  0  0  0  0
   -1.2607    1.1231   -3.4768 N   0  0  0  0  0  0  0  0  0  0  0  0
    0.0536    1.3115   -2.9213 C   0  0  2  0  0  0  0  0  0  0  0  0
    0.0266    0.8315   -1.4761 C   0  0  0  0  0  0  0  0  0  0  0  0
   -1.0065    0.7530   -0.8146 O   0  0  0  0  0  0  0  0  0  0  0  0
    0.4852    2.7674   -3.0025 C   0  0  0  0  0  0  0  0  0  0  0  0
   -1.6809    1.8924   -3.9952 H   0  0  0  0  0  0  0  0  0  0  0  0
    0.7360    0.6822   -3.5030 H   0  0  0  0  0  0  0  0  0  0  0  0
   -0.1867    3.4133   -2.4256 H   0  0  0  0  0  0  0  0  0  0  0  0
    1.4966    2.9042   -2.6056 H   0  0  0  0  0  0  0  0  0  0  0  0
    0.4754    3.1196   -4.0397 H   0  0  0  0  0  0  0  0  0  0  0  0
    1.2978    0.5411   -0.9947 N   0  0  0  0  0  0  0  0  0  0  0  0
    1.5371    0.0807    0.3489 C   0  0  2  0  0  0  0  0  0  0  0  0
    1.4662   -1.4421    0.3239 C   0  0  0  0  0  0  0  0  0  0  0  0
    1.7340   -2.1079   -0.6741 O   0  0  0  0  0  0  0  0  0  0  0  0
    0.5167    0.6459    1.3450 C   0  0  0  0  0  0  0  0  0  0  0  0
    0.6341    2.1583    1.5440 C   0  0  0  0  0  0  0  0  0  0  0  0
   -0.3898    2.7235    2.5106 C   0  0  0  0  0  0  0  0  0  0  0  0
   -1.2813    2.0599    3.0317 O   0  0  0  0  0  0  0  0  0  0  0  0
   -0.2227    4.0758    2.7194 N   0  0  0  0  0  0  0  0  0  0  0  0
    2.0949    0.6178   -1.6227 H   0  0  0  0  0  0  0  0  0  0  0  0
    2.5564    0.3859    0.6086 H   0  0  0  0  0  0  0  0  0  0  0  0
   -0.4976    0.4215    0.9886 H   0  0  0  0  0  0  0  0  0  0  0  0
    0.6176    0.1408    2.3139 H   0  0  0  0  0  0  0  0  0  0  0  0
    0.4695    2.6543    0.5794 H   0  0  0  0  0  0  0  0  0  0  0  0
    1.6405    2.4296    1.8818 H   0  0  0  0  0  0  0  0  0  0  0  0
    0.5294    4.5560    2.2366 H   0  0  0  0  0  0  0  0  0  0  0  0
   -0.8251    4.6084    3.3389 H   0  0  0  0  0  0  0  0  0  0  0  0
    1.0207   -1.9617    1.5314 N   0  0  0  0  0  0  0  0  0  0  0  0
    0.8424   -3.3761    1.7689 C   0  0  2  0  0  0  0  0  0  0  0  0
    2.1041   -4.0933    1.3071 C   0  0  0  0  0  0  0  0  0  0  0  0
    2.8846   -3.6160    0.4861 O   0  0  0  0  0  0  0  0  0  0  0  0
   -0.3827   -3.9091    1.0422 C   0  0  0  0  0  0  0  0  0  0  0  0
    0.8095   -1.3155    2.2860 H   0  0  0  0  0  0  0  0  0  0  0  0
    0.7247   -3.5028    2.8506 H   0  0  0  0  0  0  0  0  0  0  0  0
   -0.2831   -3.7907   -0.0429 H   0  0  0  0  0  0  0  0  0  0  0  0
   -0.5327   -4.9744    1.2461 H   0  0  0  0  0  0  0  0  0  0  0  0
   -1.2850   -3.3718    1.3538 H   0  0  0  0  0  0  0  0  0  0  0  0
    2.2334   -5.3475    1.8871 N   0  0  0  0  0  0  0  0  0  0  0  0
    3.3408   -6.2290    1.5996 C   0  0  0  0  0  0  0  0  0  0  0  0
    1.5486   -5.6545    2.5717 H   0  0  0  0  0  0  0  0  0  0  0  0
    3.0696   -6.9017    0.7726 H   0  0  0  0  0  0  0  0  0  0  0  0
    4.2195   -5.6323    1.3137 H   0  0  0  0  0  0  0  0  0  0  0  0
    3.5771   -6.8243    2.4939 H   0  0  0  0  0  0  0  0  0  0  0  0
  1  3  1  0  0  0  0
  1  7  1  0  0  0  0
  1  2  2  0  0  0  0
 22 23  1  0  0  0  0
 23 25  1  0  0  0  0
 23 24  2  0  0  0  0
 35 36  1  0  0  0  0
 36 44  1  0  0  0  0
 36 37  2  0  0  0  0
  8  9  1  0  0  0  0
  9 17  1  0  0  0  0
  9 10  2  0  0  0  0
 18 19  1  0  0  0  0
 19 34  1  0  0  0  0
 19 20  2  0  0  0  0
 35 38  1  0  0  0  0
  8 11  1  0  0  0  0
 44 45  1  0  0  0  0
 21 22  1  0  0  0  0
 18 21  1  0  0  0  0
 34 35  1  0  0  0  0
  7  8  1  0  0  0  0
 17 18  1  0  0  0  0
  3  4  1  0  0  0  0
  3  5  1  0  0  0  0
  3  6  1  0  0  0  0
 38 41  1  0  0  0  0
 38 42  1  0  0  0  0
 38 43  1  0  0  0  0
 11 14  1  0  0  0  0
 11 15  1  0  0  0  0
 11 16  1  0  0  0  0
 45 47  1  0  0  0  0
 45 48  1  0  0  0  0
 45 49  1  0  0  0  0
 22 30  1  0  0  0  0
 22 31  1  0  0  0  0
 21 28  1  0  0  0  0
 21 29  1  0  0  0  0
 35 40  1  0  0  0  0
  8 13  1  0  0  0  0
 18 27  1  0  0  0  0
 25 32  1  0  0  0  0
 25 33  1  0  0  0  0
 44 46  1  0  0  0  0
  7 12  1  0  0  0  0
 34 39  1  0  0  0  0
 17 26  1  0  0  0  0
M  END
$$$$

  -OEChem-05262214473D

 49 48  0     1  0  0  0  0  0999 V2000
   -1.9833   -0.0509   -3.3423 C   0  0  0  0  0  0  0  0  0  0  0  0
   -1.6199   -1.0613   -2.7518 O   0  0  0  0  0  0  0  0  0  0  0  0
   -3.3243   -0.0235   -3.9975 C   0  0  0  0  0  0  0  0  0  0  0  0
   -3.2886   -0.3689   -5.0432 H   0  0  0  0  0  0  0  0  0  0  0  0
   -4.0503   -0.6845   -3.4973 H   0  0  0  0  0  0  0  0  0  0  0  0
   -3.8104    0.9645   -4.0351 H   0  0  0  0  0  0  0  0  0  0  0  0
   -1.2607    1.1231   -3.4768 N   0  0  0  0  0  0  0  0  0  0  0  0
    0.0536    1.3115   -2.9213 C   0  0  2  0  0  0  0  0  0  0  0  0
    0.0266    0.8315   -1.4761 C   0  0  0  0  0  0  0  0  0  0  0  0
   -1.0065    0.7530   -0.8146 O   0  0  0  0  0  0  0  0  0  0  0  0
    0.4852    2.7674   -3.0025 C   0  0  0  0  0  0  0  0  0  0  0  0
   -1.6809    1.8924   -3.9952 H   0  0  0  0  0  0  0  0  0  0  0  0
    0.7360    0.6822   -3.5030 H   0  0  0  0  0  0  0  0  0  0  0  0
   -0.1867    3.4133   -2.4256 H   0  0  0  0  0  0  0  0  0  0  0  0
    1.4966    2.9042   -2.6056 H   0  0  0  0  0  0  0  0  0  0  0  0
    0.4754    3.1196   -4.0397 H   0  0  0  0  0  0  0  0  0  0  0  0
    1.2978    0.5411   -0.9947 N   0  0  0  0  0  0  0  0  0  0  0  0
    1.5371    0.0807    0.3489 C   0  0  2  0  0  0  0  0  0  0  0  0
    1.4662   -1.4421    0.3239 C   0  0  0  0  0  0  0  0  0  0  0  0
    1.9789   -2.1211   -0.5632 O   0  0  0  0  0  0  0  0  0  0  0  0
    0.5167    0.6459    1.3450 C   0  0  0  0  0  0  0  0  0  0  0  0
    0.6341    2.1583    1.5440 C   0  0  0  0  0  0  0  0  0  0  0  0
   -0.3898    2.7235    2.5106 C   0  0  0  0  0  0  0  0  0  0  0  0
   -1.2813    2.0599    3.0317 O   0  0  0  0  0  0  0  0  0  0  0  0
   -0.2227    4.0758    2.7194 N   0  0  0  0  0  0  0  0  0  0  0  0
    2.0949    0.6178   -1.6227 H   0  0  0  0  0  0  0  0  0  0  0  0
    2.5564    0.3859    0.6086 H   0  0  0  0  0  0  0  0  0  0  0  0
   -0.4976    0.4215    0.9886 H   0  0  0  0  0  0  0  0  0  0  0  0
    0.6176    0.1408    2.3139 H   0  0  0  0  0  0  0  0  0  0  0  0
    0.4695    2.6543    0.5794 H   0  0  0  0  0  0  0  0  0  0  0  0
    1.6405    2.4296    1.8818 H   0  0  0  0  0  0  0  0  0  0  0  0
    0.5294    4.5560    2.2366 H   0  0  0  0  0  0  0  0  0  0  0  0
   -0.8251    4.6084    3.3389 H   0  0  0  0  0  0  0  0  0  0  0  0
    0.7208   -1.9453    1.3810 N   0  0  0  0  0  0  0  0  0  0  0  0
    0.4788   -3.3561    1.5806 C   0  0  2  0  0  0  0  0  0  0  0  0
    1.8128   -4.0824    1.4689 C   0  0  0  0  0  0  0  0  0  0  0  0
    2.7818   -3.6176    0.8722 O   0  0  0  0  0  0  0  0  0  0  0  0
   -0.5198   -3.8949    0.5681 C   0  0  0  0  0  0  0  0  0  0  0  0
    0.3254   -1.2891    2.0479 H   0  0  0  0  0  0  0  0  0  0  0  0
    0.0849   -3.4688    2.5965 H   0  0  0  0  0  0  0  0  0  0  0  0
   -0.1425   -3.7905   -0.4557 H   0  0  0  0  0  0  0  0  0  0  0  0
   -0.7237   -4.9572    0.7385 H   0  0  0  0  0  0  0  0  0  0  0  0
   -1.4689   -3.3514    0.6296 H   0  0  0  0  0  0  0  0  0  0  0  0
    1.7805   -5.3296    2.0770 N   0  0  0  0  0  0  0  0  0  0  0  0
    2.9194   -6.2175    2.0958 C   0  0  0  0  0  0  0  0  0  0  0  0
    0.9403   -5.6260    2.5648 H   0  0  0  0  0  0  0  0  0  0  0  0
    2.8673   -6.8998    1.2345 H   0  0  0  0  0  0  0  0  0  0  0  0
    3.8457   -5.6268    2.0399 H   0  0  0  0  0  0  0  0  0  0  0  0
    2.9130   -6.8022    3.0275 H   0  0  0  0  0  0  0  0  0  0  0  0
  1  3  1  0  0  0  0
  1  7  1  0  0  0  0
  1  2  2  0  0  0  0
 22 23  1  0  0  0  0
 23 25  1  0  0  0  0
 23 24  2  0  0  0  0
 35 36  1  0  0  0  0
 36 44  1  0  0  0  0
 36 37  2  0  0  0  0
  8  9  1  0  0  0  0
  9 17  1  0  0  0  0
  9 10  2  0  0  0  0
 18 19  1  0  0  0  0
 19 34  1  0  0  0  0
 19 20  2  0  0  0  0
 35 38  1  0  0  0  0
  8 11  1  0  0  0  0
 44 45  1  0  0  0  0
 21 22  1  0  0  0  0
 18 21  1  0  0  0  0
 34 35  1  0  0  0  0
  7  8  1  0  0  0  0
 17 18  1  0  0  0  0
  3  4  1  0  0  0  0
  3  5  1  0  0  0  0
  3  6  1  0  0  0  0
 38 41  1  0  0  0  0
 38 42  1  0  0  0  0
 38 43  1  0  0  0  0
 11 14  1  0  0  0  0
 11 15  1  0  0  0  0
 11 16  1  0  0  0  0
 45 47  1  0  0  0  0
 45 48  1  0  0  0  0
 45 49  1  0  0  0  0
 22 30  1  0  0  0  0
 22 31  1  0  0  0  0
 21 28  1  0  0  0  0
 21 29  1  0  0  0  0
 35 40  1  0  0  0  0
  8 13  1  0  0  0  0
 18 27  1  0  0  0  0
 25 32  1  0  0  0  0
 25 33  1  0  0  0  0
 44 46  1  0  0  0  0
  7 12  1  0  0  0  0
 34 39  1  0  0  0  0
 17 26  1  0  0  0  0
M  END
$$$$

  -OEChem-05262214473D

 49 48  0     1  0  0  0  0  0999 V2000
   -1.9833   -0.0509   -3.3423 C   0  0  0  0  0  0  0  0  0  0  0  0
   -1.6199   -1.0613   -2.7518 O   0  0  0  0  0  0  0  0  0  0  0  0
   -3.3243   -0.0235   -3.9975 C   0  0  0  0  0  0  0  0  0  0  0  0
   -3.2886   -0.3689   -5.0432 H   0  0  0  0  0  0  0  0  0  0  0  0
   -4.0503   -0.6845   -3.4973 H   0  0  0  0  0  0  0  0  0  0  0  0
   -3.8104    0.9645   -4.0351 H   0  0  0  0  0  0  0  0  0  0  0  0
   -1.2607    1.1231   -3.4768 N   0  0  0  0  0  0  0  0  0  0  0  0
    0.0536    1.3115   -2.9213 C   0  0  2  0  0  0  0  0  0  0  0  0
    0.0266    0.8315   -1.4761 C   0  0  0  0  0  0  0  0  0  0  0  0
   -1.0065    0.7530   -0.8146 O   0  0  0  0  0  0  0  0  0  0  0  0
    0.4852    2.7674   -3.0025 C   0  0  0  0  0  0  0  0  0  0  0  0
   -1.6809    1.8924   -3.9952 H   0  0  0  0  0  0  0  0  0  0  0  0
    0.7360    0.6822   -3.5030 H   0  0  0  0  0  0  0  0  0  0  0  0
   -0.1867    3.4133   -2.4256 H   0  0  0  0  0  0  0  0  0  0  0  0
    1.4966    2.9042   -2.6056 H   0  0  0  0  0  0  0  0  0  0  0  0
    0.4754    3.1196   -4.0397 H   0  0  0  0  0  0  0  0  0  0  0  0
    1.2978    0.5411   -0.9947 N   0  0  0  0  0  0  0  0  0  0  0  0
    1.5371    0.0807    0.3489 C   0  0  2  0  0  0  0  0  0  0  0  0
    1.4662   -1.4421    0.3239 C   0  0  0  0  0  0  0  0  0  0  0  0
    2.1869   -2.1336   -0.3926 O   0  0  0  0  0  0  0  0  0  0  0  0
    0.5167    0.6459    1.3450 C   0  0  0  0  0  0  0  0  0  0  0  0
    0.6341    2.1583    1.5440 C   0  0  0  0  0  0  0  0  0  0  0  0
   -0.3898    2.7235    2.5106 C   0  0  0  0  0  0  0  0  0  0  0  0
   -1.2813    2.0599    3.0317 O   0  0  0  0  0  0  0  0  0  0  0  0
   -0.2227    4.0758    2.7194 N   0  0  0  0  0  0  0  0  0  0  0  0
    2.0949    0.6178   -1.6227 H   0  0  0  0  0  0  0  0  0  0  0  0
    2.5564    0.3859    0.6086 H   0  0  0  0  0  0  0  0  0  0  0  0
   -0.4976    0.4215    0.9886 H   0  0  0  0  0  0  0  0  0  0  0  0
    0.6176    0.1408    2.3139 H   0  0  0  0  0  0  0  0  0  0  0  0
    0.4695    2.6543    0.5794 H   0  0  0  0  0  0  0  0  0  0  0  0
    1.6405    2.4296    1.8818 H   0  0  0  0  0  0  0  0  0  0  0  0
    0.5294    4.5560    2.2366 H   0  0  0  0  0  0  0  0  0  0  0  0
   -0.8251    4.6084    3.3389 H   0  0  0  0  0  0  0  0  0  0  0  0
    0.4699   -1.9300    1.1581 N   0  0  0  0  0  0  0  0  0  0  0  0
    0.1764   -3.3375    1.3045 C   0  0  2  0  0  0  0  0  0  0  0  0
    1.4897   -4.0687    1.5498 C   0  0  0  0  0  0  0  0  0  0  0  0
    2.5826   -3.6140    1.2186 O   0  0  0  0  0  0  0  0  0  0  0  0
   -0.5297   -3.8863    0.0745 C   0  0  0  0  0  0  0  0  0  0  0  0
   -0.0805   -1.2643    1.6925 H   0  0  0  0  0  0  0  0  0  0  0  0
   -0.4674   -3.4364    2.1852 H   0  0  0  0  0  0  0  0  0  0  0  0
    0.1000   -3.7958   -0.8181 H   0  0  0  0  0  0  0  0  0  0  0  0
   -0.7769   -4.9458    0.1986 H   0  0  0  0  0  0  0  0  0  0  0  0
   -1.4592   -3.3396   -0.1177 H   0  0  0  0  0  0  0  0  0  0  0  0
    1.2940   -5.3080    2.1432 N   0  0  0  0  0  0  0  0  0  0  0  0
    2.3842   -6.1987    2.4659 C   0  0  0  0  0  0  0  0  0  0  0  0
    0.3546   -5.5960    2.4005 H   0  0  0  0  0  0  0  0  0  0  0  0
    2.5525   -6.8916    1.6284 H   0  0  0  0  0  0  0  0  0  0  0  0
    3.2968   -5.6112    2.6446 H   0  0  0  0  0  0  0  0  0  0  0  0
    2.1338   -6.7715    3.3710 H   0  0  0  0  0  0  0  0  0  0  0  0
  1  3  1  0  0  0  0
  1  7  1  0  0  0  0
  1  2  2  0  0  0  0
 22 23  1  0  0  0  0
 23 25  1  0  0  0  0
 23 24  2  0  0  0  0
 35 36  1  0  0  0  0
 36 44  1  0  0  0  0
 36 37  2  0  0  0  0
  8  9  1  0  0  0  0
  9 17  1  0  0  0  0
  9 10  2  0  0  0  0
 18 19  1  0  0  0  0
 19 34  1  0  0  0  0
 19 20  2  0  0  0  0
 35 38  1  0  0  0  0
  8 11  1  0  0  0  0
 44 45  1  0  0  0  0
 21 22  1  0  0  0  0
 18 21  1  0  0  0  0
 34 35  1  0  0  0  0
  7  8  1  0  0  0  0
 17 18  1  0  0  0  0
  3  4  1  0  0  0  0
  3  5  1  0  0  0  0
  3  6  1  0  0  0  0
 38 41  1  0  0  0  0
 38 42  1  0  0  0  0
 38 43  1  0  0  0  0
 11 14  1  0  0  0  0
 11 15  1  0  0  0  0
 11 16  1  0  0  0  0
 45 47  1  0  0  0  0
 45 48  1  0  0  0  0
 45 49  1  0  0  0  0
 22 30  1  0  0  0  0
 22 31  1  0  0  0  0
 21 28  1  0  0  0  0
 21 29  1  0  0  0  0
 35 40  1  0  0  0  0
  8 13  1  0  0  0  0
 18 27  1  0  0  0  0
 25 32  1  0  0  0  0
 25 33  1  0  0  0  0
 44 46  1  0  0  0  0
  7 12  1  0  0  0  0
 34 39  1  0  0  0  0
 17 26  1  0  0  0  0
M  END
$$$$

  -OEChem-05262214473D

 49 48  0     1  0  0  0  0  0999 V2000
   -1.9833   -0.0509   -3.3423 C   0  0  0  0  0  0  0  0  0  0  0  0
   -1.6199   -1.0613   -2.7518 O   0  0  0  0  0  0  0  0  0  0  0  0
   -3.3243   -0.0235   -3.9975 C   0  0  0  0  0  0  0  0  0  0  0  0
   -3.2886   -0.3689   -5.0432 H   0  0  0  0  0  0  0  0  0  0  0  0
   -4.0503   -0.6845   -3.4973 H   0  0  0  0  0  0  0  0  0  0  0  0
   -3.8104    0.9645   -4.0351 H   0  0  0  0  0  0  0  0  0  0  0  0
   -1.2607    1.1231   -3.4768 N   0  0  0  0  0  0  0  0  0  0  0  0
    0.0536    1.3115   -2.9213 C   0  0  2  0  0  0  0  0  0  0  0  0
    0.0266    0.8315   -1.4761 C   0  0  0  0  0  0  0  0  0  0  0  0
   -1.0065    0.7530   -0.8146 O   0  0  0  0  0  0  0  0  0  0  0  0
    0.4852    2.7674   -3.0025 C   0  0  0  0  0  0  0  0  0  0  0  0
   -1.6809    1.8924   -3.9952 H   0  0  0  0  0  0  0  0  0  0  0  0
    0.7360    0.6822   -3.5030 H   0  0  0  0  0  0  0  0  0  0  0  0
   -0.1867    3.4133   -2.4256 H   0  0  0  0  0  0  0  0  0  0  0  0
    1.4966    2.9042   -2.6056 H   0  0  0  0  0  0  0  0  0  0  0  0
    0.4754    3.1196   -4.0397 H   0  0  0  0  0  0  0  0  0  0  0  0
    1.2978    0.5411   -0.9947 N   0  0  0  0  0  0  0  0  0  0  0  0
    1.5371    0.0807    0.3489 C   0  0  2  0  0  0  0  0  0  0  0  0
    1.4662   -1.4421    0.3239 C   0  0  0  0  0  0  0  0  0  0  0  0
    2.3435   -2.1445   -0.1740 O   0  0  0  0  0  0  0  0  0  0  0  0
    0.5167    0.6459    1.3450 C   0  0  0  0  0  0  0  0  0  0  0  0
    0.6341    2.1583    1.5440 C   0  0  0  0  0  0  0  0  0  0  0  0
   -0.3898    2.7235    2.5106 C   0  0  0  0  0  0  0  0  0  0  0  0
   -1.2813    2.0599    3.0317 O   0  0  0  0  0  0  0  0  0  0  0  0
   -0.2227    4.0758    2.7194 N   0  0  0  0  0  0  0  0  0  0  0  0
    2.0949    0.6178   -1.6227 H   0  0  0  0  0  0  0  0  0  0  0  0
    2.5564    0.3859    0.6086 H   0  0  0  0  0  0  0  0  0  0  0  0
   -0.4976    0.4215    0.9886 H   0  0  0  0  0  0  0  0  0  0  0  0
    0.6176    0.1408    2.3139 H   0  0  0  0  0  0  0  0  0  0  0  0
    0.4695    2.6543    0.5794 H   0  0  0  0  0  0  0  0  0  0  0  0
    1.6405    2.4296    1.8818 H   0  0  0  0  0  0  0  0  0  0  0  0
    0.5294    4.5560    2.2366 H   0  0  0  0  0  0  0  0  0  0  0  0
   -0.8251    4.6084    3.3389 H   0  0  0  0  0  0  0  0  0  0  0  0
    0.2853   -1.9168    0.8777 N   0  0  0  0  0  0  0  0  0  0  0  0
   -0.0442   -3.3215    0.9594 C   0  0  2  0  0  0  0  0  0  0  0  0
    1.1567   -4.0531    1.5443 C   0  0  0  0  0  0  0  0  0  0  0  0
    2.3008   -3.6055    1.5017 O   0  0  0  0  0  0  0  0  0  0  0  0
   -0.4116   -3.8839   -0.4050 C   0  0  0  0  0  0  0  0  0  0  0  0
   -0.3807   -1.2430    1.2440 H   0  0  0  0  0  0  0  0  0  0  0  0
   -0.8944   -3.4076    1.6448 H   0  0  0  0  0  0  0  0  0  0  0  0
    0.4279   -3.8064   -1.1054 H   0  0  0  0  0  0  0  0  0  0  0  0
   -0.6886   -4.9411   -0.3368 H   0  0  0  0  0  0  0  0  0  0  0  0
   -1.2566   -3.3372   -0.8372 H   0  0  0  0  0  0  0  0  0  0  0  0
    0.8071   -5.2843    2.0811 N   0  0  0  0  0  0  0  0  0  0  0  0
    1.7716   -6.1737    2.6849 C   0  0  0  0  0  0  0  0  0  0  0  0
   -0.1686   -5.5666    2.0901 H   0  0  0  0  0  0  0  0  0  0  0  0
    2.1466   -6.8777    1.9274 H   0  0  0  0  0  0  0  0  0  0  0  0
    2.6104   -5.5865    3.0867 H   0  0  0  0  0  0  0  0  0  0  0  0
    1.2924   -6.7345    3.5010 H   0  0  0  0  0  0  0  0  0  0  0  0
  1  3  1  0  0  0  0
  1  7  1  0  0  0  0
  1  2  2  0  0  0  0
 22 23  1  0  0  0  0
 23 25  1  0  0  0  0
 23 24  2  0  0  0  0
 35 36  1  0  0  0  0
 36 44  1  0  0  0  0
 36 37  2  0  0  0  0
  8  9  1  0  0  0  0
  9 17  1  0  0  0  0
  9 10  2  0  0  0  0
 18 19  1  0  0  0  0
 19 34  1  0  0  0  0
 19 20  2  0  0  0  0
 35 38  1  0  0  0  0
  8 11  1  0  0  0  0
 44 45  1  0  0  0  0
 21 22  1  0  0  0  0
 18 21  1  0  0  0  0
 34 35  1  0  0  0  0
  7  8  1  0  0  0  0
 17 18  1  0  0  0  0
  3  4  1  0  0  0  0
  3  5  1  0  0  0  0
  3  6  1  0  0  0  0
 38 41  1  0  0  0  0
 38 42  1  0  0  0  0
 38 43  1  0  0  0  0
 11 14  1  0  0  0  0
 11 15  1  0  0  0  0
 11 16  1  0  0  0  0
 45 47  1  0  0  0  0
 45 48  1  0  0  0  0
 45 49  1  0  0  0  0
 22 30  1  0  0  0  0
 22 31  1  0  0  0  0
 21 28  1  0  0  0  0
 21 29  1  0  0  0  0
 35 40  1  0  0  0  0
  8 13  1  0  0  0  0
 18 27  1  0  0  0  0
 25 32  1  0  0  0  0
 25 33  1  0  0  0  0
 44 46  1  0  0  0  0
  7 12  1  0  0  0  0
 34 39  1  0  0  0  0
 17 26  1  0  0  0  0
M  END
$$$$

  -OEChem-05262214473D

 49 48  0     1  0  0  0  0  0999 V2000
   -1.9833   -0.0509   -3.3423 C   0  0  0  0  0  0  0  0  0  0  0  0
   -1.6199   -1.0613   -2.7518 O   0  0  0  0  0  0  0  0  0  0  0  0
   -3.3243   -0.0235   -3.9975 C   0  0  0  0  0  0  0  0  0  0  0  0
   -3.2886   -0.3689   -5.0432 H   0  0  0  0  0  0  0  0  0  0  0  0
   -4.0503   -0.6845   -3.4973 H   0  0  0  0  0  0  0  0  0  0  0  0
   -3.8104    0.9645   -4.0351 H   0  0  0  0  0  0  0  0  0  0  0  0
   -1.2607    1.1231   -3.4768 N   0  0  0  0  0  0  0  0  0  0  0  0
    0.0536    1.3115   -2.9213 C   0  0  2  0  0  0  0  0  0  0  0  0
    0.0266    0.8315   -1.4761 C   0  0  0  0  0  0  0  0  0  0  0  0
   -1.0065    0.7530   -0.8146 O   0  0  0  0  0  0  0  0  0  0  0  0
    0.4852    2.7674   -3.0025 C   0  0  0  0  0  0  0  0  0  0  0  0
   -1.6809    1.8924   -3.9952 H   0  0  0  0  0  0  0  0  0  0  0  0
    0.7360    0.6822   -3.5030 H   0  0  0  0  0  0  0  0  0  0  0  0
   -0.1867    3.4133   -2.4256 H   0  0  0  0  0  0  0  0  0  0  0  0
    1.4966    2.9042   -2.6056 H   0  0  0  0  0  0  0  0  0  0  0  0
    0.4754    3.1196   -4.0397 H   0  0  0  0  0  0  0  0  0  0  0  0
    1.2978    0.5411   -0.9947 N   0  0  0  0  0  0  0  0  0  0  0  0
    1.5371    0.0807    0.3489 C   0  0  2  0  0  0  0  0  0  0  0  0
    1.4662   -1.4421    0.3239 C   0  0  0  0  0  0  0  0  0  0  0  0
    2.4383   -2.1530    0.0779 O   0  0  0  0  0  0  0  0  0  0  0  0
    0.5167    0.6459    1.3450 C   0  0  0  0  0  0  0  0  0  0  0  0
    0.6341    2.1583    1.5440 C   0  0  0  0  0  0  0  0  0  0  0  0
   -0.3898    2.7235    2.5106 C   0  0  0  0  0  0  0  0  0  0  0  0
   -1.2813    2.0599    3.0317 O   0  0  0  0  0  0  0  0  0  0  0  0
   -0.2227    4.0758    2.7194 N   0  0  0  0  0  0  0  0  0  0  0  0
    2.0949    0.6178   -1.6227 H   0  0  0  0  0  0  0  0  0  0  0  0
    2.5564    0.3859    0.6086 H   0  0  0  0  0  0  0  0  0  0  0  0
   -0.4976    0.4215    0.9886 H   0  0  0  0  0  0  0  0  0  0  0  0
    0.6176    0.1408    2.3139 H   0  0  0  0  0  0  0  0  0  0  0  0
    0.4695    2.6543    0.5794 H   0  0  0  0  0  0  0  0  0  0  0  0
    1.6405    2.4296    1.8818 H   0  0  0  0  0  0  0  0  0  0  0  0
    0.5294    4.5560    2.2366 H   0  0  0  0  0  0  0  0  0  0  0  0
   -0.8251    4.6084    3.3389 H   0  0  0  0  0  0  0  0  0  0  0  0
    0.1796   -1.9066    0.5590 N   0  0  0  0  0  0  0  0  0  0  0  0
   -0.1681   -3.3094    0.5688 C   0  0  2  0  0  0  0  0  0  0  0  0
    0.8365   -4.0367    1.4527 C   0  0  0  0  0  0  0  0  0  0  0  0
    1.9553   -3.5927    1.7022 O   0  0  0  0  0  0  0  0  0  0  0  0
   -0.1736   -3.8879   -0.8376 C   0  0  0  0  0  0  0  0  0  0  0  0
   -0.5545   -1.2265    0.7329 H   0  0  0  0  0  0  0  0  0  0  0  0
   -1.1670   -3.3845    1.0121 H   0  0  0  0  0  0  0  0  0  0  0  0
    0.8189   -3.8214   -1.2980 H   0  0  0  0  0  0  0  0  0  0  0  0
   -0.4650   -4.9434   -0.8313 H   0  0  0  0  0  0  0  0  0  0  0  0
   -0.8750   -3.3444   -1.4798 H   0  0  0  0  0  0  0  0  0  0  0  0
    0.3529   -5.2601    1.8949 N   0  0  0  0  0  0  0  0  0  0  0  0
    1.1233   -6.1444    2.7378 C   0  0  0  0  0  0  0  0  0  0  0  0
   -0.5936   -5.5396    1.6546 H   0  0  0  0  0  0  0  0  0  0  0  0
    1.6773   -6.8588    2.1110 H   0  0  0  0  0  0  0  0  0  0  0  0
    1.8332   -5.5544    3.3360 H   0  0  0  0  0  0  0  0  0  0  0  0
    0.4463   -6.6936    3.4086 H   0  0  0  0  0  0  0  0  0  0  0  0
  1  3  1  0  0  0  0
  1  7  1  0  0  0  0
  1  2  2  0  0  0  0
 22 23  1  0  0  0  0
 23 25  1  0  0  0  0
 23 24  2  0  0  0  0
 35 36  1  0  0  0  0
 36 44  1  0  0  0  0
 36 37  2  0  0  0  0
  8  9  1  0  0  0  0
  9 17  1  0  0  0  0
  9 10  2  0  0  0  0
 18 19  1  0  0  0  0
 19 34  1  0  0  0  0
 19 20  2  0  0  0  0
 35 38  1  0  0  0  0
  8 11  1  0  0  0  0
 44 45  1  0  0  0  0
 21 22  1  0  0  0  0
 18 21  1  0  0  0  0
 34 35  1  0  0  0  0
  7  8  1  0  0  0  0
 17 18  1  0  0  0  0
  3  4  1  0  0  0  0
  3  5  1  0  0  0  0
  3  6  1  0  0  0  0
 38 41  1  0  0  0  0
 38 42  1  0  0  0  0
 38 43  1  0  0  0  0
 11 14  1  0  0  0  0
 11 15  1  0  0  0  0
 11 16  1  0  0  0  0
 45 47  1  0  0  0  0
 45 48  1  0  0  0  0
 45 49  1  0  0  0  0
 22 30  1  0  0  0  0
 22 31  1  0  0  0  0
 21 28  1  0  0  0  0
 21 29  1  0  0  0  0
 35 40  1  0  0  0  0
  8 13  1  0  0  0  0
 18 27  1  0  0  0  0
 25 32  1  0  0  0  0
 25 33  1  0  0  0  0
 44 46  1  0  0  0  0
  7 12  1  0  0  0  0
 34 39  1  0  0  0  0
 17 26  1  0  0  0  0
M  END
$$$$

  -OEChem-05262214473D

 49 48  0     1  0  0  0  0  0999 V2000
   -1.9833   -0.0509   -3.3423 C   0  0  0  0  0  0  0  0  0  0  0  0
   -1.6199   -1.0613   -2.7518 O   0  0  0  0  0  0  0  0  0  0  0  0
   -3.3243   -0.0235   -3.9975 C   0  0  0  0  0  0  0  0  0  0  0  0
   -3.2886   -0.3689   -5.0432 H   0  0  0  0  0  0  0  0  0  0  0  0
   -4.0503   -0.6845   -3.4973 H   0  0  0  0  0  0  0  0  0  0  0  0
   -3.8104    0.9645   -4.0351 H   0  0  0  0  0  0  0  0  0  0  0  0
   -1.2607    1.1231   -3.4768 N   0  0  0  0  0  0  0  0  0  0  0  0
    0.0536    1.3115   -2.9213 C   0  0  2  0  0  0  0  0  0  0  0  0
    0.0266    0.8315   -1.4761 C   0  0  0  0  0  0  0  0  0  0  0  0
   -1.0065    0.7530   -0.8146 O   0  0  0  0  0  0  0  0  0  0  0  0
    0.4852    2.7674   -3.0025 C   0  0  0  0  0  0  0  0  0  0  0  0
   -1.6809    1.8924   -3.9952 H   0  0  0  0  0  0  0  0  0  0  0  0
    0.7360    0.6822   -3.5030 H   0  0  0  0  0  0  0  0  0  0  0  0
   -0.1867    3.4133   -2.4256 H   0  0  0  0  0  0  0  0  0  0  0  0
    1.4966    2.9042   -2.6056 H   0  0  0  0  0  0  0  0  0  0  0  0
    0.4754    3.1196   -4.0397 H   0  0  0  0  0  0  0  0  0  0  0  0
    1.2978    0.5411   -0.9947 N   0  0  0  0  0  0  0  0  0  0  0  0
    1.5371    0.0807    0.3489 C   0  0  2  0  0  0  0  0  0  0  0  0
    1.4662   -1.4421    0.3239 C   0  0  0  0  0  0  0  0  0  0  0  0
    2.4647   -2.1586    0.3457 O   0  0  0  0  0  0  0  0  0  0  0  0
    0.5167    0.6459    1.3450 C   0  0  0  0  0  0  0  0  0  0  0  0
    0.6341    2.1583    1.5440 C   0  0  0  0  0  0  0  0  0  0  0  0
   -0.3898    2.7235    2.5106 C   0  0  0  0  0  0  0  0  0  0  0  0
   -1.2813    2.0599    3.0317 O   0  0  0  0  0  0  0  0  0  0  0  0
   -0.2227    4.0758    2.7194 N   0  0  0  0  0  0  0  0  0  0  0  0
    2.0949    0.6178   -1.6227 H   0  0  0  0  0  0  0  0  0  0  0  0
    2.5564    0.3859    0.6086 H   0  0  0  0  0  0  0  0  0  0  0  0
   -0.4976    0.4215    0.9886 H   0  0  0  0  0  0  0  0  0  0  0  0
    0.6176    0.1408    2.3139 H   0  0  0  0  0  0  0  0  0  0  0  0
    0.4695    2.6543    0.5794 H   0  0  0  0  0  0  0  0  0  0  0  0
    1.6405    2.4296    1.8818 H   0  0  0  0  0  0  0  0  0  0  0  0
    0.5294    4.5560    2.2366 H   0  0  0  0  0  0  0  0  0  0  0  0
   -0.8251    4.6084    3.3389 H   0  0  0  0  0  0  0  0  0  0  0  0
    0.1599   -1.9002    0.2237 N   0  0  0  0  0  0  0  0  0  0  0  0
   -0.1867   -3.3018    0.1594 C   0  0  2  0  0  0  0  0  0  0  0  0
    0.5511   -4.0206    1.2812 C   0  0  0  0  0  0  0  0  0  0  0  0
    1.5699   -3.5765    1.8064 O   0  0  0  0  0  0  0  0  0  0  0  0
    0.1681   -3.8980   -1.1939 C   0  0  0  0  0  0  0  0  0  0  0  0
   -0.5903   -1.2160    0.1940 H   0  0  0  0  0  0  0  0  0  0  0  0
   -1.2667   -3.3687    0.3302 H   0  0  0  0  0  0  0  0  0  0  0  0
    1.2462   -3.8399   -1.3828 H   0  0  0  0  0  0  0  0  0  0  0  0
   -0.1211   -4.9525   -1.2510 H   0  0  0  0  0  0  0  0  0  0  0  0
   -0.3403   -3.3607   -2.0018 H   0  0  0  0  0  0  0  0  0  0  0  0
   -0.0376   -5.2370    1.5974 N   0  0  0  0  0  0  0  0  0  0  0  0
    0.4837   -6.1127    2.6209 C   0  0  0  0  0  0  0  0  0  0  0  0
   -0.8914   -5.5171    1.1238 H   0  0  0  0  0  0  0  0  0  0  0  0
    1.1766   -6.8364    2.1669 H   0  0  0  0  0  0  0  0  0  0  0  0
    1.0182   -5.5171    3.3755 H   0  0  0  0  0  0  0  0  0  0  0  0
   -0.3470   -6.6516    3.1001 H   0  0  0  0  0  0  0  0  0  0  0  0
  1  3  1  0  0  0  0
  1  7  1  0  0  0  0
  1  2  2  0  0  0  0
 22 23  1  0  0  0  0
 23 25  1  0  0  0  0
 23 24  2  0  0  0  0
 35 36  1  0  0  0  0
 36 44  1  0  0  0  0
 36 37  2  0  0  0  0
  8  9  1  0  0  0  0
  9 17  1  0  0  0  0
  9 10  2  0  0  0  0
 18 19  1  0  0  0  0
 19 34  1  0  0  0  0
 19 20  2  0  0  0  0
 35 38  1  0  0  0  0
  8 11  1  0  0  0  0
 44 45  1  0  0  0  0
 21 22  1  0  0  0  0
 18 21  1  0  0  0  0
 34 35  1  0  0  0  0
  7  8  1  0  0  0  0
 17 18  1  0  0  0  0
  3  4  1  0  0  0  0
  3  5  1  0  0  0  0
  3  6  1  0  0  0  0
 38 41  1  0  0  0  0
 38 42  1  0  0  0  0
 38 43  1  0  0  0  0
 11 14  1  0  0  0  0
 11 15  1  0  0  0  0
 11 16  1  0  0  0  0
 45 47  1  0  0  0  0
 45 48  1  0  0  0  0
 45 49  1  0  0  0  0
 22 30  1  0  0  0  0
 22 31  1  0  0  0  0
 21 28  1  0  0  0  0
 21 29  1  0  0  0  0
 35 40  1  0  0  0  0
  8 13  1  0  0  0  0
 18 27  1  0  0  0  0
 25 32  1  0  0  0  0
 25 33  1  0  0  0  0
 44 46  1  0  0  0  0
  7 12  1  0  0  0  0
 34 39  1  0  0  0  0
 17 26  1  0  0  0  0
M  END
$$$$

  -OEChem-05262214473D

 49 48  0     1  0  0  0  0  0999 V2000
   -1.9833   -0.0509   -3.3423 C   0  0  0  0  0  0  0  0  0  0  0  0
   -1.6199   -1.0613   -2.7518 O   0  0  0  0  0  0  0  0  0  0  0  0
   -3.3243   -0.0235   -3.9975 C   0  0  0  0  0  0  0  0  0  0  0  0
   -3.2886   -0.3689   -5.0432 H   0  0  0  0  0  0  0  0  0  0  0  0
   -4.0503   -0.6845   -3.4973 H   0  0  0  0  0  0  0  0  0  0  0  0
   -3.8104    0.9645   -4.0351 H   0  0  0  0  0  0  0  0  0  0  0  0
   -1.2607    1.1231   -3.4768 N   0  0  0  0  0  0  0  0  0  0  0  0
    0.0536    1.3115   -2.9213 C   0  0  2  0  0  0  0  0  0  0  0  0
    0.0266    0.8315   -1.4761 C   0  0  0  0  0  0  0  0  0  0  0  0
   -1.0065    0.7530   -0.8146 O   0  0  0  0  0  0  0  0  0  0  0  0
    0.4852    2.7674   -3.0025 C   0  0  0  0  0  0  0  0  0  0  0  0
   -1.6809    1.8924   -3.9952 H   0  0  0  0  0  0  0  0  0  0  0  0
    0.7360    0.6822   -3.5030 H   0  0  0  0  0  0  0  0  0  0  0  0
   -0.1867    3.4133   -2.4256 H   0  0  0  0  0  0  0  0  0  0  0  0
    1.4966    2.9042   -2.6056 H   0  0  0  0  0  0  0  0  0  0  0  0
    0.4754    3.1196   -4.0397 H   0  0  0  0  0  0  0  0  0  0  0  0
    1.2978    0.5411   -0.9947 N   0  0  0  0  0  0  0  0  0  0  0  0
    1.5371    0.0807    0.3489 C   0  0  2  0  0  0  0  0  0  0  0  0
    1.4662   -1.4421    0.3239 C   0  0  0  0  0  0  0  0  0  0  0  0
    2.4209   -2.1610    0.6113 O   0  0  0  0  0  0  0  0  0  0  0  0
    0.5167    0.6459    1.3450 C   0  0  0  0  0  0  0  0  0  0  0  0
    0.6341    2.1583    1.5440 C   0  0  0  0  0  0  0  0  0  0  0  0
   -0.3898    2.7235    2.5106 C   0  0  0  0  0  0  0  0  0  0  0  0
   -1.2813    2.0599    3.0317 O   0  0  0  0  0  0  0  0  0  0  0  0
   -0.2227    4.0758    2.7194 N   0  0  0  0  0  0  0  0  0  0  0  0
    2.0949    0.6178   -1.6227 H   0  0  0  0  0  0  0  0  0  0  0  0
    2.5564    0.3859    0.6086 H   0  0  0  0  0  0  0  0  0  0  0  0
   -0.4976    0.4215    0.9886 H   0  0  0  0  0  0  0  0  0  0  0  0
    0.6176    0.1408    2.3139 H   0  0  0  0  0  0  0  0  0  0  0  0
    0.4695    2.6543    0.5794 H   0  0  0  0  0  0  0  0  0  0  0  0
    1.6405    2.4296    1.8818 H   0  0  0  0  0  0  0  0  0  0  0  0
    0.5294    4.5560    2.2366 H   0  0  0  0  0  0  0  0  0  0  0  0
   -0.8251    4.6084    3.3389 H   0  0  0  0  0  0  0  0  0  0  0  0
    0.2275   -1.8979   -0.1054 N   0  0  0  0  0  0  0  0  0  0  0  0
   -0.0988   -3.2993   -0.2410 C   0  0  2  0  0  0  0  0  0  0  0  0
    0.3197   -4.0059    1.0416 C   0  0  0  0  0  0  0  0  0  0  0  0
    1.1707   -3.5579    1.8072 O   0  0  0  0  0  0  0  0  0  0  0  0
    0.5902   -3.9134   -1.4496 C   0  0  0  0  0  0  0  0  0  0  0  0
   -0.4854   -1.2122   -0.3358 H   0  0  0  0  0  0  0  0  0  0  0  0
   -1.1866   -3.3612   -0.3544 H   0  0  0  0  0  0  0  0  0  0  0  0
    1.6809   -3.8606   -1.3540 H   0  0  0  0  0  0  0  0  0  0  0  0
    0.3194   -4.9679   -1.5674 H   0  0  0  0  0  0  0  0  0  0  0  0
    0.3111   -3.3851   -2.3676 H   0  0  0  0  0  0  0  0  0  0  0  0
   -0.3377   -5.2167    1.2088 N   0  0  0  0  0  0  0  0  0  0  0  0
   -0.1039   -6.0808    2.3422 C   0  0  0  0  0  0  0  0  0  0  0  0
   -1.0417   -5.5004    0.5338 H   0  0  0  0  0  0  0  0  0  0  0  0
    0.6786   -6.8120    2.0912 H   0  0  0  0  0  0  0  0  0  0  0  0
    0.2209   -5.4771    3.2025 H   0  0  0  0  0  0  0  0  0  0  0  0
   -1.0333   -6.6113    2.5966 H   0  0  0  0  0  0  0  0  0  0  0  0
  1  3  1  0  0  0  0
  1  7  1  0  0  0  0
  1  2  2  0  0  0  0
 22 23  1  0  0  0  0
 23 25  1  0  0  0  0
 23 24  2  0  0  0  0
 35 36  1  0  0  0  0
 36 44  1  0  0  0  0
 36 37  2  0  0  0  0
  8  9  1  0  0  0  0
  9 17  1  0  0  0  0
  9 10  2  0  0  0  0
 18 19  1  0  0  0  0
 19 34  1  0  0  0  0
 19 20  2  0  0  0  0
 35 38  1  0  0  0  0
  8 11  1  0  0  0  0
 44 45  1  0  0  0  0
 21 22  1  0  0  0  0
 18 21  1  0  0  0  0
 34 35  1  0  0  0  0
  7  8  1  0  0  0  0
 17 18  1  0  0  0  0
  3  4  1  0  0  0  0
  3  5  1  0  0  0  0
  3  6  1  0  0  0  0
 38 41  1  0  0  0  0
 38 42  1  0  0  0  0
 38 43  1  0  0  0  0
 11 14  1  0  0  0  0
 11 15  1  0  0  0  0
 11 16  1  0  0  0  0
 45 47  1  0  0  0  0
 45 48  1  0  0  0  0
 45 49  1  0  0  0  0
 22 30  1  0  0  0  0
 22 31  1  0  0  0  0
 21 28  1  0  0  0  0
 21 29  1  0  0  0  0
 35 40  1  0  0  0  0
  8 13  1  0  0  0  0
 18 27  1  0  0  0  0
 25 32  1  0  0  0  0
 25 33  1  0  0  0  0
 44 46  1  0  0  0  0
  7 12  1  0  0  0  0
 34 39  1  0  0  0  0
 17 26  1  0  0  0  0
M  END
$$$$

  -OEChem-05262214473D

 49 48  0     1  0  0  0  0  0999 V2000
   -1.9833   -0.0509   -3.3423 C   0  0  0  0  0  0  0  0  0  0  0  0
   -1.6199   -1.0613   -2.7518 O   0  0  0  0  0  0  0  0  0  0  0  0
   -3.3243   -0.0235   -3.9975 C   0  0  0  0  0  0  0  0  0  0  0  0
   -3.2886   -0.3689   -5.0432 H   0  0  0  0  0  0  0  0  0  0  0  0
   -4.0503   -0.6845   -3.4973 H   0  0  0  0  0  0  0  0  0  0  0  0
   -3.8104    0.9645   -4.0351 H   0  0  0  0  0  0  0  0  0  0  0  0
   -1.2607    1.1231   -3.4768 N   0  0  0  0  0  0  0  0  0  0  0  0
    0.0536    1.3115   -2.9213 C   0  0  2  0  0  0  0  0  0  0  0  0
    0.0266    0.8315   -1.4761 C   0  0  0  0  0  0  0  0  0  0  0  0
   -1.0065    0.7530   -0.8146 O   0  0  0  0  0  0  0  0  0  0  0  0
    0.4852    2.7674   -3.0025 C   0  0  0  0  0  0  0  0  0  0  0  0
   -1.6809    1.8924   -3.9952 H   0  0  0  0  0  0  0  0  0  0  0  0
    0.7360    0.6822   -3.5030 H   0  0  0  0  0  0  0  0  0  0  0  0
   -0.1867    3.4133   -2.4256 H   0  0  0  0  0  0  0  0  0  0  0  0
    1.4966    2.9042   -2.6056 H   0  0  0  0  0  0  0  0  0  0  0  0
    0.4754    3.1196   -4.0397 H   0  0  0  0  0  0  0  0  0  0  0  0
    1.2978    0.5411   -0.9947 N   0  0  0  0  0  0  0  0  0  0  0  0
    1.5371    0.0807    0.3489 C   0  0  2  0  0  0  0  0  0  0  0  0
    1.4662   -1.4421    0.3239 C   0  0  0  0  0  0  0  0  0  0  0  0
    2.3100   -2.1598    0.8566 O   0  0  0  0  0  0  0  0  0  0  0  0
    0.5167    0.6459    1.3450 C   0  0  0  0  0  0  0  0  0  0  0  0
    0.6341    2.1583    1.5440 C   0  0  0  0  0  0  0  0  0  0  0  0
   -0.3898    2.7235    2.5106 C   0  0  0  0  0  0  0  0  0  0  0  0
   -1.2813    2.0599    3.0317 O   0  0  0  0  0  0  0  0  0  0  0  0
   -0.2227    4.0758    2.7194 N   0  0  0  0  0  0  0  0  0  0  0  0
    2.0949    0.6178   -1.6227 H   0  0  0  0  0  0  0  0  0  0  0  0
    2.5564    0.3859    0.6086 H   0  0  0  0  0  0  0  0  0  0  0  0
   -0.4976    0.4215    0.9886 H   0  0  0  0  0  0  0  0  0  0  0  0
    0.6176    0.1408    2.3139 H   0  0  0  0  0  0  0  0  0  0  0  0
    0.4695    2.6543    0.5794 H   0  0  0  0  0  0  0  0  0  0  0  0
    1.6405    2.4296    1.8818 H   0  0  0  0  0  0  0  0  0  0  0  0
    0.5294    4.5560    2.2366 H   0  0  0  0  0  0  0  0  0  0  0  0
   -0.8251    4.6084    3.3389 H   0  0  0  0  0  0  0  0  0  0  0  0
    0.3779   -1.9000   -0.4058 N   0  0  0  0  0  0  0  0  0  0  0  0
    0.0896   -3.3021   -0.6050 C   0  0  2  0  0  0  0  0  0  0  0  0
    0.1582   -3.9936    0.7502 C   0  0  0  0  0  0  0  0  0  0  0  0
    0.7851   -3.5383    1.7046 O   0  0  0  0  0  0  0  0  0  0  0  0
    1.0640   -3.9332   -1.5873 C   0  0  0  0  0  0  0  0  0  0  0  0
   -0.2472   -1.2153   -0.8205 H   0  0  0  0  0  0  0  0  0  0  0  0
   -0.9323   -3.3625   -0.9951 H   0  0  0  0  0  0  0  0  0  0  0  0
    2.0932   -3.8822   -1.2135 H   0  0  0  0  0  0  0  0  0  0  0  0
    0.8267   -4.9884   -1.7590 H   0  0  0  0  0  0  0  0  0  0  0  0
    1.0348   -3.4157   -2.5522 H   0  0  0  0  0  0  0  0  0  0  0  0
   -0.5271   -5.2004    0.7557 N   0  0  0  0  0  0  0  0  0  0  0  0
   -0.5992   -6.0508    1.9208 C   0  0  0  0  0  0  0  0  0  0  0  0
   -1.0344   -5.4907   -0.0751 H   0  0  0  0  0  0  0  0  0  0  0  0
    0.2173   -6.7872    1.8891 H   0  0  0  0  0  0  0  0  0  0  0  0
   -0.5043   -5.4372    2.8289 H   0  0  0  0  0  0  0  0  0  0  0  0
   -1.5659   -6.5756    1.9323 H   0  0  0  0  0  0  0  0  0  0  0  0
  1  3  1  0  0  0  0
  1  7  1  0  0  0  0
  1  2  2  0  0  0  0
 22 23  1  0  0  0  0
 23 25  1  0  0  0  0
 23 24  2  0  0  0  0
 35 36  1  0  0  0  0
 36 44  1  0  0  0  0
 36 37  2  0  0  0  0
  8  9  1  0  0  0  0
  9 17  1  0  0  0  0
  9 10  2  0  0  0  0
 18 19  1  0  0  0  0
 19 34  1  0  0  0  0
 19 20  2  0  0  0  0
 35 38  1  0  0  0  0
  8 11  1  0  0  0  0
 44 45  1  0  0  0  0
 21 22  1  0  0  0  0
 18 21  1  0  0  0  0
 34 35  1  0  0  0  0
  7  8  1  0  0  0  0
 17 18  1  0  0  0  0
  3  4  1  0  0  0  0
  3  5  1  0  0  0  0
  3  6  1  0  0  0  0
 38 41  1  0  0  0  0
 38 42  1  0  0  0  0
 38 43  1  0  0  0  0
 11 14  1  0  0  0  0
 11 15  1  0  0  0  0
 11 16  1  0  0  0  0
 45 47  1  0  0  0  0
 45 48  1  0  0  0  0
 45 49  1  0  0  0  0
 22 30  1  0  0  0  0
 22 31  1  0  0  0  0
 21 28  1  0  0  0  0
 21 29  1  0  0  0  0
 35 40  1  0  0  0  0
  8 13  1  0  0  0  0
 18 27  1  0  0  0  0
 25 32  1  0  0  0  0
 25 33  1  0  0  0  0
 44 46  1  0  0  0  0
  7 12  1  0  0  0  0
 34 39  1  0  0  0  0
 17 26  1  0  0  0  0
M  END
$$$$

  -OEChem-05262214473D

 49 48  0     1  0  0  0  0  0999 V2000
   -1.9833   -0.0509   -3.3423 C   0  0  0  0  0  0  0  0  0  0  0  0
   -1.6199   -1.0613   -2.7518 O   0  0  0  0  0  0  0  0  0  0  0  0
   -3.3243   -0.0235   -3.9975 C   0  0  0  0  0  0  0  0  0  0  0  0
   -3.2886   -0.3689   -5.0432 H   0  0  0  0  0  0  0  0  0  0  0  0
   -4.0503   -0.6845   -3.4973 H   0  0  0  0  0  0  0  0  0  0  0  0
   -3.8104    0.9645   -4.0351 H   0  0  0  0  0  0  0  0  0  0  0  0
   -1.2607    1.1231   -3.4768 N   0  0  0  0  0  0  0  0  0  0  0  0
    0.0536    1.3115   -2.9213 C   0  0  2  0  0  0  0  0  0  0  0  0
    0.0266    0.8315   -1.4761 C   0  0  0  0  0  0  0  0  0  0  0  0
   -1.0065    0.7530   -0.8146 O   0  0  0  0  0  0  0  0  0  0  0  0
    0.4852    2.7674   -3.0025 C   0  0  0  0  0  0  0  0  0  0  0  0
   -1.6809    1.8924   -3.9952 H   0  0  0  0  0  0  0  0  0  0  0  0
    0.7360    0.6822   -3.5030 H   0  0  0  0  0  0  0  0  0  0  0  0
   -0.1867    3.4133   -2.4256 H   0  0  0  0  0  0  0  0  0  0  0  0
    1.4966    2.9042   -2.6056 H   0  0  0  0  0  0  0  0  0  0  0  0
    0.4754    3.1196   -4.0397 H   0  0  0  0  0  0  0  0  0  0  0  0
    1.2978    0.5411   -0.9947 N   0  0  0  0  0  0  0  0  0  0  0  0
    1.5371    0.0807    0.3489 C   0  0  2  0  0  0  0  0  0  0  0  0
    1.4662   -1.4421    0.3239 C   0  0  0  0  0  0  0  0  0  0  0  0
    2.1394   -2.1553    1.0649 O   0  0  0  0  0  0  0  0  0  0  0  0
    0.5167    0.6459    1.3450 C   0  0  0  0  0  0  0  0  0  0  0  0
    0.6341    2.1583    1.5440 C   0  0  0  0  0  0  0  0  0  0  0  0
   -0.3898    2.7235    2.5106 C   0  0  0  0  0  0  0  0  0  0  0  0
   -1.2813    2.0599    3.0317 O   0  0  0  0  0  0  0  0  0  0  0  0
   -0.2227    4.0758    2.7194 N   0  0  0  0  0  0  0  0  0  0  0  0
    2.0949    0.6178   -1.6227 H   0  0  0  0  0  0  0  0  0  0  0  0
    2.5564    0.3859    0.6086 H   0  0  0  0  0  0  0  0  0  0  0  0
   -0.4976    0.4215    0.9886 H   0  0  0  0  0  0  0  0  0  0  0  0
    0.6176    0.1408    2.3139 H   0  0  0  0  0  0  0  0  0  0  0  0
    0.4695    2.6543    0.5794 H   0  0  0  0  0  0  0  0  0  0  0  0
    1.6405    2.4296    1.8818 H   0  0  0  0  0  0  0  0  0  0  0  0
    0.5294    4.5560    2.2366 H   0  0  0  0  0  0  0  0  0  0  0  0
   -0.8251    4.6084    3.3389 H   0  0  0  0  0  0  0  0  0  0  0  0
    0.6009   -1.9062   -0.6570 N   0  0  0  0  0  0  0  0  0  0  0  0
    0.3656   -3.3100   -0.9079 C   0  0  2  0  0  0  0  0  0  0  0  0
    0.0776   -3.9845    0.4268 C   0  0  0  0  0  0  0  0  0  0  0  0
    0.4391   -3.5189    1.5055 O   0  0  0  0  0  0  0  0  0  0  0  0
    1.5572   -3.9560   -1.5975 C   0  0  0  0  0  0  0  0  0  0  0  0
    0.1082   -1.2252   -1.2271 H   0  0  0  0  0  0  0  0  0  0  0  0
   -0.5210   -3.3726   -1.5482 H   0  0  0  0  0  0  0  0  0  0  0  0
    2.4550   -3.9030   -0.9710 H   0  0  0  0  0  0  0  0  0  0  0  0
    1.3662   -5.0126   -1.8126 H   0  0  0  0  0  0  0  0  0  0  0  0
    1.7814   -3.4506   -2.5431 H   0  0  0  0  0  0  0  0  0  0  0  0
   -0.5928   -5.1893    0.2688 N   0  0  0  0  0  0  0  0  0  0  0  0
   -0.9686   -6.0248    1.3854 C   0  0  0  0  0  0  0  0  0  0  0  0
   -0.8698   -5.4887   -0.6615 H   0  0  0  0  0  0  0  0  0  0  0  0
   -0.1759   -6.7637    1.5742 H   0  0  0  0  0  0  0  0  0  0  0  0
   -1.1081   -5.4001    2.2800 H   0  0  0  0  0  0  0  0  0  0  0  0
   -1.9084   -6.5468    1.1526 H   0  0  0  0  0  0  0  0  0  0  0  0
  1  3  1  0  0  0  0
  1  7  1  0  0  0  0
  1  2  2  0  0  0  0
 22 23  1  0  0  0  0
 23 25  1  0  0  0  0
 23 24  2  0  0  0  0
 35 36  1  0  0  0  0
 36 44  1  0  0  0  0
 36 37  2  0  0  0  0
  8  9  1  0  0  0  0
  9 17  1  0  0  0  0
  9 10  2  0  0  0  0
 18 19  1  0  0  0  0
 19 34  1  0  0  0  0
 19 20  2  0  0  0  0
 35 38  1  0  0  0  0
  8 11  1  0  0  0  0
 44 45  1  0  0  0  0
 21 22  1  0  0  0  0
 18 21  1  0  0  0  0
 34 35  1  0  0  0  0
  7  8  1  0  0  0  0
 17 18  1  0  0  0  0
  3  4  1  0  0  0  0
  3  5  1  0  0  0  0
  3  6  1  0  0  0  0
 38 41  1  0  0  0  0
 38 42  1  0  0  0  0
 38 43  1  0  0  0  0
 11 14  1  0  0  0  0
 11 15  1  0  0  0  0
 11 16  1  0  0  0  0
 45 47  1  0  0  0  0
 45 48  1  0  0  0  0
 45 49  1  0  0  0  0
 22 30  1  0  0  0  0
 22 31  1  0  0  0  0
 21 28  1  0  0  0  0
 21 29  1  0  0  0  0
 35 40  1  0  0  0  0
  8 13  1  0  0  0  0
 18 27  1  0  0  0  0
 25 32  1  0  0  0  0
 25 33  1  0  0  0  0
 44 46  1  0  0  0  0
  7 12  1  0  0  0  0
 34 39  1  0  0  0  0
 17 26  1  0  0  0  0
M  END
$$$$

  -OEChem-05262214473D

 49 48  0     1  0  0  0  0  0999 V2000
   -1.9833   -0.0509   -3.3423 C   0  0  0  0  0  0  0  0  0  0  0  0
   -1.6199   -1.0613   -2.7518 O   0  0  0  0  0  0  0  0  0  0  0  0
   -3.3243   -0.0235   -3.9975 C   0  0  0  0  0  0  0  0  0  0  0  0
   -3.2886   -0.3689   -5.0432 H   0  0  0  0  0  0  0  0  0  0  0  0
   -4.0503   -0.6845   -3.4973 H   0  0  0  0  0  0  0  0  0  0  0  0
   -3.8104    0.9645   -4.0351 H   0  0  0  0  0  0  0  0  0  0  0  0
   -1.2607    1.1231   -3.4768 N   0  0  0  0  0  0  0  0  0  0  0  0
    0.0536    1.3115   -2.9213 C   0  0  2  0  0  0  0  0  0  0  0  0
    0.0266    0.8315   -1.4761 C   0  0  0  0  0  0  0  0  0  0  0  0
   -1.0065    0.7530   -0.8146 O   0  0  0  0  0  0  0  0  0  0  0  0
    0.4852    2.7674   -3.0025 C   0  0  0  0  0  0  0  0  0  0  0  0
   -1.6809    1.8924   -3.9952 H   0  0  0  0  0  0  0  0  0  0  0  0
    0.7360    0.6822   -3.5030 H   0  0  0  0  0  0  0  0  0  0  0  0
   -0.1867    3.4133   -2.4256 H   0  0  0  0  0  0  0  0  0  0  0  0
    1.4966    2.9042   -2.6056 H   0  0  0  0  0  0  0  0  0  0  0  0
    0.4754    3.1196   -4.0397 H   0  0  0  0  0  0  0  0  0  0  0  0
    1.2978    0.5411   -0.9947 N   0  0  0  0  0  0  0  0  0  0  0  0
    1.5371    0.0807    0.3489 C   0  0  2  0  0  0  0  0  0  0  0  0
    1.4662   -1.4421    0.3239 C   0  0  0  0  0  0  0  0  0  0  0  0
    1.9209   -2.1477    1.2219 O   0  0  0  0  0  0  0  0  0  0  0  0
    0.5167    0.6459    1.3450 C   0  0  0  0  0  0  0  0  0  0  0  0
    0.6341    2.1583    1.5440 C   0  0  0  0  0  0  0  0  0  0  0  0
   -0.3898    2.7235    2.5106 C   0  0  0  0  0  0  0  0  0  0  0  0
   -1.2813    2.0599    3.0317 O   0  0  0  0  0  0  0  0  0  0  0  0
   -0.2227    4.0758    2.7194 N   0  0  0  0  0  0  0  0  0  0  0  0
    2.0949    0.6178   -1.6227 H   0  0  0  0  0  0  0  0  0  0  0  0
    2.5564    0.3859    0.6086 H   0  0  0  0  0  0  0  0  0  0  0  0
   -0.4976    0.4215    0.9886 H   0  0  0  0  0  0  0  0  0  0  0  0
    0.6176    0.1408    2.3139 H   0  0  0  0  0  0  0  0  0  0  0  0
    0.4695    2.6543    0.5794 H   0  0  0  0  0  0  0  0  0  0  0  0
    1.6405    2.4296    1.8818 H   0  0  0  0  0  0  0  0  0  0  0  0
    0.5294    4.5560    2.2366 H   0  0  0  0  0  0  0  0  0  0  0  0
   -0.8251    4.6084    3.3389 H   0  0  0  0  0  0  0  0  0  0  0  0
    0.8811   -1.9163   -0.8420 N   0  0  0  0  0  0  0  0  0  0  0  0
    0.7106   -3.3224   -1.1290 C   0  0  2  0  0  0  0  0  0  0  0  0
    0.0834   -3.9793    0.0935 C   0  0  0  0  0  0  0  0  0  0  0  0
    0.1565   -3.5011    1.2236 O   0  0  0  0  0  0  0  0  0  0  0  0
    2.0361   -3.9803   -1.4797 C   0  0  0  0  0  0  0  0  0  0  0  0
    0.5565   -1.2411   -1.5279 H   0  0  0  0  0  0  0  0  0  0  0  0
    0.0192   -3.3907   -1.9760 H   0  0  0  0  0  0  0  0  0  0  0  0
    2.7418   -3.9217   -0.6430 H   0  0  0  0  0  0  0  0  0  0  0  0
    1.9010   -5.0389   -1.7247 H   0  0  0  0  0  0  0  0  0  0  0  0
    2.5000   -3.4874   -2.3409 H   0  0  0  0  0  0  0  0  0  0  0  0
   -0.5304   -5.1842   -0.2187 N   0  0  0  0  0  0  0  0  0  0  0  0
   -1.1869   -6.0045    0.7723 C   0  0  0  0  0  0  0  0  0  0  0  0
   -0.5593   -5.4946   -1.1854 H   0  0  0  0  0  0  0  0  0  0  0  0
   -0.4743   -6.7431    1.1682 H   0  0  0  0  0  0  0  0  0  0  0  0
   -1.5492   -5.3682    1.5932 H   0  0  0  0  0  0  0  0  0  0  0  0
   -2.0377   -6.5270    0.3105 H   0  0  0  0  0  0  0  0  0  0  0  0
  1  3  1  0  0  0  0
  1  7  1  0  0  0  0
  1  2  2  0  0  0  0
 22 23  1  0  0  0  0
 23 25  1  0  0  0  0
 23 24  2  0  0  0  0
 35 36  1  0  0  0  0
 36 44  1  0  0  0  0
 36 37  2  0  0  0  0
  8  9  1  0  0  0  0
  9 17  1  0  0  0  0
  9 10  2  0  0  0  0
 18 19  1  0  0  0  0
 19 34  1  0  0  0  0
 19 20  2  0  0  0  0
 35 38  1  0  0  0  0
  8 11  1  0  0  0  0
 44 45  1  0  0  0  0
 21 22  1  0  0  0  0
 18 21  1  0  0  0  0
 34 35  1  0  0  0  0
  7  8  1  0  0  0  0
 17 18  1  0  0  0  0
  3  4  1  0  0  0  0
  3  5  1  0  0  0  0
  3  6  1  0  0  0  0
 38 41  1  0  0  0  0
 38 42  1  0  0  0  0
 38 43  1  0  0  0  0
 11 14  1  0  0  0  0
 11 15  1  0  0  0  0
 11 16  1  0  0  0  0
 45 47  1  0  0  0  0
 45 48  1  0  0  0  0
 45 49  1  0  0  0  0
 22 30  1  0  0  0  0
 22 31  1  0  0  0  0
 21 28  1  0  0  0  0
 21 29  1  0  0  0  0
 35 40  1  0  0  0  0
  8 13  1  0  0  0  0
 18 27  1  0  0  0  0
 25 32  1  0  0  0  0
 25 33  1  0  0  0  0
 44 46  1  0  0  0  0
  7 12  1  0  0  0  0
 34 39  1  0  0  0  0
 17 26  1  0  0  0  0
M  END
$$$$

  -OEChem-05262214473D

 49 48  0     1  0  0  0  0  0999 V2000
   -1.9833   -0.0509   -3.3423 C   0  0  0  0  0  0  0  0  0  0  0  0
   -1.6199   -1.0613   -2.7518 O   0  0  0  0  0  0  0  0  0  0  0  0
   -3.3243   -0.0235   -3.9975 C   0  0  0  0  0  0  0  0  0  0  0  0
   -3.2886   -0.3689   -5.0432 H   0  0  0  0  0  0  0  0  0  0  0  0
   -4.0503   -0.6845   -3.4973 H   0  0  0  0  0  0  0  0  0  0  0  0
   -3.8104    0.9645   -4.0351 H   0  0  0  0  0  0  0  0  0  0  0  0
   -1.2607    1.1231   -3.4768 N   0  0  0  0  0  0  0  0  0  0  0  0
    0.0536    1.3115   -2.9213 C   0  0  2  0  0  0  0  0  0  0  0  0
    0.0266    0.8315   -1.4761 C   0  0  0  0  0  0  0  0  0  0  0  0
   -1.0065    0.7530   -0.8146 O   0  0  0  0  0  0  0  0  0  0  0  0
    0.4852    2.7674   -3.0025 C   0  0  0  0  0  0  0  0  0  0  0  0
   -1.6809    1.8924   -3.9952 H   0  0  0  0  0  0  0  0  0  0  0  0
    0.7360    0.6822   -3.5030 H   0  0  0  0  0  0  0  0  0  0  0  0
   -0.1867    3.4133   -2.4256 H   0  0  0  0  0  0  0  0  0  0  0  0
    1.4966    2.9042   -2.6056 H   0  0  0  0  0  0  0  0  0  0  0  0
    0.4754    3.1196   -4.0397 H   0  0  0  0  0  0  0  0  0  0  0  0
    1.2978    0.5411   -0.9947 N   0  0  0  0  0  0  0  0  0  0  0  0
    1.5371    0.0807    0.3489 C   0  0  2  0  0  0  0  0  0  0  0  0
    1.4662   -1.4421    0.3239 C   0  0  0  0  0  0  0  0  0  0  0  0
    1.6692   -2.1375    1.3169 O   0  0  0  0  0  0  0  0  0  0  0  0
    0.5167    0.6459    1.3450 C   0  0  0  0  0  0  0  0  0  0  0  0
    0.6341    2.1583    1.5440 C   0  0  0  0  0  0  0  0  0  0  0  0
   -0.3898    2.7235    2.5106 C   0  0  0  0  0  0  0  0  0  0  0  0
   -1.2813    2.0599    3.0317 O   0  0  0  0  0  0  0  0  0  0  0  0
   -0.2227    4.0758    2.7194 N   0  0  0  0  0  0  0  0  0  0  0  0
    2.0949    0.6178   -1.6227 H   0  0  0  0  0  0  0  0  0  0  0  0
    2.5564    0.3859    0.6086 H   0  0  0  0  0  0  0  0  0  0  0  0
   -0.4976    0.4215    0.9886 H   0  0  0  0  0  0  0  0  0  0  0  0
    0.6176    0.1408    2.3139 H   0  0  0  0  0  0  0  0  0  0  0  0
    0.4695    2.6543    0.5794 H   0  0  0  0  0  0  0  0  0  0  0  0
    1.6405    2.4296    1.8818 H   0  0  0  0  0  0  0  0  0  0  0  0
    0.5294    4.5560    2.2366 H   0  0  0  0  0  0  0  0  0  0  0  0
   -0.8251    4.6084    3.3389 H   0  0  0  0  0  0  0  0  0  0  0  0
    1.1996   -1.9293   -0.9481 N   0  0  0  0  0  0  0  0  0  0  0  0
    1.1009   -3.3385   -1.2533 C   0  0  2  0  0  0  0  0  0  0  0  0
    0.1752   -3.9783   -0.2270 C   0  0  0  0  0  0  0  0  0  0  0  0
   -0.0435   -3.4861    0.8780 O   0  0  0  0  0  0  0  0  0  0  0  0
    2.4681   -4.0043   -1.2418 C   0  0  0  0  0  0  0  0  0  0  0  0
    1.0672   -1.2620   -1.7023 H   0  0  0  0  0  0  0  0  0  0  0  0
    0.6516   -3.4157   -2.2494 H   0  0  0  0  0  0  0  0  0  0  0  0
    2.9339   -3.9371   -0.2519 H   0  0  0  0  0  0  0  0  0  0  0  0
    2.3948   -5.0656   -1.5012 H   0  0  0  0  0  0  0  0  0  0  0  0
    3.1417   -3.5236   -1.9594 H   0  0  0  0  0  0  0  0  0  0  0  0
   -0.3441   -5.1854   -0.6734 N   0  0  0  0  0  0  0  0  0  0  0  0
   -1.2392   -5.9915    0.1235 C   0  0  0  0  0  0  0  0  0  0  0  0
   -0.1239   -5.5079   -1.6111 H   0  0  0  0  0  0  0  0  0  0  0  0
   -0.6575   -6.7269    0.6986 H   0  0  0  0  0  0  0  0  0  0  0  0
   -1.7977   -5.3439    0.8155 H   0  0  0  0  0  0  0  0  0  0  0  0
   -1.9447   -6.5174   -0.5365 H   0  0  0  0  0  0  0  0  0  0  0  0
  1  3  1  0  0  0  0
  1  7  1  0  0  0  0
  1  2  2  0  0  0  0
 22 23  1  0  0  0  0
 23 25  1  0  0  0  0
 23 24  2  0  0  0  0
 35 36  1  0  0  0  0
 36 44  1  0  0  0  0
 36 37  2  0  0  0  0
  8  9  1  0  0  0  0
  9 17  1  0  0  0  0
  9 10  2  0  0  0  0
 18 19  1  0  0  0  0
 19 34  1  0  0  0  0
 19 20  2  0  0  0  0
 35 38  1  0  0  0  0
  8 11  1  0  0  0  0
 44 45  1  0  0  0  0
 21 22  1  0  0  0  0
 18 21  1  0  0  0  0
 34 35  1  0  0  0  0
  7  8  1  0  0  0  0
 17 18  1  0  0  0  0
  3  4  1  0  0  0  0
  3  5  1  0  0  0  0
  3  6  1  0  0  0  0
 38 41  1  0  0  0  0
 38 42  1  0  0  0  0
 38 43  1  0  0  0  0
 11 14  1  0  0  0  0
 11 15  1  0  0  0  0
 11 16  1  0  0  0  0
 45 47  1  0  0  0  0
 45 48  1  0  0  0  0
 45 49  1  0  0  0  0
 22 30  1  0  0  0  0
 22 31  1  0  0  0  0
 21 28  1  0  0  0  0
 21 29  1  0  0  0  0
 35 40  1  0  0  0  0
  8 13  1  0  0  0  0
 18 27  1  0  0  0  0
 25 32  1  0  0  0  0
 25 33  1  0  0  0  0
 44 46  1  0  0  0  0
  7 12  1  0  0  0  0
 34 39  1  0  0  0  0
 17 26  1  0  0  0  0
M  END
$$$$

  -OEChem-05262214473D

 49 48  0     1  0  0  0  0  0999 V2000
   -1.9833   -0.0509   -3.3423 C   0  0  0  0  0  0  0  0  0  0  0  0
   -1.6199   -1.0613   -2.7518 O   0  0  0  0  0  0  0  0  0  0  0  0
   -3.3243   -0.0235   -3.9975 C   0  0  0  0  0  0  0  0  0  0  0  0
   -3.2886   -0.3689   -5.0432 H   0  0  0  0  0  0  0  0  0  0  0  0
   -4.0503   -0.6845   -3.4973 H   0  0  0  0  0  0  0  0  0  0  0  0
   -3.8104    0.9645   -4.0351 H   0  0  0  0  0  0  0  0  0  0  0  0
   -1.2607    1.1231   -3.4768 N   0  0  0  0  0  0  0  0  0  0  0  0
    0.0536    1.3115   -2.9213 C   0  0  2  0  0  0  0  0  0  0  0  0
    0.0266    0.8315   -1.4761 C   0  0  0  0  0  0  0  0  0  0  0  0
   -1.0065    0.7530   -0.8146 O   0  0  0  0  0  0  0  0  0  0  0  0
    0.4852    2.7674   -3.0025 C   0  0  0  0  0  0  0  0  0  0  0  0
   -1.6809    1.8924   -3.9952 H   0  0  0  0  0  0  0  0  0  0  0  0
    0.7360    0.6822   -3.5030 H   0  0  0  0  0  0  0  0  0  0  0  0
   -0.1867    3.4133   -2.4256 H   0  0  0  0  0  0  0  0  0  0  0  0
    1.4966    2.9042   -2.6056 H   0  0  0  0  0  0  0  0  0  0  0  0
    0.4754    3.1196   -4.0397 H   0  0  0  0  0  0  0  0  0  0  0  0
    1.2978    0.5411   -0.9947 N   0  0  0  0  0  0  0  0  0  0  0  0
    1.5371    0.0807    0.3489 C   0  0  2  0  0  0  0  0  0  0  0  0
    1.4662   -1.4421    0.3239 C   0  0  0  0  0  0  0  0  0  0  0  0
    1.4015   -2.1255    1.3436 O   0  0  0  0  0  0  0  0  0  0  0  0
    0.5167    0.6459    1.3450 C   0  0  0  0  0  0  0  0  0  0  0  0
    0.6341    2.1583    1.5440 C   0  0  0  0  0  0  0  0  0  0  0  0
   -0.3898    2.7235    2.5106 C   0  0  0  0  0  0  0  0  0  0  0  0
   -1.2813    2.0599    3.0317 O   0  0  0  0  0  0  0  0  0  0  0  0
   -0.2227    4.0758    2.7194 N   0  0  0  0  0  0  0  0  0  0  0  0
    2.0949    0.6178   -1.6227 H   0  0  0  0  0  0  0  0  0  0  0  0
    2.5564    0.3859    0.6086 H   0  0  0  0  0  0  0  0  0  0  0  0
   -0.4976    0.4215    0.9886 H   0  0  0  0  0  0  0  0  0  0  0  0
    0.6176    0.1408    2.3139 H   0  0  0  0  0  0  0  0  0  0  0  0
    0.4695    2.6543    0.5794 H   0  0  0  0  0  0  0  0  0  0  0  0
    1.6405    2.4296    1.8818 H   0  0  0  0  0  0  0  0  0  0  0  0
    0.5294    4.5560    2.2366 H   0  0  0  0  0  0  0  0  0  0  0  0
   -0.8251    4.6084    3.3389 H   0  0  0  0  0  0  0  0  0  0  0  0
    1.5346   -1.9446   -0.9681 N   0  0  0  0  0  0  0  0  0  0  0  0
    1.5099   -3.3573   -1.2723 C   0  0  2  0  0  0  0  0  0  0  0  0
    0.3467   -3.9816   -0.5129 C   0  0  0  0  0  0  0  0  0  0  0  0
   -0.1473   -3.4749    0.4923 O   0  0  0  0  0  0  0  0  0  0  0  0
    2.8238   -4.0265   -0.9000 C   0  0  0  0  0  0  0  0  0  0  0  0
    1.6056   -1.2865   -1.7385 H   0  0  0  0  0  0  0  0  0  0  0  0
    1.3329   -3.4457   -2.3497 H   0  0  0  0  0  0  0  0  0  0  0  0
    3.0183   -3.9481    0.1758 H   0  0  0  0  0  0  0  0  0  0  0  0
    2.8139   -5.0908   -1.1574 H   0  0  0  0  0  0  0  0  0  0  0  0
    3.6628   -3.5566   -1.4245 H   0  0  0  0  0  0  0  0  0  0  0  0
   -0.0466   -5.1929   -1.0645 N   0  0  0  0  0  0  0  0  0  0  0  0
   -1.1219   -5.9864   -0.5168 C   0  0  0  0  0  0  0  0  0  0  0  0
    0.4066   -5.5277   -1.9096 H   0  0  0  0  0  0  0  0  0  0  0  0
   -0.7129   -6.7161    0.1975 H   0  0  0  0  0  0  0  0  0  0  0  0
   -1.8365   -5.3287   -0.0003 H   0  0  0  0  0  0  0  0  0  0  0  0
   -1.6359   -6.5188   -1.3307 H   0  0  0  0  0  0  0  0  0  0  0  0
  1  3  1  0  0  0  0
  1  7  1  0  0  0  0
  1  2  2  0  0  0  0
 22 23  1  0  0  0  0
 23 25  1  0  0  0  0
 23 24  2  0  0  0  0
 35 36  1  0  0  0  0
 36 44  1  0  0  0  0
 36 37  2  0  0  0  0
  8  9  1  0  0  0  0
  9 17  1  0  0  0  0
  9 10  2  0  0  0  0
 18 19  1  0  0  0  0
 19 34  1  0  0  0  0
 19 20  2  0  0  0  0
 35 38  1  0  0  0  0
  8 11  1  0  0  0  0
 44 45  1  0  0  0  0
 21 22  1  0  0  0  0
 18 21  1  0  0  0  0
 34 35  1  0  0  0  0
  7  8  1  0  0  0  0
 17 18  1  0  0  0  0
  3  4  1  0  0  0  0
  3  5  1  0  0  0  0
  3  6  1  0  0  0  0
 38 41  1  0  0  0  0
 38 42  1  0  0  0  0
 38 43  1  0  0  0  0
 11 14  1  0  0  0  0
 11 15  1  0  0  0  0
 11 16  1  0  0  0  0
 45 47  1  0  0  0  0
 45 48  1  0  0  0  0
 45 49  1  0  0  0  0
 22 30  1  0  0  0  0
 22 31  1  0  0  0  0
 21 28  1  0  0  0  0
 21 29  1  0  0  0  0
 35 40  1  0  0  0  0
  8 13  1  0  0  0  0
 18 27  1  0  0  0  0
 25 32  1  0  0  0  0
 25 33  1  0  0  0  0
 44 46  1  0  0  0  0
  7 12  1  0  0  0  0
 34 39  1  0  0  0  0
 17 26  1  0  0  0  0
M  END
$$$$

  -OEChem-05262214473D

 49 48  0     1  0  0  0  0  0999 V2000
   -1.9833   -0.0509   -3.3423 C   0  0  0  0  0  0  0  0  0  0  0  0
   -1.6199   -1.0613   -2.7518 O   0  0  0  0  0  0  0  0  0  0  0  0
   -3.3243   -0.0235   -3.9975 C   0  0  0  0  0  0  0  0  0  0  0  0
   -3.2886   -0.3689   -5.0432 H   0  0  0  0  0  0  0  0  0  0  0  0
   -4.0503   -0.6845   -3.4973 H   0  0  0  0  0  0  0  0  0  0  0  0
   -3.8104    0.9645   -4.0351 H   0  0  0  0  0  0  0  0  0  0  0  0
   -1.2607    1.1231   -3.4768 N   0  0  0  0  0  0  0  0  0  0  0  0
    0.0536    1.3115   -2.9213 C   0  0  2  0  0  0  0  0  0  0  0  0
    0.0266    0.8315   -1.4761 C   0  0  0  0  0  0  0  0  0  0  0  0
   -1.0065    0.7530   -0.8146 O   0  0  0  0  0  0  0  0  0  0  0  0
    0.4852    2.7674   -3.0025 C   0  0  0  0  0  0  0  0  0  0  0  0
   -1.6809    1.8924   -3.9952 H   0  0  0  0  0  0  0  0  0  0  0  0
    0.7360    0.6822   -3.5030 H   0  0  0  0  0  0  0  0  0  0  0  0
   -0.1867    3.4133   -2.4256 H   0  0  0  0  0  0  0  0  0  0  0  0
    1.4966    2.9042   -2.6056 H   0  0  0  0  0  0  0  0  0  0  0  0
    0.4754    3.1196   -4.0397 H   0  0  0  0  0  0  0  0  0  0  0  0
    1.2978    0.5411   -0.9947 N   0  0  0  0  0  0  0  0  0  0  0  0
    1.5371    0.0807    0.3489 C   0  0  2  0  0  0  0  0  0  0  0  0
    1.4662   -1.4421    0.3239 C   0  0  0  0  0  0  0  0  0  0  0  0
    1.1362   -2.1124    1.3000 O   0  0  0  0  0  0  0  0  0  0  0  0
    0.5167    0.6459    1.3450 C   0  0  0  0  0  0  0  0  0  0  0  0
    0.6341    2.1583    1.5440 C   0  0  0  0  0  0  0  0  0  0  0  0
   -0.3898    2.7235    2.5106 C   0  0  0  0  0  0  0  0  0  0  0  0
   -1.2813    2.0599    3.0317 O   0  0  0  0  0  0  0  0  0  0  0  0
   -0.2227    4.0758    2.7194 N   0  0  0  0  0  0  0  0  0  0  0  0
    2.0949    0.6178   -1.6227 H   0  0  0  0  0  0  0  0  0  0  0  0
    2.5564    0.3859    0.6086 H   0  0  0  0  0  0  0  0  0  0  0  0
   -0.4976    0.4215    0.9886 H   0  0  0  0  0  0  0  0  0  0  0  0
    0.6176    0.1408    2.3139 H   0  0  0  0  0  0  0  0  0  0  0  0
    0.4695    2.6543    0.5794 H   0  0  0  0  0  0  0  0  0  0  0  0
    1.6405    2.4296    1.8818 H   0  0  0  0  0  0  0  0  0  0  0  0
    0.5294    4.5560    2.2366 H   0  0  0  0  0  0  0  0  0  0  0  0
   -0.8251    4.6084    3.3389 H   0  0  0  0  0  0  0  0  0  0  0  0
    1.8633   -1.9610   -0.9006 N   0  0  0  0  0  0  0  0  0  0  0  0
    1.9098   -3.3773   -1.1846 C   0  0  2  0  0  0  0  0  0  0  0  0
    0.5863   -3.9890   -0.7446 C   0  0  0  0  0  0  0  0  0  0  0  0
   -0.1478   -3.4683    0.0927 O   0  0  0  0  0  0  0  0  0  0  0  0
    3.0789   -4.0453   -0.4777 C   0  0  0  0  0  0  0  0  0  0  0  0
    2.1348   -1.3129   -1.6340 H   0  0  0  0  0  0  0  0  0  0  0  0
    2.0168   -3.4789   -2.2701 H   0  0  0  0  0  0  0  0  0  0  0  0
    2.9892   -3.9538    0.6109 H   0  0  0  0  0  0  0  0  0  0  0  0
    3.1296   -5.1127   -0.7166 H   0  0  0  0  0  0  0  0  0  0  0  0
    4.0277   -3.5843   -0.7728 H   0  0  0  0  0  0  0  0  0  0  0  0
    0.3418   -5.2060   -1.3652 N   0  0  0  0  0  0  0  0  0  0  0  0
   -0.8431   -5.9897   -1.1051 C   0  0  0  0  0  0  0  0  0  0  0  0
    0.9961   -5.5527   -2.0606 H   0  0  0  0  0  0  0  0  0  0  0  0
   -0.6369   -6.7114   -0.3010 H   0  0  0  0  0  0  0  0  0  0  0  0
   -1.6631   -5.3237   -0.7984 H   0  0  0  0  0  0  0  0  0  0  0  0
   -1.1323   -6.5309   -2.0181 H   0  0  0  0  0  0  0  0  0  0  0  0
  1  3  1  0  0  0  0
  1  7  1  0  0  0  0
  1  2  2  0  0  0  0
 22 23  1  0  0  0  0
 23 25  1  0  0  0  0
 23 24  2  0  0  0  0
 35 36  1  0  0  0  0
 36 44  1  0  0  0  0
 36 37  2  0  0  0  0
  8  9  1  0  0  0  0
  9 17  1  0  0  0  0
  9 10  2  0  0  0  0
 18 19  1  0  0  0  0
 19 34  1  0  0  0  0
 19 20  2  0  0  0  0
 35 38  1  0  0  0  0
  8 11  1  0  0  0  0
 44 45  1  0  0  0  0
 21 22  1  0  0  0  0
 18 21  1  0  0  0  0
 34 35  1  0  0  0  0
  7  8  1  0  0  0  0
 17 18  1  0  0  0  0
  3  4  1  0  0  0  0
  3  5  1  0  0  0  0
  3  6  1  0  0  0  0
 38 41  1  0  0  0  0
 38 42  1  0  0  0  0
 38 43  1  0  0  0  0
 11 14  1  0  0  0  0
 11 15  1  0  0  0  0
 11 16  1  0  0  0  0
 45 47  1  0  0  0  0
 45 48  1  0  0  0  0
 45 49  1  0  0  0  0
 22 30  1  0  0  0  0
 22 31  1  0  0  0  0
 21 28  1  0  0  0  0
 21 29  1  0  0  0  0
 35 40  1  0  0  0  0
  8 13  1  0  0  0  0
 18 27  1  0  0  0  0
 25 32  1  0  0  0  0
 25 33  1  0  0  0  0
 44 46  1  0  0  0  0
  7 12  1  0  0  0  0
 34 39  1  0  0  0  0
 17 26  1  0  0  0  0
M  END
$$$$

  -OEChem-05262214473D

 49 48  0     1  0  0  0  0  0999 V2000
   -1.9833   -0.0509   -3.3423 C   0  0  0  0  0  0  0  0  0  0  0  0
   -1.6199   -1.0613   -2.7518 O   0  0  0  0  0  0  0  0  0  0  0  0
   -3.3243   -0.0235   -3.9975 C   0  0  0  0  0  0  0  0  0  0  0  0
   -3.2886   -0.3689   -5.0432 H   0  0  0  0  0  0  0  0  0  0  0  0
   -4.0503   -0.6845   -3.4973 H   0  0  0  0  0  0  0  0  0  0  0  0
   -3.8104    0.9645   -4.0351 H   0  0  0  0  0  0  0  0  0  0  0  0
   -1.2607    1.1231   -3.4768 N   0  0  0  0  0  0  0  0  0  0  0  0
    0.0536    1.3115   -2.9213 C   0  0  2  0  0  0  0  0  0  0  0  0
    0.0266    0.8315   -1.4761 C   0  0  0  0  0  0  0  0  0  0  0  0
   -1.0065    0.7530   -0.8146 O   0  0  0  0  0  0  0  0  0  0  0  0
    0.4852    2.7674   -3.0025 C   0  0  0  0  0  0  0  0  0  0  0  0
   -1.6809    1.8924   -3.9952 H   0  0  0  0  0  0  0  0  0  0  0  0
    0.7360    0.6822   -3.5030 H   0  0  0  0  0  0  0  0  0  0  0  0
   -0.1867    3.4133   -2.4256 H   0  0  0  0  0  0  0  0  0  0  0  0
    1.4966    2.9042   -2.6056 H   0  0  0  0  0  0  0  0  0  0  0  0
    0.4754    3.1196   -4.0397 H   0  0  0  0  0  0  0  0  0  0  0  0
    1.2978    0.5411   -0.9947 N   0  0  0  0  0  0  0  0  0  0  0  0
    1.5371    0.0807    0.3489 C   0  0  2  0  0  0  0  0  0  0  0  0
    1.4662   -1.4421    0.3239 C   0  0  0  0  0  0  0  0  0  0  0  0
    0.8912   -2.0992    1.1891 O   0  0  0  0  0  0  0  0  0  0  0  0
    0.5167    0.6459    1.3450 C   0  0  0  0  0  0  0  0  0  0  0  0
    0.6341    2.1583    1.5440 C   0  0  0  0  0  0  0  0  0  0  0  0
   -0.3898    2.7235    2.5106 C   0  0  0  0  0  0  0  0  0  0  0  0
   -1.2813    2.0599    3.0317 O   0  0  0  0  0  0  0  0  0  0  0  0
   -0.2227    4.0758    2.7194 N   0  0  0  0  0  0  0  0  0  0  0  0
    2.0949    0.6178   -1.6227 H   0  0  0  0  0  0  0  0  0  0  0  0
    2.5564    0.3859    0.6086 H   0  0  0  0  0  0  0  0  0  0  0  0
   -0.4976    0.4215    0.9886 H   0  0  0  0  0  0  0  0  0  0  0  0
    0.6176    0.1408    2.3139 H   0  0  0  0  0  0  0  0  0  0  0  0
    0.4695    2.6543    0.5794 H   0  0  0  0  0  0  0  0  0  0  0  0
    1.6405    2.4296    1.8818 H   0  0  0  0  0  0  0  0  0  0  0  0
    0.5294    4.5560    2.2366 H   0  0  0  0  0  0  0  0  0  0  0  0
   -0.8251    4.6084    3.3389 H   0  0  0  0  0  0  0  0  0  0  0  0
    2.1633   -1.9775   -0.7503 N   0  0  0  0  0  0  0  0  0  0  0  0
    2.2734   -3.3974   -0.9963 C   0  0  2  0  0  0  0  0  0  0  0  0
    0.8775   -3.9999   -0.9065 C   0  0  0  0  0  0  0  0  0  0  0  0
   -0.0450   -3.4668   -0.2934 O   0  0  0  0  0  0  0  0  0  0  0  0
    3.2161   -4.0595   -0.0036 C   0  0  0  0  0  0  0  0  0  0  0  0
    2.6189   -1.3393   -1.3959 H   0  0  0  0  0  0  0  0  0  0  0  0
    2.6567   -3.5129   -2.0160 H   0  0  0  0  0  0  0  0  0  0  0  0
    2.8486   -3.9541    1.0237 H   0  0  0  0  0  0  0  0  0  0  0  0
    3.3206   -5.1300   -0.2090 H   0  0  0  0  0  0  0  0  0  0  0  0
    4.2116   -3.6048   -0.0486 H   0  0  0  0  0  0  0  0  0  0  0  0
    0.7947   -5.2240   -1.5551 N   0  0  0  0  0  0  0  0  0  0  0  0
   -0.4217   -6.0012   -1.6013 C   0  0  0  0  0  0  0  0  0  0  0  0
    1.6045   -5.5811   -2.0537 H   0  0  0  0  0  0  0  0  0  0  0  0
   -0.4346   -6.7133   -0.7629 H   0  0  0  0  0  0  0  0  0  0  0  0
   -1.2892   -5.3291   -1.5247 H   0  0  0  0  0  0  0  0  0  0  0  0
   -0.4683   -6.5531   -2.5517 H   0  0  0  0  0  0  0  0  0  0  0  0
  1  3  1  0  0  0  0
  1  7  1  0  0  0  0
  1  2  2  0  0  0  0
 22 23  1  0  0  0  0
 23 25  1  0  0  0  0
 23 24  2  0  0  0  0
 35 36  1  0  0  0  0
 36 44  1  0  0  0  0
 36 37  2  0  0  0  0
  8  9  1  0  0  0  0
  9 17  1  0  0  0  0
  9 10  2  0  0  0  0
 18 19  1  0  0  0  0
 19 34  1  0  0  0  0
 19 20  2  0  0  0  0
 35 38  1  0  0  0  0
  8 11  1  0  0  0  0
 44 45  1  0  0  0  0
 21 22  1  0  0  0  0
 18 21  1  0  0  0  0
 34 35  1  0  0  0  0
  7  8  1  0  0  0  0
 17 18  1  0  0  0  0
  3  4  1  0  0  0  0
  3  5  1  0  0  0  0
  3  6  1  0  0  0  0
 38 41  1  0  0  0  0
 38 42  1  0  0  0  0
 38 43  1  0  0  0  0
 11 14  1  0  0  0  0
 11 15  1  0  0  0  0
 11 16  1  0  0  0  0
 45 47  1  0  0  0  0
 45 48  1  0  0  0  0
 45 49  1  0  0  0  0
 22 30  1  0  0  0  0
 22 31  1  0  0  0  0
 21 28  1  0  0  0  0
 21 29  1  0  0  0  0
 35 40  1  0  0  0  0
  8 13  1  0  0  0  0
 18 27  1  0  0  0  0
 25 32  1  0  0  0  0
 25 33  1  0  0  0  0
 44 46  1  0  0  0  0
  7 12  1  0  0  0  0
 34 39  1  0  0  0  0
 17 26  1  0  0  0  0
M  END
$$$$

  -OEChem-05262214473D

 49 48  0     1  0  0  0  0  0999 V2000
   -1.9833   -0.0509   -3.3423 C   0  0  0  0  0  0  0  0  0  0  0  0
   -1.6199   -1.0613   -2.7518 O   0  0  0  0  0  0  0  0  0  0  0  0
   -3.3243   -0.0235   -3.9975 C   0  0  0  0  0  0  0  0  0  0  0  0
   -3.2886   -0.3689   -5.0432 H   0  0  0  0  0  0  0  0  0  0  0  0
   -4.0503   -0.6845   -3.4973 H   0  0  0  0  0  0  0  0  0  0  0  0
   -3.8104    0.9645   -4.0351 H   0  0  0  0  0  0  0  0  0  0  0  0
   -1.2607    1.1231   -3.4768 N   0  0  0  0  0  0  0  0  0  0  0  0
    0.0536    1.3115   -2.9213 C   0  0  2  0  0  0  0  0  0  0  0  0
    0.0266    0.8315   -1.4761 C   0  0  0  0  0  0  0  0  0  0  0  0
   -1.0065    0.7530   -0.8146 O   0  0  0  0  0  0  0  0  0  0  0  0
    0.4852    2.7674   -3.0025 C   0  0  0  0  0  0  0  0  0  0  0  0
   -1.6809    1.8924   -3.9952 H   0  0  0  0  0  0  0  0  0  0  0  0
    0.7360    0.6822   -3.5030 H   0  0  0  0  0  0  0  0  0  0  0  0
   -0.1867    3.4133   -2.4256 H   0  0  0  0  0  0  0  0  0  0  0  0
    1.4966    2.9042   -2.6056 H   0  0  0  0  0  0  0  0  0  0  0  0
    0.4754    3.1196   -4.0397 H   0  0  0  0  0  0  0  0  0  0  0  0
    1.2978    0.5411   -0.9947 N   0  0  0  0  0  0  0  0  0  0  0  0
    1.5371    0.0807    0.3489 C   0  0  2  0  0  0  0  0  0  0  0  0
    1.4662   -1.4421    0.3239 C   0  0  0  0  0  0  0  0  0  0  0  0
    0.6833   -2.0867    1.0185 O   0  0  0  0  0  0  0  0  0  0  0  0
    0.5167    0.6459    1.3450 C   0  0  0  0  0  0  0  0  0  0  0  0
    0.6341    2.1583    1.5440 C   0  0  0  0  0  0  0  0  0  0  0  0
   -0.3898    2.7235    2.5106 C   0  0  0  0  0  0  0  0  0  0  0  0
   -1.2813    2.0599    3.0317 O   0  0  0  0  0  0  0  0  0  0  0  0
   -0.2227    4.0758    2.7194 N   0  0  0  0  0  0  0  0  0  0  0  0
    2.0949    0.6178   -1.6227 H   0  0  0  0  0  0  0  0  0  0  0  0
    2.5564    0.3859    0.6086 H   0  0  0  0  0  0  0  0  0  0  0  0
   -0.4976    0.4215    0.9886 H   0  0  0  0  0  0  0  0  0  0  0  0
    0.6176    0.1408    2.3139 H   0  0  0  0  0  0  0  0  0  0  0  0
    0.4695    2.6543    0.5794 H   0  0  0  0  0  0  0  0  0  0  0  0
    1.6405    2.4296    1.8818 H   0  0  0  0  0  0  0  0  0  0  0  0
    0.5294    4.5560    2.2366 H   0  0  0  0  0  0  0  0  0  0  0  0
   -0.8251    4.6084    3.3389 H   0  0  0  0  0  0  0  0  0  0  0  0
    2.4141   -1.9928   -0.5273 N   0  0  0  0  0  0  0  0  0  0  0  0
    2.5758   -3.4160   -0.7202 C   0  0  2  0  0  0  0  0  0  0  0  0
    1.2007   -4.0136   -0.9874 C   0  0  0  0  0  0  0  0  0  0  0  0
    0.1541   -3.4704   -0.6398 O   0  0  0  0  0  0  0  0  0  0  0  0
    3.2260   -4.0680    0.4901 C   0  0  0  0  0  0  0  0  0  0  0  0
    3.0248   -1.3641   -1.0405 H   0  0  0  0  0  0  0  0  0  0  0  0
    3.2090   -3.5453   -1.6047 H   0  0  0  0  0  0  0  0  0  0  0  0
    2.6060   -3.9487    1.3861 H   0  0  0  0  0  0  0  0  0  0  0  0
    3.3738   -5.1413    0.3310 H   0  0  0  0  0  0  0  0  0  0  0  0
    4.2020   -3.6166    0.6987 H   0  0  0  0  0  0  0  0  0  0  0  0
    1.2812   -5.2456   -1.6213 N   0  0  0  0  0  0  0  0  0  0  0  0
    0.1135   -6.0200   -1.9714 C   0  0  0  0  0  0  0  0  0  0  0  0
    2.1902   -5.6111   -1.8894 H   0  0  0  0  0  0  0  0  0  0  0  0
   -0.1197   -6.7214   -1.1568 H   0  0  0  0  0  0  0  0  0  0  0  0
   -0.7404   -5.3448   -2.1294 H   0  0  0  0  0  0  0  0  0  0  0  0
    0.3110   -6.5837   -2.8952 H   0  0  0  0  0  0  0  0  0  0  0  0
  1  3  1  0  0  0  0
  1  7  1  0  0  0  0
  1  2  2  0  0  0  0
 22 23  1  0  0  0  0
 23 25  1  0  0  0  0
 23 24  2  0  0  0  0
 35 36  1  0  0  0  0
 36 44  1  0  0  0  0
 36 37  2  0  0  0  0
  8  9  1  0  0  0  0
  9 17  1  0  0  0  0
  9 10  2  0  0  0  0
 18 19  1  0  0  0  0
 19 34  1  0  0  0  0
 19 20  2  0  0  0  0
 35 38  1  0  0  0  0
  8 11  1  0  0  0  0
 44 45  1  0  0  0  0
 21 22  1  0  0  0  0
 18 21  1  0  0  0  0
 34 35  1  0  0  0  0
  7  8  1  0  0  0  0
 17 18  1  0  0  0  0
  3  4  1  0  0  0  0
  3  5  1  0  0  0  0
  3  6  1  0  0  0  0
 38 41  1  0  0  0  0
 38 42  1  0  0  0  0
 38 43  1  0  0  0  0
 11 14  1  0  0  0  0
 11 15  1  0  0  0  0
 11 16  1  0  0  0  0
 45 47  1  0  0  0  0
 45 48  1  0  0  0  0
 45 49  1  0  0  0  0
 22 30  1  0  0  0  0
 22 31  1  0  0  0  0
 21 28  1  0  0  0  0
 21 29  1  0  0  0  0
 35 40  1  0  0  0  0
  8 13  1  0  0  0  0
 18 27  1  0  0  0  0
 25 32  1  0  0  0  0
 25 33  1  0  0  0  0
 44 46  1  0  0  0  0
  7 12  1  0  0  0  0
 34 39  1  0  0  0  0
 17 26  1  0  0  0  0
M  END
$$$$

  -OEChem-05262214473D

 49 48  0     1  0  0  0  0  0999 V2000
   -1.9833   -0.0509   -3.3423 C   0  0  0  0  0  0  0  0  0  0  0  0
   -1.6199   -1.0613   -2.7518 O   0  0  0  0  0  0  0  0  0  0  0  0
   -3.3243   -0.0235   -3.9975 C   0  0  0  0  0  0  0  0  0  0  0  0
   -3.2886   -0.3689   -5.0432 H   0  0  0  0  0  0  0  0  0  0  0  0
   -4.0503   -0.6845   -3.4973 H   0  0  0  0  0  0  0  0  0  0  0  0
   -3.8104    0.9645   -4.0351 H   0  0  0  0  0  0  0  0  0  0  0  0
   -1.2607    1.1231   -3.4768 N   0  0  0  0  0  0  0  0  0  0  0  0
    0.0536    1.3115   -2.9213 C   0  0  2  0  0  0  0  0  0  0  0  0
    0.0266    0.8315   -1.4761 C   0  0  0  0  0  0  0  0  0  0  0  0
   -1.0065    0.7530   -0.8146 O   0  0  0  0  0  0  0  0  0  0  0  0
    0.4852    2.7674   -3.0025 C   0  0  0  0  0  0  0  0  0  0  0  0
   -1.6809    1.8924   -3.9952 H   0  0  0  0  0  0  0  0  0  0  0  0
    0.7360    0.6822   -3.5030 H   0  0  0  0  0  0  0  0  0  0  0  0
   -0.1867    3.4133   -2.4256 H   0  0  0  0  0  0  0  0  0  0  0  0
    1.4966    2.9042   -2.6056 H   0  0  0  0  0  0  0  0  0  0  0  0
    0.4754    3.1196   -4.0397 H   0  0  0  0  0  0  0  0  0  0  0  0
    1.2978    0.5411   -0.9947 N   0  0  0  0  0  0  0  0  0  0  0  0
    1.5371    0.0807    0.3489 C   0  0  2  0  0  0  0  0  0  0  0  0
    1.4662   -1.4421    0.3239 C   0  0  0  0  0  0  0  0  0  0  0  0
    0.5266   -2.0758    0.7999 O   0  0  0  0  0  0  0  0  0  0  0  0
    0.5167    0.6459    1.3450 C   0  0  0  0  0  0  0  0  0  0  0  0
    0.6341    2.1583    1.5440 C   0  0  0  0  0  0  0  0  0  0  0  0
   -0.3898    2.7235    2.5106 C   0  0  0  0  0  0  0  0  0  0  0  0
   -1.2813    2.0599    3.0317 O   0  0  0  0  0  0  0  0  0  0  0  0
   -0.2227    4.0758    2.7194 N   0  0  0  0  0  0  0  0  0  0  0  0
    2.0949    0.6178   -1.6227 H   0  0  0  0  0  0  0  0  0  0  0  0
    2.5564    0.3859    0.6086 H   0  0  0  0  0  0  0  0  0  0  0  0
   -0.4976    0.4215    0.9886 H   0  0  0  0  0  0  0  0  0  0  0  0
    0.6176    0.1408    2.3139 H   0  0  0  0  0  0  0  0  0  0  0  0
    0.4695    2.6543    0.5794 H   0  0  0  0  0  0  0  0  0  0  0  0
    1.6405    2.4296    1.8818 H   0  0  0  0  0  0  0  0  0  0  0  0
    0.5294    4.5560    2.2366 H   0  0  0  0  0  0  0  0  0  0  0  0
   -0.8251    4.6084    3.3389 H   0  0  0  0  0  0  0  0  0  0  0  0
    2.5987   -2.0060   -0.2469 N   0  0  0  0  0  0  0  0  0  0  0  0
    2.7964   -3.4319   -0.3751 C   0  0  2  0  0  0  0  0  0  0  0  0
    1.5336   -4.0292   -0.9818 C   0  0  0  0  0  0  0  0  0  0  0  0
    0.4360   -3.4788   -0.9229 O   0  0  0  0  0  0  0  0  0  0  0  0
    3.1079   -4.0704    0.9695 C   0  0  0  0  0  0  0  0  0  0  0  0
    3.3250   -1.3854   -0.5919 H   0  0  0  0  0  0  0  0  0  0  0  0
    3.6360   -3.5741   -1.0643 H   0  0  0  0  0  0  0  0  0  0  0  0
    2.2781   -3.9382    1.6734 H   0  0  0  0  0  0  0  0  0  0  0  0
    3.2856   -5.1460    0.8664 H   0  0  0  0  0  0  0  0  0  0  0  0
    3.9994   -3.6190    1.4181 H   0  0  0  0  0  0  0  0  0  0  0  0
    1.7681   -5.2693   -1.5592 N   0  0  0  0  0  0  0  0  0  0  0  0
    0.7261   -6.0450   -2.1904 C   0  0  0  0  0  0  0  0  0  0  0  0
    2.7134   -5.6405   -1.5790 H   0  0  0  0  0  0  0  0  0  0  0  0
    0.2862   -6.7354   -1.4558 H   0  0  0  0  0  0  0  0  0  0  0  0
   -0.0539   -5.3695   -2.5715 H   0  0  0  0  0  0  0  0  0  0  0  0
    1.1523   -6.6208   -3.0251 H   0  0  0  0  0  0  0  0  0  0  0  0
  1  3  1  0  0  0  0
  1  7  1  0  0  0  0
  1  2  2  0  0  0  0
 22 23  1  0  0  0  0
 23 25  1  0  0  0  0
 23 24  2  0  0  0  0
 35 36  1  0  0  0  0
 36 44  1  0  0  0  0
 36 37  2  0  0  0  0
  8  9  1  0  0  0  0
  9 17  1  0  0  0  0
  9 10  2  0  0  0  0
 18 19  1  0  0  0  0
 19 34  1  0  0  0  0
 19 20  2  0  0  0  0
 35 38  1  0  0  0  0
  8 11  1  0  0  0  0
 44 45  1  0  0  0  0
 21 22  1  0  0  0  0
 18 21  1  0  0  0  0
 34 35  1  0  0  0  0
  7  8  1  0  0  0  0
 17 18  1  0  0  0  0
  3  4  1  0  0  0  0
  3  5  1  0  0  0  0
  3  6  1  0  0  0  0
 38 41  1  0  0  0  0
 38 42  1  0  0  0  0
 38 43  1  0  0  0  0
 11 14  1  0  0  0  0
 11 15  1  0  0  0  0
 11 16  1  0  0  0  0
 45 47  1  0  0  0  0
 45 48  1  0  0  0  0
 45 49  1  0  0  0  0
 22 30  1  0  0  0  0
 22 31  1  0  0  0  0
 21 28  1  0  0  0  0
 21 29  1  0  0  0  0
 35 40  1  0  0  0  0
  8 13  1  0  0  0  0
 18 27  1  0  0  0  0
 25 32  1  0  0  0  0
 25 33  1  0  0  0  0
 44 46  1  0  0  0  0
  7 12  1  0  0  0  0
 34 39  1  0  0  0  0
 17 26  1  0  0  0  0
M  END
$$$$

  -OEChem-05262214473D

 49 48  0     1  0  0  0  0  0999 V2000
   -1.9833   -0.0509   -3.3423 C   0  0  0  0  0  0  0  0  0  0  0  0
   -1.6199   -1.0613   -2.7518 O   0  0  0  0  0  0  0  0  0  0  0  0
   -3.3243   -0.0235   -3.9975 C   0  0  0  0  0  0  0  0  0  0  0  0
   -3.2886   -0.3689   -5.0432 H   0  0  0  0  0  0  0  0  0  0  0  0
   -4.0503   -0.6845   -3.4973 H   0  0  0  0  0  0  0  0  0  0  0  0
   -3.8104    0.9645   -4.0351 H   0  0  0  0  0  0  0  0  0  0  0  0
   -1.2607    1.1231   -3.4768 N   0  0  0  0  0  0  0  0  0  0  0  0
    0.0536    1.3115   -2.9213 C   0  0  2  0  0  0  0  0  0  0  0  0
    0.0266    0.8315   -1.4761 C   0  0  0  0  0  0  0  0  0  0  0  0
   -1.0065    0.7530   -0.8146 O   0  0  0  0  0  0  0  0  0  0  0  0
    0.4852    2.7674   -3.0025 C   0  0  0  0  0  0  0  0  0  0  0  0
   -1.6809    1.8924   -3.9952 H   0  0  0  0  0  0  0  0  0  0  0  0
    0.7360    0.6822   -3.5030 H   0  0  0  0  0  0  0  0  0  0  0  0
   -0.1867    3.4133   -2.4256 H   0  0  0  0  0  0  0  0  0  0  0  0
    1.4966    2.9042   -2.6056 H   0  0  0  0  0  0  0  0  0  0  0  0
    0.4754    3.1196   -4.0397 H   0  0  0  0  0  0  0  0  0  0  0  0
    1.2978    0.5411   -0.9947 N   0  0  0  0  0  0  0  0  0  0  0  0
    1.5371    0.0807    0.3489 C   0  0  2  0  0  0  0  0  0  0  0  0
    1.4662   -1.4421    0.3239 C   0  0  0  0  0  0  0  0  0  0  0  0
    0.4319   -2.0673    0.5480 O   0  0  0  0  0  0  0  0  0  0  0  0
    0.5167    0.6459    1.3450 C   0  0  0  0  0  0  0  0  0  0  0  0
    0.6341    2.1583    1.5440 C   0  0  0  0  0  0  0  0  0  0  0  0
   -0.3898    2.7235    2.5106 C   0  0  0  0  0  0  0  0  0  0  0  0
   -1.2813    2.0599    3.0317 O   0  0  0  0  0  0  0  0  0  0  0  0
   -0.2227    4.0758    2.7194 N   0  0  0  0  0  0  0  0  0  0  0  0
    2.0949    0.6178   -1.6227 H   0  0  0  0  0  0  0  0  0  0  0  0
    2.5564    0.3859    0.6086 H   0  0  0  0  0  0  0  0  0  0  0  0
   -0.4976    0.4215    0.9886 H   0  0  0  0  0  0  0  0  0  0  0  0
    0.6176    0.1408    2.3139 H   0  0  0  0  0  0  0  0  0  0  0  0
    0.4695    2.6543    0.5794 H   0  0  0  0  0  0  0  0  0  0  0  0
    1.6405    2.4296    1.8818 H   0  0  0  0  0  0  0  0  0  0  0  0
    0.5294    4.5560    2.2366 H   0  0  0  0  0  0  0  0  0  0  0  0
   -0.8251    4.6084    3.3389 H   0  0  0  0  0  0  0  0  0  0  0  0
    2.7045   -2.0162    0.0718 N   0  0  0  0  0  0  0  0  0  0  0  0
    2.9203   -3.4441    0.0154 C   0  0  2  0  0  0  0  0  0  0  0  0
    1.8538   -4.0456   -0.8902 C   0  0  0  0  0  0  0  0  0  0  0  0
    0.7815   -3.4916   -1.1234 O   0  0  0  0  0  0  0  0  0  0  0  0
    2.8699   -4.0664    1.4021 C   0  0  0  0  0  0  0  0  0  0  0  0
    3.4988   -1.4019   -0.0808 H   0  0  0  0  0  0  0  0  0  0  0  0
    3.9086   -3.5972   -0.4316 H   0  0  0  0  0  0  0  0  0  0  0  0
    1.8872   -3.9231    1.8660 H   0  0  0  0  0  0  0  0  0  0  0  0
    3.0619   -5.1437    1.3608 H   0  0  0  0  0  0  0  0  0  0  0  0
    3.6177   -3.6118    2.0608 H   0  0  0  0  0  0  0  0  0  0  0  0
    2.2223   -5.2935   -1.3731 N   0  0  0  0  0  0  0  0  0  0  0  0
    1.3743   -6.0743   -2.2432 C   0  0  0  0  0  0  0  0  0  0  0  0
    3.1384   -5.6675   -1.1435 H   0  0  0  0  0  0  0  0  0  0  0  0
    0.7554   -6.7543   -1.6394 H   0  0  0  0  0  0  0  0  0  0  0  0
    0.7232   -5.4016   -2.8208 H   0  0  0  0  0  0  0  0  0  0  0  0
    1.9985   -6.6617   -2.9327 H   0  0  0  0  0  0  0  0  0  0  0  0
  1  3  1  0  0  0  0
  1  7  1  0  0  0  0
  1  2  2  0  0  0  0
 22 23  1  0  0  0  0
 23 25  1  0  0  0  0
 23 24  2  0  0  0  0
 35 36  1  0  0  0  0
 36 44  1  0  0  0  0
 36 37  2  0  0  0  0
  8  9  1  0  0  0  0
  9 17  1  0  0  0  0
  9 10  2  0  0  0  0
 18 19  1  0  0  0  0
 19 34  1  0  0  0  0
 19 20  2  0  0  0  0
 35 38  1  0  0  0  0
  8 11  1  0  0  0  0
 44 45  1  0  0  0  0
 21 22  1  0  0  0  0
 18 21  1  0  0  0  0
 34 35  1  0  0  0  0
  7  8  1  0  0  0  0
 17 18  1  0  0  0  0
  3  4  1  0  0  0  0
  3  5  1  0  0  0  0
  3  6  1  0  0  0  0
 38 41  1  0  0  0  0
 38 42  1  0  0  0  0
 38 43  1  0  0  0  0
 11 14  1  0  0  0  0
 11 15  1  0  0  0  0
 11 16  1  0  0  0  0
 45 47  1  0  0  0  0
 45 48  1  0  0  0  0
 45 49  1  0  0  0  0
 22 30  1  0  0  0  0
 22 31  1  0  0  0  0
 21 28  1  0  0  0  0
 21 29  1  0  0  0  0
 35 40  1  0  0  0  0
  8 13  1  0  0  0  0
 18 27  1  0  0  0  0
 25 32  1  0  0  0  0
 25 33  1  0  0  0  0
 44 46  1  0  0  0  0
  7 12  1  0  0  0  0
 34 39  1  0  0  0  0
 17 26  1  0  0  0  0
M  END
$$$$

  -OEChem-05262214473D

 49 48  0     1  0  0  0  0  0999 V2000
   -1.9833   -0.0509   -3.3423 C   0  0  0  0  0  0  0  0  0  0  0  0
   -1.6199   -1.0613   -2.7518 O   0  0  0  0  0  0  0  0  0  0  0  0
   -3.3243   -0.0235   -3.9975 C   0  0  0  0  0  0  0  0  0  0  0  0
   -3.2886   -0.3689   -5.0432 H   0  0  0  0  0  0  0  0  0  0  0  0
   -4.0503   -0.6845   -3.4973 H   0  0  0  0  0  0  0  0  0  0  0  0
   -3.8104    0.9645   -4.0351 H   0  0  0  0  0  0  0  0  0  0  0  0
   -1.2607    1.1231   -3.4768 N   0  0  0  0  0  0  0  0  0  0  0  0
    0.0536    1.3115   -2.9213 C   0  0  2  0  0  0  0  0  0  0  0  0
    0.0266    0.8315   -1.4761 C   0  0  0  0  0  0  0  0  0  0  0  0
   -1.0065    0.7530   -0.8146 O   0  0  0  0  0  0  0  0  0  0  0  0
    0.4852    2.7674   -3.0025 C   0  0  0  0  0  0  0  0  0  0  0  0
   -1.6809    1.8924   -3.9952 H   0  0  0  0  0  0  0  0  0  0  0  0
    0.7360    0.6822   -3.5030 H   0  0  0  0  0  0  0  0  0  0  0  0
   -0.1867    3.4133   -2.4256 H   0  0  0  0  0  0  0  0  0  0  0  0
    1.4966    2.9042   -2.6056 H   0  0  0  0  0  0  0  0  0  0  0  0
    0.4754    3.1196   -4.0397 H   0  0  0  0  0  0  0  0  0  0  0  0
    1.2978    0.5411   -0.9947 N   0  0  0  0  0  0  0  0  0  0  0  0
    1.5371    0.0807    0.3489 C   0  0  2  0  0  0  0  0  0  0  0  0
    1.4662   -1.4421    0.3239 C   0  0  0  0  0  0  0  0  0  0  0  0
    0.4055   -2.0617    0.2802 O   0  0  0  0  0  0  0  0  0  0  0  0
    0.5167    0.6459    1.3450 C   0  0  0  0  0  0  0  0  0  0  0  0
    0.6341    2.1583    1.5440 C   0  0  0  0  0  0  0  0  0  0  0  0
   -0.3898    2.7235    2.5106 C   0  0  0  0  0  0  0  0  0  0  0  0
   -1.2813    2.0599    3.0317 O   0  0  0  0  0  0  0  0  0  0  0  0
   -0.2227    4.0758    2.7194 N   0  0  0  0  0  0  0  0  0  0  0  0
    2.0949    0.6178   -1.6227 H   0  0  0  0  0  0  0  0  0  0  0  0
    2.5564    0.3859    0.6086 H   0  0  0  0  0  0  0  0  0  0  0  0
   -0.4976    0.4215    0.9886 H   0  0  0  0  0  0  0  0  0  0  0  0
    0.6176    0.1408    2.3139 H   0  0  0  0  0  0  0  0  0  0  0  0
    0.4695    2.6543    0.5794 H   0  0  0  0  0  0  0  0  0  0  0  0
    1.6405    2.4296    1.8818 H   0  0  0  0  0  0  0  0  0  0  0  0
    0.5294    4.5560    2.2366 H   0  0  0  0  0  0  0  0  0  0  0  0
   -0.8251    4.6084    3.3389 H   0  0  0  0  0  0  0  0  0  0  0  0
    2.7242   -2.0226    0.4071 N   0  0  0  0  0  0  0  0  0  0  0  0
    2.9389   -3.4517    0.4249 C   0  0  2  0  0  0  0  0  0  0  0  0
    2.1392   -4.0617   -0.7188 C   0  0  0  0  0  0  0  0  0  0  0  0
    1.1669   -3.5079   -1.2276 O   0  0  0  0  0  0  0  0  0  0  0  0
    2.5282   -4.0564    1.7584 C   0  0  0  0  0  0  0  0  0  0  0  0
    3.5346   -1.4124    0.4580 H   0  0  0  0  0  0  0  0  0  0  0  0
    4.0083   -3.6130    0.2503 H   0  0  0  0  0  0  0  0  0  0  0  0
    1.4598   -3.9046    1.9507 H   0  0  0  0  0  0  0  0  0  0  0  0
    2.7181   -5.1346    1.7805 H   0  0  0  0  0  0  0  0  0  0  0  0
    3.0830   -3.5954    2.5828 H   0  0  0  0  0  0  0  0  0  0  0  0
    2.6128   -5.3166   -1.0756 N   0  0  0  0  0  0  0  0  0  0  0  0
    2.0140   -6.1060   -2.1264 C   0  0  0  0  0  0  0  0  0  0  0  0
    3.4362   -5.6901   -0.6127 H   0  0  0  0  0  0  0  0  0  0  0  0
    1.2561   -6.7767   -1.6953 H   0  0  0  0  0  0  0  0  0  0  0  0
    1.5383   -5.4389   -2.8603 H   0  0  0  0  0  0  0  0  0  0  0  0
    2.7917   -6.7037   -2.6243 H   0  0  0  0  0  0  0  0  0  0  0  0
  1  3  1  0  0  0  0
  1  7  1  0  0  0  0
  1  2  2  0  0  0  0
 22 23  1  0  0  0  0
 23 25  1  0  0  0  0
 23 24  2  0  0  0  0
 35 36  1  0  0  0  0
 36 44  1  0  0  0  0
 36 37  2  0  0  0  0
  8  9  1  0  0  0  0
  9 17  1  0  0  0  0
  9 10  2  0  0  0  0
 18 19  1  0  0  0  0
 19 34  1  0  0  0  0
 19 20  2  0  0  0  0
 35 38  1  0  0  0  0
  8 11  1  0  0  0  0
 44 45  1  0  0  0  0
 21 22  1  0  0  0  0
 18 21  1  0  0  0  0
 34 35  1  0  0  0  0
  7  8  1  0  0  0  0
 17 18  1  0  0  0  0
  3  4  1  0  0  0  0
  3  5  1  0  0  0  0
  3  6  1  0  0  0  0
 38 41  1  0  0  0  0
 38 42  1  0  0  0  0
 38 43  1  0  0  0  0
 11 14  1  0  0  0  0
 11 15  1  0  0  0  0
 11 16  1  0  0  0  0
 45 47  1  0  0  0  0
 45 48  1  0  0  0  0
 45 49  1  0  0  0  0
 22 30  1  0  0  0  0
 22 31  1  0  0  0  0
 21 28  1  0  0  0  0
 21 29  1  0  0  0  0
 35 40  1  0  0  0  0
  8 13  1  0  0  0  0
 18 27  1  0  0  0  0
 25 32  1  0  0  0  0
 25 33  1  0  0  0  0
 44 46  1  0  0  0  0
  7 12  1  0  0  0  0
 34 39  1  0  0  0  0
 17 26  1  0  0  0  0
M  END
$$$$

  -OEChem-05262214473D

 49 48  0     1  0  0  0  0  0999 V2000
   -1.9833   -0.0509   -3.3423 C   0  0  0  0  0  0  0  0  0  0  0  0
   -1.6199   -1.0613   -2.7518 O   0  0  0  0  0  0  0  0  0  0  0  0
   -3.3243   -0.0235   -3.9975 C   0  0  0  0  0  0  0  0  0  0  0  0
   -3.2886   -0.3689   -5.0432 H   0  0  0  0  0  0  0  0  0  0  0  0
   -4.0503   -0.6845   -3.4973 H   0  0  0  0  0  0  0  0  0  0  0  0
   -3.8104    0.9645   -4.0351 H   0  0  0  0  0  0  0  0  0  0  0  0
   -1.2607    1.1231   -3.4768 N   0  0  0  0  0  0  0  0  0  0  0  0
    0.0536    1.3115   -2.9213 C   0  0  2  0  0  0  0  0  0  0  0  0
    0.0266    0.8315   -1.4761 C   0  0  0  0  0  0  0  0  0  0  0  0
   -1.0065    0.7530   -0.8146 O   0  0  0  0  0  0  0  0  0  0  0  0
    0.4852    2.7674   -3.0025 C   0  0  0  0  0  0  0  0  0  0  0  0
   -1.6809    1.8924   -3.9952 H   0  0  0  0  0  0  0  0  0  0  0  0
    0.7360    0.6822   -3.5030 H   0  0  0  0  0  0  0  0  0  0  0  0
   -0.1867    3.4133   -2.4256 H   0  0  0  0  0  0  0  0  0  0  0  0
    1.4966    2.9042   -2.6056 H   0  0  0  0  0  0  0  0  0  0  0  0
    0.4754    3.1196   -4.0397 H   0  0  0  0  0  0  0  0  0  0  0  0
    1.2978    0.5411   -0.9947 N   0  0  0  0  0  0  0  0  0  0  0  0
    1.5371    0.0807    0.3489 C   0  0  2  0  0  0  0  0  0  0  0  0
    1.4662   -1.4421    0.3239 C   0  0  0  0  0  0  0  0  0  0  0  0
    0.4492   -2.0593    0.0145 O   0  0  0  0  0  0  0  0  0  0  0  0
    0.5167    0.6459    1.3450 C   0  0  0  0  0  0  0  0  0  0  0  0
    0.6341    2.1583    1.5440 C   0  0  0  0  0  0  0  0  0  0  0  0
   -0.3898    2.7235    2.5106 C   0  0  0  0  0  0  0  0  0  0  0  0
   -1.2813    2.0599    3.0317 O   0  0  0  0  0  0  0  0  0  0  0  0
   -0.2227    4.0758    2.7194 N   0  0  0  0  0  0  0  0  0  0  0  0
    2.0949    0.6178   -1.6227 H   0  0  0  0  0  0  0  0  0  0  0  0
    2.5564    0.3859    0.6086 H   0  0  0  0  0  0  0  0  0  0  0  0
   -0.4976    0.4215    0.9886 H   0  0  0  0  0  0  0  0  0  0  0  0
    0.6176    0.1408    2.3139 H   0  0  0  0  0  0  0  0  0  0  0  0
    0.4695    2.6543    0.5794 H   0  0  0  0  0  0  0  0  0  0  0  0
    1.6405    2.4296    1.8818 H   0  0  0  0  0  0  0  0  0  0  0  0
    0.5294    4.5560    2.2366 H   0  0  0  0  0  0  0  0  0  0  0  0
   -0.8251    4.6084    3.3389 H   0  0  0  0  0  0  0  0  0  0  0  0
    2.6565   -2.0249    0.7361 N   0  0  0  0  0  0  0  0  0  0  0  0
    2.8510   -3.4542    0.8252 C   0  0  2  0  0  0  0  0  0  0  0  0
    2.3706   -4.0764   -0.4792 C   0  0  0  0  0  0  0  0  0  0  0  0
    1.5660   -3.5265   -1.2284 O   0  0  0  0  0  0  0  0  0  0  0  0
    2.1060   -4.0409    2.0141 C   0  0  0  0  0  0  0  0  0  0  0  0
    3.4298   -1.4162    0.9878 H   0  0  0  0  0  0  0  0  0  0  0  0
    3.9282   -3.6205    0.9350 H   0  0  0  0  0  0  0  0  0  0  0  0
    1.0252   -3.8839    1.9219 H   0  0  0  0  0  0  0  0  0  0  0  0
    2.2775   -5.1192    2.0969 H   0  0  0  0  0  0  0  0  0  0  0  0
    2.4316   -3.5711    2.9485 H   0  0  0  0  0  0  0  0  0  0  0  0
    2.9129   -5.3369   -0.6870 N   0  0  0  0  0  0  0  0  0  0  0  0
    2.6015   -6.1379   -1.8477 C   0  0  0  0  0  0  0  0  0  0  0  0
    3.5865   -5.7068   -0.0227 H   0  0  0  0  0  0  0  0  0  0  0  0
    1.7541   -6.8011   -1.6196 H   0  0  0  0  0  0  0  0  0  0  0  0
    2.3355   -5.4789   -2.6873 H   0  0  0  0  0  0  0  0  0  0  0  0
    3.4780   -6.7439   -2.1207 H   0  0  0  0  0  0  0  0  0  0  0  0
  1  3  1  0  0  0  0
  1  7  1  0  0  0  0
  1  2  2  0  0  0  0
 22 23  1  0  0  0  0
 23 25  1  0  0  0  0
 23 24  2  0  0  0  0
 35 36  1  0  0  0  0
 36 44  1  0  0  0  0
 36 37  2  0  0  0  0
  8  9  1  0  0  0  0
  9 17  1  0  0  0  0
  9 10  2  0  0  0  0
 18 19  1  0  0  0  0
 19 34  1  0  0  0  0
 19 20  2  0  0  0  0
 35 38  1  0  0  0  0
  8 11  1  0  0  0  0
 44 45  1  0  0  0  0
 21 22  1  0  0  0  0
 18 21  1  0  0  0  0
 34 35  1  0  0  0  0
  7  8  1  0  0  0  0
 17 18  1  0  0  0  0
  3  4  1  0  0  0  0
  3  5  1  0  0  0  0
  3  6  1  0  0  0  0
 38 41  1  0  0  0  0
 38 42  1  0  0  0  0
 38 43  1  0  0  0  0
 11 14  1  0  0  0  0
 11 15  1  0  0  0  0
 11 16  1  0  0  0  0
 45 47  1  0  0  0  0
 45 48  1  0  0  0  0
 45 49  1  0  0  0  0
 22 30  1  0  0  0  0
 22 31  1  0  0  0  0
 21 28  1  0  0  0  0
 21 29  1  0  0  0  0
 35 40  1  0  0  0  0
  8 13  1  0  0  0  0
 18 27  1  0  0  0  0
 25 32  1  0  0  0  0
 25 33  1  0  0  0  0
 44 46  1  0  0  0  0
  7 12  1  0  0  0  0
 34 39  1  0  0  0  0
 17 26  1  0  0  0  0
M  END
$$$$

  -OEChem-05262214473D

 49 48  0     1  0  0  0  0  0999 V2000
   -1.9833   -0.0509   -3.3423 C   0  0  0  0  0  0  0  0  0  0  0  0
   -1.6199   -1.0613   -2.7518 O   0  0  0  0  0  0  0  0  0  0  0  0
   -3.3243   -0.0235   -3.9975 C   0  0  0  0  0  0  0  0  0  0  0  0
   -3.2886   -0.3689   -5.0432 H   0  0  0  0  0  0  0  0  0  0  0  0
   -4.0503   -0.6845   -3.4973 H   0  0  0  0  0  0  0  0  0  0  0  0
   -3.8104    0.9645   -4.0351 H   0  0  0  0  0  0  0  0  0  0  0  0
   -1.2607    1.1231   -3.4768 N   0  0  0  0  0  0  0  0  0  0  0  0
    0.0536    1.3115   -2.9213 C   0  0  2  0  0  0  0  0  0  0  0  0
    0.0266    0.8315   -1.4761 C   0  0  0  0  0  0  0  0  0  0  0  0
   -1.0065    0.7530   -0.8146 O   0  0  0  0  0  0  0  0  0  0  0  0
    0.4852    2.7674   -3.0025 C   0  0  0  0  0  0  0  0  0  0  0  0
   -1.6809    1.8924   -3.9952 H   0  0  0  0  0  0  0  0  0  0  0  0
    0.7360    0.6822   -3.5030 H   0  0  0  0  0  0  0  0  0  0  0  0
   -0.1867    3.4133   -2.4256 H   0  0  0  0  0  0  0  0  0  0  0  0
    1.4966    2.9042   -2.6056 H   0  0  0  0  0  0  0  0  0  0  0  0
    0.4754    3.1196   -4.0397 H   0  0  0  0  0  0  0  0  0  0  0  0
    1.2978    0.5411   -0.9947 N   0  0  0  0  0  0  0  0  0  0  0  0
    1.5371    0.0807    0.3489 C   0  0  2  0  0  0  0  0  0  0  0  0
    1.4662   -1.4421    0.3239 C   0  0  0  0  0  0  0  0  0  0  0  0
    0.5602   -2.0605   -0.2308 O   0  0  0  0  0  0  0  0  0  0  0  0
    0.5167    0.6459    1.3450 C   0  0  0  0  0  0  0  0  0  0  0  0
    0.6341    2.1583    1.5440 C   0  0  0  0  0  0  0  0  0  0  0  0
   -0.3898    2.7235    2.5106 C   0  0  0  0  0  0  0  0  0  0  0  0
   -1.2813    2.0599    3.0317 O   0  0  0  0  0  0  0  0  0  0  0  0
   -0.2227    4.0758    2.7194 N   0  0  0  0  0  0  0  0  0  0  0  0
    2.0949    0.6178   -1.6227 H   0  0  0  0  0  0  0  0  0  0  0  0
    2.5564    0.3859    0.6086 H   0  0  0  0  0  0  0  0  0  0  0  0
   -0.4976    0.4215    0.9886 H   0  0  0  0  0  0  0  0  0  0  0  0
    0.6176    0.1408    2.3139 H   0  0  0  0  0  0  0  0  0  0  0  0
    0.4695    2.6543    0.5794 H   0  0  0  0  0  0  0  0  0  0  0  0
    1.6405    2.4296    1.8818 H   0  0  0  0  0  0  0  0  0  0  0  0
    0.5294    4.5560    2.2366 H   0  0  0  0  0  0  0  0  0  0  0  0
   -0.8251    4.6084    3.3389 H   0  0  0  0  0  0  0  0  0  0  0  0
    2.5061   -2.0228    1.0365 N   0  0  0  0  0  0  0  0  0  0  0  0
    2.6626   -3.4514    1.1893 C   0  0  2  0  0  0  0  0  0  0  0  0
    2.5321   -4.0887   -0.1878 C   0  0  0  0  0  0  0  0  0  0  0  0
    1.9517   -3.5461   -1.1258 O   0  0  0  0  0  0  0  0  0  0  0  0
    1.6323   -4.0211    2.1518 C   0  0  0  0  0  0  0  0  0  0  0  0
    3.1915   -1.4131    1.4725 H   0  0  0  0  0  0  0  0  0  0  0  0
    3.6739   -3.6192    1.5757 H   0  0  0  0  0  0  0  0  0  0  0  0
    0.6129   -3.8624    1.7815 H   0  0  0  0  0  0  0  0  0  0  0  0
    1.7702   -5.0988    2.2885 H   0  0  0  0  0  0  0  0  0  0  0  0
    1.7080   -3.5404    3.1331 H   0  0  0  0  0  0  0  0  0  0  0  0
    3.1023   -5.3532   -0.2338 N   0  0  0  0  0  0  0  0  0  0  0  0
    3.0969   -6.1679   -1.4263 C   0  0  0  0  0  0  0  0  0  0  0  0
    3.5792   -5.7164    0.5862 H   0  0  0  0  0  0  0  0  0  0  0  0
    2.2154   -6.8259   -1.4175 H   0  0  0  0  0  0  0  0  0  0  0  0
    3.0608   -5.5188   -2.3136 H   0  0  0  0  0  0  0  0  0  0  0  0
    4.0106   -6.7797   -1.4565 H   0  0  0  0  0  0  0  0  0  0  0  0
  1  3  1  0  0  0  0
  1  7  1  0  0  0  0
  1  2  2  0  0  0  0
 22 23  1  0  0  0  0
 23 25  1  0  0  0  0
 23 24  2  0  0  0  0
 35 36  1  0  0  0  0
 36 44  1  0  0  0  0
 36 37  2  0  0  0  0
  8  9  1  0  0  0  0
  9 17  1  0  0  0  0
  9 10  2  0  0  0  0
 18 19  1  0  0  0  0
 19 34  1  0  0  0  0
 19 20  2  0  0  0  0
 35 38  1  0  0  0  0
  8 11  1  0  0  0  0
 44 45  1  0  0  0  0
 21 22  1  0  0  0  0
 18 21  1  0  0  0  0
 34 35  1  0  0  0  0
  7  8  1  0  0  0  0
 17 18  1  0  0  0  0
  3  4  1  0  0  0  0
  3  5  1  0  0  0  0
  3  6  1  0  0  0  0
 38 41  1  0  0  0  0
 38 42  1  0  0  0  0
 38 43  1  0  0  0  0
 11 14  1  0  0  0  0
 11 15  1  0  0  0  0
 11 16  1  0  0  0  0
 45 47  1  0  0  0  0
 45 48  1  0  0  0  0
 45 49  1  0  0  0  0
 22 30  1  0  0  0  0
 22 31  1  0  0  0  0
 21 28  1  0  0  0  0
 21 29  1  0  0  0  0
 35 40  1  0  0  0  0
  8 13  1  0  0  0  0
 18 27  1  0  0  0  0
 25 32  1  0  0  0  0
 25 33  1  0  0  0  0
 44 46  1  0  0  0  0
  7 12  1  0  0  0  0
 34 39  1  0  0  0  0
 17 26  1  0  0  0  0
M  END
$$$$

  -OEChem-05262214473D

 49 48  0     1  0  0  0  0  0999 V2000
   -1.9833   -0.0509   -3.3423 C   0  0  0  0  0  0  0  0  0  0  0  0
   -1.6199   -1.0613   -2.7518 O   0  0  0  0  0  0  0  0  0  0  0  0
   -3.3243   -0.0235   -3.9975 C   0  0  0  0  0  0  0  0  0  0  0  0
   -3.2886   -0.3689   -5.0432 H   0  0  0  0  0  0  0  0  0  0  0  0
   -4.0503   -0.6845   -3.4973 H   0  0  0  0  0  0  0  0  0  0  0  0
   -3.8104    0.9645   -4.0351 H   0  0  0  0  0  0  0  0  0  0  0  0
   -1.2607    1.1231   -3.4768 N   0  0  0  0  0  0  0  0  0  0  0  0
    0.0536    1.3115   -2.9213 C   0  0  2  0  0  0  0  0  0  0  0  0
    0.0266    0.8315   -1.4761 C   0  0  0  0  0  0  0  0  0  0  0  0
   -1.0065    0.7530   -0.8146 O   0  0  0  0  0  0  0  0  0  0  0  0
    0.4852    2.7674   -3.0025 C   0  0  0  0  0  0  0  0  0  0  0  0
   -1.6809    1.8924   -3.9952 H   0  0  0  0  0  0  0  0  0  0  0  0
    0.7360    0.6822   -3.5030 H   0  0  0  0  0  0  0  0  0  0  0  0
   -0.1867    3.4133   -2.4256 H   0  0  0  0  0  0  0  0  0  0  0  0
    1.4966    2.9042   -2.6056 H   0  0  0  0  0  0  0  0  0  0  0  0
    0.4754    3.1196   -4.0397 H   0  0  0  0  0  0  0  0  0  0  0  0
    1.2978    0.5411   -0.9947 N   0  0  0  0  0  0  0  0  0  0  0  0
    1.5371    0.0807    0.3489 C   0  0  2  0  0  0  0  0  0  0  0  0
    1.4662   -1.4421    0.3239 C   0  0  0  0  0  0  0  0  0  0  0  0
    0.7307   -2.0650   -0.4390 O   0  0  0  0  0  0  0  0  0  0  0  0
    0.5167    0.6459    1.3450 C   0  0  0  0  0  0  0  0  0  0  0  0
    0.6341    2.1583    1.5440 C   0  0  0  0  0  0  0  0  0  0  0  0
   -0.3898    2.7235    2.5106 C   0  0  0  0  0  0  0  0  0  0  0  0
   -1.2813    2.0599    3.0317 O   0  0  0  0  0  0  0  0  0  0  0  0
   -0.2227    4.0758    2.7194 N   0  0  0  0  0  0  0  0  0  0  0  0
    2.0949    0.6178   -1.6227 H   0  0  0  0  0  0  0  0  0  0  0  0
    2.5564    0.3859    0.6086 H   0  0  0  0  0  0  0  0  0  0  0  0
   -0.4976    0.4215    0.9886 H   0  0  0  0  0  0  0  0  0  0  0  0
    0.6176    0.1408    2.3139 H   0  0  0  0  0  0  0  0  0  0  0  0
    0.4695    2.6543    0.5794 H   0  0  0  0  0  0  0  0  0  0  0  0
    1.6405    2.4296    1.8818 H   0  0  0  0  0  0  0  0  0  0  0  0
    0.5294    4.5560    2.2366 H   0  0  0  0  0  0  0  0  0  0  0  0
   -0.8251    4.6084    3.3389 H   0  0  0  0  0  0  0  0  0  0  0  0
    2.2832   -2.0165    1.2877 N   0  0  0  0  0  0  0  0  0  0  0  0
    2.3866   -3.4435    1.4922 C   0  0  2  0  0  0  0  0  0  0  0  0
    2.6127   -4.0978    0.1356 C   0  0  0  0  0  0  0  0  0  0  0  0
    2.2977   -3.5655   -0.9267 O   0  0  0  0  0  0  0  0  0  0  0  0
    1.1391   -3.9983    2.1621 C   0  0  0  0  0  0  0  0  0  0  0  0
    2.8362   -1.4032    1.8791 H   0  0  0  0  0  0  0  0  0  0  0  0
    3.2626   -3.6092    2.1288 H   0  0  0  0  0  0  0  0  0  0  0  0
    0.2510   -3.8416    1.5390 H   0  0  0  0  0  0  0  0  0  0  0  0
    1.2308   -5.0745    2.3421 H   0  0  0  0  0  0  0  0  0  0  0  0
    0.9614   -3.5055    3.1240 H   0  0  0  0  0  0  0  0  0  0  0  0
    3.1681   -5.3642    0.2531 N   0  0  0  0  0  0  0  0  0  0  0  0
    3.4663   -6.1939   -0.8909 C   0  0  0  0  0  0  0  0  0  0  0  0
    3.4146   -5.7184    1.1726 H   0  0  0  0  0  0  0  0  0  0  0  0
    2.6087   -6.8494   -1.1026 H   0  0  0  0  0  0  0  0  0  0  0  0
    3.6645   -5.5559   -1.7647 H   0  0  0  0  0  0  0  0  0  0  0  0
    4.3532   -6.8084   -0.6767 H   0  0  0  0  0  0  0  0  0  0  0  0
  1  3  1  0  0  0  0
  1  7  1  0  0  0  0
  1  2  2  0  0  0  0
 22 23  1  0  0  0  0
 23 25  1  0  0  0  0
 23 24  2  0  0  0  0
 35 36  1  0  0  0  0
 36 44  1  0  0  0  0
 36 37  2  0  0  0  0
  8  9  1  0  0  0  0
  9 17  1  0  0  0  0
  9 10  2  0  0  0  0
 18 19  1  0  0  0  0
 19 34  1  0  0  0  0
 19 20  2  0  0  0  0
 35 38  1  0  0  0  0
  8 11  1  0  0  0  0
 44 45  1  0  0  0  0
 21 22  1  0  0  0  0
 18 21  1  0  0  0  0
 34 35  1  0  0  0  0
  7  8  1  0  0  0  0
 17 18  1  0  0  0  0
  3  4  1  0  0  0  0
  3  5  1  0  0  0  0
  3  6  1  0  0  0  0
 38 41  1  0  0  0  0
 38 42  1  0  0  0  0
 38 43  1  0  0  0  0
 11 14  1  0  0  0  0
 11 15  1  0  0  0  0
 11 16  1  0  0  0  0
 45 47  1  0  0  0  0
 45 48  1  0  0  0  0
 45 49  1  0  0  0  0
 22 30  1  0  0  0  0
 22 31  1  0  0  0  0
 21 28  1  0  0  0  0
 21 29  1  0  0  0  0
 35 40  1  0  0  0  0
  8 13  1  0  0  0  0
 18 27  1  0  0  0  0
 25 32  1  0  0  0  0
 25 33  1  0  0  0  0
 44 46  1  0  0  0  0
  7 12  1  0  0  0  0
 34 39  1  0  0  0  0
 17 26  1  0  0  0  0
M  END
$$$$

  -OEChem-05262214473D

 49 48  0     1  0  0  0  0  0999 V2000
   -1.9833   -0.0509   -3.3423 C   0  0  0  0  0  0  0  0  0  0  0  0
   -1.6199   -1.0613   -2.7518 O   0  0  0  0  0  0  0  0  0  0  0  0
   -3.3243   -0.0235   -3.9975 C   0  0  0  0  0  0  0  0  0  0  0  0
   -3.2886   -0.3689   -5.0432 H   0  0  0  0  0  0  0  0  0  0  0  0
   -4.0503   -0.6845   -3.4973 H   0  0  0  0  0  0  0  0  0  0  0  0
   -3.8104    0.9645   -4.0351 H   0  0  0  0  0  0  0  0  0  0  0  0
   -1.2607    1.1231   -3.4768 N   0  0  0  0  0  0  0  0  0  0  0  0
    0.0536    1.3115   -2.9213 C   0  0  2  0  0  0  0  0  0  0  0  0
    0.0266    0.8315   -1.4761 C   0  0  0  0  0  0  0  0  0  0  0  0
   -1.0065    0.7530   -0.8146 O   0  0  0  0  0  0  0  0  0  0  0  0
    0.4852    2.7674   -3.0025 C   0  0  0  0  0  0  0  0  0  0  0  0
   -1.6809    1.8924   -3.9952 H   0  0  0  0  0  0  0  0  0  0  0  0
    0.7360    0.6822   -3.5030 H   0  0  0  0  0  0  0  0  0  0  0  0
   -0.1867    3.4133   -2.4256 H   0  0  0  0  0  0  0  0  0  0  0  0
    1.4966    2.9042   -2.6056 H   0  0  0  0  0  0  0  0  0  0  0  0
    0.4754    3.1196   -4.0397 H   0  0  0  0  0  0  0  0  0  0  0  0
    1.2978    0.5411   -0.9947 N   0  0  0  0  0  0  0  0  0  0  0  0
    1.5371    0.0807    0.3489 C   0  0  2  0  0  0  0  0  0  0  0  0
    1.4662   -1.4421    0.3239 C   0  0  0  0  0  0  0  0  0  0  0  0
    0.9493   -2.0726   -0.5960 O   0  0  0  0  0  0  0  0  0  0  0  0
    0.5167    0.6459    1.3450 C   0  0  0  0  0  0  0  0  0  0  0  0
    0.6341    2.1583    1.5440 C   0  0  0  0  0  0  0  0  0  0  0  0
   -0.3898    2.7235    2.5106 C   0  0  0  0  0  0  0  0  0  0  0  0
   -1.2813    2.0599    3.0317 O   0  0  0  0  0  0  0  0  0  0  0  0
   -0.2227    4.0758    2.7194 N   0  0  0  0  0  0  0  0  0  0  0  0
    2.0949    0.6178   -1.6227 H   0  0  0  0  0  0  0  0  0  0  0  0
    2.5564    0.3859    0.6086 H   0  0  0  0  0  0  0  0  0  0  0  0
   -0.4976    0.4215    0.9886 H   0  0  0  0  0  0  0  0  0  0  0  0
    0.6176    0.1408    2.3139 H   0  0  0  0  0  0  0  0  0  0  0  0
    0.4695    2.6543    0.5794 H   0  0  0  0  0  0  0  0  0  0  0  0
    1.6405    2.4296    1.8818 H   0  0  0  0  0  0  0  0  0  0  0  0
    0.5294    4.5560    2.2366 H   0  0  0  0  0  0  0  0  0  0  0  0
   -0.8251    4.6084    3.3389 H   0  0  0  0  0  0  0  0  0  0  0  0
    2.0029   -2.0065    1.4727 N   0  0  0  0  0  0  0  0  0  0  0  0
    2.0416   -3.4311    1.7133 C   0  0  2  0  0  0  0  0  0  0  0  0
    2.6069   -4.1030    0.4689 C   0  0  0  0  0  0  0  0  0  0  0  0
    2.5803   -3.5833   -0.6448 O   0  0  0  0  0  0  0  0  0  0  0  0
    0.6602   -3.9741    2.0442 C   0  0  0  0  0  0  0  0  0  0  0  0
    2.3878   -1.3873    2.1799 H   0  0  0  0  0  0  0  0  0  0  0  0
    2.7223   -3.5910    2.5566 H   0  0  0  0  0  0  0  0  0  0  0  0
   -0.0357   -3.8228    1.2110 H   0  0  0  0  0  0  0  0  0  0  0  0
    0.6959   -5.0482    2.2542 H   0  0  0  0  0  0  0  0  0  0  0  0
    0.2428   -3.4687    2.9218 H   0  0  0  0  0  0  0  0  0  0  0  0
    3.1056   -5.3693    0.7405 N   0  0  0  0  0  0  0  0  0  0  0  0
    3.6846   -6.2142   -0.2778 C   0  0  0  0  0  0  0  0  0  0  0  0
    3.1041   -5.7125    1.6965 H   0  0  0  0  0  0  0  0  0  0  0  0
    2.9070   -6.8700   -0.6966 H   0  0  0  0  0  0  0  0  0  0  0  0
    4.1057   -5.5877   -1.0780 H   0  0  0  0  0  0  0  0  0  0  0  0
    4.4824   -6.8283    0.1653 H   0  0  0  0  0  0  0  0  0  0  0  0
  1  3  1  0  0  0  0
  1  7  1  0  0  0  0
  1  2  2  0  0  0  0
 22 23  1  0  0  0  0
 23 25  1  0  0  0  0
 23 24  2  0  0  0  0
 35 36  1  0  0  0  0
 36 44  1  0  0  0  0
 36 37  2  0  0  0  0
  8  9  1  0  0  0  0
  9 17  1  0  0  0  0
  9 10  2  0  0  0  0
 18 19  1  0  0  0  0
 19 34  1  0  0  0  0
 19 20  2  0  0  0  0
 35 38  1  0  0  0  0
  8 11  1  0  0  0  0
 44 45  1  0  0  0  0
 21 22  1  0  0  0  0
 18 21  1  0  0  0  0
 34 35  1  0  0  0  0
  7  8  1  0  0  0  0
 17 18  1  0  0  0  0
  3  4  1  0  0  0  0
  3  5  1  0  0  0  0
  3  6  1  0  0  0  0
 38 41  1  0  0  0  0
 38 42  1  0  0  0  0
 38 43  1  0  0  0  0
 11 14  1  0  0  0  0
 11 15  1  0  0  0  0
 11 16  1  0  0  0  0
 45 47  1  0  0  0  0
 45 48  1  0  0  0  0
 45 49  1  0  0  0  0
 22 30  1  0  0  0  0
 22 31  1  0  0  0  0
 21 28  1  0  0  0  0
 21 29  1  0  0  0  0
 35 40  1  0  0  0  0
  8 13  1  0  0  0  0
 18 27  1  0  0  0  0
 25 32  1  0  0  0  0
 25 33  1  0  0  0  0
 44 46  1  0  0  0  0
  7 12  1  0  0  0  0
 34 39  1  0  0  0  0
 17 26  1  0  0  0  0
M  END
$$$$

  -OEChem-05262214473D

 49 48  0     1  0  0  0  0  0999 V2000
   -1.9833   -0.0509   -3.3423 C   0  0  0  0  0  0  0  0  0  0  0  0
   -1.6199   -1.0613   -2.7518 O   0  0  0  0  0  0  0  0  0  0  0  0
   -3.3243   -0.0235   -3.9975 C   0  0  0  0  0  0  0  0  0  0  0  0
   -3.2886   -0.3689   -5.0432 H   0  0  0  0  0  0  0  0  0  0  0  0
   -4.0503   -0.6845   -3.4973 H   0  0  0  0  0  0  0  0  0  0  0  0
   -3.8104    0.9645   -4.0351 H   0  0  0  0  0  0  0  0  0  0  0  0
   -1.2607    1.1231   -3.4768 N   0  0  0  0  0  0  0  0  0  0  0  0
    0.0536    1.3115   -2.9213 C   0  0  2  0  0  0  0  0  0  0  0  0
    0.0266    0.8315   -1.4761 C   0  0  0  0  0  0  0  0  0  0  0  0
   -1.0065    0.7530   -0.8146 O   0  0  0  0  0  0  0  0  0  0  0  0
    0.4852    2.7674   -3.0025 C   0  0  0  0  0  0  0  0  0  0  0  0
   -1.6809    1.8924   -3.9952 H   0  0  0  0  0  0  0  0  0  0  0  0
    0.7360    0.6822   -3.5030 H   0  0  0  0  0  0  0  0  0  0  0  0
   -0.1867    3.4133   -2.4256 H   0  0  0  0  0  0  0  0  0  0  0  0
    1.4966    2.9042   -2.6056 H   0  0  0  0  0  0  0  0  0  0  0  0
    0.4754    3.1196   -4.0397 H   0  0  0  0  0  0  0  0  0  0  0  0
    1.2978    0.5411   -0.9947 N   0  0  0  0  0  0  0  0  0  0  0  0
    1.5371    0.0807    0.3489 C   0  0  2  0  0  0  0  0  0  0  0  0
    1.8409   -1.4112    0.2678 C   0  0  0  0  0  0  0  0  0  0  0  0
    1.8189   -2.0418   -0.7871 O   0  0  0  0  0  0  0  0  0  0  0  0
    0.3359    0.3311    1.2694 C   0  0  0  0  0  0  0  0  0  0  0  0
    0.0661    1.8148    1.5274 C   0  0  0  0  0  0  0  0  0  0  0  0
   -1.1363    2.0660    2.4183 C   0  0  0  0  0  0  0  0  0  0  0  0
   -1.8772    1.1813    2.8367 O   0  0  0  0  0  0  0  0  0  0  0  0
   -1.3198    3.4058    2.6853 N   0  0  0  0  0  0  0  0  0  0  0  0
    2.0949    0.6178   -1.6227 H   0  0  0  0  0  0  0  0  0  0  0  0
    2.4283    0.6070    0.7072 H   0  0  0  0  0  0  0  0  0  0  0  0
   -0.5626   -0.1105    0.8178 H   0  0  0  0  0  0  0  0  0  0  0  0
    0.4813   -0.1859    2.2263 H   0  0  0  0  0  0  0  0  0  0  0  0
   -0.1390    2.3075    0.5690 H   0  0  0  0  0  0  0  0  0  0  0  0
    0.9470    2.3010    1.9612 H   0  0  0  0  0  0  0  0  0  0  0  0
   -0.6720    4.0772    2.2865 H   0  0  0  0  0  0  0  0  0  0  0  0
   -2.0798    3.7449    3.2664 H   0  0  0  0  0  0  0  0  0  0  0  0
    2.0888   -1.9601    1.5182 N   0  0  0  0  0  0  0  0  0  0  0  0
    2.3826   -3.3598    1.7262 C   0  0  2  0  0  0  0  0  0  0  0  0
    3.4665   -3.7650    0.7361 C   0  0  0  0  0  0  0  0  0  0  0  0
    3.6842   -3.1534   -0.3077 O   0  0  0  0  0  0  0  0  0  0  0  0
    1.1392   -4.2179    1.5523 C   0  0  0  0  0  0  0  0  0  0  0  0
    2.0625   -1.3472    2.3278 H   0  0  0  0  0  0  0  0  0  0  0  0
    2.7666   -3.4539    2.7478 H   0  0  0  0  0  0  0  0  0  0  0  0
    0.7400   -4.1365    0.5347 H   0  0  0  0  0  0  0  0  0  0  0  0
    1.3572   -5.2747    1.7382 H   0  0  0  0  0  0  0  0  0  0  0  0
    0.3501   -3.9056    2.2449 H   0  0  0  0  0  0  0  0  0  0  0  0
    4.1334   -4.9152    1.1342 N   0  0  0  0  0  0  0  0  0  0  0  0
    5.1967   -5.5083    0.3573 C   0  0  0  0  0  0  0  0  0  0  0  0
    3.8998   -5.3455    2.0242 H   0  0  0  0  0  0  0  0  0  0  0  0
    4.7780   -6.2703   -0.3166 H   0  0  0  0  0  0  0  0  0  0  0  0
    5.6958   -4.7284   -0.2364 H   0  0  0  0  0  0  0  0  0  0  0  0
    5.9265   -5.9780    1.0332 H   0  0  0  0  0  0  0  0  0  0  0  0
  1  3  1  0  0  0  0
  1  7  1  0  0  0  0
  1  2  2  0  0  0  0
 22 23  1  0  0  0  0
 23 25  1  0  0  0  0
 23 24  2  0  0  0  0
 35 36  1  0  0  0  0
 36 44  1  0  0  0  0
 36 37  2  0  0  0  0
  8  9  1  0  0  0  0
  9 17  1  0  0  0  0
  9 10  2  0  0  0  0
 18 19  1  0  0  0  0
 19 34  1  0  0  0  0
 19 20  2  0  0  0  0
 35 38  1  0  0  0  0
  8 11  1  0  0  0  0
 44 45  1  0  0  0  0
 21 22  1  0  0  0  0
 18 21  1  0  0  0  0
 34 35  1  0  0  0  0
  7  8  1  0  0  0  0
 17 18  1  0  0  0  0
  3  4  1  0  0  0  0
  3  5  1  0  0  0  0
  3  6  1  0  0  0  0
 38 41  1  0  0  0  0
 38 42  1  0  0  0  0
 38 43  1  0  0  0  0
 11 14  1  0  0  0  0
 11 15  1  0  0  0  0
 11 16  1  0  0  0  0
 45 47  1  0  0  0  0
 45 48  1  0  0  0  0
 45 49  1  0  0  0  0
 22 30  1  0  0  0  0
 22 31  1  0  0  0  0
 21 28  1  0  0  0  0
 21 29  1  0  0  0  0
 35 40  1  0  0  0  0
  8 13  1  0  0  0  0
 18 27  1  0  0  0  0
 25 32  1  0  0  0  0
 25 33  1  0  0  0  0
 44 46  1  0  0  0  0
  7 12  1  0  0  0  0
 34 39  1  0  0  0  0
 17 26  1  0  0  0  0
M  END
$$$$

  -OEChem-05262214473D

 49 48  0     1  0  0  0  0  0999 V2000
   -1.9833   -0.0509   -3.3423 C   0  0  0  0  0  0  0  0  0  0  0  0
   -1.6199   -1.0613   -2.7518 O   0  0  0  0  0  0  0  0  0  0  0  0
   -3.3243   -0.0235   -3.9975 C   0  0  0  0  0  0  0  0  0  0  0  0
   -3.2886   -0.3689   -5.0432 H   0  0  0  0  0  0  0  0  0  0  0  0
   -4.0503   -0.6845   -3.4973 H   0  0  0  0  0  0  0  0  0  0  0  0
   -3.8104    0.9645   -4.0351 H   0  0  0  0  0  0  0  0  0  0  0  0
   -1.2607    1.1231   -3.4768 N   0  0  0  0  0  0  0  0  0  0  0  0
    0.0536    1.3115   -2.9213 C   0  0  2  0  0  0  0  0  0  0  0  0
    0.0266    0.8315   -1.4761 C   0  0  0  0  0  0  0  0  0  0  0  0
   -1.0065    0.7530   -0.8146 O   0  0  0  0  0  0  0  0  0  0  0  0
    0.4852    2.7674   -3.0025 C   0  0  0  0  0  0  0  0  0  0  0  0
   -1.6809    1.8924   -3.9952 H   0  0  0  0  0  0  0  0  0  0  0  0
    0.7360    0.6822   -3.5030 H   0  0  0  0  0  0  0  0  0  0  0  0
   -0.1867    3.4133   -2.4256 H   0  0  0  0  0  0  0  0  0  0  0  0
    1.4966    2.9042   -2.6056 H   0  0  0  0  0  0  0  0  0  0  0  0
    0.4754    3.1196   -4.0397 H   0  0  0  0  0  0  0  0  0  0  0  0
    1.2978    0.5411   -0.9947 N   0  0  0  0  0  0  0  0  0  0  0  0
    1.5371    0.0807    0.3489 C   0  0  2  0  0  0  0  0  0  0  0  0
    1.8409   -1.4112    0.2678 C   0  0  0  0  0  0  0  0  0  0  0  0
    2.0827   -1.9879   -0.7904 O   0  0  0  0  0  0  0  0  0  0  0  0
    0.3359    0.3311    1.2694 C   0  0  0  0  0  0  0  0  0  0  0  0
    0.0661    1.8148    1.5274 C   0  0  0  0  0  0  0  0  0  0  0  0
   -1.1363    2.0660    2.4183 C   0  0  0  0  0  0  0  0  0  0  0  0
   -1.8772    1.1813    2.8367 O   0  0  0  0  0  0  0  0  0  0  0  0
   -1.3198    3.4058    2.6853 N   0  0  0  0  0  0  0  0  0  0  0  0
    2.0949    0.6178   -1.6227 H   0  0  0  0  0  0  0  0  0  0  0  0
    2.4283    0.6070    0.7072 H   0  0  0  0  0  0  0  0  0  0  0  0
   -0.5626   -0.1105    0.8178 H   0  0  0  0  0  0  0  0  0  0  0  0
    0.4813   -0.1859    2.2263 H   0  0  0  0  0  0  0  0  0  0  0  0
   -0.1390    2.3075    0.5690 H   0  0  0  0  0  0  0  0  0  0  0  0
    0.9470    2.3010    1.9612 H   0  0  0  0  0  0  0  0  0  0  0  0
   -0.6720    4.0772    2.2865 H   0  0  0  0  0  0  0  0  0  0  0  0
   -2.0798    3.7449    3.2664 H   0  0  0  0  0  0  0  0  0  0  0  0
    1.7597   -2.0266    1.5092 N   0  0  0  0  0  0  0  0  0  0  0  0
    1.9811   -3.4406    1.7097 C   0  0  2  0  0  0  0  0  0  0  0  0
    3.2778   -3.8181    1.0057 C   0  0  0  0  0  0  0  0  0  0  0  0
    3.7574   -3.1598    0.0851 O   0  0  0  0  0  0  0  0  0  0  0  0
    0.8163   -4.2635    1.1815 C   0  0  0  0  0  0  0  0  0  0  0  0
    1.5332   -1.4544    2.3173 H   0  0  0  0  0  0  0  0  0  0  0  0
    2.0928   -3.5933    2.7887 H   0  0  0  0  0  0  0  0  0  0  0  0
    0.6888   -4.1234    0.1019 H   0  0  0  0  0  0  0  0  0  0  0  0
    0.9726   -5.3325    1.3599 H   0  0  0  0  0  0  0  0  0  0  0  0
   -0.1204   -3.9699    1.6676 H   0  0  0  0  0  0  0  0  0  0  0  0
    3.8137   -5.0001    1.4976 N   0  0  0  0  0  0  0  0  0  0  0  0
    5.0350   -5.5754    0.9844 C   0  0  0  0  0  0  0  0  0  0  0  0
    3.3590   -5.4693    2.2753 H   0  0  0  0  0  0  0  0  0  0  0  0
    4.7955   -6.2941    0.1869 H   0  0  0  0  0  0  0  0  0  0  0  0
    5.6739   -4.7772    0.5787 H   0  0  0  0  0  0  0  0  0  0  0  0
    5.5661   -6.0929    1.7968 H   0  0  0  0  0  0  0  0  0  0  0  0
  1  3  1  0  0  0  0
  1  7  1  0  0  0  0
  1  2  2  0  0  0  0
 22 23  1  0  0  0  0
 23 25  1  0  0  0  0
 23 24  2  0  0  0  0
 35 36  1  0  0  0  0
 36 44  1  0  0  0  0
 36 37  2  0  0  0  0
  8  9  1  0  0  0  0
  9 17  1  0  0  0  0
  9 10  2  0  0  0  0
 18 19  1  0  0  0  0
 19 34  1  0  0  0  0
 19 20  2  0  0  0  0
 35 38  1  0  0  0  0
  8 11  1  0  0  0  0
 44 45  1  0  0  0  0
 21 22  1  0  0  0  0
 18 21  1  0  0  0  0
 34 35  1  0  0  0  0
  7  8  1  0  0  0  0
 17 18  1  0  0  0  0
  3  4  1  0  0  0  0
  3  5  1  0  0  0  0
  3  6  1  0  0  0  0
 38 41  1  0  0  0  0
 38 42  1  0  0  0  0
 38 43  1  0  0  0  0
 11 14  1  0  0  0  0
 11 15  1  0  0  0  0
 11 16  1  0  0  0  0
 45 47  1  0  0  0  0
 45 48  1  0  0  0  0
 45 49  1  0  0  0  0
 22 30  1  0  0  0  0
 22 31  1  0  0  0  0
 21 28  1  0  0  0  0
 21 29  1  0  0  0  0
 35 40  1  0  0  0  0
  8 13  1  0  0  0  0
 18 27  1  0  0  0  0
 25 32  1  0  0  0  0
 25 33  1  0  0  0  0
 44 46  1  0  0  0  0
  7 12  1  0  0  0  0
 34 39  1  0  0  0  0
 17 26  1  0  0  0  0
M  END
$$$$

  -OEChem-05262214473D

 49 48  0     1  0  0  0  0  0999 V2000
   -1.9833   -0.0509   -3.3423 C   0  0  0  0  0  0  0  0  0  0  0  0
   -1.6199   -1.0613   -2.7518 O   0  0  0  0  0  0  0  0  0  0  0  0
   -3.3243   -0.0235   -3.9975 C   0  0  0  0  0  0  0  0  0  0  0  0
   -3.2886   -0.3689   -5.0432 H   0  0  0  0  0  0  0  0  0  0  0  0
   -4.0503   -0.6845   -3.4973 H   0  0  0  0  0  0  0  0  0  0  0  0
   -3.8104    0.9645   -4.0351 H   0  0  0  0  0  0  0  0  0  0  0  0
   -1.2607    1.1231   -3.4768 N   0  0  0  0  0  0  0  0  0  0  0  0
    0.0536    1.3115   -2.9213 C   0  0  2  0  0  0  0  0  0  0  0  0
    0.0266    0.8315   -1.4761 C   0  0  0  0  0  0  0  0  0  0  0  0
   -1.0065    0.7530   -0.8146 O   0  0  0  0  0  0  0  0  0  0  0  0
    0.4852    2.7674   -3.0025 C   0  0  0  0  0  0  0  0  0  0  0  0
   -1.6809    1.8924   -3.9952 H   0  0  0  0  0  0  0  0  0  0  0  0
    0.7360    0.6822   -3.5030 H   0  0  0  0  0  0  0  0  0  0  0  0
   -0.1867    3.4133   -2.4256 H   0  0  0  0  0  0  0  0  0  0  0  0
    1.4966    2.9042   -2.6056 H   0  0  0  0  0  0  0  0  0  0  0  0
    0.4754    3.1196   -4.0397 H   0  0  0  0  0  0  0  0  0  0  0  0
    1.2978    0.5411   -0.9947 N   0  0  0  0  0  0  0  0  0  0  0  0
    1.5371    0.0807    0.3489 C   0  0  2  0  0  0  0  0  0  0  0  0
    1.8409   -1.4112    0.2678 C   0  0  0  0  0  0  0  0  0  0  0  0
    2.3390   -1.9394   -0.7241 O   0  0  0  0  0  0  0  0  0  0  0  0
    0.3359    0.3311    1.2694 C   0  0  0  0  0  0  0  0  0  0  0  0
    0.0661    1.8148    1.5274 C   0  0  0  0  0  0  0  0  0  0  0  0
   -1.1363    2.0660    2.4183 C   0  0  0  0  0  0  0  0  0  0  0  0
   -1.8772    1.1813    2.8367 O   0  0  0  0  0  0  0  0  0  0  0  0
   -1.3198    3.4058    2.6853 N   0  0  0  0  0  0  0  0  0  0  0  0
    2.0949    0.6178   -1.6227 H   0  0  0  0  0  0  0  0  0  0  0  0
    2.4283    0.6070    0.7072 H   0  0  0  0  0  0  0  0  0  0  0  0
   -0.5626   -0.1105    0.8178 H   0  0  0  0  0  0  0  0  0  0  0  0
    0.4813   -0.1859    2.2263 H   0  0  0  0  0  0  0  0  0  0  0  0
   -0.1390    2.3075    0.5690 H   0  0  0  0  0  0  0  0  0  0  0  0
    0.9470    2.3010    1.9612 H   0  0  0  0  0  0  0  0  0  0  0  0
   -0.6720    4.0772    2.2865 H   0  0  0  0  0  0  0  0  0  0  0  0
   -2.0798    3.7449    3.2664 H   0  0  0  0  0  0  0  0  0  0  0  0
    1.4431   -2.0859    1.4136 N   0  0  0  0  0  0  0  0  0  0  0  0
    1.5963   -3.5123    1.5879 C   0  0  2  0  0  0  0  0  0  0  0  0
    3.0264   -3.8807    1.2156 C   0  0  0  0  0  0  0  0  0  0  0  0
    3.7286   -3.1873    0.4827 O   0  0  0  0  0  0  0  0  0  0  0  0
    0.5978   -4.2839    0.7392 C   0  0  0  0  0  0  0  0  0  0  0  0
    1.0232   -1.5501    2.1675 H   0  0  0  0  0  0  0  0  0  0  0  0
    1.4296   -3.7209    2.6504 H   0  0  0  0  0  0  0  0  0  0  0  0
    0.7493   -4.0876   -0.3285 H   0  0  0  0  0  0  0  0  0  0  0  0
    0.6961   -5.3634    0.8940 H   0  0  0  0  0  0  0  0  0  0  0  0
   -0.4294   -3.9959    0.9876 H   0  0  0  0  0  0  0  0  0  0  0  0
    3.4116   -5.0964    1.7633 N   0  0  0  0  0  0  0  0  0  0  0  0
    4.7190   -5.6702    1.5456 C   0  0  0  0  0  0  0  0  0  0  0  0
    2.7712   -5.5944    2.3745 H   0  0  0  0  0  0  0  0  0  0  0  0
    4.6845   -6.3434    0.6763 H   0  0  0  0  0  0  0  0  0  0  0  0
    5.4456   -4.8660    1.3579 H   0  0  0  0  0  0  0  0  0  0  0  0
    5.0230   -6.2383    2.4372 H   0  0  0  0  0  0  0  0  0  0  0  0
  1  3  1  0  0  0  0
  1  7  1  0  0  0  0
  1  2  2  0  0  0  0
 22 23  1  0  0  0  0
 23 25  1  0  0  0  0
 23 24  2  0  0  0  0
 35 36  1  0  0  0  0
 36 44  1  0  0  0  0
 36 37  2  0  0  0  0
  8  9  1  0  0  0  0
  9 17  1  0  0  0  0
  9 10  2  0  0  0  0
 18 19  1  0  0  0  0
 19 34  1  0  0  0  0
 19 20  2  0  0  0  0
 35 38  1  0  0  0  0
  8 11  1  0  0  0  0
 44 45  1  0  0  0  0
 21 22  1  0  0  0  0
 18 21  1  0  0  0  0
 34 35  1  0  0  0  0
  7  8  1  0  0  0  0
 17 18  1  0  0  0  0
  3  4  1  0  0  0  0
  3  5  1  0  0  0  0
  3  6  1  0  0  0  0
 38 41  1  0  0  0  0
 38 42  1  0  0  0  0
 38 43  1  0  0  0  0
 11 14  1  0  0  0  0
 11 15  1  0  0  0  0
 11 16  1  0  0  0  0
 45 47  1  0  0  0  0
 45 48  1  0  0  0  0
 45 49  1  0  0  0  0
 22 30  1  0  0  0  0
 22 31  1  0  0  0  0
 21 28  1  0  0  0  0
 21 29  1  0  0  0  0
 35 40  1  0  0  0  0
  8 13  1  0  0  0  0
 18 27  1  0  0  0  0
 25 32  1  0  0  0  0
 25 33  1  0  0  0  0
 44 46  1  0  0  0  0
  7 12  1  0  0  0  0
 34 39  1  0  0  0  0
 17 26  1  0  0  0  0
M  END
$$$$

  -OEChem-05262214473D

 49 48  0     1  0  0  0  0  0999 V2000
   -1.9833   -0.0509   -3.3423 C   0  0  0  0  0  0  0  0  0  0  0  0
   -1.6199   -1.0613   -2.7518 O   0  0  0  0  0  0  0  0  0  0  0  0
   -3.3243   -0.0235   -3.9975 C   0  0  0  0  0  0  0  0  0  0  0  0
   -3.2886   -0.3689   -5.0432 H   0  0  0  0  0  0  0  0  0  0  0  0
   -4.0503   -0.6845   -3.4973 H   0  0  0  0  0  0  0  0  0  0  0  0
   -3.8104    0.9645   -4.0351 H   0  0  0  0  0  0  0  0  0  0  0  0
   -1.2607    1.1231   -3.4768 N   0  0  0  0  0  0  0  0  0  0  0  0
    0.0536    1.3115   -2.9213 C   0  0  2  0  0  0  0  0  0  0  0  0
    0.0266    0.8315   -1.4761 C   0  0  0  0  0  0  0  0  0  0  0  0
   -1.0065    0.7530   -0.8146 O   0  0  0  0  0  0  0  0  0  0  0  0
    0.4852    2.7674   -3.0025 C   0  0  0  0  0  0  0  0  0  0  0  0
   -1.6809    1.8924   -3.9952 H   0  0  0  0  0  0  0  0  0  0  0  0
    0.7360    0.6822   -3.5030 H   0  0  0  0  0  0  0  0  0  0  0  0
   -0.1867    3.4133   -2.4256 H   0  0  0  0  0  0  0  0  0  0  0  0
    1.4966    2.9042   -2.6056 H   0  0  0  0  0  0  0  0  0  0  0  0
    0.4754    3.1196   -4.0397 H   0  0  0  0  0  0  0  0  0  0  0  0
    1.2978    0.5411   -0.9947 N   0  0  0  0  0  0  0  0  0  0  0  0
    1.5371    0.0807    0.3489 C   0  0  2  0  0  0  0  0  0  0  0  0
    1.8409   -1.4112    0.2678 C   0  0  0  0  0  0  0  0  0  0  0  0
    2.5705   -1.8994   -0.5926 O   0  0  0  0  0  0  0  0  0  0  0  0
    0.3359    0.3311    1.2694 C   0  0  0  0  0  0  0  0  0  0  0  0
    0.0661    1.8148    1.5274 C   0  0  0  0  0  0  0  0  0  0  0  0
   -1.1363    2.0660    2.4183 C   0  0  0  0  0  0  0  0  0  0  0  0
   -1.8772    1.1813    2.8367 O   0  0  0  0  0  0  0  0  0  0  0  0
   -1.3198    3.4058    2.6853 N   0  0  0  0  0  0  0  0  0  0  0  0
    2.0949    0.6178   -1.6227 H   0  0  0  0  0  0  0  0  0  0  0  0
    2.4283    0.6070    0.7072 H   0  0  0  0  0  0  0  0  0  0  0  0
   -0.5626   -0.1105    0.8178 H   0  0  0  0  0  0  0  0  0  0  0  0
    0.4813   -0.1859    2.2263 H   0  0  0  0  0  0  0  0  0  0  0  0
   -0.1390    2.3075    0.5690 H   0  0  0  0  0  0  0  0  0  0  0  0
    0.9470    2.3010    1.9612 H   0  0  0  0  0  0  0  0  0  0  0  0
   -0.6720    4.0772    2.2865 H   0  0  0  0  0  0  0  0  0  0  0  0
   -2.0798    3.7449    3.2664 H   0  0  0  0  0  0  0  0  0  0  0  0
    1.1607   -2.1338    1.2381 N   0  0  0  0  0  0  0  0  0  0  0  0
    1.2545   -3.5700    1.3691 C   0  0  2  0  0  0  0  0  0  0  0  0
    2.7296   -3.9485    1.3515 C   0  0  0  0  0  0  0  0  0  0  0  0
    3.5996   -3.2340    0.8580 O   0  0  0  0  0  0  0  0  0  0  0  0
    0.4984   -4.2778    0.2555 C   0  0  0  0  0  0  0  0  0  0  0  0
    0.5672   -1.6278    1.8888 H   0  0  0  0  0  0  0  0  0  0  0  0
    0.8223   -3.8277    2.3422 H   0  0  0  0  0  0  0  0  0  0  0  0
    0.9171   -4.0318   -0.7271 H   0  0  0  0  0  0  0  0  0  0  0  0
    0.5465   -5.3655    0.3723 H   0  0  0  0  0  0  0  0  0  0  0  0
   -0.5561   -3.9816    0.2511 H   0  0  0  0  0  0  0  0  0  0  0  0
    2.9546   -5.1976    1.9131 N   0  0  0  0  0  0  0  0  0  0  0  0
    4.2704   -5.7865    2.0029 C   0  0  0  0  0  0  0  0  0  0  0  0
    2.1766   -5.7123    2.3150 H   0  0  0  0  0  0  0  0  0  0  0  0
    4.4526   -6.4146    1.1184 H   0  0  0  0  0  0  0  0  0  0  0  0
    5.0266   -4.9889    2.0482 H   0  0  0  0  0  0  0  0  0  0  0  0
    4.3343   -6.4043    2.9107 H   0  0  0  0  0  0  0  0  0  0  0  0
  1  3  1  0  0  0  0
  1  7  1  0  0  0  0
  1  2  2  0  0  0  0
 22 23  1  0  0  0  0
 23 25  1  0  0  0  0
 23 24  2  0  0  0  0
 35 36  1  0  0  0  0
 36 44  1  0  0  0  0
 36 37  2  0  0  0  0
  8  9  1  0  0  0  0
  9 17  1  0  0  0  0
  9 10  2  0  0  0  0
 18 19  1  0  0  0  0
 19 34  1  0  0  0  0
 19 20  2  0  0  0  0
 35 38  1  0  0  0  0
  8 11  1  0  0  0  0
 44 45  1  0  0  0  0
 21 22  1  0  0  0  0
 18 21  1  0  0  0  0
 34 35  1  0  0  0  0
  7  8  1  0  0  0  0
 17 18  1  0  0  0  0
  3  4  1  0  0  0  0
  3  5  1  0  0  0  0
  3  6  1  0  0  0  0
 38 41  1  0  0  0  0
 38 42  1  0  0  0  0
 38 43  1  0  0  0  0
 11 14  1  0  0  0  0
 11 15  1  0  0  0  0
 11 16  1  0  0  0  0
 45 47  1  0  0  0  0
 45 48  1  0  0  0  0
 45 49  1  0  0  0  0
 22 30  1  0  0  0  0
 22 31  1  0  0  0  0
 21 28  1  0  0  0  0
 21 29  1  0  0  0  0
 35 40  1  0  0  0  0
  8 13  1  0  0  0  0
 18 27  1  0  0  0  0
 25 32  1  0  0  0  0
 25 33  1  0  0  0  0
 44 46  1  0  0  0  0
  7 12  1  0  0  0  0
 34 39  1  0  0  0  0
 17 26  1  0  0  0  0
M  END
$$$$

  -OEChem-05262214473D

 49 48  0     1  0  0  0  0  0999 V2000
   -1.9833   -0.0509   -3.3423 C   0  0  0  0  0  0  0  0  0  0  0  0
   -1.6199   -1.0613   -2.7518 O   0  0  0  0  0  0  0  0  0  0  0  0
   -3.3243   -0.0235   -3.9975 C   0  0  0  0  0  0  0  0  0  0  0  0
   -3.2886   -0.3689   -5.0432 H   0  0  0  0  0  0  0  0  0  0  0  0
   -4.0503   -0.6845   -3.4973 H   0  0  0  0  0  0  0  0  0  0  0  0
   -3.8104    0.9645   -4.0351 H   0  0  0  0  0  0  0  0  0  0  0  0
   -1.2607    1.1231   -3.4768 N   0  0  0  0  0  0  0  0  0  0  0  0
    0.0536    1.3115   -2.9213 C   0  0  2  0  0  0  0  0  0  0  0  0
    0.0266    0.8315   -1.4761 C   0  0  0  0  0  0  0  0  0  0  0  0
   -1.0065    0.7530   -0.8146 O   0  0  0  0  0  0  0  0  0  0  0  0
    0.4852    2.7674   -3.0025 C   0  0  0  0  0  0  0  0  0  0  0  0
   -1.6809    1.8924   -3.9952 H   0  0  0  0  0  0  0  0  0  0  0  0
    0.7360    0.6822   -3.5030 H   0  0  0  0  0  0  0  0  0  0  0  0
   -0.1867    3.4133   -2.4256 H   0  0  0  0  0  0  0  0  0  0  0  0
    1.4966    2.9042   -2.6056 H   0  0  0  0  0  0  0  0  0  0  0  0
    0.4754    3.1196   -4.0397 H   0  0  0  0  0  0  0  0  0  0  0  0
    1.2978    0.5411   -0.9947 N   0  0  0  0  0  0  0  0  0  0  0  0
    1.5371    0.0807    0.3489 C   0  0  2  0  0  0  0  0  0  0  0  0
    1.8409   -1.4112    0.2678 C   0  0  0  0  0  0  0  0  0  0  0  0
    2.7614   -1.8707   -0.4049 O   0  0  0  0  0  0  0  0  0  0  0  0
    0.3359    0.3311    1.2694 C   0  0  0  0  0  0  0  0  0  0  0  0
    0.0661    1.8148    1.5274 C   0  0  0  0  0  0  0  0  0  0  0  0
   -1.1363    2.0660    2.4183 C   0  0  0  0  0  0  0  0  0  0  0  0
   -1.8772    1.1813    2.8367 O   0  0  0  0  0  0  0  0  0  0  0  0
   -1.3198    3.4058    2.6853 N   0  0  0  0  0  0  0  0  0  0  0  0
    2.0949    0.6178   -1.6227 H   0  0  0  0  0  0  0  0  0  0  0  0
    2.4283    0.6070    0.7072 H   0  0  0  0  0  0  0  0  0  0  0  0
   -0.5626   -0.1105    0.8178 H   0  0  0  0  0  0  0  0  0  0  0  0
    0.4813   -0.1859    2.2263 H   0  0  0  0  0  0  0  0  0  0  0  0
   -0.1390    2.3075    0.5690 H   0  0  0  0  0  0  0  0  0  0  0  0
    0.9470    2.3010    1.9612 H   0  0  0  0  0  0  0  0  0  0  0  0
   -0.6720    4.0772    2.2865 H   0  0  0  0  0  0  0  0  0  0  0  0
   -2.0798    3.7449    3.2664 H   0  0  0  0  0  0  0  0  0  0  0  0
    0.9317   -2.1672    0.9945 N   0  0  0  0  0  0  0  0  0  0  0  0
    0.9790   -3.6098    1.0682 C   0  0  2  0  0  0  0  0  0  0  0  0
    2.4076   -4.0170    1.4041 C   0  0  0  0  0  0  0  0  0  0  0  0
    3.3794   -3.2967    1.1855 O   0  0  0  0  0  0  0  0  0  0  0  0
    0.5250   -4.2456   -0.2365 C   0  0  0  0  0  0  0  0  0  0  0  0
    0.1962   -1.6822    1.5000 H   0  0  0  0  0  0  0  0  0  0  0  0
    0.3123   -3.9067    1.8852 H   0  0  0  0  0  0  0  0  0  0  0  0
    1.1810   -3.9596   -1.0667 H   0  0  0  0  0  0  0  0  0  0  0  0
    0.5341   -5.3386   -0.1695 H   0  0  0  0  0  0  0  0  0  0  0  0
   -0.4918   -3.9281   -0.4917 H   0  0  0  0  0  0  0  0  0  0  0  0
    2.4739   -5.2968    1.9369 N   0  0  0  0  0  0  0  0  0  0  0  0
    3.7196   -5.9161    2.3249 C   0  0  0  0  0  0  0  0  0  0  0  0
    1.6157   -5.8148    2.1009 H   0  0  0  0  0  0  0  0  0  0  0  0
    4.1158   -6.5030    1.4831 H   0  0  0  0  0  0  0  0  0  0  0  0
    4.4453   -5.1374    2.6024 H   0  0  0  0  0  0  0  0  0  0  0  0
    3.5468   -6.5796    3.1851 H   0  0  0  0  0  0  0  0  0  0  0  0
  1  3  1  0  0  0  0
  1  7  1  0  0  0  0
  1  2  2  0  0  0  0
 22 23  1  0  0  0  0
 23 25  1  0  0  0  0
 23 24  2  0  0  0  0
 35 36  1  0  0  0  0
 36 44  1  0  0  0  0
 36 37  2  0  0  0  0
  8  9  1  0  0  0  0
  9 17  1  0  0  0  0
  9 10  2  0  0  0  0
 18 19  1  0  0  0  0
 19 34  1  0  0  0  0
 19 20  2  0  0  0  0
 35 38  1  0  0  0  0
  8 11  1  0  0  0  0
 44 45  1  0  0  0  0
 21 22  1  0  0  0  0
 18 21  1  0  0  0  0
 34 35  1  0  0  0  0
  7  8  1  0  0  0  0
 17 18  1  0  0  0  0
  3  4  1  0  0  0  0
  3  5  1  0  0  0  0
  3  6  1  0  0  0  0
 38 41  1  0  0  0  0
 38 42  1  0  0  0  0
 38 43  1  0  0  0  0
 11 14  1  0  0  0  0
 11 15  1  0  0  0  0
 11 16  1  0  0  0  0
 45 47  1  0  0  0  0
 45 48  1  0  0  0  0
 45 49  1  0  0  0  0
 22 30  1  0  0  0  0
 22 31  1  0  0  0  0
 21 28  1  0  0  0  0
 21 29  1  0  0  0  0
 35 40  1  0  0  0  0
  8 13  1  0  0  0  0
 18 27  1  0  0  0  0
 25 32  1  0  0  0  0
 25 33  1  0  0  0  0
 44 46  1  0  0  0  0
  7 12  1  0  0  0  0
 34 39  1  0  0  0  0
 17 26  1  0  0  0  0
M  END
$$$$

  -OEChem-05262214473D

 49 48  0     1  0  0  0  0  0999 V2000
   -1.9833   -0.0509   -3.3423 C   0  0  0  0  0  0  0  0  0  0  0  0
   -1.6199   -1.0613   -2.7518 O   0  0  0  0  0  0  0  0  0  0  0  0
   -3.3243   -0.0235   -3.9975 C   0  0  0  0  0  0  0  0  0  0  0  0
   -3.2886   -0.3689   -5.0432 H   0  0  0  0  0  0  0  0  0  0  0  0
   -4.0503   -0.6845   -3.4973 H   0  0  0  0  0  0  0  0  0  0  0  0
   -3.8104    0.9645   -4.0351 H   0  0  0  0  0  0  0  0  0  0  0  0
   -1.2607    1.1231   -3.4768 N   0  0  0  0  0  0  0  0  0  0  0  0
    0.0536    1.3115   -2.9213 C   0  0  2  0  0  0  0  0  0  0  0  0
    0.0266    0.8315   -1.4761 C   0  0  0  0  0  0  0  0  0  0  0  0
   -1.0065    0.7530   -0.8146 O   0  0  0  0  0  0  0  0  0  0  0  0
    0.4852    2.7674   -3.0025 C   0  0  0  0  0  0  0  0  0  0  0  0
   -1.6809    1.8924   -3.9952 H   0  0  0  0  0  0  0  0  0  0  0  0
    0.7360    0.6822   -3.5030 H   0  0  0  0  0  0  0  0  0  0  0  0
   -0.1867    3.4133   -2.4256 H   0  0  0  0  0  0  0  0  0  0  0  0
    1.4966    2.9042   -2.6056 H   0  0  0  0  0  0  0  0  0  0  0  0
    0.4754    3.1196   -4.0397 H   0  0  0  0  0  0  0  0  0  0  0  0
    1.2978    0.5411   -0.9947 N   0  0  0  0  0  0  0  0  0  0  0  0
    1.5371    0.0807    0.3489 C   0  0  2  0  0  0  0  0  0  0  0  0
    1.8409   -1.4112    0.2678 C   0  0  0  0  0  0  0  0  0  0  0  0
    2.8986   -1.8553   -0.1738 O   0  0  0  0  0  0  0  0  0  0  0  0
    0.3359    0.3311    1.2694 C   0  0  0  0  0  0  0  0  0  0  0  0
    0.0661    1.8148    1.5274 C   0  0  0  0  0  0  0  0  0  0  0  0
   -1.1363    2.0660    2.4183 C   0  0  0  0  0  0  0  0  0  0  0  0
   -1.8772    1.1813    2.8367 O   0  0  0  0  0  0  0  0  0  0  0  0
   -1.3198    3.4058    2.6853 N   0  0  0  0  0  0  0  0  0  0  0  0
    2.0949    0.6178   -1.6227 H   0  0  0  0  0  0  0  0  0  0  0  0
    2.4283    0.6070    0.7072 H   0  0  0  0  0  0  0  0  0  0  0  0
   -0.5626   -0.1105    0.8178 H   0  0  0  0  0  0  0  0  0  0  0  0
    0.4813   -0.1859    2.2263 H   0  0  0  0  0  0  0  0  0  0  0  0
   -0.1390    2.3075    0.5690 H   0  0  0  0  0  0  0  0  0  0  0  0
    0.9470    2.3010    1.9612 H   0  0  0  0  0  0  0  0  0  0  0  0
   -0.6720    4.0772    2.2865 H   0  0  0  0  0  0  0  0  0  0  0  0
   -2.0798    3.7449    3.2664 H   0  0  0  0  0  0  0  0  0  0  0  0
    0.7717   -2.1837    0.6996 N   0  0  0  0  0  0  0  0  0  0  0  0
    0.7885   -3.6289    0.7058 C   0  0  2  0  0  0  0  0  0  0  0  0
    2.0823   -4.0814    1.3698 C   0  0  0  0  0  0  0  0  0  0  0  0
    3.0828   -3.3710    1.4428 O   0  0  0  0  0  0  0  0  0  0  0  0
    0.6757   -4.1896   -0.7033 C   0  0  0  0  0  0  0  0  0  0  0  0
   -0.0644   -1.7096    1.0277 H   0  0  0  0  0  0  0  0  0  0  0  0
   -0.0657   -3.9525    1.3105 H   0  0  0  0  0  0  0  0  0  0  0  0
    1.5228   -3.8759   -1.3242 H   0  0  0  0  0  0  0  0  0  0  0  0
    0.6598   -5.2844   -0.6946 H   0  0  0  0  0  0  0  0  0  0  0  0
   -0.2408   -3.8390   -1.1901 H   0  0  0  0  0  0  0  0  0  0  0  0
    2.0022   -5.3872    1.8330 N   0  0  0  0  0  0  0  0  0  0  0  0
    3.1043   -6.0504    2.4898 C   0  0  0  0  0  0  0  0  0  0  0  0
    1.1268   -5.8951    1.7468 H   0  0  0  0  0  0  0  0  0  0  0  0
    3.6968   -6.6026    1.7455 H   0  0  0  0  0  0  0  0  0  0  0  0
    3.7414   -5.3015    2.9830 H   0  0  0  0  0  0  0  0  0  0  0  0
    2.7142   -6.7522    3.2417 H   0  0  0  0  0  0  0  0  0  0  0  0
  1  3  1  0  0  0  0
  1  7  1  0  0  0  0
  1  2  2  0  0  0  0
 22 23  1  0  0  0  0
 23 25  1  0  0  0  0
 23 24  2  0  0  0  0
 35 36  1  0  0  0  0
 36 44  1  0  0  0  0
 36 37  2  0  0  0  0
  8  9  1  0  0  0  0
  9 17  1  0  0  0  0
  9 10  2  0  0  0  0
 18 19  1  0  0  0  0
 19 34  1  0  0  0  0
 19 20  2  0  0  0  0
 35 38  1  0  0  0  0
  8 11  1  0  0  0  0
 44 45  1  0  0  0  0
 21 22  1  0  0  0  0
 18 21  1  0  0  0  0
 34 35  1  0  0  0  0
  7  8  1  0  0  0  0
 17 18  1  0  0  0  0
  3  4  1  0  0  0  0
  3  5  1  0  0  0  0
  3  6  1  0  0  0  0
 38 41  1  0  0  0  0
 38 42  1  0  0  0  0
 38 43  1  0  0  0  0
 11 14  1  0  0  0  0
 11 15  1  0  0  0  0
 11 16  1  0  0  0  0
 45 47  1  0  0  0  0
 45 48  1  0  0  0  0
 45 49  1  0  0  0  0
 22 30  1  0  0  0  0
 22 31  1  0  0  0  0
 21 28  1  0  0  0  0
 21 29  1  0  0  0  0
 35 40  1  0  0  0  0
  8 13  1  0  0  0  0
 18 27  1  0  0  0  0
 25 32  1  0  0  0  0
 25 33  1  0  0  0  0
 44 46  1  0  0  0  0
  7 12  1  0  0  0  0
 34 39  1  0  0  0  0
 17 26  1  0  0  0  0
M  END
$$$$

  -OEChem-05262214473D

 49 48  0     1  0  0  0  0  0999 V2000
   -1.9833   -0.0509   -3.3423 C   0  0  0  0  0  0  0  0  0  0  0  0
   -1.6199   -1.0613   -2.7518 O   0  0  0  0  0  0  0  0  0  0  0  0
   -3.3243   -0.0235   -3.9975 C   0  0  0  0  0  0  0  0  0  0  0  0
   -3.2886   -0.3689   -5.0432 H   0  0  0  0  0  0  0  0  0  0  0  0
   -4.0503   -0.6845   -3.4973 H   0  0  0  0  0  0  0  0  0  0  0  0
   -3.8104    0.9645   -4.0351 H   0  0  0  0  0  0  0  0  0  0  0  0
   -1.2607    1.1231   -3.4768 N   0  0  0  0  0  0  0  0  0  0  0  0
    0.0536    1.3115   -2.9213 C   0  0  2  0  0  0  0  0  0  0  0  0
    0.0266    0.8315   -1.4761 C   0  0  0  0  0  0  0  0  0  0  0  0
   -1.0065    0.7530   -0.8146 O   0  0  0  0  0  0  0  0  0  0  0  0
    0.4852    2.7674   -3.0025 C   0  0  0  0  0  0  0  0  0  0  0  0
   -1.6809    1.8924   -3.9952 H   0  0  0  0  0  0  0  0  0  0  0  0
    0.7360    0.6822   -3.5030 H   0  0  0  0  0  0  0  0  0  0  0  0
   -0.1867    3.4133   -2.4256 H   0  0  0  0  0  0  0  0  0  0  0  0
    1.4966    2.9042   -2.6056 H   0  0  0  0  0  0  0  0  0  0  0  0
    0.4754    3.1196   -4.0397 H   0  0  0  0  0  0  0  0  0  0  0  0
    1.2978    0.5411   -0.9947 N   0  0  0  0  0  0  0  0  0  0  0  0
    1.5371    0.0807    0.3489 C   0  0  2  0  0  0  0  0  0  0  0  0
    1.8409   -1.4112    0.2678 C   0  0  0  0  0  0  0  0  0  0  0  0
    2.9728   -1.8543    0.0850 O   0  0  0  0  0  0  0  0  0  0  0  0
    0.3359    0.3311    1.2694 C   0  0  0  0  0  0  0  0  0  0  0  0
    0.0661    1.8148    1.5274 C   0  0  0  0  0  0  0  0  0  0  0  0
   -1.1363    2.0660    2.4183 C   0  0  0  0  0  0  0  0  0  0  0  0
   -1.8772    1.1813    2.8367 O   0  0  0  0  0  0  0  0  0  0  0  0
   -1.3198    3.4058    2.6853 N   0  0  0  0  0  0  0  0  0  0  0  0
    2.0949    0.6178   -1.6227 H   0  0  0  0  0  0  0  0  0  0  0  0
    2.4283    0.6070    0.7072 H   0  0  0  0  0  0  0  0  0  0  0  0
   -0.5626   -0.1105    0.8178 H   0  0  0  0  0  0  0  0  0  0  0  0
    0.4813   -0.1859    2.2263 H   0  0  0  0  0  0  0  0  0  0  0  0
   -0.1390    2.3075    0.5690 H   0  0  0  0  0  0  0  0  0  0  0  0
    0.9470    2.3010    1.9612 H   0  0  0  0  0  0  0  0  0  0  0  0
   -0.6720    4.0772    2.2865 H   0  0  0  0  0  0  0  0  0  0  0  0
   -2.0798    3.7449    3.2664 H   0  0  0  0  0  0  0  0  0  0  0  0
    0.6917   -2.1823    0.3733 N   0  0  0  0  0  0  0  0  0  0  0  0
    0.6960   -3.6260    0.3064 C   0  0  2  0  0  0  0  0  0  0  0  0
    1.7758   -4.1373    1.2509 C   0  0  0  0  0  0  0  0  0  0  0  0
    2.7302   -3.4521    1.6124 O   0  0  0  0  0  0  0  0  0  0  0  0
    0.9403   -4.1134   -1.1132 C   0  0  0  0  0  0  0  0  0  0  0  0
   -0.1970   -1.7081    0.5042 H   0  0  0  0  0  0  0  0  0  0  0  0
   -0.2859   -3.9618    0.6574 H   0  0  0  0  0  0  0  0  0  0  0  0
    1.9194   -3.7866   -1.4821 H   0  0  0  0  0  0  0  0  0  0  0  0
    0.9149   -5.2068   -1.1672 H   0  0  0  0  0  0  0  0  0  0  0  0
    0.1797   -3.7204   -1.7965 H   0  0  0  0  0  0  0  0  0  0  0  0
    1.5716   -5.4627    1.6085 N   0  0  0  0  0  0  0  0  0  0  0  0
    2.4663   -6.1801    2.4863 C   0  0  0  0  0  0  0  0  0  0  0  0
    0.7430   -5.9477    1.2767 H   0  0  0  0  0  0  0  0  0  0  0  0
    3.2242   -6.7066    1.8877 H   0  0  0  0  0  0  0  0  0  0  0  0
    2.9628   -5.4698    3.1638 H   0  0  0  0  0  0  0  0  0  0  0  0
    1.8933   -6.9104    3.0766 H   0  0  0  0  0  0  0  0  0  0  0  0
  1  3  1  0  0  0  0
  1  7  1  0  0  0  0
  1  2  2  0  0  0  0
 22 23  1  0  0  0  0
 23 25  1  0  0  0  0
 23 24  2  0  0  0  0
 35 36  1  0  0  0  0
 36 44  1  0  0  0  0
 36 37  2  0  0  0  0
  8  9  1  0  0  0  0
  9 17  1  0  0  0  0
  9 10  2  0  0  0  0
 18 19  1  0  0  0  0
 19 34  1  0  0  0  0
 19 20  2  0  0  0  0
 35 38  1  0  0  0  0
  8 11  1  0  0  0  0
 44 45  1  0  0  0  0
 21 22  1  0  0  0  0
 18 21  1  0  0  0  0
 34 35  1  0  0  0  0
  7  8  1  0  0  0  0
 17 18  1  0  0  0  0
  3  4  1  0  0  0  0
  3  5  1  0  0  0  0
  3  6  1  0  0  0  0
 38 41  1  0  0  0  0
 38 42  1  0  0  0  0
 38 43  1  0  0  0  0
 11 14  1  0  0  0  0
 11 15  1  0  0  0  0
 11 16  1  0  0  0  0
 45 47  1  0  0  0  0
 45 48  1  0  0  0  0
 45 49  1  0  0  0  0
 22 30  1  0  0  0  0
 22 31  1  0  0  0  0
 21 28  1  0  0  0  0
 21 29  1  0  0  0  0
 35 40  1  0  0  0  0
  8 13  1  0  0  0  0
 18 27  1  0  0  0  0
 25 32  1  0  0  0  0
 25 33  1  0  0  0  0
 44 46  1  0  0  0  0
  7 12  1  0  0  0  0
 34 39  1  0  0  0  0
 17 26  1  0  0  0  0
M  END
$$$$

  -OEChem-05262214473D

 49 48  0     1  0  0  0  0  0999 V2000
   -1.9833   -0.0509   -3.3423 C   0  0  0  0  0  0  0  0  0  0  0  0
   -1.6199   -1.0613   -2.7518 O   0  0  0  0  0  0  0  0  0  0  0  0
   -3.3243   -0.0235   -3.9975 C   0  0  0  0  0  0  0  0  0  0  0  0
   -3.2886   -0.3689   -5.0432 H   0  0  0  0  0  0  0  0  0  0  0  0
   -4.0503   -0.6845   -3.4973 H   0  0  0  0  0  0  0  0  0  0  0  0
   -3.8104    0.9645   -4.0351 H   0  0  0  0  0  0  0  0  0  0  0  0
   -1.2607    1.1231   -3.4768 N   0  0  0  0  0  0  0  0  0  0  0  0
    0.0536    1.3115   -2.9213 C   0  0  2  0  0  0  0  0  0  0  0  0
    0.0266    0.8315   -1.4761 C   0  0  0  0  0  0  0  0  0  0  0  0
   -1.0065    0.7530   -0.8146 O   0  0  0  0  0  0  0  0  0  0  0  0
    0.4852    2.7674   -3.0025 C   0  0  0  0  0  0  0  0  0  0  0  0
   -1.6809    1.8924   -3.9952 H   0  0  0  0  0  0  0  0  0  0  0  0
    0.7360    0.6822   -3.5030 H   0  0  0  0  0  0  0  0  0  0  0  0
   -0.1867    3.4133   -2.4256 H   0  0  0  0  0  0  0  0  0  0  0  0
    1.4966    2.9042   -2.6056 H   0  0  0  0  0  0  0  0  0  0  0  0
    0.4754    3.1196   -4.0397 H   0  0  0  0  0  0  0  0  0  0  0  0
    1.2978    0.5411   -0.9947 N   0  0  0  0  0  0  0  0  0  0  0  0
    1.5371    0.0807    0.3489 C   0  0  2  0  0  0  0  0  0  0  0  0
    1.8409   -1.4112    0.2678 C   0  0  0  0  0  0  0  0  0  0  0  0
    2.9789   -1.8677    0.3538 O   0  0  0  0  0  0  0  0  0  0  0  0
    0.3359    0.3311    1.2694 C   0  0  0  0  0  0  0  0  0  0  0  0
    0.0661    1.8148    1.5274 C   0  0  0  0  0  0  0  0  0  0  0  0
   -1.1363    2.0660    2.4183 C   0  0  0  0  0  0  0  0  0  0  0  0
   -1.8772    1.1813    2.8367 O   0  0  0  0  0  0  0  0  0  0  0  0
   -1.3198    3.4058    2.6853 N   0  0  0  0  0  0  0  0  0  0  0  0
    2.0949    0.6178   -1.6227 H   0  0  0  0  0  0  0  0  0  0  0  0
    2.4283    0.6070    0.7072 H   0  0  0  0  0  0  0  0  0  0  0  0
   -0.5626   -0.1105    0.8178 H   0  0  0  0  0  0  0  0  0  0  0  0
    0.4813   -0.1859    2.2263 H   0  0  0  0  0  0  0  0  0  0  0  0
   -0.1390    2.3075    0.5690 H   0  0  0  0  0  0  0  0  0  0  0  0
    0.9470    2.3010    1.9612 H   0  0  0  0  0  0  0  0  0  0  0  0
   -0.6720    4.0772    2.2865 H   0  0  0  0  0  0  0  0  0  0  0  0
   -2.0798    3.7449    3.2664 H   0  0  0  0  0  0  0  0  0  0  0  0
    0.6970   -2.1629    0.0380 N   0  0  0  0  0  0  0  0  0  0  0  0
    0.7079   -3.6013   -0.1026 C   0  0  2  0  0  0  0  0  0  0  0  0
    1.5092   -4.1810    1.0556 C   0  0  0  0  0  0  0  0  0  0  0  0
    2.3456   -3.5342    1.6827 O   0  0  0  0  0  0  0  0  0  0  0  0
    1.3008   -4.0223   -1.4382 C   0  0  0  0  0  0  0  0  0  0  0  0
   -0.1924   -1.6779   -0.0351 H   0  0  0  0  0  0  0  0  0  0  0  0
   -0.3333   -3.9340   -0.0298 H   0  0  0  0  0  0  0  0  0  0  0  0
    2.3437   -3.6976   -1.5295 H   0  0  0  0  0  0  0  0  0  0  0  0
    1.2821   -5.1109   -1.5551 H   0  0  0  0  0  0  0  0  0  0  0  0
    0.7411   -3.5804   -2.2697 H   0  0  0  0  0  0  0  0  0  0  0  0
    1.2115   -5.5180    1.2787 N   0  0  0  0  0  0  0  0  0  0  0  0
    1.8492   -6.2965    2.3147 C   0  0  0  0  0  0  0  0  0  0  0  0
    0.4907   -5.9689    0.7228 H   0  0  0  0  0  0  0  0  0  0  0  0
    2.7304   -6.8078    1.9000 H   0  0  0  0  0  0  0  0  0  0  0  0
    2.1627   -5.6311    3.1326 H   0  0  0  0  0  0  0  0  0  0  0  0
    1.1400   -7.0433    2.7010 H   0  0  0  0  0  0  0  0  0  0  0  0
  1  3  1  0  0  0  0
  1  7  1  0  0  0  0
  1  2  2  0  0  0  0
 22 23  1  0  0  0  0
 23 25  1  0  0  0  0
 23 24  2  0  0  0  0
 35 36  1  0  0  0  0
 36 44  1  0  0  0  0
 36 37  2  0  0  0  0
  8  9  1  0  0  0  0
  9 17  1  0  0  0  0
  9 10  2  0  0  0  0
 18 19  1  0  0  0  0
 19 34  1  0  0  0  0
 19 20  2  0  0  0  0
 35 38  1  0  0  0  0
  8 11  1  0  0  0  0
 44 45  1  0  0  0  0
 21 22  1  0  0  0  0
 18 21  1  0  0  0  0
 34 35  1  0  0  0  0
  7  8  1  0  0  0  0
 17 18  1  0  0  0  0
  3  4  1  0  0  0  0
  3  5  1  0  0  0  0
  3  6  1  0  0  0  0
 38 41  1  0  0  0  0
 38 42  1  0  0  0  0
 38 43  1  0  0  0  0
 11 14  1  0  0  0  0
 11 15  1  0  0  0  0
 11 16  1  0  0  0  0
 45 47  1  0  0  0  0
 45 48  1  0  0  0  0
 45 49  1  0  0  0  0
 22 30  1  0  0  0  0
 22 31  1  0  0  0  0
 21 28  1  0  0  0  0
 21 29  1  0  0  0  0
 35 40  1  0  0  0  0
  8 13  1  0  0  0  0
 18 27  1  0  0  0  0
 25 32  1  0  0  0  0
 25 33  1  0  0  0  0
 44 46  1  0  0  0  0
  7 12  1  0  0  0  0
 34 39  1  0  0  0  0
 17 26  1  0  0  0  0
M  END
$$$$

  -OEChem-05262214473D

 49 48  0     1  0  0  0  0  0999 V2000
   -1.9833   -0.0509   -3.3423 C   0  0  0  0  0  0  0  0  0  0  0  0
   -1.6199   -1.0613   -2.7518 O   0  0  0  0  0  0  0  0  0  0  0  0
   -3.3243   -0.0235   -3.9975 C   0  0  0  0  0  0  0  0  0  0  0  0
   -3.2886   -0.3689   -5.0432 H   0  0  0  0  0  0  0  0  0  0  0  0
   -4.0503   -0.6845   -3.4973 H   0  0  0  0  0  0  0  0  0  0  0  0
   -3.8104    0.9645   -4.0351 H   0  0  0  0  0  0  0  0  0  0  0  0
   -1.2607    1.1231   -3.4768 N   0  0  0  0  0  0  0  0  0  0  0  0
    0.0536    1.3115   -2.9213 C   0  0  2  0  0  0  0  0  0  0  0  0
    0.0266    0.8315   -1.4761 C   0  0  0  0  0  0  0  0  0  0  0  0
   -1.0065    0.7530   -0.8146 O   0  0  0  0  0  0  0  0  0  0  0  0
    0.4852    2.7674   -3.0025 C   0  0  0  0  0  0  0  0  0  0  0  0
   -1.6809    1.8924   -3.9952 H   0  0  0  0  0  0  0  0  0  0  0  0
    0.7360    0.6822   -3.5030 H   0  0  0  0  0  0  0  0  0  0  0  0
   -0.1867    3.4133   -2.4256 H   0  0  0  0  0  0  0  0  0  0  0  0
    1.4966    2.9042   -2.6056 H   0  0  0  0  0  0  0  0  0  0  0  0
    0.4754    3.1196   -4.0397 H   0  0  0  0  0  0  0  0  0  0  0  0
    1.2978    0.5411   -0.9947 N   0  0  0  0  0  0  0  0  0  0  0  0
    1.5371    0.0807    0.3489 C   0  0  2  0  0  0  0  0  0  0  0  0
    1.8409   -1.4112    0.2678 C   0  0  0  0  0  0  0  0  0  0  0  0
    2.9166   -1.8945    0.6144 O   0  0  0  0  0  0  0  0  0  0  0  0
    0.3359    0.3311    1.2694 C   0  0  0  0  0  0  0  0  0  0  0  0
    0.0661    1.8148    1.5274 C   0  0  0  0  0  0  0  0  0  0  0  0
   -1.1363    2.0660    2.4183 C   0  0  0  0  0  0  0  0  0  0  0  0
   -1.8772    1.1813    2.8367 O   0  0  0  0  0  0  0  0  0  0  0  0
   -1.3198    3.4058    2.6853 N   0  0  0  0  0  0  0  0  0  0  0  0
    2.0949    0.6178   -1.6227 H   0  0  0  0  0  0  0  0  0  0  0  0
    2.4283    0.6070    0.7072 H   0  0  0  0  0  0  0  0  0  0  0  0
   -0.5626   -0.1105    0.8178 H   0  0  0  0  0  0  0  0  0  0  0  0
    0.4813   -0.1859    2.2263 H   0  0  0  0  0  0  0  0  0  0  0  0
   -0.1390    2.3075    0.5690 H   0  0  0  0  0  0  0  0  0  0  0  0
    0.9470    2.3010    1.9612 H   0  0  0  0  0  0  0  0  0  0  0  0
   -0.6720    4.0772    2.2865 H   0  0  0  0  0  0  0  0  0  0  0  0
   -2.0798    3.7449    3.2664 H   0  0  0  0  0  0  0  0  0  0  0  0
    0.7874   -2.1271   -0.2836 N   0  0  0  0  0  0  0  0  0  0  0  0
    0.8232   -3.5565   -0.4933 C   0  0  2  0  0  0  0  0  0  0  0  0
    1.3005   -4.2094    0.7972 C   0  0  0  0  0  0  0  0  0  0  0  0
    1.9550   -3.6119    1.6490 O   0  0  0  0  0  0  0  0  0  0  0  0
    1.7325   -3.9225   -1.6561 C   0  0  0  0  0  0  0  0  0  0  0  0
   -0.0509   -1.6209   -0.5532 H   0  0  0  0  0  0  0  0  0  0  0  0
   -0.2047   -3.8712   -0.7041 H   0  0  0  0  0  0  0  0  0  0  0  0
    2.7667   -3.6151   -1.4632 H   0  0  0  0  0  0  0  0  0  0  0  0
    1.7363   -5.0033   -1.8319 H   0  0  0  0  0  0  0  0  0  0  0  0
    1.4052   -3.4284   -2.5773 H   0  0  0  0  0  0  0  0  0  0  0  0
    0.9464   -5.5496    0.8661 N   0  0  0  0  0  0  0  0  0  0  0  0
    1.2949   -6.3915    1.9866 C   0  0  0  0  0  0  0  0  0  0  0  0
    0.3870   -5.9574    0.1228 H   0  0  0  0  0  0  0  0  0  0  0  0
    2.2488   -6.8995    1.7816 H   0  0  0  0  0  0  0  0  0  0  0  0
    1.3955   -5.7742    2.8915 H   0  0  0  0  0  0  0  0  0  0  0  0
    0.5056   -7.1420    2.1407 H   0  0  0  0  0  0  0  0  0  0  0  0
  1  3  1  0  0  0  0
  1  7  1  0  0  0  0
  1  2  2  0  0  0  0
 22 23  1  0  0  0  0
 23 25  1  0  0  0  0
 23 24  2  0  0  0  0
 35 36  1  0  0  0  0
 36 44  1  0  0  0  0
 36 37  2  0  0  0  0
  8  9  1  0  0  0  0
  9 17  1  0  0  0  0
  9 10  2  0  0  0  0
 18 19  1  0  0  0  0
 19 34  1  0  0  0  0
 19 20  2  0  0  0  0
 35 38  1  0  0  0  0
  8 11  1  0  0  0  0
 44 45  1  0  0  0  0
 21 22  1  0  0  0  0
 18 21  1  0  0  0  0
 34 35  1  0  0  0  0
  7  8  1  0  0  0  0
 17 18  1  0  0  0  0
  3  4  1  0  0  0  0
  3  5  1  0  0  0  0
  3  6  1  0  0  0  0
 38 41  1  0  0  0  0
 38 42  1  0  0  0  0
 38 43  1  0  0  0  0
 11 14  1  0  0  0  0
 11 15  1  0  0  0  0
 11 16  1  0  0  0  0
 45 47  1  0  0  0  0
 45 48  1  0  0  0  0
 45 49  1  0  0  0  0
 22 30  1  0  0  0  0
 22 31  1  0  0  0  0
 21 28  1  0  0  0  0
 21 29  1  0  0  0  0
 35 40  1  0  0  0  0
  8 13  1  0  0  0  0
 18 27  1  0  0  0  0
 25 32  1  0  0  0  0
 25 33  1  0  0  0  0
 44 46  1  0  0  0  0
  7 12  1  0  0  0  0
 34 39  1  0  0  0  0
 17 26  1  0  0  0  0
M  END
$$$$

  -OEChem-05262214473D

 49 48  0     1  0  0  0  0  0999 V2000
   -1.9833   -0.0509   -3.3423 C   0  0  0  0  0  0  0  0  0  0  0  0
   -1.6199   -1.0613   -2.7518 O   0  0  0  0  0  0  0  0  0  0  0  0
   -3.3243   -0.0235   -3.9975 C   0  0  0  0  0  0  0  0  0  0  0  0
   -3.2886   -0.3689   -5.0432 H   0  0  0  0  0  0  0  0  0  0  0  0
   -4.0503   -0.6845   -3.4973 H   0  0  0  0  0  0  0  0  0  0  0  0
   -3.8104    0.9645   -4.0351 H   0  0  0  0  0  0  0  0  0  0  0  0
   -1.2607    1.1231   -3.4768 N   0  0  0  0  0  0  0  0  0  0  0  0
    0.0536    1.3115   -2.9213 C   0  0  2  0  0  0  0  0  0  0  0  0
    0.0266    0.8315   -1.4761 C   0  0  0  0  0  0  0  0  0  0  0  0
   -1.0065    0.7530   -0.8146 O   0  0  0  0  0  0  0  0  0  0  0  0
    0.4852    2.7674   -3.0025 C   0  0  0  0  0  0  0  0  0  0  0  0
   -1.6809    1.8924   -3.9952 H   0  0  0  0  0  0  0  0  0  0  0  0
    0.7360    0.6822   -3.5030 H   0  0  0  0  0  0  0  0  0  0  0  0
   -0.1867    3.4133   -2.4256 H   0  0  0  0  0  0  0  0  0  0  0  0
    1.4966    2.9042   -2.6056 H   0  0  0  0  0  0  0  0  0  0  0  0
    0.4754    3.1196   -4.0397 H   0  0  0  0  0  0  0  0  0  0  0  0
    1.2978    0.5411   -0.9947 N   0  0  0  0  0  0  0  0  0  0  0  0
    1.5371    0.0807    0.3489 C   0  0  2  0  0  0  0  0  0  0  0  0
    1.8409   -1.4112    0.2678 C   0  0  0  0  0  0  0  0  0  0  0  0
    2.7901   -1.9331    0.8488 O   0  0  0  0  0  0  0  0  0  0  0  0
    0.3359    0.3311    1.2694 C   0  0  0  0  0  0  0  0  0  0  0  0
    0.0661    1.8148    1.5274 C   0  0  0  0  0  0  0  0  0  0  0  0
   -1.1363    2.0660    2.4183 C   0  0  0  0  0  0  0  0  0  0  0  0
   -1.8772    1.1813    2.8367 O   0  0  0  0  0  0  0  0  0  0  0  0
   -1.3198    3.4058    2.6853 N   0  0  0  0  0  0  0  0  0  0  0  0
    2.0949    0.6178   -1.6227 H   0  0  0  0  0  0  0  0  0  0  0  0
    2.4283    0.6070    0.7072 H   0  0  0  0  0  0  0  0  0  0  0  0
   -0.5626   -0.1105    0.8178 H   0  0  0  0  0  0  0  0  0  0  0  0
    0.4813   -0.1859    2.2263 H   0  0  0  0  0  0  0  0  0  0  0  0
   -0.1390    2.3075    0.5690 H   0  0  0  0  0  0  0  0  0  0  0  0
    0.9470    2.3010    1.9612 H   0  0  0  0  0  0  0  0  0  0  0  0
   -0.6720    4.0772    2.2865 H   0  0  0  0  0  0  0  0  0  0  0  0
   -2.0798    3.7449    3.2664 H   0  0  0  0  0  0  0  0  0  0  0  0
    0.9566   -2.0771   -0.5695 N   0  0  0  0  0  0  0  0  0  0  0  0
    1.0343   -3.4948   -0.8393 C   0  0  2  0  0  0  0  0  0  0  0  0
    1.1639   -4.2207    0.4933 C   0  0  0  0  0  0  0  0  0  0  0  0
    1.5853   -3.6798    1.5136 O   0  0  0  0  0  0  0  0  0  0  0  0
    2.2060   -3.8209   -1.7522 C   0  0  0  0  0  0  0  0  0  0  0  0
    0.2177   -1.5411   -1.0149 H   0  0  0  0  0  0  0  0  0  0  0  0
    0.0912   -3.7774   -1.3196 H   0  0  0  0  0  0  0  0  0  0  0  0
    3.1597   -3.5446   -1.2878 H   0  0  0  0  0  0  0  0  0  0  0  0
    2.2466   -4.8914   -1.9786 H   0  0  0  0  0  0  0  0  0  0  0  0
    2.1266   -3.2749   -2.6984 H   0  0  0  0  0  0  0  0  0  0  0  0
    0.7944   -5.5551    0.3987 N   0  0  0  0  0  0  0  0  0  0  0  0
    0.8413   -6.4587    1.5245 C   0  0  0  0  0  0  0  0  0  0  0  0
    0.4389   -5.9139   -0.4825 H   0  0  0  0  0  0  0  0  0  0  0  0
    1.8124   -6.9752    1.5405 H   0  0  0  0  0  0  0  0  0  0  0  0
    0.7135   -5.8894    2.4570 H   0  0  0  0  0  0  0  0  0  0  0  0
    0.0335   -7.1997    1.4336 H   0  0  0  0  0  0  0  0  0  0  0  0
  1  3  1  0  0  0  0
  1  7  1  0  0  0  0
  1  2  2  0  0  0  0
 22 23  1  0  0  0  0
 23 25  1  0  0  0  0
 23 24  2  0  0  0  0
 35 36  1  0  0  0  0
 36 44  1  0  0  0  0
 36 37  2  0  0  0  0
  8  9  1  0  0  0  0
  9 17  1  0  0  0  0
  9 10  2  0  0  0  0
 18 19  1  0  0  0  0
 19 34  1  0  0  0  0
 19 20  2  0  0  0  0
 35 38  1  0  0  0  0
  8 11  1  0  0  0  0
 44 45  1  0  0  0  0
 21 22  1  0  0  0  0
 18 21  1  0  0  0  0
 34 35  1  0  0  0  0
  7  8  1  0  0  0  0
 17 18  1  0  0  0  0
  3  4  1  0  0  0  0
  3  5  1  0  0  0  0
  3  6  1  0  0  0  0
 38 41  1  0  0  0  0
 38 42  1  0  0  0  0
 38 43  1  0  0  0  0
 11 14  1  0  0  0  0
 11 15  1  0  0  0  0
 11 16  1  0  0  0  0
 45 47  1  0  0  0  0
 45 48  1  0  0  0  0
 45 49  1  0  0  0  0
 22 30  1  0  0  0  0
 22 31  1  0  0  0  0
 21 28  1  0  0  0  0
 21 29  1  0  0  0  0
 35 40  1  0  0  0  0
  8 13  1  0  0  0  0
 18 27  1  0  0  0  0
 25 32  1  0  0  0  0
 25 33  1  0  0  0  0
 44 46  1  0  0  0  0
  7 12  1  0  0  0  0
 34 39  1  0  0  0  0
 17 26  1  0  0  0  0
M  END
$$$$

  -OEChem-05262214473D

 49 48  0     1  0  0  0  0  0999 V2000
   -1.9833   -0.0509   -3.3423 C   0  0  0  0  0  0  0  0  0  0  0  0
   -1.6199   -1.0613   -2.7518 O   0  0  0  0  0  0  0  0  0  0  0  0
   -3.3243   -0.0235   -3.9975 C   0  0  0  0  0  0  0  0  0  0  0  0
   -3.2886   -0.3689   -5.0432 H   0  0  0  0  0  0  0  0  0  0  0  0
   -4.0503   -0.6845   -3.4973 H   0  0  0  0  0  0  0  0  0  0  0  0
   -3.8104    0.9645   -4.0351 H   0  0  0  0  0  0  0  0  0  0  0  0
   -1.2607    1.1231   -3.4768 N   0  0  0  0  0  0  0  0  0  0  0  0
    0.0536    1.3115   -2.9213 C   0  0  2  0  0  0  0  0  0  0  0  0
    0.0266    0.8315   -1.4761 C   0  0  0  0  0  0  0  0  0  0  0  0
   -1.0065    0.7530   -0.8146 O   0  0  0  0  0  0  0  0  0  0  0  0
    0.4852    2.7674   -3.0025 C   0  0  0  0  0  0  0  0  0  0  0  0
   -1.6809    1.8924   -3.9952 H   0  0  0  0  0  0  0  0  0  0  0  0
    0.7360    0.6822   -3.5030 H   0  0  0  0  0  0  0  0  0  0  0  0
   -0.1867    3.4133   -2.4256 H   0  0  0  0  0  0  0  0  0  0  0  0
    1.4966    2.9042   -2.6056 H   0  0  0  0  0  0  0  0  0  0  0  0
    0.4754    3.1196   -4.0397 H   0  0  0  0  0  0  0  0  0  0  0  0
    1.2978    0.5411   -0.9947 N   0  0  0  0  0  0  0  0  0  0  0  0
    1.5371    0.0807    0.3489 C   0  0  2  0  0  0  0  0  0  0  0  0
    1.8409   -1.4112    0.2678 C   0  0  0  0  0  0  0  0  0  0  0  0
    2.6079   -1.9806    1.0413 O   0  0  0  0  0  0  0  0  0  0  0  0
    0.3359    0.3311    1.2694 C   0  0  0  0  0  0  0  0  0  0  0  0
    0.0661    1.8148    1.5274 C   0  0  0  0  0  0  0  0  0  0  0  0
   -1.1363    2.0660    2.4183 C   0  0  0  0  0  0  0  0  0  0  0  0
   -1.8772    1.1813    2.8367 O   0  0  0  0  0  0  0  0  0  0  0  0
   -1.3198    3.4058    2.6853 N   0  0  0  0  0  0  0  0  0  0  0  0
    2.0949    0.6178   -1.6227 H   0  0  0  0  0  0  0  0  0  0  0  0
    2.4283    0.6070    0.7072 H   0  0  0  0  0  0  0  0  0  0  0  0
   -0.5626   -0.1105    0.8178 H   0  0  0  0  0  0  0  0  0  0  0  0
    0.4813   -0.1859    2.2263 H   0  0  0  0  0  0  0  0  0  0  0  0
   -0.1390    2.3075    0.5690 H   0  0  0  0  0  0  0  0  0  0  0  0
    0.9470    2.3010    1.9612 H   0  0  0  0  0  0  0  0  0  0  0  0
   -0.6720    4.0772    2.2865 H   0  0  0  0  0  0  0  0  0  0  0  0
   -2.0798    3.7449    3.2664 H   0  0  0  0  0  0  0  0  0  0  0  0
    1.1931   -2.0163   -0.8002 N   0  0  0  0  0  0  0  0  0  0  0  0
    1.3266   -3.4201   -1.1168 C   0  0  2  0  0  0  0  0  0  0  0  0
    1.1088   -4.2140    0.1645 C   0  0  0  0  0  0  0  0  0  0  0  0
    1.2615   -3.7334    1.2856 O   0  0  0  0  0  0  0  0  0  0  0  0
    2.6892   -3.7243   -1.7197 C   0  0  0  0  0  0  0  0  0  0  0  0
    0.5952   -1.4439   -1.3888 H   0  0  0  0  0  0  0  0  0  0  0  0
    0.5341   -3.6592   -1.8344 H   0  0  0  0  0  0  0  0  0  0  0  0
    3.4959   -3.4910   -1.0153 H   0  0  0  0  0  0  0  0  0  0  0  0
    2.7782   -4.7828   -1.9854 H   0  0  0  0  0  0  0  0  0  0  0  0
    2.8562   -3.1303   -2.6248 H   0  0  0  0  0  0  0  0  0  0  0  0
    0.7659   -5.5343   -0.0914 N   0  0  0  0  0  0  0  0  0  0  0  0
    0.5193   -6.4935    0.9597 C   0  0  0  0  0  0  0  0  0  0  0  0
    0.6429   -5.8414   -1.0518 H   0  0  0  0  0  0  0  0  0  0  0  0
    1.4508   -7.0299    1.1933 H   0  0  0  0  0  0  0  0  0  0  0  0
    0.1632   -5.9689    1.8586 H   0  0  0  0  0  0  0  0  0  0  0  0
   -0.2444   -7.2125    0.6281 H   0  0  0  0  0  0  0  0  0  0  0  0
  1  3  1  0  0  0  0
  1  7  1  0  0  0  0
  1  2  2  0  0  0  0
 22 23  1  0  0  0  0
 23 25  1  0  0  0  0
 23 24  2  0  0  0  0
 35 36  1  0  0  0  0
 36 44  1  0  0  0  0
 36 37  2  0  0  0  0
  8  9  1  0  0  0  0
  9 17  1  0  0  0  0
  9 10  2  0  0  0  0
 18 19  1  0  0  0  0
 19 34  1  0  0  0  0
 19 20  2  0  0  0  0
 35 38  1  0  0  0  0
  8 11  1  0  0  0  0
 44 45  1  0  0  0  0
 21 22  1  0  0  0  0
 18 21  1  0  0  0  0
 34 35  1  0  0  0  0
  7  8  1  0  0  0  0
 17 18  1  0  0  0  0
  3  4  1  0  0  0  0
  3  5  1  0  0  0  0
  3  6  1  0  0  0  0
 38 41  1  0  0  0  0
 38 42  1  0  0  0  0
 38 43  1  0  0  0  0
 11 14  1  0  0  0  0
 11 15  1  0  0  0  0
 11 16  1  0  0  0  0
 45 47  1  0  0  0  0
 45 48  1  0  0  0  0
 45 49  1  0  0  0  0
 22 30  1  0  0  0  0
 22 31  1  0  0  0  0
 21 28  1  0  0  0  0
 21 29  1  0  0  0  0
 35 40  1  0  0  0  0
  8 13  1  0  0  0  0
 18 27  1  0  0  0  0
 25 32  1  0  0  0  0
 25 33  1  0  0  0  0
 44 46  1  0  0  0  0
  7 12  1  0  0  0  0
 34 39  1  0  0  0  0
 17 26  1  0  0  0  0
M  END
$$$$

  -OEChem-05262214473D

 49 48  0     1  0  0  0  0  0999 V2000
   -1.9833   -0.0509   -3.3423 C   0  0  0  0  0  0  0  0  0  0  0  0
   -1.6199   -1.0613   -2.7518 O   0  0  0  0  0  0  0  0  0  0  0  0
   -3.3243   -0.0235   -3.9975 C   0  0  0  0  0  0  0  0  0  0  0  0
   -3.2886   -0.3689   -5.0432 H   0  0  0  0  0  0  0  0  0  0  0  0
   -4.0503   -0.6845   -3.4973 H   0  0  0  0  0  0  0  0  0  0  0  0
   -3.8104    0.9645   -4.0351 H   0  0  0  0  0  0  0  0  0  0  0  0
   -1.2607    1.1231   -3.4768 N   0  0  0  0  0  0  0  0  0  0  0  0
    0.0536    1.3115   -2.9213 C   0  0  2  0  0  0  0  0  0  0  0  0
    0.0266    0.8315   -1.4761 C   0  0  0  0  0  0  0  0  0  0  0  0
   -1.0065    0.7530   -0.8146 O   0  0  0  0  0  0  0  0  0  0  0  0
    0.4852    2.7674   -3.0025 C   0  0  0  0  0  0  0  0  0  0  0  0
   -1.6809    1.8924   -3.9952 H   0  0  0  0  0  0  0  0  0  0  0  0
    0.7360    0.6822   -3.5030 H   0  0  0  0  0  0  0  0  0  0  0  0
   -0.1867    3.4133   -2.4256 H   0  0  0  0  0  0  0  0  0  0  0  0
    1.4966    2.9042   -2.6056 H   0  0  0  0  0  0  0  0  0  0  0  0
    0.4754    3.1196   -4.0397 H   0  0  0  0  0  0  0  0  0  0  0  0
    1.2978    0.5411   -0.9947 N   0  0  0  0  0  0  0  0  0  0  0  0
    1.5371    0.0807    0.3489 C   0  0  2  0  0  0  0  0  0  0  0  0
    1.8409   -1.4112    0.2678 C   0  0  0  0  0  0  0  0  0  0  0  0
    2.3826   -2.0340    1.1786 O   0  0  0  0  0  0  0  0  0  0  0  0
    0.3359    0.3311    1.2694 C   0  0  0  0  0  0  0  0  0  0  0  0
    0.0661    1.8148    1.5274 C   0  0  0  0  0  0  0  0  0  0  0  0
   -1.1363    2.0660    2.4183 C   0  0  0  0  0  0  0  0  0  0  0  0
   -1.8772    1.1813    2.8367 O   0  0  0  0  0  0  0  0  0  0  0  0
   -1.3198    3.4058    2.6853 N   0  0  0  0  0  0  0  0  0  0  0  0
    2.0949    0.6178   -1.6227 H   0  0  0  0  0  0  0  0  0  0  0  0
    2.4283    0.6070    0.7072 H   0  0  0  0  0  0  0  0  0  0  0  0
   -0.5626   -0.1105    0.8178 H   0  0  0  0  0  0  0  0  0  0  0  0
    0.4813   -0.1859    2.2263 H   0  0  0  0  0  0  0  0  0  0  0  0
   -0.1390    2.3075    0.5690 H   0  0  0  0  0  0  0  0  0  0  0  0
    0.9470    2.3010    1.9612 H   0  0  0  0  0  0  0  0  0  0  0  0
   -0.6720    4.0772    2.2865 H   0  0  0  0  0  0  0  0  0  0  0  0
   -2.0798    3.7449    3.2664 H   0  0  0  0  0  0  0  0  0  0  0  0
    1.4808   -1.9491   -0.9600 N   0  0  0  0  0  0  0  0  0  0  0  0
    1.6802   -3.3378   -1.3070 C   0  0  2  0  0  0  0  0  0  0  0  0
    1.1390   -4.1899   -0.1666 C   0  0  0  0  0  0  0  0  0  0  0  0
    1.0058   -3.7688    0.9806 O   0  0  0  0  0  0  0  0  0  0  0  0
    3.1490   -3.6393   -1.5611 C   0  0  0  0  0  0  0  0  0  0  0  0
    1.0559   -1.3359   -1.6493 H   0  0  0  0  0  0  0  0  0  0  0  0
    1.0940   -3.5246   -2.2134 H   0  0  0  0  0  0  0  0  0  0  0  0
    3.7523   -3.4579   -0.6641 H   0  0  0  0  0  0  0  0  0  0  0  0
    3.2949   -4.6849   -1.8516 H   0  0  0  0  0  0  0  0  0  0  0  0
    3.5444   -3.0045   -2.3615 H   0  0  0  0  0  0  0  0  0  0  0  0
    0.8627   -5.4884   -0.5710 N   0  0  0  0  0  0  0  0  0  0  0  0
    0.3508   -6.4937    0.3309 C   0  0  0  0  0  0  0  0  0  0  0  0
    0.9852   -5.7448   -1.5462 H   0  0  0  0  0  0  0  0  0  0  0  0
    1.1888   -7.0599    0.7634 H   0  0  0  0  0  0  0  0  0  0  0  0
   -0.2179   -6.0073    1.1372 H   0  0  0  0  0  0  0  0  0  0  0  0
   -0.3089   -7.1794   -0.2209 H   0  0  0  0  0  0  0  0  0  0  0  0
  1  3  1  0  0  0  0
  1  7  1  0  0  0  0
  1  2  2  0  0  0  0
 22 23  1  0  0  0  0
 23 25  1  0  0  0  0
 23 24  2  0  0  0  0
 35 36  1  0  0  0  0
 36 44  1  0  0  0  0
 36 37  2  0  0  0  0
  8  9  1  0  0  0  0
  9 17  1  0  0  0  0
  9 10  2  0  0  0  0
 18 19  1  0  0  0  0
 19 34  1  0  0  0  0
 19 20  2  0  0  0  0
 35 38  1  0  0  0  0
  8 11  1  0  0  0  0
 44 45  1  0  0  0  0
 21 22  1  0  0  0  0
 18 21  1  0  0  0  0
 34 35  1  0  0  0  0
  7  8  1  0  0  0  0
 17 18  1  0  0  0  0
  3  4  1  0  0  0  0
  3  5  1  0  0  0  0
  3  6  1  0  0  0  0
 38 41  1  0  0  0  0
 38 42  1  0  0  0  0
 38 43  1  0  0  0  0
 11 14  1  0  0  0  0
 11 15  1  0  0  0  0
 11 16  1  0  0  0  0
 45 47  1  0  0  0  0
 45 48  1  0  0  0  0
 45 49  1  0  0  0  0
 22 30  1  0  0  0  0
 22 31  1  0  0  0  0
 21 28  1  0  0  0  0
 21 29  1  0  0  0  0
 35 40  1  0  0  0  0
  8 13  1  0  0  0  0
 18 27  1  0  0  0  0
 25 32  1  0  0  0  0
 25 33  1  0  0  0  0
 44 46  1  0  0  0  0
  7 12  1  0  0  0  0
 34 39  1  0  0  0  0
 17 26  1  0  0  0  0
M  END
$$$$

  -OEChem-05262214473D

 49 48  0     1  0  0  0  0  0999 V2000
   -1.9833   -0.0509   -3.3423 C   0  0  0  0  0  0  0  0  0  0  0  0
   -1.6199   -1.0613   -2.7518 O   0  0  0  0  0  0  0  0  0  0  0  0
   -3.3243   -0.0235   -3.9975 C   0  0  0  0  0  0  0  0  0  0  0  0
   -3.2886   -0.3689   -5.0432 H   0  0  0  0  0  0  0  0  0  0  0  0
   -4.0503   -0.6845   -3.4973 H   0  0  0  0  0  0  0  0  0  0  0  0
   -3.8104    0.9645   -4.0351 H   0  0  0  0  0  0  0  0  0  0  0  0
   -1.2607    1.1231   -3.4768 N   0  0  0  0  0  0  0  0  0  0  0  0
    0.0536    1.3115   -2.9213 C   0  0  2  0  0  0  0  0  0  0  0  0
    0.0266    0.8315   -1.4761 C   0  0  0  0  0  0  0  0  0  0  0  0
   -1.0065    0.7530   -0.8146 O   0  0  0  0  0  0  0  0  0  0  0  0
    0.4852    2.7674   -3.0025 C   0  0  0  0  0  0  0  0  0  0  0  0
   -1.6809    1.8924   -3.9952 H   0  0  0  0  0  0  0  0  0  0  0  0
    0.7360    0.6822   -3.5030 H   0  0  0  0  0  0  0  0  0  0  0  0
   -0.1867    3.4133   -2.4256 H   0  0  0  0  0  0  0  0  0  0  0  0
    1.4966    2.9042   -2.6056 H   0  0  0  0  0  0  0  0  0  0  0  0
    0.4754    3.1196   -4.0397 H   0  0  0  0  0  0  0  0  0  0  0  0
    1.2978    0.5411   -0.9947 N   0  0  0  0  0  0  0  0  0  0  0  0
    1.5371    0.0807    0.3489 C   0  0  2  0  0  0  0  0  0  0  0  0
    1.8409   -1.4112    0.2678 C   0  0  0  0  0  0  0  0  0  0  0  0
    2.1294   -2.0895    1.2514 O   0  0  0  0  0  0  0  0  0  0  0  0
    0.3359    0.3311    1.2694 C   0  0  0  0  0  0  0  0  0  0  0  0
    0.0661    1.8148    1.5274 C   0  0  0  0  0  0  0  0  0  0  0  0
   -1.1363    2.0660    2.4183 C   0  0  0  0  0  0  0  0  0  0  0  0
   -1.8772    1.1813    2.8367 O   0  0  0  0  0  0  0  0  0  0  0  0
   -1.3198    3.4058    2.6853 N   0  0  0  0  0  0  0  0  0  0  0  0
    2.0949    0.6178   -1.6227 H   0  0  0  0  0  0  0  0  0  0  0  0
    2.4283    0.6070    0.7072 H   0  0  0  0  0  0  0  0  0  0  0  0
   -0.5626   -0.1105    0.8178 H   0  0  0  0  0  0  0  0  0  0  0  0
    0.4813   -0.1859    2.2263 H   0  0  0  0  0  0  0  0  0  0  0  0
   -0.1390    2.3075    0.5690 H   0  0  0  0  0  0  0  0  0  0  0  0
    0.9470    2.3010    1.9612 H   0  0  0  0  0  0  0  0  0  0  0  0
   -0.6720    4.0772    2.2865 H   0  0  0  0  0  0  0  0  0  0  0  0
   -2.0798    3.7449    3.2664 H   0  0  0  0  0  0  0  0  0  0  0  0
    1.8002   -1.8798   -1.0381 N   0  0  0  0  0  0  0  0  0  0  0  0
    2.0711   -3.2533   -1.3969 C   0  0  2  0  0  0  0  0  0  0  0  0
    1.2523   -4.1499   -0.4776 C   0  0  0  0  0  0  0  0  0  0  0  0
    0.8355   -3.7839    0.6194 O   0  0  0  0  0  0  0  0  0  0  0  0
    3.5541   -3.5717   -1.2870 C   0  0  0  0  0  0  0  0  0  0  0  0
    1.5683   -1.2245   -1.7787 H   0  0  0  0  0  0  0  0  0  0  0  0
    1.7326   -3.3828   -2.4307 H   0  0  0  0  0  0  0  0  0  0  0  0
    3.9115   -3.4475   -0.2582 H   0  0  0  0  0  0  0  0  0  0  0  0
    3.7615   -4.6043   -1.5865 H   0  0  0  0  0  0  0  0  0  0  0  0
    4.1441   -2.9061   -1.9263 H   0  0  0  0  0  0  0  0  0  0  0  0
    1.0784   -5.4208   -1.0074 N   0  0  0  0  0  0  0  0  0  0  0  0
    0.3473   -6.4590   -0.3192 C   0  0  0  0  0  0  0  0  0  0  0  0
    1.4424   -5.6307   -1.9322 H   0  0  0  0  0  0  0  0  0  0  0  0
    1.0441   -7.0631    0.2804 H   0  0  0  0  0  0  0  0  0  0  0  0
   -0.4038   -6.0019    0.3418 H   0  0  0  0  0  0  0  0  0  0  0  0
   -0.1558   -7.1028   -1.0557 H   0  0  0  0  0  0  0  0  0  0  0  0
  1  3  1  0  0  0  0
  1  7  1  0  0  0  0
  1  2  2  0  0  0  0
 22 23  1  0  0  0  0
 23 25  1  0  0  0  0
 23 24  2  0  0  0  0
 35 36  1  0  0  0  0
 36 44  1  0  0  0  0
 36 37  2  0  0  0  0
  8  9  1  0  0  0  0
  9 17  1  0  0  0  0
  9 10  2  0  0  0  0
 18 19  1  0  0  0  0
 19 34  1  0  0  0  0
 19 20  2  0  0  0  0
 35 38  1  0  0  0  0
  8 11  1  0  0  0  0
 44 45  1  0  0  0  0
 21 22  1  0  0  0  0
 18 21  1  0  0  0  0
 34 35  1  0  0  0  0
  7  8  1  0  0  0  0
 17 18  1  0  0  0  0
  3  4  1  0  0  0  0
  3  5  1  0  0  0  0
  3  6  1  0  0  0  0
 38 41  1  0  0  0  0
 38 42  1  0  0  0  0
 38 43  1  0  0  0  0
 11 14  1  0  0  0  0
 11 15  1  0  0  0  0
 11 16  1  0  0  0  0
 45 47  1  0  0  0  0
 45 48  1  0  0  0  0
 45 49  1  0  0  0  0
 22 30  1  0  0  0  0
 22 31  1  0  0  0  0
 21 28  1  0  0  0  0
 21 29  1  0  0  0  0
 35 40  1  0  0  0  0
  8 13  1  0  0  0  0
 18 27  1  0  0  0  0
 25 32  1  0  0  0  0
 25 33  1  0  0  0  0
 44 46  1  0  0  0  0
  7 12  1  0  0  0  0
 34 39  1  0  0  0  0
 17 26  1  0  0  0  0
M  END
$$$$

  -OEChem-05262214473D

 49 48  0     1  0  0  0  0  0999 V2000
   -1.9833   -0.0509   -3.3423 C   0  0  0  0  0  0  0  0  0  0  0  0
   -1.6199   -1.0613   -2.7518 O   0  0  0  0  0  0  0  0  0  0  0  0
   -3.3243   -0.0235   -3.9975 C   0  0  0  0  0  0  0  0  0  0  0  0
   -3.2886   -0.3689   -5.0432 H   0  0  0  0  0  0  0  0  0  0  0  0
   -4.0503   -0.6845   -3.4973 H   0  0  0  0  0  0  0  0  0  0  0  0
   -3.8104    0.9645   -4.0351 H   0  0  0  0  0  0  0  0  0  0  0  0
   -1.2607    1.1231   -3.4768 N   0  0  0  0  0  0  0  0  0  0  0  0
    0.0536    1.3115   -2.9213 C   0  0  2  0  0  0  0  0  0  0  0  0
    0.0266    0.8315   -1.4761 C   0  0  0  0  0  0  0  0  0  0  0  0
   -1.0065    0.7530   -0.8146 O   0  0  0  0  0  0  0  0  0  0  0  0
    0.4852    2.7674   -3.0025 C   0  0  0  0  0  0  0  0  0  0  0  0
   -1.6809    1.8924   -3.9952 H   0  0  0  0  0  0  0  0  0  0  0  0
    0.7360    0.6822   -3.5030 H   0  0  0  0  0  0  0  0  0  0  0  0
   -0.1867    3.4133   -2.4256 H   0  0  0  0  0  0  0  0  0  0  0  0
    1.4966    2.9042   -2.6056 H   0  0  0  0  0  0  0  0  0  0  0  0
    0.4754    3.1196   -4.0397 H   0  0  0  0  0  0  0  0  0  0  0  0
    1.2978    0.5411   -0.9947 N   0  0  0  0  0  0  0  0  0  0  0  0
    1.5371    0.0807    0.3489 C   0  0  2  0  0  0  0  0  0  0  0  0
    1.8409   -1.4112    0.2678 C   0  0  0  0  0  0  0  0  0  0  0  0
    1.8657   -2.1434    1.2548 O   0  0  0  0  0  0  0  0  0  0  0  0
    0.3359    0.3311    1.2694 C   0  0  0  0  0  0  0  0  0  0  0  0
    0.0661    1.8148    1.5274 C   0  0  0  0  0  0  0  0  0  0  0  0
   -1.1363    2.0660    2.4183 C   0  0  0  0  0  0  0  0  0  0  0  0
   -1.8772    1.1813    2.8367 O   0  0  0  0  0  0  0  0  0  0  0  0
   -1.3198    3.4058    2.6853 N   0  0  0  0  0  0  0  0  0  0  0  0
    2.0949    0.6178   -1.6227 H   0  0  0  0  0  0  0  0  0  0  0  0
    2.4283    0.6070    0.7072 H   0  0  0  0  0  0  0  0  0  0  0  0
   -0.5626   -0.1105    0.8178 H   0  0  0  0  0  0  0  0  0  0  0  0
    0.4813   -0.1859    2.2263 H   0  0  0  0  0  0  0  0  0  0  0  0
   -0.1390    2.3075    0.5690 H   0  0  0  0  0  0  0  0  0  0  0  0
    0.9470    2.3010    1.9612 H   0  0  0  0  0  0  0  0  0  0  0  0
   -0.6720    4.0772    2.2865 H   0  0  0  0  0  0  0  0  0  0  0  0
   -2.0798    3.7449    3.2664 H   0  0  0  0  0  0  0  0  0  0  0  0
    2.1293   -1.8133   -1.0290 N   0  0  0  0  0  0  0  0  0  0  0  0
    2.4726   -3.1724   -1.3804 C   0  0  2  0  0  0  0  0  0  0  0  0
    1.4411   -4.0968   -0.7472 C   0  0  0  0  0  0  0  0  0  0  0  0
    0.7623   -3.7774    0.2266 O   0  0  0  0  0  0  0  0  0  0  0  0
    3.8770   -3.5261   -0.9161 C   0  0  0  0  0  0  0  0  0  0  0  0
    2.0975   -1.1173   -1.7681 H   0  0  0  0  0  0  0  0  0  0  0  0
    2.4065   -3.2433   -2.4715 H   0  0  0  0  0  0  0  0  0  0  0  0
    3.9626   -3.4607    0.1747 H   0  0  0  0  0  0  0  0  0  0  0  0
    4.1462   -4.5465   -1.2082 H   0  0  0  0  0  0  0  0  0  0  0  0
    4.6145   -2.8417   -1.3491 H   0  0  0  0  0  0  0  0  0  0  0  0
    1.3982   -5.3359   -1.3708 N   0  0  0  0  0  0  0  0  0  0  0  0
    0.5090   -6.3920   -0.9463 C   0  0  0  0  0  0  0  0  0  0  0  0
    1.9832   -5.5069   -2.1833 H   0  0  0  0  0  0  0  0  0  0  0  0
    1.0267   -7.0393   -0.2231 H   0  0  0  0  0  0  0  0  0  0  0  0
   -0.3818   -5.9531   -0.4733 H   0  0  0  0  0  0  0  0  0  0  0  0
    0.2046   -6.9879   -1.8193 H   0  0  0  0  0  0  0  0  0  0  0  0
  1  3  1  0  0  0  0
  1  7  1  0  0  0  0
  1  2  2  0  0  0  0
 22 23  1  0  0  0  0
 23 25  1  0  0  0  0
 23 24  2  0  0  0  0
 35 36  1  0  0  0  0
 36 44  1  0  0  0  0
 36 37  2  0  0  0  0
  8  9  1  0  0  0  0
  9 17  1  0  0  0  0
  9 10  2  0  0  0  0
 18 19  1  0  0  0  0
 19 34  1  0  0  0  0
 19 20  2  0  0  0  0
 35 38  1  0  0  0  0
  8 11  1  0  0  0  0
 44 45  1  0  0  0  0
 21 22  1  0  0  0  0
 18 21  1  0  0  0  0
 34 35  1  0  0  0  0
  7  8  1  0  0  0  0
 17 18  1  0  0  0  0
  3  4  1  0  0  0  0
  3  5  1  0  0  0  0
  3  6  1  0  0  0  0
 38 41  1  0  0  0  0
 38 42  1  0  0  0  0
 38 43  1  0  0  0  0
 11 14  1  0  0  0  0
 11 15  1  0  0  0  0
 11 16  1  0  0  0  0
 45 47  1  0  0  0  0
 45 48  1  0  0  0  0
 45 49  1  0  0  0  0
 22 30  1  0  0  0  0
 22 31  1  0  0  0  0
 21 28  1  0  0  0  0
 21 29  1  0  0  0  0
 35 40  1  0  0  0  0
  8 13  1  0  0  0  0
 18 27  1  0  0  0  0
 25 32  1  0  0  0  0
 25 33  1  0  0  0  0
 44 46  1  0  0  0  0
  7 12  1  0  0  0  0
 34 39  1  0  0  0  0
 17 26  1  0  0  0  0
M  END
$$$$

  -OEChem-05262214473D

 49 48  0     1  0  0  0  0  0999 V2000
   -1.9833   -0.0509   -3.3423 C   0  0  0  0  0  0  0  0  0  0  0  0
   -1.6199   -1.0613   -2.7518 O   0  0  0  0  0  0  0  0  0  0  0  0
   -3.3243   -0.0235   -3.9975 C   0  0  0  0  0  0  0  0  0  0  0  0
   -3.2886   -0.3689   -5.0432 H   0  0  0  0  0  0  0  0  0  0  0  0
   -4.0503   -0.6845   -3.4973 H   0  0  0  0  0  0  0  0  0  0  0  0
   -3.8104    0.9645   -4.0351 H   0  0  0  0  0  0  0  0  0  0  0  0
   -1.2607    1.1231   -3.4768 N   0  0  0  0  0  0  0  0  0  0  0  0
    0.0536    1.3115   -2.9213 C   0  0  2  0  0  0  0  0  0  0  0  0
    0.0266    0.8315   -1.4761 C   0  0  0  0  0  0  0  0  0  0  0  0
   -1.0065    0.7530   -0.8146 O   0  0  0  0  0  0  0  0  0  0  0  0
    0.4852    2.7674   -3.0025 C   0  0  0  0  0  0  0  0  0  0  0  0
   -1.6809    1.8924   -3.9952 H   0  0  0  0  0  0  0  0  0  0  0  0
    0.7360    0.6822   -3.5030 H   0  0  0  0  0  0  0  0  0  0  0  0
   -0.1867    3.4133   -2.4256 H   0  0  0  0  0  0  0  0  0  0  0  0
    1.4966    2.9042   -2.6056 H   0  0  0  0  0  0  0  0  0  0  0  0
    0.4754    3.1196   -4.0397 H   0  0  0  0  0  0  0  0  0  0  0  0
    1.2978    0.5411   -0.9947 N   0  0  0  0  0  0  0  0  0  0  0  0
    1.5371    0.0807    0.3489 C   0  0  2  0  0  0  0  0  0  0  0  0
    1.8409   -1.4112    0.2678 C   0  0  0  0  0  0  0  0  0  0  0  0
    1.6093   -2.1920    1.1884 O   0  0  0  0  0  0  0  0  0  0  0  0
    0.3359    0.3311    1.2694 C   0  0  0  0  0  0  0  0  0  0  0  0
    0.0661    1.8148    1.5274 C   0  0  0  0  0  0  0  0  0  0  0  0
   -1.1363    2.0660    2.4183 C   0  0  0  0  0  0  0  0  0  0  0  0
   -1.8772    1.1813    2.8367 O   0  0  0  0  0  0  0  0  0  0  0  0
   -1.3198    3.4058    2.6853 N   0  0  0  0  0  0  0  0  0  0  0  0
    2.0949    0.6178   -1.6227 H   0  0  0  0  0  0  0  0  0  0  0  0
    2.4283    0.6070    0.7072 H   0  0  0  0  0  0  0  0  0  0  0  0
   -0.5626   -0.1105    0.8178 H   0  0  0  0  0  0  0  0  0  0  0  0
    0.4813   -0.1859    2.2263 H   0  0  0  0  0  0  0  0  0  0  0  0
   -0.1390    2.3075    0.5690 H   0  0  0  0  0  0  0  0  0  0  0  0
    0.9470    2.3010    1.9612 H   0  0  0  0  0  0  0  0  0  0  0  0
   -0.6720    4.0772    2.2865 H   0  0  0  0  0  0  0  0  0  0  0  0
   -2.0798    3.7449    3.2664 H   0  0  0  0  0  0  0  0  0  0  0  0
    2.4459   -1.7540   -0.9334 N   0  0  0  0  0  0  0  0  0  0  0  0
    2.8574   -3.1007   -1.2586 C   0  0  2  0  0  0  0  0  0  0  0  0
    1.6924   -4.0342   -0.9571 C   0  0  0  0  0  0  0  0  0  0  0  0
    0.7912   -3.7499   -0.1710 O   0  0  0  0  0  0  0  0  0  0  0  0
    4.0955   -3.5057   -0.4738 C   0  0  0  0  0  0  0  0  0  0  0  0
    2.6076   -1.0216   -1.6184 H   0  0  0  0  0  0  0  0  0  0  0  0
    3.0696   -3.1158   -2.3332 H   0  0  0  0  0  0  0  0  0  0  0  0
    3.9022   -3.4964    0.6051 H   0  0  0  0  0  0  0  0  0  0  0  0
    4.4227   -4.5156   -0.7423 H   0  0  0  0  0  0  0  0  0  0  0  0
    4.9236   -2.8157   -0.6690 H   0  0  0  0  0  0  0  0  0  0  0  0
    1.8002   -5.2396   -1.6365 N   0  0  0  0  0  0  0  0  0  0  0  0
    0.8250   -6.2971   -1.5075 C   0  0  0  0  0  0  0  0  0  0  0  0
    2.5710   -5.3819   -2.2825 H   0  0  0  0  0  0  0  0  0  0  0  0
    1.1377   -6.9900   -0.7125 H   0  0  0  0  0  0  0  0  0  0  0  0
   -0.1536   -5.8642   -1.2525 H   0  0  0  0  0  0  0  0  0  0  0  0
    0.7477   -6.8425   -2.4597 H   0  0  0  0  0  0  0  0  0  0  0  0
  1  3  1  0  0  0  0
  1  7  1  0  0  0  0
  1  2  2  0  0  0  0
 22 23  1  0  0  0  0
 23 25  1  0  0  0  0
 23 24  2  0  0  0  0
 35 36  1  0  0  0  0
 36 44  1  0  0  0  0
 36 37  2  0  0  0  0
  8  9  1  0  0  0  0
  9 17  1  0  0  0  0
  9 10  2  0  0  0  0
 18 19  1  0  0  0  0
 19 34  1  0  0  0  0
 19 20  2  0  0  0  0
 35 38  1  0  0  0  0
  8 11  1  0  0  0  0
 44 45  1  0  0  0  0
 21 22  1  0  0  0  0
 18 21  1  0  0  0  0
 34 35  1  0  0  0  0
  7  8  1  0  0  0  0
 17 18  1  0  0  0  0
  3  4  1  0  0  0  0
  3  5  1  0  0  0  0
  3  6  1  0  0  0  0
 38 41  1  0  0  0  0
 38 42  1  0  0  0  0
 38 43  1  0  0  0  0
 11 14  1  0  0  0  0
 11 15  1  0  0  0  0
 11 16  1  0  0  0  0
 45 47  1  0  0  0  0
 45 48  1  0  0  0  0
 45 49  1  0  0  0  0
 22 30  1  0  0  0  0
 22 31  1  0  0  0  0
 21 28  1  0  0  0  0
 21 29  1  0  0  0  0
 35 40  1  0  0  0  0
  8 13  1  0  0  0  0
 18 27  1  0  0  0  0
 25 32  1  0  0  0  0
 25 33  1  0  0  0  0
 44 46  1  0  0  0  0
  7 12  1  0  0  0  0
 34 39  1  0  0  0  0
 17 26  1  0  0  0  0
M  END
$$$$

  -OEChem-05262214473D

 49 48  0     1  0  0  0  0  0999 V2000
   -1.9833   -0.0509   -3.3423 C   0  0  0  0  0  0  0  0  0  0  0  0
   -1.6199   -1.0613   -2.7518 O   0  0  0  0  0  0  0  0  0  0  0  0
   -3.3243   -0.0235   -3.9975 C   0  0  0  0  0  0  0  0  0  0  0  0
   -3.2886   -0.3689   -5.0432 H   0  0  0  0  0  0  0  0  0  0  0  0
   -4.0503   -0.6845   -3.4973 H   0  0  0  0  0  0  0  0  0  0  0  0
   -3.8104    0.9645   -4.0351 H   0  0  0  0  0  0  0  0  0  0  0  0
   -1.2607    1.1231   -3.4768 N   0  0  0  0  0  0  0  0  0  0  0  0
    0.0536    1.3115   -2.9213 C   0  0  2  0  0  0  0  0  0  0  0  0
    0.0266    0.8315   -1.4761 C   0  0  0  0  0  0  0  0  0  0  0  0
   -1.0065    0.7530   -0.8146 O   0  0  0  0  0  0  0  0  0  0  0  0
    0.4852    2.7674   -3.0025 C   0  0  0  0  0  0  0  0  0  0  0  0
   -1.6809    1.8924   -3.9952 H   0  0  0  0  0  0  0  0  0  0  0  0
    0.7360    0.6822   -3.5030 H   0  0  0  0  0  0  0  0  0  0  0  0
   -0.1867    3.4133   -2.4256 H   0  0  0  0  0  0  0  0  0  0  0  0
    1.4966    2.9042   -2.6056 H   0  0  0  0  0  0  0  0  0  0  0  0
    0.4754    3.1196   -4.0397 H   0  0  0  0  0  0  0  0  0  0  0  0
    1.2978    0.5411   -0.9947 N   0  0  0  0  0  0  0  0  0  0  0  0
    1.5371    0.0807    0.3489 C   0  0  2  0  0  0  0  0  0  0  0  0
    1.8409   -1.4112    0.2678 C   0  0  0  0  0  0  0  0  0  0  0  0
    1.3778   -2.2320    1.0569 O   0  0  0  0  0  0  0  0  0  0  0  0
    0.3359    0.3311    1.2694 C   0  0  0  0  0  0  0  0  0  0  0  0
    0.0661    1.8148    1.5274 C   0  0  0  0  0  0  0  0  0  0  0  0
   -1.1363    2.0660    2.4183 C   0  0  0  0  0  0  0  0  0  0  0  0
   -1.8772    1.1813    2.8367 O   0  0  0  0  0  0  0  0  0  0  0  0
   -1.3198    3.4058    2.6853 N   0  0  0  0  0  0  0  0  0  0  0  0
    2.0949    0.6178   -1.6227 H   0  0  0  0  0  0  0  0  0  0  0  0
    2.4283    0.6070    0.7072 H   0  0  0  0  0  0  0  0  0  0  0  0
   -0.5626   -0.1105    0.8178 H   0  0  0  0  0  0  0  0  0  0  0  0
    0.4813   -0.1859    2.2263 H   0  0  0  0  0  0  0  0  0  0  0  0
   -0.1390    2.3075    0.5690 H   0  0  0  0  0  0  0  0  0  0  0  0
    0.9470    2.3010    1.9612 H   0  0  0  0  0  0  0  0  0  0  0  0
   -0.6720    4.0772    2.2865 H   0  0  0  0  0  0  0  0  0  0  0  0
   -2.0798    3.7449    3.2664 H   0  0  0  0  0  0  0  0  0  0  0  0
    2.7283   -1.7060   -0.7579 N   0  0  0  0  0  0  0  0  0  0  0  0
    3.1992   -3.0430   -1.0398 C   0  0  2  0  0  0  0  0  0  0  0  0
    1.9892   -3.9663   -1.0930 C   0  0  0  0  0  0  0  0  0  0  0  0
    0.9201   -3.7032   -0.5463 O   0  0  0  0  0  0  0  0  0  0  0  0
    4.1949   -3.5117    0.0098 C   0  0  0  0  0  0  0  0  0  0  0  0
    3.0636   -0.9439   -1.3396 H   0  0  0  0  0  0  0  0  0  0  0  0
    3.6769   -3.0089   -2.0250 H   0  0  0  0  0  0  0  0  0  0  0  0
    3.7343   -3.5523    1.0036 H   0  0  0  0  0  0  0  0  0  0  0  0
    4.5722   -4.5135   -0.2207 H   0  0  0  0  0  0  0  0  0  0  0  0
    5.0503   -2.8300    0.0675 H   0  0  0  0  0  0  0  0  0  0  0  0
    2.2572   -5.1384   -1.7863 N   0  0  0  0  0  0  0  0  0  0  0  0
    1.2736   -6.1809   -1.9648 C   0  0  0  0  0  0  0  0  0  0  0  0
    3.1656   -5.2640   -2.2230 H   0  0  0  0  0  0  0  0  0  0  0  0
    1.3695   -6.9188   -1.1547 H   0  0  0  0  0  0  0  0  0  0  0  0
    0.2655   -5.7413   -1.9428 H   0  0  0  0  0  0  0  0  0  0  0  0
    1.4365   -6.6765   -2.9332 H   0  0  0  0  0  0  0  0  0  0  0  0
  1  3  1  0  0  0  0
  1  7  1  0  0  0  0
  1  2  2  0  0  0  0
 22 23  1  0  0  0  0
 23 25  1  0  0  0  0
 23 24  2  0  0  0  0
 35 36  1  0  0  0  0
 36 44  1  0  0  0  0
 36 37  2  0  0  0  0
  8  9  1  0  0  0  0
  9 17  1  0  0  0  0
  9 10  2  0  0  0  0
 18 19  1  0  0  0  0
 19 34  1  0  0  0  0
 19 20  2  0  0  0  0
 35 38  1  0  0  0  0
  8 11  1  0  0  0  0
 44 45  1  0  0  0  0
 21 22  1  0  0  0  0
 18 21  1  0  0  0  0
 34 35  1  0  0  0  0
  7  8  1  0  0  0  0
 17 18  1  0  0  0  0
  3  4  1  0  0  0  0
  3  5  1  0  0  0  0
  3  6  1  0  0  0  0
 38 41  1  0  0  0  0
 38 42  1  0  0  0  0
 38 43  1  0  0  0  0
 11 14  1  0  0  0  0
 11 15  1  0  0  0  0
 11 16  1  0  0  0  0
 45 47  1  0  0  0  0
 45 48  1  0  0  0  0
 45 49  1  0  0  0  0
 22 30  1  0  0  0  0
 22 31  1  0  0  0  0
 21 28  1  0  0  0  0
 21 29  1  0  0  0  0
 35 40  1  0  0  0  0
  8 13  1  0  0  0  0
 18 27  1  0  0  0  0
 25 32  1  0  0  0  0
 25 33  1  0  0  0  0
 44 46  1  0  0  0  0
  7 12  1  0  0  0  0
 34 39  1  0  0  0  0
 17 26  1  0  0  0  0
M  END
$$$$

  -OEChem-05262214473D

 49 48  0     1  0  0  0  0  0999 V2000
   -1.9833   -0.0509   -3.3423 C   0  0  0  0  0  0  0  0  0  0  0  0
   -1.6199   -1.0613   -2.7518 O   0  0  0  0  0  0  0  0  0  0  0  0
   -3.3243   -0.0235   -3.9975 C   0  0  0  0  0  0  0  0  0  0  0  0
   -3.2886   -0.3689   -5.0432 H   0  0  0  0  0  0  0  0  0  0  0  0
   -4.0503   -0.6845   -3.4973 H   0  0  0  0  0  0  0  0  0  0  0  0
   -3.8104    0.9645   -4.0351 H   0  0  0  0  0  0  0  0  0  0  0  0
   -1.2607    1.1231   -3.4768 N   0  0  0  0  0  0  0  0  0  0  0  0
    0.0536    1.3115   -2.9213 C   0  0  2  0  0  0  0  0  0  0  0  0
    0.0266    0.8315   -1.4761 C   0  0  0  0  0  0  0  0  0  0  0  0
   -1.0065    0.7530   -0.8146 O   0  0  0  0  0  0  0  0  0  0  0  0
    0.4852    2.7674   -3.0025 C   0  0  0  0  0  0  0  0  0  0  0  0
   -1.6809    1.8924   -3.9952 H   0  0  0  0  0  0  0  0  0  0  0  0
    0.7360    0.6822   -3.5030 H   0  0  0  0  0  0  0  0  0  0  0  0
   -0.1867    3.4133   -2.4256 H   0  0  0  0  0  0  0  0  0  0  0  0
    1.4966    2.9042   -2.6056 H   0  0  0  0  0  0  0  0  0  0  0  0
    0.4754    3.1196   -4.0397 H   0  0  0  0  0  0  0  0  0  0  0  0
    1.2978    0.5411   -0.9947 N   0  0  0  0  0  0  0  0  0  0  0  0
    1.5371    0.0807    0.3489 C   0  0  2  0  0  0  0  0  0  0  0  0
    1.8409   -1.4112    0.2678 C   0  0  0  0  0  0  0  0  0  0  0  0
    1.1870   -2.2606    0.8692 O   0  0  0  0  0  0  0  0  0  0  0  0
    0.3359    0.3311    1.2694 C   0  0  0  0  0  0  0  0  0  0  0  0
    0.0661    1.8148    1.5274 C   0  0  0  0  0  0  0  0  0  0  0  0
   -1.1363    2.0660    2.4183 C   0  0  0  0  0  0  0  0  0  0  0  0
   -1.8772    1.1813    2.8367 O   0  0  0  0  0  0  0  0  0  0  0  0
   -1.3198    3.4058    2.6853 N   0  0  0  0  0  0  0  0  0  0  0  0
    2.0949    0.6178   -1.6227 H   0  0  0  0  0  0  0  0  0  0  0  0
    2.4283    0.6070    0.7072 H   0  0  0  0  0  0  0  0  0  0  0  0
   -0.5626   -0.1105    0.8178 H   0  0  0  0  0  0  0  0  0  0  0  0
    0.4813   -0.1859    2.2263 H   0  0  0  0  0  0  0  0  0  0  0  0
   -0.1390    2.3075    0.5690 H   0  0  0  0  0  0  0  0  0  0  0  0
    0.9470    2.3010    1.9612 H   0  0  0  0  0  0  0  0  0  0  0  0
   -0.6720    4.0772    2.2865 H   0  0  0  0  0  0  0  0  0  0  0  0
   -2.0798    3.7449    3.2664 H   0  0  0  0  0  0  0  0  0  0  0  0
    2.9573   -1.6726   -0.5144 N   0  0  0  0  0  0  0  0  0  0  0  0
    3.4747   -3.0033   -0.7389 C   0  0  2  0  0  0  0  0  0  0  0  0
    2.3112   -3.8979   -1.1455 C   0  0  0  0  0  0  0  0  0  0  0  0
    1.1403   -3.6406   -0.8738 O   0  0  0  0  0  0  0  0  0  0  0  0
    4.1683   -3.5439    0.5018 C   0  0  0  0  0  0  0  0  0  0  0  0
    3.4346   -0.8895   -0.9508 H   0  0  0  0  0  0  0  0  0  0  0  0
    4.1869   -2.9299   -1.5680 H   0  0  0  0  0  0  0  0  0  0  0  0
    3.4705   -3.6245    1.3433 H   0  0  0  0  0  0  0  0  0  0  0  0
    4.5846   -4.5405    0.3212 H   0  0  0  0  0  0  0  0  0  0  0  0
    4.9860   -2.8835    0.8102 H   0  0  0  0  0  0  0  0  0  0  0  0
    2.7379   -5.0392   -1.8100 N   0  0  0  0  0  0  0  0  0  0  0  0
    1.8244   -6.0512   -2.2868 C   0  0  0  0  0  0  0  0  0  0  0  0
    3.7265   -5.1615   -2.0089 H   0  0  0  0  0  0  0  0  0  0  0  0
    1.7064   -6.8303   -1.5193 H   0  0  0  0  0  0  0  0  0  0  0  0
    0.8468   -5.5928   -2.4971 H   0  0  0  0  0  0  0  0  0  0  0  0
    2.2240   -6.5012   -3.2076 H   0  0  0  0  0  0  0  0  0  0  0  0
  1  3  1  0  0  0  0
  1  7  1  0  0  0  0
  1  2  2  0  0  0  0
 22 23  1  0  0  0  0
 23 25  1  0  0  0  0
 23 24  2  0  0  0  0
 35 36  1  0  0  0  0
 36 44  1  0  0  0  0
 36 37  2  0  0  0  0
  8  9  1  0  0  0  0
  9 17  1  0  0  0  0
  9 10  2  0  0  0  0
 18 19  1  0  0  0  0
 19 34  1  0  0  0  0
 19 20  2  0  0  0  0
 35 38  1  0  0  0  0
  8 11  1  0  0  0  0
 44 45  1  0  0  0  0
 21 22  1  0  0  0  0
 18 21  1  0  0  0  0
 34 35  1  0  0  0  0
  7  8  1  0  0  0  0
 17 18  1  0  0  0  0
  3  4  1  0  0  0  0
  3  5  1  0  0  0  0
  3  6  1  0  0  0  0
 38 41  1  0  0  0  0
 38 42  1  0  0  0  0
 38 43  1  0  0  0  0
 11 14  1  0  0  0  0
 11 15  1  0  0  0  0
 11 16  1  0  0  0  0
 45 47  1  0  0  0  0
 45 48  1  0  0  0  0
 45 49  1  0  0  0  0
 22 30  1  0  0  0  0
 22 31  1  0  0  0  0
 21 28  1  0  0  0  0
 21 29  1  0  0  0  0
 35 40  1  0  0  0  0
  8 13  1  0  0  0  0
 18 27  1  0  0  0  0
 25 32  1  0  0  0  0
 25 33  1  0  0  0  0
 44 46  1  0  0  0  0
  7 12  1  0  0  0  0
 34 39  1  0  0  0  0
 17 26  1  0  0  0  0
M  END
$$$$

  -OEChem-05262214473D

 49 48  0     1  0  0  0  0  0999 V2000
   -1.9833   -0.0509   -3.3423 C   0  0  0  0  0  0  0  0  0  0  0  0
   -1.6199   -1.0613   -2.7518 O   0  0  0  0  0  0  0  0  0  0  0  0
   -3.3243   -0.0235   -3.9975 C   0  0  0  0  0  0  0  0  0  0  0  0
   -3.2886   -0.3689   -5.0432 H   0  0  0  0  0  0  0  0  0  0  0  0
   -4.0503   -0.6845   -3.4973 H   0  0  0  0  0  0  0  0  0  0  0  0
   -3.8104    0.9645   -4.0351 H   0  0  0  0  0  0  0  0  0  0  0  0
   -1.2607    1.1231   -3.4768 N   0  0  0  0  0  0  0  0  0  0  0  0
    0.0536    1.3115   -2.9213 C   0  0  2  0  0  0  0  0  0  0  0  0
    0.0266    0.8315   -1.4761 C   0  0  0  0  0  0  0  0  0  0  0  0
   -1.0065    0.7530   -0.8146 O   0  0  0  0  0  0  0  0  0  0  0  0
    0.4852    2.7674   -3.0025 C   0  0  0  0  0  0  0  0  0  0  0  0
   -1.6809    1.8924   -3.9952 H   0  0  0  0  0  0  0  0  0  0  0  0
    0.7360    0.6822   -3.5030 H   0  0  0  0  0  0  0  0  0  0  0  0
   -0.1867    3.4133   -2.4256 H   0  0  0  0  0  0  0  0  0  0  0  0
    1.4966    2.9042   -2.6056 H   0  0  0  0  0  0  0  0  0  0  0  0
    0.4754    3.1196   -4.0397 H   0  0  0  0  0  0  0  0  0  0  0  0
    1.2978    0.5411   -0.9947 N   0  0  0  0  0  0  0  0  0  0  0  0
    1.5371    0.0807    0.3489 C   0  0  2  0  0  0  0  0  0  0  0  0
    1.8409   -1.4112    0.2678 C   0  0  0  0  0  0  0  0  0  0  0  0
    1.0498   -2.2760    0.6381 O   0  0  0  0  0  0  0  0  0  0  0  0
    0.3359    0.3311    1.2694 C   0  0  0  0  0  0  0  0  0  0  0  0
    0.0661    1.8148    1.5274 C   0  0  0  0  0  0  0  0  0  0  0  0
   -1.1363    2.0660    2.4183 C   0  0  0  0  0  0  0  0  0  0  0  0
   -1.8772    1.1813    2.8367 O   0  0  0  0  0  0  0  0  0  0  0  0
   -1.3198    3.4058    2.6853 N   0  0  0  0  0  0  0  0  0  0  0  0
    2.0949    0.6178   -1.6227 H   0  0  0  0  0  0  0  0  0  0  0  0
    2.4283    0.6070    0.7072 H   0  0  0  0  0  0  0  0  0  0  0  0
   -0.5626   -0.1105    0.8178 H   0  0  0  0  0  0  0  0  0  0  0  0
    0.4813   -0.1859    2.2263 H   0  0  0  0  0  0  0  0  0  0  0  0
   -0.1390    2.3075    0.5690 H   0  0  0  0  0  0  0  0  0  0  0  0
    0.9470    2.3010    1.9612 H   0  0  0  0  0  0  0  0  0  0  0  0
   -0.6720    4.0772    2.2865 H   0  0  0  0  0  0  0  0  0  0  0  0
   -2.0798    3.7449    3.2664 H   0  0  0  0  0  0  0  0  0  0  0  0
    3.1173   -1.6561   -0.2194 N   0  0  0  0  0  0  0  0  0  0  0  0
    3.6652   -2.9842   -0.3764 C   0  0  2  0  0  0  0  0  0  0  0  0
    2.6365   -3.8335   -1.1112 C   0  0  0  0  0  0  0  0  0  0  0  0
    1.4369   -3.5662   -1.1311 O   0  0  0  0  0  0  0  0  0  0  0  0
    4.0176   -3.6000    0.9687 C   0  0  0  0  0  0  0  0  0  0  0  0
    3.6952   -0.8621   -0.4786 H   0  0  0  0  0  0  0  0  0  0  0  0
    4.5649   -2.8842   -0.9934 H   0  0  0  0  0  0  0  0  0  0  0  0
    3.1286   -3.7081    1.6007 H   0  0  0  0  0  0  0  0  0  0  0  0
    4.4590   -4.5946    0.8463 H   0  0  0  0  0  0  0  0  0  0  0  0
    4.7350   -2.9726    1.5086 H   0  0  0  0  0  0  0  0  0  0  0  0
    3.2096   -4.9488   -1.7061 N   0  0  0  0  0  0  0  0  0  0  0  0
    2.4397   -5.9169   -2.4517 C   0  0  0  0  0  0  0  0  0  0  0  0
    4.2154   -5.0812   -1.6548 H   0  0  0  0  0  0  0  0  0  0  0  0
    2.1254   -6.7308   -1.7817 H   0  0  0  0  0  0  0  0  0  0  0  0
    1.5507   -5.4288   -2.8776 H   0  0  0  0  0  0  0  0  0  0  0  0
    3.0565   -6.3286   -3.2642 H   0  0  0  0  0  0  0  0  0  0  0  0
  1  3  1  0  0  0  0
  1  7  1  0  0  0  0
  1  2  2  0  0  0  0
 22 23  1  0  0  0  0
 23 25  1  0  0  0  0
 23 24  2  0  0  0  0
 35 36  1  0  0  0  0
 36 44  1  0  0  0  0
 36 37  2  0  0  0  0
  8  9  1  0  0  0  0
  9 17  1  0  0  0  0
  9 10  2  0  0  0  0
 18 19  1  0  0  0  0
 19 34  1  0  0  0  0
 19 20  2  0  0  0  0
 35 38  1  0  0  0  0
  8 11  1  0  0  0  0
 44 45  1  0  0  0  0
 21 22  1  0  0  0  0
 18 21  1  0  0  0  0
 34 35  1  0  0  0  0
  7  8  1  0  0  0  0
 17 18  1  0  0  0  0
  3  4  1  0  0  0  0
  3  5  1  0  0  0  0
  3  6  1  0  0  0  0
 38 41  1  0  0  0  0
 38 42  1  0  0  0  0
 38 43  1  0  0  0  0
 11 14  1  0  0  0  0
 11 15  1  0  0  0  0
 11 16  1  0  0  0  0
 45 47  1  0  0  0  0
 45 48  1  0  0  0  0
 45 49  1  0  0  0  0
 22 30  1  0  0  0  0
 22 31  1  0  0  0  0
 21 28  1  0  0  0  0
 21 29  1  0  0  0  0
 35 40  1  0  0  0  0
  8 13  1  0  0  0  0
 18 27  1  0  0  0  0
 25 32  1  0  0  0  0
 25 33  1  0  0  0  0
 44 46  1  0  0  0  0
  7 12  1  0  0  0  0
 34 39  1  0  0  0  0
 17 26  1  0  0  0  0
M  END
$$$$

  -OEChem-05262214473D

 49 48  0     1  0  0  0  0  0999 V2000
   -1.9833   -0.0509   -3.3423 C   0  0  0  0  0  0  0  0  0  0  0  0
   -1.6199   -1.0613   -2.7518 O   0  0  0  0  0  0  0  0  0  0  0  0
   -3.3243   -0.0235   -3.9975 C   0  0  0  0  0  0  0  0  0  0  0  0
   -3.2886   -0.3689   -5.0432 H   0  0  0  0  0  0  0  0  0  0  0  0
   -4.0503   -0.6845   -3.4973 H   0  0  0  0  0  0  0  0  0  0  0  0
   -3.8104    0.9645   -4.0351 H   0  0  0  0  0  0  0  0  0  0  0  0
   -1.2607    1.1231   -3.4768 N   0  0  0  0  0  0  0  0  0  0  0  0
    0.0536    1.3115   -2.9213 C   0  0  2  0  0  0  0  0  0  0  0  0
    0.0266    0.8315   -1.4761 C   0  0  0  0  0  0  0  0  0  0  0  0
   -1.0065    0.7530   -0.8146 O   0  0  0  0  0  0  0  0  0  0  0  0
    0.4852    2.7674   -3.0025 C   0  0  0  0  0  0  0  0  0  0  0  0
   -1.6809    1.8924   -3.9952 H   0  0  0  0  0  0  0  0  0  0  0  0
    0.7360    0.6822   -3.5030 H   0  0  0  0  0  0  0  0  0  0  0  0
   -0.1867    3.4133   -2.4256 H   0  0  0  0  0  0  0  0  0  0  0  0
    1.4966    2.9042   -2.6056 H   0  0  0  0  0  0  0  0  0  0  0  0
    0.4754    3.1196   -4.0397 H   0  0  0  0  0  0  0  0  0  0  0  0
    1.2978    0.5411   -0.9947 N   0  0  0  0  0  0  0  0  0  0  0  0
    1.5371    0.0807    0.3489 C   0  0  2  0  0  0  0  0  0  0  0  0
    1.8409   -1.4112    0.2678 C   0  0  0  0  0  0  0  0  0  0  0  0
    0.9756   -2.2770    0.3793 O   0  0  0  0  0  0  0  0  0  0  0  0
    0.3359    0.3311    1.2694 C   0  0  0  0  0  0  0  0  0  0  0  0
    0.0661    1.8148    1.5274 C   0  0  0  0  0  0  0  0  0  0  0  0
   -1.1363    2.0660    2.4183 C   0  0  0  0  0  0  0  0  0  0  0  0
   -1.8772    1.1813    2.8367 O   0  0  0  0  0  0  0  0  0  0  0  0
   -1.3198    3.4058    2.6853 N   0  0  0  0  0  0  0  0  0  0  0  0
    2.0949    0.6178   -1.6227 H   0  0  0  0  0  0  0  0  0  0  0  0
    2.4283    0.6070    0.7072 H   0  0  0  0  0  0  0  0  0  0  0  0
   -0.5626   -0.1105    0.8178 H   0  0  0  0  0  0  0  0  0  0  0  0
    0.4813   -0.1859    2.2263 H   0  0  0  0  0  0  0  0  0  0  0  0
   -0.1390    2.3075    0.5690 H   0  0  0  0  0  0  0  0  0  0  0  0
    0.9470    2.3010    1.9612 H   0  0  0  0  0  0  0  0  0  0  0  0
   -0.6720    4.0772    2.2865 H   0  0  0  0  0  0  0  0  0  0  0  0
   -2.0798    3.7449    3.2664 H   0  0  0  0  0  0  0  0  0  0  0  0
    3.1973   -1.6576    0.1069 N   0  0  0  0  0  0  0  0  0  0  0  0
    3.7577   -2.9871    0.0229 C   0  0  2  0  0  0  0  0  0  0  0  0
    2.9430   -3.7776   -0.9924 C   0  0  0  0  0  0  0  0  0  0  0  0
    1.7895   -3.4852   -1.3007 O   0  0  0  0  0  0  0  0  0  0  0  0
    3.7530   -3.6762    1.3786 C   0  0  0  0  0  0  0  0  0  0  0  0
    3.8277   -0.8636    0.0450 H   0  0  0  0  0  0  0  0  0  0  0  0
    4.7851   -2.8749   -0.3402 H   0  0  0  0  0  0  0  0  0  0  0  0
    2.7320   -3.7974    1.7586 H   0  0  0  0  0  0  0  0  0  0  0  0
    4.2039   -4.6723    1.3189 H   0  0  0  0  0  0  0  0  0  0  0  0
    4.3144   -3.0912    2.1150 H   0  0  0  0  0  0  0  0  0  0  0  0
    3.6402   -4.8733   -1.4816 N   0  0  0  0  0  0  0  0  0  0  0  0
    3.0777   -5.7872   -2.4482 C   0  0  0  0  0  0  0  0  0  0  0  0
    4.5991   -5.0286   -1.1847 H   0  0  0  0  0  0  0  0  0  0  0  0
    2.5979   -6.6268   -1.9239 H   0  0  0  0  0  0  0  0  0  0  0  0
    2.3293   -5.2604   -3.0584 H   0  0  0  0  0  0  0  0  0  0  0  0
    3.8774   -6.1704   -3.0991 H   0  0  0  0  0  0  0  0  0  0  0  0
  1  3  1  0  0  0  0
  1  7  1  0  0  0  0
  1  2  2  0  0  0  0
 22 23  1  0  0  0  0
 23 25  1  0  0  0  0
 23 24  2  0  0  0  0
 35 36  1  0  0  0  0
 36 44  1  0  0  0  0
 36 37  2  0  0  0  0
  8  9  1  0  0  0  0
  9 17  1  0  0  0  0
  9 10  2  0  0  0  0
 18 19  1  0  0  0  0
 19 34  1  0  0  0  0
 19 20  2  0  0  0  0
 35 38  1  0  0  0  0
  8 11  1  0  0  0  0
 44 45  1  0  0  0  0
 21 22  1  0  0  0  0
 18 21  1  0  0  0  0
 34 35  1  0  0  0  0
  7  8  1  0  0  0  0
 17 18  1  0  0  0  0
  3  4  1  0  0  0  0
  3  5  1  0  0  0  0
  3  6  1  0  0  0  0
 38 41  1  0  0  0  0
 38 42  1  0  0  0  0
 38 43  1  0  0  0  0
 11 14  1  0  0  0  0
 11 15  1  0  0  0  0
 11 16  1  0  0  0  0
 45 47  1  0  0  0  0
 45 48  1  0  0  0  0
 45 49  1  0  0  0  0
 22 30  1  0  0  0  0
 22 31  1  0  0  0  0
 21 28  1  0  0  0  0
 21 29  1  0  0  0  0
 35 40  1  0  0  0  0
  8 13  1  0  0  0  0
 18 27  1  0  0  0  0
 25 32  1  0  0  0  0
 25 33  1  0  0  0  0
 44 46  1  0  0  0  0
  7 12  1  0  0  0  0
 34 39  1  0  0  0  0
 17 26  1  0  0  0  0
M  END
$$$$

  -OEChem-05262214473D

 49 48  0     1  0  0  0  0  0999 V2000
   -1.9833   -0.0509   -3.3423 C   0  0  0  0  0  0  0  0  0  0  0  0
   -1.6199   -1.0613   -2.7518 O   0  0  0  0  0  0  0  0  0  0  0  0
   -3.3243   -0.0235   -3.9975 C   0  0  0  0  0  0  0  0  0  0  0  0
   -3.2886   -0.3689   -5.0432 H   0  0  0  0  0  0  0  0  0  0  0  0
   -4.0503   -0.6845   -3.4973 H   0  0  0  0  0  0  0  0  0  0  0  0
   -3.8104    0.9645   -4.0351 H   0  0  0  0  0  0  0  0  0  0  0  0
   -1.2607    1.1231   -3.4768 N   0  0  0  0  0  0  0  0  0  0  0  0
    0.0536    1.3115   -2.9213 C   0  0  2  0  0  0  0  0  0  0  0  0
    0.0266    0.8315   -1.4761 C   0  0  0  0  0  0  0  0  0  0  0  0
   -1.0065    0.7530   -0.8146 O   0  0  0  0  0  0  0  0  0  0  0  0
    0.4852    2.7674   -3.0025 C   0  0  0  0  0  0  0  0  0  0  0  0
   -1.6809    1.8924   -3.9952 H   0  0  0  0  0  0  0  0  0  0  0  0
    0.7360    0.6822   -3.5030 H   0  0  0  0  0  0  0  0  0  0  0  0
   -0.1867    3.4133   -2.4256 H   0  0  0  0  0  0  0  0  0  0  0  0
    1.4966    2.9042   -2.6056 H   0  0  0  0  0  0  0  0  0  0  0  0
    0.4754    3.1196   -4.0397 H   0  0  0  0  0  0  0  0  0  0  0  0
    1.2978    0.5411   -0.9947 N   0  0  0  0  0  0  0  0  0  0  0  0
    1.5371    0.0807    0.3489 C   0  0  2  0  0  0  0  0  0  0  0  0
    1.8409   -1.4112    0.2678 C   0  0  0  0  0  0  0  0  0  0  0  0
    0.9694   -2.2636    0.1105 O   0  0  0  0  0  0  0  0  0  0  0  0
    0.3359    0.3311    1.2694 C   0  0  0  0  0  0  0  0  0  0  0  0
    0.0661    1.8148    1.5274 C   0  0  0  0  0  0  0  0  0  0  0  0
   -1.1363    2.0660    2.4183 C   0  0  0  0  0  0  0  0  0  0  0  0
   -1.8772    1.1813    2.8367 O   0  0  0  0  0  0  0  0  0  0  0  0
   -1.3198    3.4058    2.6853 N   0  0  0  0  0  0  0  0  0  0  0  0
    2.0949    0.6178   -1.6227 H   0  0  0  0  0  0  0  0  0  0  0  0
    2.4283    0.6070    0.7072 H   0  0  0  0  0  0  0  0  0  0  0  0
   -0.5626   -0.1105    0.8178 H   0  0  0  0  0  0  0  0  0  0  0  0
    0.4813   -0.1859    2.2263 H   0  0  0  0  0  0  0  0  0  0  0  0
   -0.1390    2.3075    0.5690 H   0  0  0  0  0  0  0  0  0  0  0  0
    0.9470    2.3010    1.9612 H   0  0  0  0  0  0  0  0  0  0  0  0
   -0.6720    4.0772    2.2865 H   0  0  0  0  0  0  0  0  0  0  0  0
   -2.0798    3.7449    3.2664 H   0  0  0  0  0  0  0  0  0  0  0  0
    3.1920   -1.6769    0.4422 N   0  0  0  0  0  0  0  0  0  0  0  0
    3.7458   -3.0118    0.4319 C   0  0  2  0  0  0  0  0  0  0  0  0
    3.2096   -3.7339   -0.7971 C   0  0  0  0  0  0  0  0  0  0  0  0
    2.1742   -3.4030   -1.3710 O   0  0  0  0  0  0  0  0  0  0  0  0
    3.3925   -3.7673    1.7035 C   0  0  0  0  0  0  0  0  0  0  0  0
    3.8231   -0.8939    0.5843 H   0  0  0  0  0  0  0  0  0  0  0  0
    4.8325   -2.9026    0.3469 H   0  0  0  0  0  0  0  0  0  0  0  0
    2.3077   -3.8864    1.8060 H   0  0  0  0  0  0  0  0  0  0  0  0
    3.8367   -4.7681    1.7068 H   0  0  0  0  0  0  0  0  0  0  0  0
    3.7530   -3.2313    2.5882 H   0  0  0  0  0  0  0  0  0  0  0  0
    4.0003   -4.8179   -1.1518 N   0  0  0  0  0  0  0  0  0  0  0  0
    3.6948   -5.6709   -2.2766 C   0  0  0  0  0  0  0  0  0  0  0  0
    4.8515   -5.0073   -0.6308 H   0  0  0  0  0  0  0  0  0  0  0  0
    3.0918   -6.5256   -1.9362 H   0  0  0  0  0  0  0  0  0  0  0  0
    3.1294   -5.0992   -3.0272 H   0  0  0  0  0  0  0  0  0  0  0  0
    4.6307   -6.0375   -2.7235 H   0  0  0  0  0  0  0  0  0  0  0  0
  1  3  1  0  0  0  0
  1  7  1  0  0  0  0
  1  2  2  0  0  0  0
 22 23  1  0  0  0  0
 23 25  1  0  0  0  0
 23 24  2  0  0  0  0
 35 36  1  0  0  0  0
 36 44  1  0  0  0  0
 36 37  2  0  0  0  0
  8  9  1  0  0  0  0
  9 17  1  0  0  0  0
  9 10  2  0  0  0  0
 18 19  1  0  0  0  0
 19 34  1  0  0  0  0
 19 20  2  0  0  0  0
 35 38  1  0  0  0  0
  8 11  1  0  0  0  0
 44 45  1  0  0  0  0
 21 22  1  0  0  0  0
 18 21  1  0  0  0  0
 34 35  1  0  0  0  0
  7  8  1  0  0  0  0
 17 18  1  0  0  0  0
  3  4  1  0  0  0  0
  3  5  1  0  0  0  0
  3  6  1  0  0  0  0
 38 41  1  0  0  0  0
 38 42  1  0  0  0  0
 38 43  1  0  0  0  0
 11 14  1  0  0  0  0
 11 15  1  0  0  0  0
 11 16  1  0  0  0  0
 45 47  1  0  0  0  0
 45 48  1  0  0  0  0
 45 49  1  0  0  0  0
 22 30  1  0  0  0  0
 22 31  1  0  0  0  0
 21 28  1  0  0  0  0
 21 29  1  0  0  0  0
 35 40  1  0  0  0  0
  8 13  1  0  0  0  0
 18 27  1  0  0  0  0
 25 32  1  0  0  0  0
 25 33  1  0  0  0  0
 44 46  1  0  0  0  0
  7 12  1  0  0  0  0
 34 39  1  0  0  0  0
 17 26  1  0  0  0  0
M  END
$$$$

  -OEChem-05262214473D

 49 48  0     1  0  0  0  0  0999 V2000
   -1.9833   -0.0509   -3.3423 C   0  0  0  0  0  0  0  0  0  0  0  0
   -1.6199   -1.0613   -2.7518 O   0  0  0  0  0  0  0  0  0  0  0  0
   -3.3243   -0.0235   -3.9975 C   0  0  0  0  0  0  0  0  0  0  0  0
   -3.2886   -0.3689   -5.0432 H   0  0  0  0  0  0  0  0  0  0  0  0
   -4.0503   -0.6845   -3.4973 H   0  0  0  0  0  0  0  0  0  0  0  0
   -3.8104    0.9645   -4.0351 H   0  0  0  0  0  0  0  0  0  0  0  0
   -1.2607    1.1231   -3.4768 N   0  0  0  0  0  0  0  0  0  0  0  0
    0.0536    1.3115   -2.9213 C   0  0  2  0  0  0  0  0  0  0  0  0
    0.0266    0.8315   -1.4761 C   0  0  0  0  0  0  0  0  0  0  0  0
   -1.0065    0.7530   -0.8146 O   0  0  0  0  0  0  0  0  0  0  0  0
    0.4852    2.7674   -3.0025 C   0  0  0  0  0  0  0  0  0  0  0  0
   -1.6809    1.8924   -3.9952 H   0  0  0  0  0  0  0  0  0  0  0  0
    0.7360    0.6822   -3.5030 H   0  0  0  0  0  0  0  0  0  0  0  0
   -0.1867    3.4133   -2.4256 H   0  0  0  0  0  0  0  0  0  0  0  0
    1.4966    2.9042   -2.6056 H   0  0  0  0  0  0  0  0  0  0  0  0
    0.4754    3.1196   -4.0397 H   0  0  0  0  0  0  0  0  0  0  0  0
    1.2978    0.5411   -0.9947 N   0  0  0  0  0  0  0  0  0  0  0  0
    1.5371    0.0807    0.3489 C   0  0  2  0  0  0  0  0  0  0  0  0
    1.8409   -1.4112    0.2678 C   0  0  0  0  0  0  0  0  0  0  0  0
    1.0317   -2.2368   -0.1500 O   0  0  0  0  0  0  0  0  0  0  0  0
    0.3359    0.3311    1.2694 C   0  0  0  0  0  0  0  0  0  0  0  0
    0.0661    1.8148    1.5274 C   0  0  0  0  0  0  0  0  0  0  0  0
   -1.1363    2.0660    2.4183 C   0  0  0  0  0  0  0  0  0  0  0  0
   -1.8772    1.1813    2.8367 O   0  0  0  0  0  0  0  0  0  0  0  0
   -1.3198    3.4058    2.6853 N   0  0  0  0  0  0  0  0  0  0  0  0
    2.0949    0.6178   -1.6227 H   0  0  0  0  0  0  0  0  0  0  0  0
    2.4283    0.6070    0.7072 H   0  0  0  0  0  0  0  0  0  0  0  0
   -0.5626   -0.1105    0.8178 H   0  0  0  0  0  0  0  0  0  0  0  0
    0.4813   -0.1859    2.2263 H   0  0  0  0  0  0  0  0  0  0  0  0
   -0.1390    2.3075    0.5690 H   0  0  0  0  0  0  0  0  0  0  0  0
    0.9470    2.3010    1.9612 H   0  0  0  0  0  0  0  0  0  0  0  0
   -0.6720    4.0772    2.2865 H   0  0  0  0  0  0  0  0  0  0  0  0
   -2.0798    3.7449    3.2664 H   0  0  0  0  0  0  0  0  0  0  0  0
    3.1016   -1.7128    0.7638 N   0  0  0  0  0  0  0  0  0  0  0  0
    3.6305   -3.0565    0.8227 C   0  0  2  0  0  0  0  0  0  0  0  0
    3.4183   -3.7055   -0.5387 C   0  0  0  0  0  0  0  0  0  0  0  0
    2.5647   -3.3253   -1.3373 O   0  0  0  0  0  0  0  0  0  0  0  0
    2.9608   -3.8670    1.9215 C   0  0  0  0  0  0  0  0  0  0  0  0
    3.6817   -0.9509    1.1024 H   0  0  0  0  0  0  0  0  0  0  0  0
    4.7039   -2.9655    1.0212 H   0  0  0  0  0  0  0  0  0  0  0  0
    1.8847   -3.9689    1.7397 H   0  0  0  0  0  0  0  0  0  0  0  0
    3.3825   -4.8757    1.9836 H   0  0  0  0  0  0  0  0  0  0  0  0
    3.0890   -3.3832    2.8958 H   0  0  0  0  0  0  0  0  0  0  0  0
    4.2654   -4.7864   -0.7392 N   0  0  0  0  0  0  0  0  0  0  0  0
    4.2491   -5.5759   -1.9486 C   0  0  0  0  0  0  0  0  0  0  0  0
    4.9552   -5.0189   -0.0308 H   0  0  0  0  0  0  0  0  0  0  0  0
    3.5734   -6.4339   -1.8178 H   0  0  0  0  0  0  0  0  0  0  0  0
    3.8966   -4.9560   -2.7862 H   0  0  0  0  0  0  0  0  0  0  0  0
    5.2651   -5.9388   -2.1631 H   0  0  0  0  0  0  0  0  0  0  0  0
  1  3  1  0  0  0  0
  1  7  1  0  0  0  0
  1  2  2  0  0  0  0
 22 23  1  0  0  0  0
 23 25  1  0  0  0  0
 23 24  2  0  0  0  0
 35 36  1  0  0  0  0
 36 44  1  0  0  0  0
 36 37  2  0  0  0  0
  8  9  1  0  0  0  0
  9 17  1  0  0  0  0
  9 10  2  0  0  0  0
 18 19  1  0  0  0  0
 19 34  1  0  0  0  0
 19 20  2  0  0  0  0
 35 38  1  0  0  0  0
  8 11  1  0  0  0  0
 44 45  1  0  0  0  0
 21 22  1  0  0  0  0
 18 21  1  0  0  0  0
 34 35  1  0  0  0  0
  7  8  1  0  0  0  0
 17 18  1  0  0  0  0
  3  4  1  0  0  0  0
  3  5  1  0  0  0  0
  3  6  1  0  0  0  0
 38 41  1  0  0  0  0
 38 42  1  0  0  0  0
 38 43  1  0  0  0  0
 11 14  1  0  0  0  0
 11 15  1  0  0  0  0
 11 16  1  0  0  0  0
 45 47  1  0  0  0  0
 45 48  1  0  0  0  0
 45 49  1  0  0  0  0
 22 30  1  0  0  0  0
 22 31  1  0  0  0  0
 21 28  1  0  0  0  0
 21 29  1  0  0  0  0
 35 40  1  0  0  0  0
  8 13  1  0  0  0  0
 18 27  1  0  0  0  0
 25 32  1  0  0  0  0
 25 33  1  0  0  0  0
 44 46  1  0  0  0  0
  7 12  1  0  0  0  0
 34 39  1  0  0  0  0
 17 26  1  0  0  0  0
M  END
$$$$

  -OEChem-05262214473D

 49 48  0     1  0  0  0  0  0999 V2000
   -1.9833   -0.0509   -3.3423 C   0  0  0  0  0  0  0  0  0  0  0  0
   -1.6199   -1.0613   -2.7518 O   0  0  0  0  0  0  0  0  0  0  0  0
   -3.3243   -0.0235   -3.9975 C   0  0  0  0  0  0  0  0  0  0  0  0
   -3.2886   -0.3689   -5.0432 H   0  0  0  0  0  0  0  0  0  0  0  0
   -4.0503   -0.6845   -3.4973 H   0  0  0  0  0  0  0  0  0  0  0  0
   -3.8104    0.9645   -4.0351 H   0  0  0  0  0  0  0  0  0  0  0  0
   -1.2607    1.1231   -3.4768 N   0  0  0  0  0  0  0  0  0  0  0  0
    0.0536    1.3115   -2.9213 C   0  0  2  0  0  0  0  0  0  0  0  0
    0.0266    0.8315   -1.4761 C   0  0  0  0  0  0  0  0  0  0  0  0
   -1.0065    0.7530   -0.8146 O   0  0  0  0  0  0  0  0  0  0  0  0
    0.4852    2.7674   -3.0025 C   0  0  0  0  0  0  0  0  0  0  0  0
   -1.6809    1.8924   -3.9952 H   0  0  0  0  0  0  0  0  0  0  0  0
    0.7360    0.6822   -3.5030 H   0  0  0  0  0  0  0  0  0  0  0  0
   -0.1867    3.4133   -2.4256 H   0  0  0  0  0  0  0  0  0  0  0  0
    1.4966    2.9042   -2.6056 H   0  0  0  0  0  0  0  0  0  0  0  0
    0.4754    3.1196   -4.0397 H   0  0  0  0  0  0  0  0  0  0  0  0
    1.2978    0.5411   -0.9947 N   0  0  0  0  0  0  0  0  0  0  0  0
    1.5371    0.0807    0.3489 C   0  0  2  0  0  0  0  0  0  0  0  0
    1.8409   -1.4112    0.2678 C   0  0  0  0  0  0  0  0  0  0  0  0
    1.1583   -2.1983   -0.3845 O   0  0  0  0  0  0  0  0  0  0  0  0
    0.3359    0.3311    1.2694 C   0  0  0  0  0  0  0  0  0  0  0  0
    0.0661    1.8148    1.5274 C   0  0  0  0  0  0  0  0  0  0  0  0
   -1.1363    2.0660    2.4183 C   0  0  0  0  0  0  0  0  0  0  0  0
   -1.8772    1.1813    2.8367 O   0  0  0  0  0  0  0  0  0  0  0  0
   -1.3198    3.4058    2.6853 N   0  0  0  0  0  0  0  0  0  0  0  0
    2.0949    0.6178   -1.6227 H   0  0  0  0  0  0  0  0  0  0  0  0
    2.4283    0.6070    0.7072 H   0  0  0  0  0  0  0  0  0  0  0  0
   -0.5626   -0.1105    0.8178 H   0  0  0  0  0  0  0  0  0  0  0  0
    0.4813   -0.1859    2.2263 H   0  0  0  0  0  0  0  0  0  0  0  0
   -0.1390    2.3075    0.5690 H   0  0  0  0  0  0  0  0  0  0  0  0
    0.9470    2.3010    1.9612 H   0  0  0  0  0  0  0  0  0  0  0  0
   -0.6720    4.0772    2.2865 H   0  0  0  0  0  0  0  0  0  0  0  0
   -2.0798    3.7449    3.2664 H   0  0  0  0  0  0  0  0  0  0  0  0
    2.9324   -1.7628    1.0497 N   0  0  0  0  0  0  0  0  0  0  0  0
    3.4194   -3.1183    1.1686 C   0  0  2  0  0  0  0  0  0  0  0  0
    3.5549   -3.6942   -0.2348 C   0  0  0  0  0  0  0  0  0  0  0  0
    2.9344   -3.2574   -1.2019 O   0  0  0  0  0  0  0  0  0  0  0  0
    2.4872   -3.9687    2.0175 C   0  0  0  0  0  0  0  0  0  0  0  0
    3.4131   -1.0307    1.5641 H   0  0  0  0  0  0  0  0  0  0  0  0
    4.4081   -3.0592    1.6368 H   0  0  0  0  0  0  0  0  0  0  0  0
    1.4917   -4.0394    1.5643 H   0  0  0  0  0  0  0  0  0  0  0  0
    2.8722   -4.9876    2.1303 H   0  0  0  0  0  0  0  0  0  0  0  0
    2.3675   -3.5367    3.0170 H   0  0  0  0  0  0  0  0  0  0  0  0
    4.4174   -4.7809   -0.2719 N   0  0  0  0  0  0  0  0  0  0  0  0
    4.7027   -5.5086   -1.4864 C   0  0  0  0  0  0  0  0  0  0  0  0
    4.9033   -5.0624    0.5745 H   0  0  0  0  0  0  0  0  0  0  0  0
    4.0098   -6.3582   -1.5768 H   0  0  0  0  0  0  0  0  0  0  0  0
    4.5786   -4.8408   -2.3516 H   0  0  0  0  0  0  0  0  0  0  0  0
    5.7373   -5.8811   -1.4561 H   0  0  0  0  0  0  0  0  0  0  0  0
  1  3  1  0  0  0  0
  1  7  1  0  0  0  0
  1  2  2  0  0  0  0
 22 23  1  0  0  0  0
 23 25  1  0  0  0  0
 23 24  2  0  0  0  0
 35 36  1  0  0  0  0
 36 44  1  0  0  0  0
 36 37  2  0  0  0  0
  8  9  1  0  0  0  0
  9 17  1  0  0  0  0
  9 10  2  0  0  0  0
 18 19  1  0  0  0  0
 19 34  1  0  0  0  0
 19 20  2  0  0  0  0
 35 38  1  0  0  0  0
  8 11  1  0  0  0  0
 44 45  1  0  0  0  0
 21 22  1  0  0  0  0
 18 21  1  0  0  0  0
 34 35  1  0  0  0  0
  7  8  1  0  0  0  0
 17 18  1  0  0  0  0
  3  4  1  0  0  0  0
  3  5  1  0  0  0  0
  3  6  1  0  0  0  0
 38 41  1  0  0  0  0
 38 42  1  0  0  0  0
 38 43  1  0  0  0  0
 11 14  1  0  0  0  0
 11 15  1  0  0  0  0
 11 16  1  0  0  0  0
 45 47  1  0  0  0  0
 45 48  1  0  0  0  0
 45 49  1  0  0  0  0
 22 30  1  0  0  0  0
 22 31  1  0  0  0  0
 21 28  1  0  0  0  0
 21 29  1  0  0  0  0
 35 40  1  0  0  0  0
  8 13  1  0  0  0  0
 18 27  1  0  0  0  0
 25 32  1  0  0  0  0
 25 33  1  0  0  0  0
 44 46  1  0  0  0  0
  7 12  1  0  0  0  0
 34 39  1  0  0  0  0
 17 26  1  0  0  0  0
M  END
$$$$

  -OEChem-05262214473D

 49 48  0     1  0  0  0  0  0999 V2000
   -1.9833   -0.0509   -3.3423 C   0  0  0  0  0  0  0  0  0  0  0  0
   -1.6199   -1.0613   -2.7518 O   0  0  0  0  0  0  0  0  0  0  0  0
   -3.3243   -0.0235   -3.9975 C   0  0  0  0  0  0  0  0  0  0  0  0
   -3.2886   -0.3689   -5.0432 H   0  0  0  0  0  0  0  0  0  0  0  0
   -4.0503   -0.6845   -3.4973 H   0  0  0  0  0  0  0  0  0  0  0  0
   -3.8104    0.9645   -4.0351 H   0  0  0  0  0  0  0  0  0  0  0  0
   -1.2607    1.1231   -3.4768 N   0  0  0  0  0  0  0  0  0  0  0  0
    0.0536    1.3115   -2.9213 C   0  0  2  0  0  0  0  0  0  0  0  0
    0.0266    0.8315   -1.4761 C   0  0  0  0  0  0  0  0  0  0  0  0
   -1.0065    0.7530   -0.8146 O   0  0  0  0  0  0  0  0  0  0  0  0
    0.4852    2.7674   -3.0025 C   0  0  0  0  0  0  0  0  0  0  0  0
   -1.6809    1.8924   -3.9952 H   0  0  0  0  0  0  0  0  0  0  0  0
    0.7360    0.6822   -3.5030 H   0  0  0  0  0  0  0  0  0  0  0  0
   -0.1867    3.4133   -2.4256 H   0  0  0  0  0  0  0  0  0  0  0  0
    1.4966    2.9042   -2.6056 H   0  0  0  0  0  0  0  0  0  0  0  0
    0.4754    3.1196   -4.0397 H   0  0  0  0  0  0  0  0  0  0  0  0
    1.2978    0.5411   -0.9947 N   0  0  0  0  0  0  0  0  0  0  0  0
    1.5371    0.0807    0.3489 C   0  0  2  0  0  0  0  0  0  0  0  0
    1.8409   -1.4112    0.2678 C   0  0  0  0  0  0  0  0  0  0  0  0
    1.3404   -2.1507   -0.5770 O   0  0  0  0  0  0  0  0  0  0  0  0
    0.3359    0.3311    1.2694 C   0  0  0  0  0  0  0  0  0  0  0  0
    0.0661    1.8148    1.5274 C   0  0  0  0  0  0  0  0  0  0  0  0
   -1.1363    2.0660    2.4183 C   0  0  0  0  0  0  0  0  0  0  0  0
   -1.8772    1.1813    2.8367 O   0  0  0  0  0  0  0  0  0  0  0  0
   -1.3198    3.4058    2.6853 N   0  0  0  0  0  0  0  0  0  0  0  0
    2.0949    0.6178   -1.6227 H   0  0  0  0  0  0  0  0  0  0  0  0
    2.4283    0.6070    0.7072 H   0  0  0  0  0  0  0  0  0  0  0  0
   -0.5626   -0.1105    0.8178 H   0  0  0  0  0  0  0  0  0  0  0  0
    0.4813   -0.1859    2.2263 H   0  0  0  0  0  0  0  0  0  0  0  0
   -0.1390    2.3075    0.5690 H   0  0  0  0  0  0  0  0  0  0  0  0
    0.9470    2.3010    1.9612 H   0  0  0  0  0  0  0  0  0  0  0  0
   -0.6720    4.0772    2.2865 H   0  0  0  0  0  0  0  0  0  0  0  0
   -2.0798    3.7449    3.2664 H   0  0  0  0  0  0  0  0  0  0  0  0
    2.6959   -1.8235    1.2804 N   0  0  0  0  0  0  0  0  0  0  0  0
    3.1271   -3.1929    1.4461 C   0  0  2  0  0  0  0  0  0  0  0  0
    3.6100   -3.7009    0.0940 C   0  0  0  0  0  0  0  0  0  0  0  0
    3.2582   -3.2039   -0.9739 O   0  0  0  0  0  0  0  0  0  0  0  0
    2.0041   -4.0653    1.9851 C   0  0  0  0  0  0  0  0  0  0  0  0
    3.0356   -1.1279    1.9380 H   0  0  0  0  0  0  0  0  0  0  0  0
    3.9651   -3.1774    2.1516 H   0  0  0  0  0  0  0  0  0  0  0  0
    1.1555   -4.0930    1.2918 H   0  0  0  0  0  0  0  0  0  0  0  0
    2.3405   -5.0962    2.1370 H   0  0  0  0  0  0  0  0  0  0  0  0
    1.6379   -3.6813    2.9433 H   0  0  0  0  0  0  0  0  0  0  0  0
    4.4459   -4.8017    0.2182 N   0  0  0  0  0  0  0  0  0  0  0  0
    5.0247   -5.4738   -0.9217 C   0  0  0  0  0  0  0  0  0  0  0  0
    4.6992   -5.1349    1.1438 H   0  0  0  0  0  0  0  0  0  0  0  0
    4.3713   -6.3035   -1.2295 H   0  0  0  0  0  0  0  0  0  0  0  0
    5.1289   -4.7613   -1.7532 H   0  0  0  0  0  0  0  0  0  0  0  0
    6.0151   -5.8683   -0.6506 H   0  0  0  0  0  0  0  0  0  0  0  0
  1  3  1  0  0  0  0
  1  7  1  0  0  0  0
  1  2  2  0  0  0  0
 22 23  1  0  0  0  0
 23 25  1  0  0  0  0
 23 24  2  0  0  0  0
 35 36  1  0  0  0  0
 36 44  1  0  0  0  0
 36 37  2  0  0  0  0
  8  9  1  0  0  0  0
  9 17  1  0  0  0  0
  9 10  2  0  0  0  0
 18 19  1  0  0  0  0
 19 34  1  0  0  0  0
 19 20  2  0  0  0  0
 35 38  1  0  0  0  0
  8 11  1  0  0  0  0
 44 45  1  0  0  0  0
 21 22  1  0  0  0  0
 18 21  1  0  0  0  0
 34 35  1  0  0  0  0
  7  8  1  0  0  0  0
 17 18  1  0  0  0  0
  3  4  1  0  0  0  0
  3  5  1  0  0  0  0
  3  6  1  0  0  0  0
 38 41  1  0  0  0  0
 38 42  1  0  0  0  0
 38 43  1  0  0  0  0
 11 14  1  0  0  0  0
 11 15  1  0  0  0  0
 11 16  1  0  0  0  0
 45 47  1  0  0  0  0
 45 48  1  0  0  0  0
 45 49  1  0  0  0  0
 22 30  1  0  0  0  0
 22 31  1  0  0  0  0
 21 28  1  0  0  0  0
 21 29  1  0  0  0  0
 35 40  1  0  0  0  0
  8 13  1  0  0  0  0
 18 27  1  0  0  0  0
 25 32  1  0  0  0  0
 25 33  1  0  0  0  0
 44 46  1  0  0  0  0
  7 12  1  0  0  0  0
 34 39  1  0  0  0  0
 17 26  1  0  0  0  0
M  END
$$$$

  -OEChem-05262214473D

 49 48  0     1  0  0  0  0  0999 V2000
   -1.9833   -0.0509   -3.3423 C   0  0  0  0  0  0  0  0  0  0  0  0
   -1.6199   -1.0613   -2.7518 O   0  0  0  0  0  0  0  0  0  0  0  0
   -3.3243   -0.0235   -3.9975 C   0  0  0  0  0  0  0  0  0  0  0  0
   -3.2886   -0.3689   -5.0432 H   0  0  0  0  0  0  0  0  0  0  0  0
   -4.0503   -0.6845   -3.4973 H   0  0  0  0  0  0  0  0  0  0  0  0
   -3.8104    0.9645   -4.0351 H   0  0  0  0  0  0  0  0  0  0  0  0
   -1.2607    1.1231   -3.4768 N   0  0  0  0  0  0  0  0  0  0  0  0
    0.0536    1.3115   -2.9213 C   0  0  2  0  0  0  0  0  0  0  0  0
    0.0266    0.8315   -1.4761 C   0  0  0  0  0  0  0  0  0  0  0  0
   -1.0065    0.7530   -0.8146 O   0  0  0  0  0  0  0  0  0  0  0  0
    0.4852    2.7674   -3.0025 C   0  0  0  0  0  0  0  0  0  0  0  0
   -1.6809    1.8924   -3.9952 H   0  0  0  0  0  0  0  0  0  0  0  0
    0.7360    0.6822   -3.5030 H   0  0  0  0  0  0  0  0  0  0  0  0
   -0.1867    3.4133   -2.4256 H   0  0  0  0  0  0  0  0  0  0  0  0
    1.4966    2.9042   -2.6056 H   0  0  0  0  0  0  0  0  0  0  0  0
    0.4754    3.1196   -4.0397 H   0  0  0  0  0  0  0  0  0  0  0  0
    1.2978    0.5411   -0.9947 N   0  0  0  0  0  0  0  0  0  0  0  0
    1.5371    0.0807    0.3489 C   0  0  2  0  0  0  0  0  0  0  0  0
    1.8409   -1.4112    0.2678 C   0  0  0  0  0  0  0  0  0  0  0  0
    1.5658   -2.0973   -0.7143 O   0  0  0  0  0  0  0  0  0  0  0  0
    0.3359    0.3311    1.2694 C   0  0  0  0  0  0  0  0  0  0  0  0
    0.0661    1.8148    1.5274 C   0  0  0  0  0  0  0  0  0  0  0  0
   -1.1363    2.0660    2.4183 C   0  0  0  0  0  0  0  0  0  0  0  0
   -1.8772    1.1813    2.8367 O   0  0  0  0  0  0  0  0  0  0  0  0
   -1.3198    3.4058    2.6853 N   0  0  0  0  0  0  0  0  0  0  0  0
    2.0949    0.6178   -1.6227 H   0  0  0  0  0  0  0  0  0  0  0  0
    2.4283    0.6070    0.7072 H   0  0  0  0  0  0  0  0  0  0  0  0
   -0.5626   -0.1105    0.8178 H   0  0  0  0  0  0  0  0  0  0  0  0
    0.4813   -0.1859    2.2263 H   0  0  0  0  0  0  0  0  0  0  0  0
   -0.1390    2.3075    0.5690 H   0  0  0  0  0  0  0  0  0  0  0  0
    0.9470    2.3010    1.9612 H   0  0  0  0  0  0  0  0  0  0  0  0
   -0.6720    4.0772    2.2865 H   0  0  0  0  0  0  0  0  0  0  0  0
   -2.0798    3.7449    3.2664 H   0  0  0  0  0  0  0  0  0  0  0  0
    2.4082   -1.8908    1.4402 N   0  0  0  0  0  0  0  0  0  0  0  0
    2.7735   -3.2753    1.6363 C   0  0  2  0  0  0  0  0  0  0  0  0
    3.5798   -3.7250    0.4251 C   0  0  0  0  0  0  0  0  0  0  0  0
    3.5139   -3.1684   -0.6689 O   0  0  0  0  0  0  0  0  0  0  0  0
    1.5443   -4.1503    1.8264 C   0  0  0  0  0  0  0  0  0  0  0  0
    2.5749   -1.2359    2.1984 H   0  0  0  0  0  0  0  0  0  0  0  0
    3.4052   -3.3120    2.5305 H   0  0  0  0  0  0  0  0  0  0  0  0
    0.8991   -4.1261    0.9406 H   0  0  0  0  0  0  0  0  0  0  0  0
    1.8238   -5.1941    2.0033 H   0  0  0  0  0  0  0  0  0  0  0  0
    0.9498   -3.8071    2.6800 H   0  0  0  0  0  0  0  0  0  0  0  0
    4.3491   -4.8475    0.6978 N   0  0  0  0  0  0  0  0  0  0  0  0
    5.1932   -5.4737   -0.2928 C   0  0  0  0  0  0  0  0  0  0  0  0
    4.3570   -5.2315    1.6382 H   0  0  0  0  0  0  0  0  0  0  0  0
    4.6334   -6.2735   -0.7997 H   0  0  0  0  0  0  0  0  0  0  0  0
    5.5099   -4.7230   -1.0318 H   0  0  0  0  0  0  0  0  0  0  0  0
    6.0796   -5.9014    0.1985 H   0  0  0  0  0  0  0  0  0  0  0  0
  1  3  1  0  0  0  0
  1  7  1  0  0  0  0
  1  2  2  0  0  0  0
 22 23  1  0  0  0  0
 23 25  1  0  0  0  0
 23 24  2  0  0  0  0
 35 36  1  0  0  0  0
 36 44  1  0  0  0  0
 36 37  2  0  0  0  0
  8  9  1  0  0  0  0
  9 17  1  0  0  0  0
  9 10  2  0  0  0  0
 18 19  1  0  0  0  0
 19 34  1  0  0  0  0
 19 20  2  0  0  0  0
 35 38  1  0  0  0  0
  8 11  1  0  0  0  0
 44 45  1  0  0  0  0
 21 22  1  0  0  0  0
 18 21  1  0  0  0  0
 34 35  1  0  0  0  0
  7  8  1  0  0  0  0
 17 18  1  0  0  0  0
  3  4  1  0  0  0  0
  3  5  1  0  0  0  0
  3  6  1  0  0  0  0
 38 41  1  0  0  0  0
 38 42  1  0  0  0  0
 38 43  1  0  0  0  0
 11 14  1  0  0  0  0
 11 15  1  0  0  0  0
 11 16  1  0  0  0  0
 45 47  1  0  0  0  0
 45 48  1  0  0  0  0
 45 49  1  0  0  0  0
 22 30  1  0  0  0  0
 22 31  1  0  0  0  0
 21 28  1  0  0  0  0
 21 29  1  0  0  0  0
 35 40  1  0  0  0  0
  8 13  1  0  0  0  0
 18 27  1  0  0  0  0
 25 32  1  0  0  0  0
 25 33  1  0  0  0  0
 44 46  1  0  0  0  0
  7 12  1  0  0  0  0
 34 39  1  0  0  0  0
 17 26  1  0  0  0  0
M  END
$$$$

  -OEChem-05262214473D

 49 48  0     1  0  0  0  0  0999 V2000
   -1.9833   -0.0509   -3.3423 C   0  0  0  0  0  0  0  0  0  0  0  0
   -1.6199   -1.0613   -2.7518 O   0  0  0  0  0  0  0  0  0  0  0  0
   -3.3243   -0.0235   -3.9975 C   0  0  0  0  0  0  0  0  0  0  0  0
   -3.2886   -0.3689   -5.0432 H   0  0  0  0  0  0  0  0  0  0  0  0
   -4.0503   -0.6845   -3.4973 H   0  0  0  0  0  0  0  0  0  0  0  0
   -3.8104    0.9645   -4.0351 H   0  0  0  0  0  0  0  0  0  0  0  0
   -1.2607    1.1231   -3.4768 N   0  0  0  0  0  0  0  0  0  0  0  0
    0.0536    1.3115   -2.9213 C   0  0  2  0  0  0  0  0  0  0  0  0
    0.0266    0.8315   -1.4761 C   0  0  0  0  0  0  0  0  0  0  0  0
   -1.0065    0.7530   -0.8146 O   0  0  0  0  0  0  0  0  0  0  0  0
    0.4852    2.7674   -3.0025 C   0  0  0  0  0  0  0  0  0  0  0  0
   -1.6809    1.8924   -3.9952 H   0  0  0  0  0  0  0  0  0  0  0  0
    0.7360    0.6822   -3.5030 H   0  0  0  0  0  0  0  0  0  0  0  0
   -0.1867    3.4133   -2.4256 H   0  0  0  0  0  0  0  0  0  0  0  0
    1.4966    2.9042   -2.6056 H   0  0  0  0  0  0  0  0  0  0  0  0
    0.4754    3.1196   -4.0397 H   0  0  0  0  0  0  0  0  0  0  0  0
    1.2978    0.5411   -0.9947 N   0  0  0  0  0  0  0  0  0  0  0  0
    1.5371    0.0807    0.3489 C   0  0  2  0  0  0  0  0  0  0  0  0
    2.2000   -1.2884    0.2459 C   0  0  0  0  0  0  0  0  0  0  0  0
    2.4139   -1.8490   -0.8270 O   0  0  0  0  0  0  0  0  0  0  0  0
    0.2435   -0.0134    1.1678 C   0  0  0  0  0  0  0  0  0  0  0  0
   -0.3982    1.3466    1.4497 C   0  0  0  0  0  0  0  0  0  0  0  0
   -1.6909    1.2546    2.2390 C   0  0  0  0  0  0  0  0  0  0  0  0
   -2.2244    0.1972    2.5614 O   0  0  0  0  0  0  0  0  0  0  0  0
   -2.2150    2.4953    2.5327 N   0  0  0  0  0  0  0  0  0  0  0  0
    2.0949    0.6178   -1.6227 H   0  0  0  0  0  0  0  0  0  0  0  0
    2.2430    0.7855    0.8013 H   0  0  0  0  0  0  0  0  0  0  0  0
   -0.4828   -0.6328    0.6247 H   0  0  0  0  0  0  0  0  0  0  0  0
    0.4357   -0.5305    2.1163 H   0  0  0  0  0  0  0  0  0  0  0  0
   -0.6422    1.8260    0.4936 H   0  0  0  0  0  0  0  0  0  0  0  0
    0.3016    2.0060    1.9751 H   0  0  0  0  0  0  0  0  0  0  0  0
   -1.7211    3.3226    2.2148 H   0  0  0  0  0  0  0  0  0  0  0  0
   -3.0772    2.6109    3.0555 H   0  0  0  0  0  0  0  0  0  0  0  0
    2.4764   -1.8276    1.4946 N   0  0  0  0  0  0  0  0  0  0  0  0
    3.0848   -3.1251    1.6816 C   0  0  2  0  0  0  0  0  0  0  0  0
    4.3081   -3.2056    0.7779 C   0  0  0  0  0  0  0  0  0  0  0  0
    4.4506   -2.5050   -0.2220 O   0  0  0  0  0  0  0  0  0  0  0  0
    2.1048   -4.2457    1.3708 C   0  0  0  0  0  0  0  0  0  0  0  0
    2.2392   -1.2829    2.3184 H   0  0  0  0  0  0  0  0  0  0  0  0
    3.3999   -3.1787    2.7294 H   0  0  0  0  0  0  0  0  0  0  0  0
    1.7778   -4.2084    0.3253 H   0  0  0  0  0  0  0  0  0  0  0  0
    2.5583   -5.2278    1.5404 H   0  0  0  0  0  0  0  0  0  0  0  0
    1.2122   -4.1688    2.0011 H   0  0  0  0  0  0  0  0  0  0  0  0
    5.2018   -4.1820    1.1952 N   0  0  0  0  0  0  0  0  0  0  0  0
    6.4343   -4.4608    0.4958 C   0  0  0  0  0  0  0  0  0  0  0  0
    5.0117   -4.7024    2.0465 H   0  0  0  0  0  0  0  0  0  0  0  0
    6.2671   -5.2640   -0.2370 H   0  0  0  0  0  0  0  0  0  0  0  0
    6.7732   -3.5536   -0.0258 H   0  0  0  0  0  0  0  0  0  0  0  0
    7.2018   -4.7771    1.2175 H   0  0  0  0  0  0  0  0  0  0  0  0
  1  3  1  0  0  0  0
  1  7  1  0  0  0  0
  1  2  2  0  0  0  0
 22 23  1  0  0  0  0
 23 25  1  0  0  0  0
 23 24  2  0  0  0  0
 35 36  1  0  0  0  0
 36 44  1  0  0  0  0
 36 37  2  0  0  0  0
  8  9  1  0  0  0  0
  9 17  1  0  0  0  0
  9 10  2  0  0  0  0
 18 19  1  0  0  0  0
 19 34  1  0  0  0  0
 19 20  2  0  0  0  0
 35 38  1  0  0  0  0
  8 11  1  0  0  0  0
 44 45  1  0  0  0  0
 21 22  1  0  0  0  0
 18 21  1  0  0  0  0
 34 35  1  0  0  0  0
  7  8  1  0  0  0  0
 17 18  1  0  0  0  0
  3  4  1  0  0  0  0
  3  5  1  0  0  0  0
  3  6  1  0  0  0  0
 38 41  1  0  0  0  0
 38 42  1  0  0  0  0
 38 43  1  0  0  0  0
 11 14  1  0  0  0  0
 11 15  1  0  0  0  0
 11 16  1  0  0  0  0
 45 47  1  0  0  0  0
 45 48  1  0  0  0  0
 45 49  1  0  0  0  0
 22 30  1  0  0  0  0
 22 31  1  0  0  0  0
 21 28  1  0  0  0  0
 21 29  1  0  0  0  0
 35 40  1  0  0  0  0
  8 13  1  0  0  0  0
 18 27  1  0  0  0  0
 25 32  1  0  0  0  0
 25 33  1  0  0  0  0
 44 46  1  0  0  0  0
  7 12  1  0  0  0  0
 34 39  1  0  0  0  0
 17 26  1  0  0  0  0
M  END
$$$$

  -OEChem-05262214473D

 49 48  0     1  0  0  0  0  0999 V2000
   -1.9833   -0.0509   -3.3423 C   0  0  0  0  0  0  0  0  0  0  0  0
   -1.6199   -1.0613   -2.7518 O   0  0  0  0  0  0  0  0  0  0  0  0
   -3.3243   -0.0235   -3.9975 C   0  0  0  0  0  0  0  0  0  0  0  0
   -3.2886   -0.3689   -5.0432 H   0  0  0  0  0  0  0  0  0  0  0  0
   -4.0503   -0.6845   -3.4973 H   0  0  0  0  0  0  0  0  0  0  0  0
   -3.8104    0.9645   -4.0351 H   0  0  0  0  0  0  0  0  0  0  0  0
   -1.2607    1.1231   -3.4768 N   0  0  0  0  0  0  0  0  0  0  0  0
    0.0536    1.3115   -2.9213 C   0  0  2  0  0  0  0  0  0  0  0  0
    0.0266    0.8315   -1.4761 C   0  0  0  0  0  0  0  0  0  0  0  0
   -1.0065    0.7530   -0.8146 O   0  0  0  0  0  0  0  0  0  0  0  0
    0.4852    2.7674   -3.0025 C   0  0  0  0  0  0  0  0  0  0  0  0
   -1.6809    1.8924   -3.9952 H   0  0  0  0  0  0  0  0  0  0  0  0
    0.7360    0.6822   -3.5030 H   0  0  0  0  0  0  0  0  0  0  0  0
   -0.1867    3.4133   -2.4256 H   0  0  0  0  0  0  0  0  0  0  0  0
    1.4966    2.9042   -2.6056 H   0  0  0  0  0  0  0  0  0  0  0  0
    0.4754    3.1196   -4.0397 H   0  0  0  0  0  0  0  0  0  0  0  0
    1.2978    0.5411   -0.9947 N   0  0  0  0  0  0  0  0  0  0  0  0
    1.5371    0.0807    0.3489 C   0  0  2  0  0  0  0  0  0  0  0  0
    2.2000   -1.2884    0.2459 C   0  0  0  0  0  0  0  0  0  0  0  0
    2.6561   -1.7334   -0.8053 O   0  0  0  0  0  0  0  0  0  0  0  0
    0.2435   -0.0134    1.1678 C   0  0  0  0  0  0  0  0  0  0  0  0
   -0.3982    1.3466    1.4497 C   0  0  0  0  0  0  0  0  0  0  0  0
   -1.6909    1.2546    2.2390 C   0  0  0  0  0  0  0  0  0  0  0  0
   -2.2244    0.1972    2.5614 O   0  0  0  0  0  0  0  0  0  0  0  0
   -2.2150    2.4953    2.5327 N   0  0  0  0  0  0  0  0  0  0  0  0
    2.0949    0.6178   -1.6227 H   0  0  0  0  0  0  0  0  0  0  0  0
    2.2430    0.7855    0.8013 H   0  0  0  0  0  0  0  0  0  0  0  0
   -0.4828   -0.6328    0.6247 H   0  0  0  0  0  0  0  0  0  0  0  0
    0.4357   -0.5305    2.1163 H   0  0  0  0  0  0  0  0  0  0  0  0
   -0.6422    1.8260    0.4936 H   0  0  0  0  0  0  0  0  0  0  0  0
    0.3016    2.0060    1.9751 H   0  0  0  0  0  0  0  0  0  0  0  0
   -1.7211    3.3226    2.2148 H   0  0  0  0  0  0  0  0  0  0  0  0
   -3.0772    2.6109    3.0555 H   0  0  0  0  0  0  0  0  0  0  0  0
    2.1750   -1.9705    1.4544 N   0  0  0  0  0  0  0  0  0  0  0  0
    2.7175   -3.2989    1.6271 C   0  0  2  0  0  0  0  0  0  0  0  0
    4.1176   -3.3167    1.0280 C   0  0  0  0  0  0  0  0  0  0  0  0
    4.4925   -2.5146    0.1752 O   0  0  0  0  0  0  0  0  0  0  0  0
    1.8324   -4.3475    0.9717 C   0  0  0  0  0  0  0  0  0  0  0  0
    1.7543   -1.5130    2.2578 H   0  0  0  0  0  0  0  0  0  0  0  0
    2.7791   -3.4775    2.7062 H   0  0  0  0  0  0  0  0  0  0  0  0
    1.7587   -4.1849   -0.1098 H   0  0  0  0  0  0  0  0  0  0  0  0
    2.2298   -5.3559    1.1279 H   0  0  0  0  0  0  0  0  0  0  0  0
    0.8178   -4.3133    1.3829 H   0  0  0  0  0  0  0  0  0  0  0  0
    4.8852   -4.3602    1.5260 N   0  0  0  0  0  0  0  0  0  0  0  0
    6.2457   -4.5979    1.1036 C   0  0  0  0  0  0  0  0  0  0  0  0
    4.4995   -4.9654    2.2449 H   0  0  0  0  0  0  0  0  0  0  0  0
    6.2507   -5.3097    0.2650 H   0  0  0  0  0  0  0  0  0  0  0  0
    6.7007   -3.6494    0.7822 H   0  0  0  0  0  0  0  0  0  0  0  0
    6.8222   -5.0155    1.9423 H   0  0  0  0  0  0  0  0  0  0  0  0
  1  3  1  0  0  0  0
  1  7  1  0  0  0  0
  1  2  2  0  0  0  0
 22 23  1  0  0  0  0
 23 25  1  0  0  0  0
 23 24  2  0  0  0  0
 35 36  1  0  0  0  0
 36 44  1  0  0  0  0
 36 37  2  0  0  0  0
  8  9  1  0  0  0  0
  9 17  1  0  0  0  0
  9 10  2  0  0  0  0
 18 19  1  0  0  0  0
 19 34  1  0  0  0  0
 19 20  2  0  0  0  0
 35 38  1  0  0  0  0
  8 11  1  0  0  0  0
 44 45  1  0  0  0  0
 21 22  1  0  0  0  0
 18 21  1  0  0  0  0
 34 35  1  0  0  0  0
  7  8  1  0  0  0  0
 17 18  1  0  0  0  0
  3  4  1  0  0  0  0
  3  5  1  0  0  0  0
  3  6  1  0  0  0  0
 38 41  1  0  0  0  0
 38 42  1  0  0  0  0
 38 43  1  0  0  0  0
 11 14  1  0  0  0  0
 11 15  1  0  0  0  0
 11 16  1  0  0  0  0
 45 47  1  0  0  0  0
 45 48  1  0  0  0  0
 45 49  1  0  0  0  0
 22 30  1  0  0  0  0
 22 31  1  0  0  0  0
 21 28  1  0  0  0  0
 21 29  1  0  0  0  0
 35 40  1  0  0  0  0
  8 13  1  0  0  0  0
 18 27  1  0  0  0  0
 25 32  1  0  0  0  0
 25 33  1  0  0  0  0
 44 46  1  0  0  0  0
  7 12  1  0  0  0  0
 34 39  1  0  0  0  0
 17 26  1  0  0  0  0
M  END
$$$$

  -OEChem-05262214473D

 49 48  0     1  0  0  0  0  0999 V2000
   -1.9833   -0.0509   -3.3423 C   0  0  0  0  0  0  0  0  0  0  0  0
   -1.6199   -1.0613   -2.7518 O   0  0  0  0  0  0  0  0  0  0  0  0
   -3.3243   -0.0235   -3.9975 C   0  0  0  0  0  0  0  0  0  0  0  0
   -3.2886   -0.3689   -5.0432 H   0  0  0  0  0  0  0  0  0  0  0  0
   -4.0503   -0.6845   -3.4973 H   0  0  0  0  0  0  0  0  0  0  0  0
   -3.8104    0.9645   -4.0351 H   0  0  0  0  0  0  0  0  0  0  0  0
   -1.2607    1.1231   -3.4768 N   0  0  0  0  0  0  0  0  0  0  0  0
    0.0536    1.3115   -2.9213 C   0  0  2  0  0  0  0  0  0  0  0  0
    0.0266    0.8315   -1.4761 C   0  0  0  0  0  0  0  0  0  0  0  0
   -1.0065    0.7530   -0.8146 O   0  0  0  0  0  0  0  0  0  0  0  0
    0.4852    2.7674   -3.0025 C   0  0  0  0  0  0  0  0  0  0  0  0
   -1.6809    1.8924   -3.9952 H   0  0  0  0  0  0  0  0  0  0  0  0
    0.7360    0.6822   -3.5030 H   0  0  0  0  0  0  0  0  0  0  0  0
   -0.1867    3.4133   -2.4256 H   0  0  0  0  0  0  0  0  0  0  0  0
    1.4966    2.9042   -2.6056 H   0  0  0  0  0  0  0  0  0  0  0  0
    0.4754    3.1196   -4.0397 H   0  0  0  0  0  0  0  0  0  0  0  0
    1.2978    0.5411   -0.9947 N   0  0  0  0  0  0  0  0  0  0  0  0
    1.5371    0.0807    0.3489 C   0  0  2  0  0  0  0  0  0  0  0  0
    2.2000   -1.2884    0.2459 C   0  0  0  0  0  0  0  0  0  0  0  0
    2.8870   -1.6283   -0.7151 O   0  0  0  0  0  0  0  0  0  0  0  0
    0.2435   -0.0134    1.1678 C   0  0  0  0  0  0  0  0  0  0  0  0
   -0.3982    1.3466    1.4497 C   0  0  0  0  0  0  0  0  0  0  0  0
   -1.6909    1.2546    2.2390 C   0  0  0  0  0  0  0  0  0  0  0  0
   -2.2244    0.1972    2.5614 O   0  0  0  0  0  0  0  0  0  0  0  0
   -2.2150    2.4953    2.5327 N   0  0  0  0  0  0  0  0  0  0  0  0
    2.0949    0.6178   -1.6227 H   0  0  0  0  0  0  0  0  0  0  0  0
    2.2430    0.7855    0.8013 H   0  0  0  0  0  0  0  0  0  0  0  0
   -0.4828   -0.6328    0.6247 H   0  0  0  0  0  0  0  0  0  0  0  0
    0.4357   -0.5305    2.1163 H   0  0  0  0  0  0  0  0  0  0  0  0
   -0.6422    1.8260    0.4936 H   0  0  0  0  0  0  0  0  0  0  0  0
    0.3016    2.0060    1.9751 H   0  0  0  0  0  0  0  0  0  0  0  0
   -1.7211    3.3226    2.2148 H   0  0  0  0  0  0  0  0  0  0  0  0
   -3.0772    2.6109    3.0555 H   0  0  0  0  0  0  0  0  0  0  0  0
    1.8908   -2.0987    1.3295 N   0  0  0  0  0  0  0  0  0  0  0  0
    2.3724   -3.4541    1.4696 C   0  0  2  0  0  0  0  0  0  0  0  0
    3.8736   -3.4487    1.2128 C   0  0  0  0  0  0  0  0  0  0  0  0
    4.4405   -2.5693    0.5676 O   0  0  0  0  0  0  0  0  0  0  0  0
    1.6604   -4.3962    0.5114 C   0  0  0  0  0  0  0  0  0  0  0  0
    1.2961   -1.7201    2.0607 H   0  0  0  0  0  0  0  0  0  0  0  0
    2.1797   -3.7527    2.5059 H   0  0  0  0  0  0  0  0  0  0  0  0
    1.8418   -4.1129   -0.5318 H   0  0  0  0  0  0  0  0  0  0  0  0
    2.0060   -5.4274    0.6387 H   0  0  0  0  0  0  0  0  0  0  0  0
    0.5779   -4.3764    0.6778 H   0  0  0  0  0  0  0  0  0  0  0  0
    4.4993   -4.5640    1.7520 N   0  0  0  0  0  0  0  0  0  0  0  0
    5.9198   -4.7954    1.6315 C   0  0  0  0  0  0  0  0  0  0  0  0
    3.9539   -5.2328    2.2878 H   0  0  0  0  0  0  0  0  0  0  0  0
    6.1175   -5.4100    0.7409 H   0  0  0  0  0  0  0  0  0  0  0  0
    6.4413   -3.8317    1.5349 H   0  0  0  0  0  0  0  0  0  0  0  0
    6.2829   -5.3207    2.5272 H   0  0  0  0  0  0  0  0  0  0  0  0
  1  3  1  0  0  0  0
  1  7  1  0  0  0  0
  1  2  2  0  0  0  0
 22 23  1  0  0  0  0
 23 25  1  0  0  0  0
 23 24  2  0  0  0  0
 35 36  1  0  0  0  0
 36 44  1  0  0  0  0
 36 37  2  0  0  0  0
  8  9  1  0  0  0  0
  9 17  1  0  0  0  0
  9 10  2  0  0  0  0
 18 19  1  0  0  0  0
 19 34  1  0  0  0  0
 19 20  2  0  0  0  0
 35 38  1  0  0  0  0
  8 11  1  0  0  0  0
 44 45  1  0  0  0  0
 21 22  1  0  0  0  0
 18 21  1  0  0  0  0
 34 35  1  0  0  0  0
  7  8  1  0  0  0  0
 17 18  1  0  0  0  0
  3  4  1  0  0  0  0
  3  5  1  0  0  0  0
  3  6  1  0  0  0  0
 38 41  1  0  0  0  0
 38 42  1  0  0  0  0
 38 43  1  0  0  0  0
 11 14  1  0  0  0  0
 11 15  1  0  0  0  0
 11 16  1  0  0  0  0
 45 47  1  0  0  0  0
 45 48  1  0  0  0  0
 45 49  1  0  0  0  0
 22 30  1  0  0  0  0
 22 31  1  0  0  0  0
 21 28  1  0  0  0  0
 21 29  1  0  0  0  0
 35 40  1  0  0  0  0
  8 13  1  0  0  0  0
 18 27  1  0  0  0  0
 25 32  1  0  0  0  0
 25 33  1  0  0  0  0
 44 46  1  0  0  0  0
  7 12  1  0  0  0  0
 34 39  1  0  0  0  0
 17 26  1  0  0  0  0
M  END
$$$$

  -OEChem-05262214473D

 49 48  0     1  0  0  0  0  0999 V2000
   -1.9833   -0.0509   -3.3423 C   0  0  0  0  0  0  0  0  0  0  0  0
   -1.6199   -1.0613   -2.7518 O   0  0  0  0  0  0  0  0  0  0  0  0
   -3.3243   -0.0235   -3.9975 C   0  0  0  0  0  0  0  0  0  0  0  0
   -3.2886   -0.3689   -5.0432 H   0  0  0  0  0  0  0  0  0  0  0  0
   -4.0503   -0.6845   -3.4973 H   0  0  0  0  0  0  0  0  0  0  0  0
   -3.8104    0.9645   -4.0351 H   0  0  0  0  0  0  0  0  0  0  0  0
   -1.2607    1.1231   -3.4768 N   0  0  0  0  0  0  0  0  0  0  0  0
    0.0536    1.3115   -2.9213 C   0  0  2  0  0  0  0  0  0  0  0  0
    0.0266    0.8315   -1.4761 C   0  0  0  0  0  0  0  0  0  0  0  0
   -1.0065    0.7530   -0.8146 O   0  0  0  0  0  0  0  0  0  0  0  0
    0.4852    2.7674   -3.0025 C   0  0  0  0  0  0  0  0  0  0  0  0
   -1.6809    1.8924   -3.9952 H   0  0  0  0  0  0  0  0  0  0  0  0
    0.7360    0.6822   -3.5030 H   0  0  0  0  0  0  0  0  0  0  0  0
   -0.1867    3.4133   -2.4256 H   0  0  0  0  0  0  0  0  0  0  0  0
    1.4966    2.9042   -2.6056 H   0  0  0  0  0  0  0  0  0  0  0  0
    0.4754    3.1196   -4.0397 H   0  0  0  0  0  0  0  0  0  0  0  0
    1.2978    0.5411   -0.9947 N   0  0  0  0  0  0  0  0  0  0  0  0
    1.5371    0.0807    0.3489 C   0  0  2  0  0  0  0  0  0  0  0  0
    2.2000   -1.2884    0.2459 C   0  0  0  0  0  0  0  0  0  0  0  0
    3.0909   -1.5411   -0.5625 O   0  0  0  0  0  0  0  0  0  0  0  0
    0.2435   -0.0134    1.1678 C   0  0  0  0  0  0  0  0  0  0  0  0
   -0.3982    1.3466    1.4497 C   0  0  0  0  0  0  0  0  0  0  0  0
   -1.6909    1.2546    2.2390 C   0  0  0  0  0  0  0  0  0  0  0  0
   -2.2244    0.1972    2.5614 O   0  0  0  0  0  0  0  0  0  0  0  0
   -2.2150    2.4953    2.5327 N   0  0  0  0  0  0  0  0  0  0  0  0
    2.0949    0.6178   -1.6227 H   0  0  0  0  0  0  0  0  0  0  0  0
    2.2430    0.7855    0.8013 H   0  0  0  0  0  0  0  0  0  0  0  0
   -0.4828   -0.6328    0.6247 H   0  0  0  0  0  0  0  0  0  0  0  0
    0.4357   -0.5305    2.1163 H   0  0  0  0  0  0  0  0  0  0  0  0
   -0.6422    1.8260    0.4936 H   0  0  0  0  0  0  0  0  0  0  0  0
    0.3016    2.0060    1.9751 H   0  0  0  0  0  0  0  0  0  0  0  0
   -1.7211    3.3226    2.2148 H   0  0  0  0  0  0  0  0  0  0  0  0
   -3.0772    2.6109    3.0555 H   0  0  0  0  0  0  0  0  0  0  0  0
    1.6430   -2.2035    1.1283 N   0  0  0  0  0  0  0  0  0  0  0  0
    2.0729   -3.5803    1.2198 C   0  0  2  0  0  0  0  0  0  0  0  0
    3.5926   -3.5928    1.3197 C   0  0  0  0  0  0  0  0  0  0  0  0
    4.2982   -2.6654    0.9284 O   0  0  0  0  0  0  0  0  0  0  0  0
    1.6003   -4.3884    0.0214 C   0  0  0  0  0  0  0  0  0  0  0  0
    0.8957   -1.8899    1.7405 H   0  0  0  0  0  0  0  0  0  0  0  0
    1.6424   -3.9854    2.1421 H   0  0  0  0  0  0  0  0  0  0  0  0
    2.0214   -3.9973   -0.9120 H   0  0  0  0  0  0  0  0  0  0  0  0
    1.9023   -5.4375    0.1062 H   0  0  0  0  0  0  0  0  0  0  0  0
    0.5090   -4.3538   -0.0661 H   0  0  0  0  0  0  0  0  0  0  0  0
    4.0705   -4.7796    1.8576 N   0  0  0  0  0  0  0  0  0  0  0  0
    5.4789   -5.0399    2.0434 C   0  0  0  0  0  0  0  0  0  0  0  0
    3.4123   -5.4863    2.1724 H   0  0  0  0  0  0  0  0  0  0  0  0
    5.8764   -5.5582    1.1583 H   0  0  0  0  0  0  0  0  0  0  0  0
    6.0125   -4.0880    2.1813 H   0  0  0  0  0  0  0  0  0  0  0  0
    5.6207   -5.6718    2.9326 H   0  0  0  0  0  0  0  0  0  0  0  0
  1  3  1  0  0  0  0
  1  7  1  0  0  0  0
  1  2  2  0  0  0  0
 22 23  1  0  0  0  0
 23 25  1  0  0  0  0
 23 24  2  0  0  0  0
 35 36  1  0  0  0  0
 36 44  1  0  0  0  0
 36 37  2  0  0  0  0
  8  9  1  0  0  0  0
  9 17  1  0  0  0  0
  9 10  2  0  0  0  0
 18 19  1  0  0  0  0
 19 34  1  0  0  0  0
 19 20  2  0  0  0  0
 35 38  1  0  0  0  0
  8 11  1  0  0  0  0
 44 45  1  0  0  0  0
 21 22  1  0  0  0  0
 18 21  1  0  0  0  0
 34 35  1  0  0  0  0
  7  8  1  0  0  0  0
 17 18  1  0  0  0  0
  3  4  1  0  0  0  0
  3  5  1  0  0  0  0
  3  6  1  0  0  0  0
 38 41  1  0  0  0  0
 38 42  1  0  0  0  0
 38 43  1  0  0  0  0
 11 14  1  0  0  0  0
 11 15  1  0  0  0  0
 11 16  1  0  0  0  0
 45 47  1  0  0  0  0
 45 48  1  0  0  0  0
 45 49  1  0  0  0  0
 22 30  1  0  0  0  0
 22 31  1  0  0  0  0
 21 28  1  0  0  0  0
 21 29  1  0  0  0  0
 35 40  1  0  0  0  0
  8 13  1  0  0  0  0
 18 27  1  0  0  0  0
 25 32  1  0  0  0  0
 25 33  1  0  0  0  0
 44 46  1  0  0  0  0
  7 12  1  0  0  0  0
 34 39  1  0  0  0  0
 17 26  1  0  0  0  0
M  END
$$$$

  -OEChem-05262214473D

 49 48  0     1  0  0  0  0  0999 V2000
   -1.9833   -0.0509   -3.3423 C   0  0  0  0  0  0  0  0  0  0  0  0
   -1.6199   -1.0613   -2.7518 O   0  0  0  0  0  0  0  0  0  0  0  0
   -3.3243   -0.0235   -3.9975 C   0  0  0  0  0  0  0  0  0  0  0  0
   -3.2886   -0.3689   -5.0432 H   0  0  0  0  0  0  0  0  0  0  0  0
   -4.0503   -0.6845   -3.4973 H   0  0  0  0  0  0  0  0  0  0  0  0
   -3.8104    0.9645   -4.0351 H   0  0  0  0  0  0  0  0  0  0  0  0
   -1.2607    1.1231   -3.4768 N   0  0  0  0  0  0  0  0  0  0  0  0
    0.0536    1.3115   -2.9213 C   0  0  2  0  0  0  0  0  0  0  0  0
    0.0266    0.8315   -1.4761 C   0  0  0  0  0  0  0  0  0  0  0  0
   -1.0065    0.7530   -0.8146 O   0  0  0  0  0  0  0  0  0  0  0  0
    0.4852    2.7674   -3.0025 C   0  0  0  0  0  0  0  0  0  0  0  0
   -1.6809    1.8924   -3.9952 H   0  0  0  0  0  0  0  0  0  0  0  0
    0.7360    0.6822   -3.5030 H   0  0  0  0  0  0  0  0  0  0  0  0
   -0.1867    3.4133   -2.4256 H   0  0  0  0  0  0  0  0  0  0  0  0
    1.4966    2.9042   -2.6056 H   0  0  0  0  0  0  0  0  0  0  0  0
    0.4754    3.1196   -4.0397 H   0  0  0  0  0  0  0  0  0  0  0  0
    1.2978    0.5411   -0.9947 N   0  0  0  0  0  0  0  0  0  0  0  0
    1.5371    0.0807    0.3489 C   0  0  2  0  0  0  0  0  0  0  0  0
    2.2000   -1.2884    0.2459 C   0  0  0  0  0  0  0  0  0  0  0  0
    3.2539   -1.4776   -0.3579 O   0  0  0  0  0  0  0  0  0  0  0  0
    0.2435   -0.0134    1.1678 C   0  0  0  0  0  0  0  0  0  0  0  0
   -0.3982    1.3466    1.4497 C   0  0  0  0  0  0  0  0  0  0  0  0
   -1.6909    1.2546    2.2390 C   0  0  0  0  0  0  0  0  0  0  0  0
   -2.2244    0.1972    2.5614 O   0  0  0  0  0  0  0  0  0  0  0  0
   -2.2150    2.4953    2.5327 N   0  0  0  0  0  0  0  0  0  0  0  0
    2.0949    0.6178   -1.6227 H   0  0  0  0  0  0  0  0  0  0  0  0
    2.2430    0.7855    0.8013 H   0  0  0  0  0  0  0  0  0  0  0  0
   -0.4828   -0.6328    0.6247 H   0  0  0  0  0  0  0  0  0  0  0  0
    0.4357   -0.5305    2.1163 H   0  0  0  0  0  0  0  0  0  0  0  0
   -0.6422    1.8260    0.4936 H   0  0  0  0  0  0  0  0  0  0  0  0
    0.3016    2.0060    1.9751 H   0  0  0  0  0  0  0  0  0  0  0  0
   -1.7211    3.3226    2.2148 H   0  0  0  0  0  0  0  0  0  0  0  0
   -3.0772    2.6109    3.0555 H   0  0  0  0  0  0  0  0  0  0  0  0
    1.4486   -2.2778    0.8646 N   0  0  0  0  0  0  0  0  0  0  0  0
    1.8395   -3.6689    0.8947 C   0  0  2  0  0  0  0  0  0  0  0  0
    3.2938   -3.7391    1.3414 C   0  0  0  0  0  0  0  0  0  0  0  0
    4.0751   -2.7963    1.2330 O   0  0  0  0  0  0  0  0  0  0  0  0
    1.6562   -4.3247   -0.4651 C   0  0  0  0  0  0  0  0  0  0  0  0
    0.5803   -2.0108    1.3190 H   0  0  0  0  0  0  0  0  0  0  0  0
    1.2039   -4.1599    1.6396 H   0  0  0  0  0  0  0  0  0  0  0  0
    2.2852   -3.8461   -1.2245 H   0  0  0  0  0  0  0  0  0  0  0  0
    1.9258   -5.3856   -0.4335 H   0  0  0  0  0  0  0  0  0  0  0  0
    0.6157   -4.2470   -0.7982 H   0  0  0  0  0  0  0  0  0  0  0  0
    3.6280   -4.9922    1.8357 N   0  0  0  0  0  0  0  0  0  0  0  0
    4.9530   -5.3147    2.3113 C   0  0  0  0  0  0  0  0  0  0  0  0
    2.9115   -5.7088    1.9065 H   0  0  0  0  0  0  0  0  0  0  0  0
    5.5440   -5.7440    1.4888 H   0  0  0  0  0  0  0  0  0  0  0  0
    5.4437   -4.4007    2.6771 H   0  0  0  0  0  0  0  0  0  0  0  0
    4.8806   -6.0450    3.1307 H   0  0  0  0  0  0  0  0  0  0  0  0
  1  3  1  0  0  0  0
  1  7  1  0  0  0  0
  1  2  2  0  0  0  0
 22 23  1  0  0  0  0
 23 25  1  0  0  0  0
 23 24  2  0  0  0  0
 35 36  1  0  0  0  0
 36 44  1  0  0  0  0
 36 37  2  0  0  0  0
  8  9  1  0  0  0  0
  9 17  1  0  0  0  0
  9 10  2  0  0  0  0
 18 19  1  0  0  0  0
 19 34  1  0  0  0  0
 19 20  2  0  0  0  0
 35 38  1  0  0  0  0
  8 11  1  0  0  0  0
 44 45  1  0  0  0  0
 21 22  1  0  0  0  0
 18 21  1  0  0  0  0
 34 35  1  0  0  0  0
  7  8  1  0  0  0  0
 17 18  1  0  0  0  0
  3  4  1  0  0  0  0
  3  5  1  0  0  0  0
  3  6  1  0  0  0  0
 38 41  1  0  0  0  0
 38 42  1  0  0  0  0
 38 43  1  0  0  0  0
 11 14  1  0  0  0  0
 11 15  1  0  0  0  0
 11 16  1  0  0  0  0
 45 47  1  0  0  0  0
 45 48  1  0  0  0  0
 45 49  1  0  0  0  0
 22 30  1  0  0  0  0
 22 31  1  0  0  0  0
 21 28  1  0  0  0  0
 21 29  1  0  0  0  0
 35 40  1  0  0  0  0
  8 13  1  0  0  0  0
 18 27  1  0  0  0  0
 25 32  1  0  0  0  0
 25 33  1  0  0  0  0
 44 46  1  0  0  0  0
  7 12  1  0  0  0  0
 34 39  1  0  0  0  0
 17 26  1  0  0  0  0
M  END
$$$$

  -OEChem-05262214473D

 49 48  0     1  0  0  0  0  0999 V2000
   -1.9833   -0.0509   -3.3423 C   0  0  0  0  0  0  0  0  0  0  0  0
   -1.6199   -1.0613   -2.7518 O   0  0  0  0  0  0  0  0  0  0  0  0
   -3.3243   -0.0235   -3.9975 C   0  0  0  0  0  0  0  0  0  0  0  0
   -3.2886   -0.3689   -5.0432 H   0  0  0  0  0  0  0  0  0  0  0  0
   -4.0503   -0.6845   -3.4973 H   0  0  0  0  0  0  0  0  0  0  0  0
   -3.8104    0.9645   -4.0351 H   0  0  0  0  0  0  0  0  0  0  0  0
   -1.2607    1.1231   -3.4768 N   0  0  0  0  0  0  0  0  0  0  0  0
    0.0536    1.3115   -2.9213 C   0  0  2  0  0  0  0  0  0  0  0  0
    0.0266    0.8315   -1.4761 C   0  0  0  0  0  0  0  0  0  0  0  0
   -1.0065    0.7530   -0.8146 O   0  0  0  0  0  0  0  0  0  0  0  0
    0.4852    2.7674   -3.0025 C   0  0  0  0  0  0  0  0  0  0  0  0
   -1.6809    1.8924   -3.9952 H   0  0  0  0  0  0  0  0  0  0  0  0
    0.7360    0.6822   -3.5030 H   0  0  0  0  0  0  0  0  0  0  0  0
   -0.1867    3.4133   -2.4256 H   0  0  0  0  0  0  0  0  0  0  0  0
    1.4966    2.9042   -2.6056 H   0  0  0  0  0  0  0  0  0  0  0  0
    0.4754    3.1196   -4.0397 H   0  0  0  0  0  0  0  0  0  0  0  0
    1.2978    0.5411   -0.9947 N   0  0  0  0  0  0  0  0  0  0  0  0
    1.5371    0.0807    0.3489 C   0  0  2  0  0  0  0  0  0  0  0  0
    2.2000   -1.2884    0.2459 C   0  0  0  0  0  0  0  0  0  0  0  0
    3.3649   -1.4421   -0.1152 O   0  0  0  0  0  0  0  0  0  0  0  0
    0.2435   -0.0134    1.1678 C   0  0  0  0  0  0  0  0  0  0  0  0
   -0.3982    1.3466    1.4497 C   0  0  0  0  0  0  0  0  0  0  0  0
   -1.6909    1.2546    2.2390 C   0  0  0  0  0  0  0  0  0  0  0  0
   -2.2244    0.1972    2.5614 O   0  0  0  0  0  0  0  0  0  0  0  0
   -2.2150    2.4953    2.5327 N   0  0  0  0  0  0  0  0  0  0  0  0
    2.0949    0.6178   -1.6227 H   0  0  0  0  0  0  0  0  0  0  0  0
    2.2430    0.7855    0.8013 H   0  0  0  0  0  0  0  0  0  0  0  0
   -0.4828   -0.6328    0.6247 H   0  0  0  0  0  0  0  0  0  0  0  0
    0.4357   -0.5305    2.1163 H   0  0  0  0  0  0  0  0  0  0  0  0
   -0.6422    1.8260    0.4936 H   0  0  0  0  0  0  0  0  0  0  0  0
    0.3016    2.0060    1.9751 H   0  0  0  0  0  0  0  0  0  0  0  0
   -1.7211    3.3226    2.2148 H   0  0  0  0  0  0  0  0  0  0  0  0
   -3.0772    2.6109    3.0555 H   0  0  0  0  0  0  0  0  0  0  0  0
    1.3208   -2.3165    0.5563 N   0  0  0  0  0  0  0  0  0  0  0  0
    1.6880   -3.7137    0.5165 C   0  0  2  0  0  0  0  0  0  0  0  0
    2.9976   -3.8777    1.2765 C   0  0  0  0  0  0  0  0  0  0  0  0
    3.7865   -2.9532    1.4606 O   0  0  0  0  0  0  0  0  0  0  0  0
    1.8245   -4.2094   -0.9147 C   0  0  0  0  0  0  0  0  0  0  0  0
    0.3715   -2.0747    0.8250 H   0  0  0  0  0  0  0  0  0  0  0  0
    0.8940   -4.2643    1.0328 H   0  0  0  0  0  0  0  0  0  0  0  0
    2.6154   -3.6694   -1.4480 H   0  0  0  0  0  0  0  0  0  0  0  0
    2.0747   -5.2750   -0.9434 H   0  0  0  0  0  0  0  0  0  0  0  0
    0.8908   -4.0634   -1.4685 H   0  0  0  0  0  0  0  0  0  0  0  0
    3.2019   -5.1874    1.6877 N   0  0  0  0  0  0  0  0  0  0  0  0
    4.3779   -5.6011    2.4169 C   0  0  0  0  0  0  0  0  0  0  0  0
    2.4857   -5.8850    1.5082 H   0  0  0  0  0  0  0  0  0  0  0  0
    5.1428   -5.9549    1.7099 H   0  0  0  0  0  0  0  0  0  0  0  0
    4.7736   -4.7486    2.9886 H   0  0  0  0  0  0  0  0  0  0  0  0
    4.1133   -6.4149    3.1081 H   0  0  0  0  0  0  0  0  0  0  0  0
  1  3  1  0  0  0  0
  1  7  1  0  0  0  0
  1  2  2  0  0  0  0
 22 23  1  0  0  0  0
 23 25  1  0  0  0  0
 23 24  2  0  0  0  0
 35 36  1  0  0  0  0
 36 44  1  0  0  0  0
 36 37  2  0  0  0  0
  8  9  1  0  0  0  0
  9 17  1  0  0  0  0
  9 10  2  0  0  0  0
 18 19  1  0  0  0  0
 19 34  1  0  0  0  0
 19 20  2  0  0  0  0
 35 38  1  0  0  0  0
  8 11  1  0  0  0  0
 44 45  1  0  0  0  0
 21 22  1  0  0  0  0
 18 21  1  0  0  0  0
 34 35  1  0  0  0  0
  7  8  1  0  0  0  0
 17 18  1  0  0  0  0
  3  4  1  0  0  0  0
  3  5  1  0  0  0  0
  3  6  1  0  0  0  0
 38 41  1  0  0  0  0
 38 42  1  0  0  0  0
 38 43  1  0  0  0  0
 11 14  1  0  0  0  0
 11 15  1  0  0  0  0
 11 16  1  0  0  0  0
 45 47  1  0  0  0  0
 45 48  1  0  0  0  0
 45 49  1  0  0  0  0
 22 30  1  0  0  0  0
 22 31  1  0  0  0  0
 21 28  1  0  0  0  0
 21 29  1  0  0  0  0
 35 40  1  0  0  0  0
  8 13  1  0  0  0  0
 18 27  1  0  0  0  0
 25 32  1  0  0  0  0
 25 33  1  0  0  0  0
 44 46  1  0  0  0  0
  7 12  1  0  0  0  0
 34 39  1  0  0  0  0
 17 26  1  0  0  0  0
M  END
$$$$

  -OEChem-05262214473D

 49 48  0     1  0  0  0  0  0999 V2000
   -1.9833   -0.0509   -3.3423 C   0  0  0  0  0  0  0  0  0  0  0  0
   -1.6199   -1.0613   -2.7518 O   0  0  0  0  0  0  0  0  0  0  0  0
   -3.3243   -0.0235   -3.9975 C   0  0  0  0  0  0  0  0  0  0  0  0
   -3.2886   -0.3689   -5.0432 H   0  0  0  0  0  0  0  0  0  0  0  0
   -4.0503   -0.6845   -3.4973 H   0  0  0  0  0  0  0  0  0  0  0  0
   -3.8104    0.9645   -4.0351 H   0  0  0  0  0  0  0  0  0  0  0  0
   -1.2607    1.1231   -3.4768 N   0  0  0  0  0  0  0  0  0  0  0  0
    0.0536    1.3115   -2.9213 C   0  0  2  0  0  0  0  0  0  0  0  0
    0.0266    0.8315   -1.4761 C   0  0  0  0  0  0  0  0  0  0  0  0
   -1.0065    0.7530   -0.8146 O   0  0  0  0  0  0  0  0  0  0  0  0
    0.4852    2.7674   -3.0025 C   0  0  0  0  0  0  0  0  0  0  0  0
   -1.6809    1.8924   -3.9952 H   0  0  0  0  0  0  0  0  0  0  0  0
    0.7360    0.6822   -3.5030 H   0  0  0  0  0  0  0  0  0  0  0  0
   -0.1867    3.4133   -2.4256 H   0  0  0  0  0  0  0  0  0  0  0  0
    1.4966    2.9042   -2.6056 H   0  0  0  0  0  0  0  0  0  0  0  0
    0.4754    3.1196   -4.0397 H   0  0  0  0  0  0  0  0  0  0  0  0
    1.2978    0.5411   -0.9947 N   0  0  0  0  0  0  0  0  0  0  0  0
    1.5371    0.0807    0.3489 C   0  0  2  0  0  0  0  0  0  0  0  0
    2.2000   -1.2884    0.2459 C   0  0  0  0  0  0  0  0  0  0  0  0
    3.4164   -1.4371    0.1490 O   0  0  0  0  0  0  0  0  0  0  0  0
    0.2435   -0.0134    1.1678 C   0  0  0  0  0  0  0  0  0  0  0  0
   -0.3982    1.3466    1.4497 C   0  0  0  0  0  0  0  0  0  0  0  0
   -1.6909    1.2546    2.2390 C   0  0  0  0  0  0  0  0  0  0  0  0
   -2.2244    0.1972    2.5614 O   0  0  0  0  0  0  0  0  0  0  0  0
   -2.2150    2.4953    2.5327 N   0  0  0  0  0  0  0  0  0  0  0  0
    2.0949    0.6178   -1.6227 H   0  0  0  0  0  0  0  0  0  0  0  0
    2.2430    0.7855    0.8013 H   0  0  0  0  0  0  0  0  0  0  0  0
   -0.4828   -0.6328    0.6247 H   0  0  0  0  0  0  0  0  0  0  0  0
    0.4357   -0.5305    2.1163 H   0  0  0  0  0  0  0  0  0  0  0  0
   -0.6422    1.8260    0.4936 H   0  0  0  0  0  0  0  0  0  0  0  0
    0.3016    2.0060    1.9751 H   0  0  0  0  0  0  0  0  0  0  0  0
   -1.7211    3.3226    2.2148 H   0  0  0  0  0  0  0  0  0  0  0  0
   -3.0772    2.6109    3.0555 H   0  0  0  0  0  0  0  0  0  0  0  0
    1.2683   -2.3169    0.2245 N   0  0  0  0  0  0  0  0  0  0  0  0
    1.6288   -3.7119    0.1109 C   0  0  2  0  0  0  0  0  0  0  0  0
    2.7241   -3.9990    1.1294 C   0  0  0  0  0  0  0  0  0  0  0  0
    3.4522   -3.1252    1.5958 O   0  0  0  0  0  0  0  0  0  0  0  0
    2.0935   -4.0504   -1.2970 C   0  0  0  0  0  0  0  0  0  0  0  0
    0.2836   -2.0772    0.2921 H   0  0  0  0  0  0  0  0  0  0  0  0
    0.7340   -4.2913    0.3628 H   0  0  0  0  0  0  0  0  0  0  0  0
    2.9893   -3.4793   -1.5673 H   0  0  0  0  0  0  0  0  0  0  0  0
    2.3391   -5.1135   -1.3889 H   0  0  0  0  0  0  0  0  0  0  0  0
    1.3155   -3.8153   -2.0313 H   0  0  0  0  0  0  0  0  0  0  0  0
    2.8213   -5.3518    1.4239 N   0  0  0  0  0  0  0  0  0  0  0  0
    3.7929   -5.8795    2.3530 C   0  0  0  0  0  0  0  0  0  0  0  0
    2.1639   -6.0029    1.0048 H   0  0  0  0  0  0  0  0  0  0  0  0
    4.7002   -6.1765    1.8065 H   0  0  0  0  0  0  0  0  0  0  0  0
    4.0478   -5.1080    3.0945 H   0  0  0  0  0  0  0  0  0  0  0  0
    3.3708   -6.7562    2.8663 H   0  0  0  0  0  0  0  0  0  0  0  0
  1  3  1  0  0  0  0
  1  7  1  0  0  0  0
  1  2  2  0  0  0  0
 22 23  1  0  0  0  0
 23 25  1  0  0  0  0
 23 24  2  0  0  0  0
 35 36  1  0  0  0  0
 36 44  1  0  0  0  0
 36 37  2  0  0  0  0
  8  9  1  0  0  0  0
  9 17  1  0  0  0  0
  9 10  2  0  0  0  0
 18 19  1  0  0  0  0
 19 34  1  0  0  0  0
 19 20  2  0  0  0  0
 35 38  1  0  0  0  0
  8 11  1  0  0  0  0
 44 45  1  0  0  0  0
 21 22  1  0  0  0  0
 18 21  1  0  0  0  0
 34 35  1  0  0  0  0
  7  8  1  0  0  0  0
 17 18  1  0  0  0  0
  3  4  1  0  0  0  0
  3  5  1  0  0  0  0
  3  6  1  0  0  0  0
 38 41  1  0  0  0  0
 38 42  1  0  0  0  0
 38 43  1  0  0  0  0
 11 14  1  0  0  0  0
 11 15  1  0  0  0  0
 11 16  1  0  0  0  0
 45 47  1  0  0  0  0
 45 48  1  0  0  0  0
 45 49  1  0  0  0  0
 22 30  1  0  0  0  0
 22 31  1  0  0  0  0
 21 28  1  0  0  0  0
 21 29  1  0  0  0  0
 35 40  1  0  0  0  0
  8 13  1  0  0  0  0
 18 27  1  0  0  0  0
 25 32  1  0  0  0  0
 25 33  1  0  0  0  0
 44 46  1  0  0  0  0
  7 12  1  0  0  0  0
 34 39  1  0  0  0  0
 17 26  1  0  0  0  0
M  END
$$$$

  -OEChem-05262214473D

 49 48  0     1  0  0  0  0  0999 V2000
   -1.9833   -0.0509   -3.3423 C   0  0  0  0  0  0  0  0  0  0  0  0
   -1.6199   -1.0613   -2.7518 O   0  0  0  0  0  0  0  0  0  0  0  0
   -3.3243   -0.0235   -3.9975 C   0  0  0  0  0  0  0  0  0  0  0  0
   -3.2886   -0.3689   -5.0432 H   0  0  0  0  0  0  0  0  0  0  0  0
   -4.0503   -0.6845   -3.4973 H   0  0  0  0  0  0  0  0  0  0  0  0
   -3.8104    0.9645   -4.0351 H   0  0  0  0  0  0  0  0  0  0  0  0
   -1.2607    1.1231   -3.4768 N   0  0  0  0  0  0  0  0  0  0  0  0
    0.0536    1.3115   -2.9213 C   0  0  2  0  0  0  0  0  0  0  0  0
    0.0266    0.8315   -1.4761 C   0  0  0  0  0  0  0  0  0  0  0  0
   -1.0065    0.7530   -0.8146 O   0  0  0  0  0  0  0  0  0  0  0  0
    0.4852    2.7674   -3.0025 C   0  0  0  0  0  0  0  0  0  0  0  0
   -1.6809    1.8924   -3.9952 H   0  0  0  0  0  0  0  0  0  0  0  0
    0.7360    0.6822   -3.5030 H   0  0  0  0  0  0  0  0  0  0  0  0
   -0.1867    3.4133   -2.4256 H   0  0  0  0  0  0  0  0  0  0  0  0
    1.4966    2.9042   -2.6056 H   0  0  0  0  0  0  0  0  0  0  0  0
    0.4754    3.1196   -4.0397 H   0  0  0  0  0  0  0  0  0  0  0  0
    1.2978    0.5411   -0.9947 N   0  0  0  0  0  0  0  0  0  0  0  0
    1.5371    0.0807    0.3489 C   0  0  2  0  0  0  0  0  0  0  0  0
    2.2000   -1.2884    0.2459 C   0  0  0  0  0  0  0  0  0  0  0  0
    3.4047   -1.4628    0.4167 O   0  0  0  0  0  0  0  0  0  0  0  0
    0.2435   -0.0134    1.1678 C   0  0  0  0  0  0  0  0  0  0  0  0
   -0.3982    1.3466    1.4497 C   0  0  0  0  0  0  0  0  0  0  0  0
   -1.6909    1.2546    2.2390 C   0  0  0  0  0  0  0  0  0  0  0  0
   -2.2244    0.1972    2.5614 O   0  0  0  0  0  0  0  0  0  0  0  0
   -2.2150    2.4953    2.5327 N   0  0  0  0  0  0  0  0  0  0  0  0
    2.0949    0.6178   -1.6227 H   0  0  0  0  0  0  0  0  0  0  0  0
    2.2430    0.7855    0.8013 H   0  0  0  0  0  0  0  0  0  0  0  0
   -0.4828   -0.6328    0.6247 H   0  0  0  0  0  0  0  0  0  0  0  0
    0.4357   -0.5305    2.1163 H   0  0  0  0  0  0  0  0  0  0  0  0
   -0.6422    1.8260    0.4936 H   0  0  0  0  0  0  0  0  0  0  0  0
    0.3016    2.0060    1.9751 H   0  0  0  0  0  0  0  0  0  0  0  0
   -1.7211    3.3226    2.2148 H   0  0  0  0  0  0  0  0  0  0  0  0
   -3.0772    2.6109    3.0555 H   0  0  0  0  0  0  0  0  0  0  0  0
    1.2947   -2.2791   -0.1083 N   0  0  0  0  0  0  0  0  0  0  0  0
    1.6660   -3.6634   -0.2945 C   0  0  2  0  0  0  0  0  0  0  0  0
    2.4920   -4.0949    0.9101 C   0  0  0  0  0  0  0  0  0  0  0  0
    3.0948   -3.3008    1.6293 O   0  0  0  0  0  0  0  0  0  0  0  0
    2.4451   -3.8584   -1.5859 C   0  0  0  0  0  0  0  0  0  0  0  0
    0.3225   -2.0181   -0.2434 H   0  0  0  0  0  0  0  0  0  0  0  0
    0.7346   -4.2393   -0.3246 H   0  0  0  0  0  0  0  0  0  0  0  0
    3.3815   -3.2889   -1.5742 H   0  0  0  0  0  0  0  0  0  0  0  0
    2.7008   -4.9120   -1.7397 H   0  0  0  0  0  0  0  0  0  0  0  0
    1.8609   -3.5199   -2.4484 H   0  0  0  0  0  0  0  0  0  0  0  0
    2.5122   -5.4742    1.0620 N   0  0  0  0  0  0  0  0  0  0  0  0
    3.2378   -6.1311    2.1241 C   0  0  0  0  0  0  0  0  0  0  0  0
    1.9680   -6.0545    0.4304 H   0  0  0  0  0  0  0  0  0  0  0  0
    4.2463   -6.3936    1.7719 H   0  0  0  0  0  0  0  0  0  0  0  0
    3.3158   -5.4544    2.9878 H   0  0  0  0  0  0  0  0  0  0  0  0
    2.7039   -7.0456    2.4217 H   0  0  0  0  0  0  0  0  0  0  0  0
  1  3  1  0  0  0  0
  1  7  1  0  0  0  0
  1  2  2  0  0  0  0
 22 23  1  0  0  0  0
 23 25  1  0  0  0  0
 23 24  2  0  0  0  0
 35 36  1  0  0  0  0
 36 44  1  0  0  0  0
 36 37  2  0  0  0  0
  8  9  1  0  0  0  0
  9 17  1  0  0  0  0
  9 10  2  0  0  0  0
 18 19  1  0  0  0  0
 19 34  1  0  0  0  0
 19 20  2  0  0  0  0
 35 38  1  0  0  0  0
  8 11  1  0  0  0  0
 44 45  1  0  0  0  0
 21 22  1  0  0  0  0
 18 21  1  0  0  0  0
 34 35  1  0  0  0  0
  7  8  1  0  0  0  0
 17 18  1  0  0  0  0
  3  4  1  0  0  0  0
  3  5  1  0  0  0  0
  3  6  1  0  0  0  0
 38 41  1  0  0  0  0
 38 42  1  0  0  0  0
 38 43  1  0  0  0  0
 11 14  1  0  0  0  0
 11 15  1  0  0  0  0
 11 16  1  0  0  0  0
 45 47  1  0  0  0  0
 45 48  1  0  0  0  0
 45 49  1  0  0  0  0
 22 30  1  0  0  0  0
 22 31  1  0  0  0  0
 21 28  1  0  0  0  0
 21 29  1  0  0  0  0
 35 40  1  0  0  0  0
  8 13  1  0  0  0  0
 18 27  1  0  0  0  0
 25 32  1  0  0  0  0
 25 33  1  0  0  0  0
 44 46  1  0  0  0  0
  7 12  1  0  0  0  0
 34 39  1  0  0  0  0
 17 26  1  0  0  0  0
M  END
$$$$

  -OEChem-05262214473D

 49 48  0     1  0  0  0  0  0999 V2000
   -1.9833   -0.0509   -3.3423 C   0  0  0  0  0  0  0  0  0  0  0  0
   -1.6199   -1.0613   -2.7518 O   0  0  0  0  0  0  0  0  0  0  0  0
   -3.3243   -0.0235   -3.9975 C   0  0  0  0  0  0  0  0  0  0  0  0
   -3.2886   -0.3689   -5.0432 H   0  0  0  0  0  0  0  0  0  0  0  0
   -4.0503   -0.6845   -3.4973 H   0  0  0  0  0  0  0  0  0  0  0  0
   -3.8104    0.9645   -4.0351 H   0  0  0  0  0  0  0  0  0  0  0  0
   -1.2607    1.1231   -3.4768 N   0  0  0  0  0  0  0  0  0  0  0  0
    0.0536    1.3115   -2.9213 C   0  0  2  0  0  0  0  0  0  0  0  0
    0.0266    0.8315   -1.4761 C   0  0  0  0  0  0  0  0  0  0  0  0
   -1.0065    0.7530   -0.8146 O   0  0  0  0  0  0  0  0  0  0  0  0
    0.4852    2.7674   -3.0025 C   0  0  0  0  0  0  0  0  0  0  0  0
   -1.6809    1.8924   -3.9952 H   0  0  0  0  0  0  0  0  0  0  0  0
    0.7360    0.6822   -3.5030 H   0  0  0  0  0  0  0  0  0  0  0  0
   -0.1867    3.4133   -2.4256 H   0  0  0  0  0  0  0  0  0  0  0  0
    1.4966    2.9042   -2.6056 H   0  0  0  0  0  0  0  0  0  0  0  0
    0.4754    3.1196   -4.0397 H   0  0  0  0  0  0  0  0  0  0  0  0
    1.2978    0.5411   -0.9947 N   0  0  0  0  0  0  0  0  0  0  0  0
    1.5371    0.0807    0.3489 C   0  0  2  0  0  0  0  0  0  0  0  0
    2.2000   -1.2884    0.2459 C   0  0  0  0  0  0  0  0  0  0  0  0
    3.3308   -1.5177    0.6697 O   0  0  0  0  0  0  0  0  0  0  0  0
    0.2435   -0.0134    1.1678 C   0  0  0  0  0  0  0  0  0  0  0  0
   -0.3982    1.3466    1.4497 C   0  0  0  0  0  0  0  0  0  0  0  0
   -1.6909    1.2546    2.2390 C   0  0  0  0  0  0  0  0  0  0  0  0
   -2.2244    0.1972    2.5614 O   0  0  0  0  0  0  0  0  0  0  0  0
   -2.2150    2.4953    2.5327 N   0  0  0  0  0  0  0  0  0  0  0  0
    2.0949    0.6178   -1.6227 H   0  0  0  0  0  0  0  0  0  0  0  0
    2.2430    0.7855    0.8013 H   0  0  0  0  0  0  0  0  0  0  0  0
   -0.4828   -0.6328    0.6247 H   0  0  0  0  0  0  0  0  0  0  0  0
    0.4357   -0.5305    2.1163 H   0  0  0  0  0  0  0  0  0  0  0  0
   -0.6422    1.8260    0.4936 H   0  0  0  0  0  0  0  0  0  0  0  0
    0.3016    2.0060    1.9751 H   0  0  0  0  0  0  0  0  0  0  0  0
   -1.7211    3.3226    2.2148 H   0  0  0  0  0  0  0  0  0  0  0  0
   -3.0772    2.6109    3.0555 H   0  0  0  0  0  0  0  0  0  0  0  0
    1.3982   -2.2056   -0.4193 N   0  0  0  0  0  0  0  0  0  0  0  0
    1.7969   -3.5716   -0.6719 C   0  0  2  0  0  0  0  0  0  0  0  0
    2.3172   -4.1587    0.6335 C   0  0  0  0  0  0  0  0  0  0  0  0
    2.7387   -3.4679    1.5588 O   0  0  0  0  0  0  0  0  0  0  0  0
    2.8551   -3.6467   -1.7615 C   0  0  0  0  0  0  0  0  0  0  0  0
    0.4855   -1.9014   -0.7449 H   0  0  0  0  0  0  0  0  0  0  0  0
    0.8959   -4.1117   -0.9825 H   0  0  0  0  0  0  0  0  0  0  0  0
    3.7653   -3.1110   -1.4684 H   0  0  0  0  0  0  0  0  0  0  0  0
    3.1353   -4.6841   -1.9717 H   0  0  0  0  0  0  0  0  0  0  0  0
    2.4898   -3.1971   -2.6912 H   0  0  0  0  0  0  0  0  0  0  0  0
    2.2955   -5.5464    0.6269 N   0  0  0  0  0  0  0  0  0  0  0  0
    2.7505   -6.3386    1.7455 C   0  0  0  0  0  0  0  0  0  0  0  0
    1.9114   -6.0363   -0.1758 H   0  0  0  0  0  0  0  0  0  0  0  0
    3.8122   -6.5915    1.6087 H   0  0  0  0  0  0  0  0  0  0  0  0
    2.6275   -5.7642    2.6756 H   0  0  0  0  0  0  0  0  0  0  0  0
    2.1580   -7.2635    1.8047 H   0  0  0  0  0  0  0  0  0  0  0  0
  1  3  1  0  0  0  0
  1  7  1  0  0  0  0
  1  2  2  0  0  0  0
 22 23  1  0  0  0  0
 23 25  1  0  0  0  0
 23 24  2  0  0  0  0
 35 36  1  0  0  0  0
 36 44  1  0  0  0  0
 36 37  2  0  0  0  0
  8  9  1  0  0  0  0
  9 17  1  0  0  0  0
  9 10  2  0  0  0  0
 18 19  1  0  0  0  0
 19 34  1  0  0  0  0
 19 20  2  0  0  0  0
 35 38  1  0  0  0  0
  8 11  1  0  0  0  0
 44 45  1  0  0  0  0
 21 22  1  0  0  0  0
 18 21  1  0  0  0  0
 34 35  1  0  0  0  0
  7  8  1  0  0  0  0
 17 18  1  0  0  0  0
  3  4  1  0  0  0  0
  3  5  1  0  0  0  0
  3  6  1  0  0  0  0
 38 41  1  0  0  0  0
 38 42  1  0  0  0  0
 38 43  1  0  0  0  0
 11 14  1  0  0  0  0
 11 15  1  0  0  0  0
 11 16  1  0  0  0  0
 45 47  1  0  0  0  0
 45 48  1  0  0  0  0
 45 49  1  0  0  0  0
 22 30  1  0  0  0  0
 22 31  1  0  0  0  0
 21 28  1  0  0  0  0
 21 29  1  0  0  0  0
 35 40  1  0  0  0  0
  8 13  1  0  0  0  0
 18 27  1  0  0  0  0
 25 32  1  0  0  0  0
 25 33  1  0  0  0  0
 44 46  1  0  0  0  0
  7 12  1  0  0  0  0
 34 39  1  0  0  0  0
 17 26  1  0  0  0  0
M  END
$$$$

  -OEChem-05262214473D

 49 48  0     1  0  0  0  0  0999 V2000
   -1.9833   -0.0509   -3.3423 C   0  0  0  0  0  0  0  0  0  0  0  0
   -1.6199   -1.0613   -2.7518 O   0  0  0  0  0  0  0  0  0  0  0  0
   -3.3243   -0.0235   -3.9975 C   0  0  0  0  0  0  0  0  0  0  0  0
   -3.2886   -0.3689   -5.0432 H   0  0  0  0  0  0  0  0  0  0  0  0
   -4.0503   -0.6845   -3.4973 H   0  0  0  0  0  0  0  0  0  0  0  0
   -3.8104    0.9645   -4.0351 H   0  0  0  0  0  0  0  0  0  0  0  0
   -1.2607    1.1231   -3.4768 N   0  0  0  0  0  0  0  0  0  0  0  0
    0.0536    1.3115   -2.9213 C   0  0  2  0  0  0  0  0  0  0  0  0
    0.0266    0.8315   -1.4761 C   0  0  0  0  0  0  0  0  0  0  0  0
   -1.0065    0.7530   -0.8146 O   0  0  0  0  0  0  0  0  0  0  0  0
    0.4852    2.7674   -3.0025 C   0  0  0  0  0  0  0  0  0  0  0  0
   -1.6809    1.8924   -3.9952 H   0  0  0  0  0  0  0  0  0  0  0  0
    0.7360    0.6822   -3.5030 H   0  0  0  0  0  0  0  0  0  0  0  0
   -0.1867    3.4133   -2.4256 H   0  0  0  0  0  0  0  0  0  0  0  0
    1.4966    2.9042   -2.6056 H   0  0  0  0  0  0  0  0  0  0  0  0
    0.4754    3.1196   -4.0397 H   0  0  0  0  0  0  0  0  0  0  0  0
    1.2978    0.5411   -0.9947 N   0  0  0  0  0  0  0  0  0  0  0  0
    1.5371    0.0807    0.3489 C   0  0  2  0  0  0  0  0  0  0  0  0
    2.2000   -1.2884    0.2459 C   0  0  0  0  0  0  0  0  0  0  0  0
    3.1997   -1.5978    0.8908 O   0  0  0  0  0  0  0  0  0  0  0  0
    0.2435   -0.0134    1.1678 C   0  0  0  0  0  0  0  0  0  0  0  0
   -0.3982    1.3466    1.4497 C   0  0  0  0  0  0  0  0  0  0  0  0
   -1.6909    1.2546    2.2390 C   0  0  0  0  0  0  0  0  0  0  0  0
   -2.2244    0.1972    2.5614 O   0  0  0  0  0  0  0  0  0  0  0  0
   -2.2150    2.4953    2.5327 N   0  0  0  0  0  0  0  0  0  0  0  0
    2.0949    0.6178   -1.6227 H   0  0  0  0  0  0  0  0  0  0  0  0
    2.2430    0.7855    0.8013 H   0  0  0  0  0  0  0  0  0  0  0  0
   -0.4828   -0.6328    0.6247 H   0  0  0  0  0  0  0  0  0  0  0  0
    0.4357   -0.5305    2.1163 H   0  0  0  0  0  0  0  0  0  0  0  0
   -0.6422    1.8260    0.4936 H   0  0  0  0  0  0  0  0  0  0  0  0
    0.3016    2.0060    1.9751 H   0  0  0  0  0  0  0  0  0  0  0  0
   -1.7211    3.3226    2.2148 H   0  0  0  0  0  0  0  0  0  0  0  0
   -3.0772    2.6109    3.0555 H   0  0  0  0  0  0  0  0  0  0  0  0
    1.5718   -2.1013   -0.6874 N   0  0  0  0  0  0  0  0  0  0  0  0
    2.0127   -3.4427   -0.9957 C   0  0  2  0  0  0  0  0  0  0  0  0
    2.2114   -4.1862    0.3185 C   0  0  0  0  0  0  0  0  0  0  0  0
    2.4083   -3.6151    1.3891 O   0  0  0  0  0  0  0  0  0  0  0  0
    3.2957   -3.4295   -1.8121 C   0  0  0  0  0  0  0  0  0  0  0  0
    0.7615   -1.7351   -1.1783 H   0  0  0  0  0  0  0  0  0  0  0  0
    1.2068   -3.9172   -1.5662 H   0  0  0  0  0  0  0  0  0  0  0  0
    4.1146   -2.9579   -1.2568 H   0  0  0  0  0  0  0  0  0  0  0  0
    3.6128   -4.4456   -2.0692 H   0  0  0  0  0  0  0  0  0  0  0  0
    3.1593   -2.8690   -2.7433 H   0  0  0  0  0  0  0  0  0  0  0  0
    2.1861   -5.5633    0.1481 N   0  0  0  0  0  0  0  0  0  0  0  0
    2.3640   -6.4879    1.2433 C   0  0  0  0  0  0  0  0  0  0  0  0
    1.9979   -5.9495   -0.7724 H   0  0  0  0  0  0  0  0  0  0  0  0
    3.4273   -6.7567    1.3278 H   0  0  0  0  0  0  0  0  0  0  0  0
    2.0298   -6.0162    2.1791 H   0  0  0  0  0  0  0  0  0  0  0  0
    1.7702   -7.3950    1.0574 H   0  0  0  0  0  0  0  0  0  0  0  0
  1  3  1  0  0  0  0
  1  7  1  0  0  0  0
  1  2  2  0  0  0  0
 22 23  1  0  0  0  0
 23 25  1  0  0  0  0
 23 24  2  0  0  0  0
 35 36  1  0  0  0  0
 36 44  1  0  0  0  0
 36 37  2  0  0  0  0
  8  9  1  0  0  0  0
  9 17  1  0  0  0  0
  9 10  2  0  0  0  0
 18 19  1  0  0  0  0
 19 34  1  0  0  0  0
 19 20  2  0  0  0  0
 35 38  1  0  0  0  0
  8 11  1  0  0  0  0
 44 45  1  0  0  0  0
 21 22  1  0  0  0  0
 18 21  1  0  0  0  0
 34 35  1  0  0  0  0
  7  8  1  0  0  0  0
 17 18  1  0  0  0  0
  3  4  1  0  0  0  0
  3  5  1  0  0  0  0
  3  6  1  0  0  0  0
 38 41  1  0  0  0  0
 38 42  1  0  0  0  0
 38 43  1  0  0  0  0
 11 14  1  0  0  0  0
 11 15  1  0  0  0  0
 11 16  1  0  0  0  0
 45 47  1  0  0  0  0
 45 48  1  0  0  0  0
 45 49  1  0  0  0  0
 22 30  1  0  0  0  0
 22 31  1  0  0  0  0
 21 28  1  0  0  0  0
 21 29  1  0  0  0  0
 35 40  1  0  0  0  0
  8 13  1  0  0  0  0
 18 27  1  0  0  0  0
 25 32  1  0  0  0  0
 25 33  1  0  0  0  0
 44 46  1  0  0  0  0
  7 12  1  0  0  0  0
 34 39  1  0  0  0  0
 17 26  1  0  0  0  0
M  END
$$$$

  -OEChem-05262214473D

 49 48  0     1  0  0  0  0  0999 V2000
   -1.9833   -0.0509   -3.3423 C   0  0  0  0  0  0  0  0  0  0  0  0
   -1.6199   -1.0613   -2.7518 O   0  0  0  0  0  0  0  0  0  0  0  0
   -3.3243   -0.0235   -3.9975 C   0  0  0  0  0  0  0  0  0  0  0  0
   -3.2886   -0.3689   -5.0432 H   0  0  0  0  0  0  0  0  0  0  0  0
   -4.0503   -0.6845   -3.4973 H   0  0  0  0  0  0  0  0  0  0  0  0
   -3.8104    0.9645   -4.0351 H   0  0  0  0  0  0  0  0  0  0  0  0
   -1.2607    1.1231   -3.4768 N   0  0  0  0  0  0  0  0  0  0  0  0
    0.0536    1.3115   -2.9213 C   0  0  2  0  0  0  0  0  0  0  0  0
    0.0266    0.8315   -1.4761 C   0  0  0  0  0  0  0  0  0  0  0  0
   -1.0065    0.7530   -0.8146 O   0  0  0  0  0  0  0  0  0  0  0  0
    0.4852    2.7674   -3.0025 C   0  0  0  0  0  0  0  0  0  0  0  0
   -1.6809    1.8924   -3.9952 H   0  0  0  0  0  0  0  0  0  0  0  0
    0.7360    0.6822   -3.5030 H   0  0  0  0  0  0  0  0  0  0  0  0
   -0.1867    3.4133   -2.4256 H   0  0  0  0  0  0  0  0  0  0  0  0
    1.4966    2.9042   -2.6056 H   0  0  0  0  0  0  0  0  0  0  0  0
    0.4754    3.1196   -4.0397 H   0  0  0  0  0  0  0  0  0  0  0  0
    1.2978    0.5411   -0.9947 N   0  0  0  0  0  0  0  0  0  0  0  0
    1.5371    0.0807    0.3489 C   0  0  2  0  0  0  0  0  0  0  0  0
    2.2000   -1.2884    0.2459 C   0  0  0  0  0  0  0  0  0  0  0  0
    3.0202   -1.6978    1.0648 O   0  0  0  0  0  0  0  0  0  0  0  0
    0.2435   -0.0134    1.1678 C   0  0  0  0  0  0  0  0  0  0  0  0
   -0.3982    1.3466    1.4497 C   0  0  0  0  0  0  0  0  0  0  0  0
   -1.6909    1.2546    2.2390 C   0  0  0  0  0  0  0  0  0  0  0  0
   -2.2244    0.1972    2.5614 O   0  0  0  0  0  0  0  0  0  0  0  0
   -2.2150    2.4953    2.5327 N   0  0  0  0  0  0  0  0  0  0  0  0
    2.0949    0.6178   -1.6227 H   0  0  0  0  0  0  0  0  0  0  0  0
    2.2430    0.7855    0.8013 H   0  0  0  0  0  0  0  0  0  0  0  0
   -0.4828   -0.6328    0.6247 H   0  0  0  0  0  0  0  0  0  0  0  0
    0.4357   -0.5305    2.1163 H   0  0  0  0  0  0  0  0  0  0  0  0
   -0.6422    1.8260    0.4936 H   0  0  0  0  0  0  0  0  0  0  0  0
    0.3016    2.0060    1.9751 H   0  0  0  0  0  0  0  0  0  0  0  0
   -1.7211    3.3226    2.2148 H   0  0  0  0  0  0  0  0  0  0  0  0
   -3.0772    2.6109    3.0555 H   0  0  0  0  0  0  0  0  0  0  0  0
    1.8036   -1.9735   -0.8943 N   0  0  0  0  0  0  0  0  0  0  0  0
    2.2987   -3.2856   -1.2438 C   0  0  2  0  0  0  0  0  0  0  0  0
    2.1820   -4.1755   -0.0134 C   0  0  0  0  0  0  0  0  0  0  0  0
    2.1259   -3.7325    1.1319 O   0  0  0  0  0  0  0  0  0  0  0  0
    3.7368   -3.2218   -1.7342 C   0  0  0  0  0  0  0  0  0  0  0  0
    1.1318   -1.5305   -1.5141 H   0  0  0  0  0  0  0  0  0  0  0  0
    1.6462   -3.6691   -2.0358 H   0  0  0  0  0  0  0  0  0  0  0  0
    4.4054   -2.8398   -0.9541 H   0  0  0  0  0  0  0  0  0  0  0  0
    4.1009   -4.2125   -2.0255 H   0  0  0  0  0  0  0  0  0  0  0  0
    3.8239   -2.5579   -2.6010 H   0  0  0  0  0  0  0  0  0  0  0  0
    2.1914   -5.5239   -0.3417 N   0  0  0  0  0  0  0  0  0  0  0  0
    2.1049   -6.5688    0.6516 C   0  0  0  0  0  0  0  0  0  0  0  0
    2.2216   -5.8001   -1.3188 H   0  0  0  0  0  0  0  0  0  0  0  0
    3.1180   -6.8780    0.9484 H   0  0  0  0  0  0  0  0  0  0  0  0
    1.5634   -6.1933    1.5324 H   0  0  0  0  0  0  0  0  0  0  0  0
    1.5671   -7.4311    0.2306 H   0  0  0  0  0  0  0  0  0  0  0  0
  1  3  1  0  0  0  0
  1  7  1  0  0  0  0
  1  2  2  0  0  0  0
 22 23  1  0  0  0  0
 23 25  1  0  0  0  0
 23 24  2  0  0  0  0
 35 36  1  0  0  0  0
 36 44  1  0  0  0  0
 36 37  2  0  0  0  0
  8  9  1  0  0  0  0
  9 17  1  0  0  0  0
  9 10  2  0  0  0  0
 18 19  1  0  0  0  0
 19 34  1  0  0  0  0
 19 20  2  0  0  0  0
 35 38  1  0  0  0  0
  8 11  1  0  0  0  0
 44 45  1  0  0  0  0
 21 22  1  0  0  0  0
 18 21  1  0  0  0  0
 34 35  1  0  0  0  0
  7  8  1  0  0  0  0
 17 18  1  0  0  0  0
  3  4  1  0  0  0  0
  3  5  1  0  0  0  0
  3  6  1  0  0  0  0
 38 41  1  0  0  0  0
 38 42  1  0  0  0  0
 38 43  1  0  0  0  0
 11 14  1  0  0  0  0
 11 15  1  0  0  0  0
 11 16  1  0  0  0  0
 45 47  1  0  0  0  0
 45 48  1  0  0  0  0
 45 49  1  0  0  0  0
 22 30  1  0  0  0  0
 22 31  1  0  0  0  0
 21 28  1  0  0  0  0
 21 29  1  0  0  0  0
 35 40  1  0  0  0  0
  8 13  1  0  0  0  0
 18 27  1  0  0  0  0
 25 32  1  0  0  0  0
 25 33  1  0  0  0  0
 44 46  1  0  0  0  0
  7 12  1  0  0  0  0
 34 39  1  0  0  0  0
 17 26  1  0  0  0  0
M  END
$$$$

  -OEChem-05262214473D

 49 48  0     1  0  0  0  0  0999 V2000
   -1.9833   -0.0509   -3.3423 C   0  0  0  0  0  0  0  0  0  0  0  0
   -1.6199   -1.0613   -2.7518 O   0  0  0  0  0  0  0  0  0  0  0  0
   -3.3243   -0.0235   -3.9975 C   0  0  0  0  0  0  0  0  0  0  0  0
   -3.2886   -0.3689   -5.0432 H   0  0  0  0  0  0  0  0  0  0  0  0
   -4.0503   -0.6845   -3.4973 H   0  0  0  0  0  0  0  0  0  0  0  0
   -3.8104    0.9645   -4.0351 H   0  0  0  0  0  0  0  0  0  0  0  0
   -1.2607    1.1231   -3.4768 N   0  0  0  0  0  0  0  0  0  0  0  0
    0.0536    1.3115   -2.9213 C   0  0  2  0  0  0  0  0  0  0  0  0
    0.0266    0.8315   -1.4761 C   0  0  0  0  0  0  0  0  0  0  0  0
   -1.0065    0.7530   -0.8146 O   0  0  0  0  0  0  0  0  0  0  0  0
    0.4852    2.7674   -3.0025 C   0  0  0  0  0  0  0  0  0  0  0  0
   -1.6809    1.8924   -3.9952 H   0  0  0  0  0  0  0  0  0  0  0  0
    0.7360    0.6822   -3.5030 H   0  0  0  0  0  0  0  0  0  0  0  0
   -0.1867    3.4133   -2.4256 H   0  0  0  0  0  0  0  0  0  0  0  0
    1.4966    2.9042   -2.6056 H   0  0  0  0  0  0  0  0  0  0  0  0
    0.4754    3.1196   -4.0397 H   0  0  0  0  0  0  0  0  0  0  0  0
    1.2978    0.5411   -0.9947 N   0  0  0  0  0  0  0  0  0  0  0  0
    1.5371    0.0807    0.3489 C   0  0  2  0  0  0  0  0  0  0  0  0
    2.2000   -1.2884    0.2459 C   0  0  0  0  0  0  0  0  0  0  0  0
    2.8047   -1.8108    1.1799 O   0  0  0  0  0  0  0  0  0  0  0  0
    0.2435   -0.0134    1.1678 C   0  0  0  0  0  0  0  0  0  0  0  0
   -0.3982    1.3466    1.4497 C   0  0  0  0  0  0  0  0  0  0  0  0
   -1.6909    1.2546    2.2390 C   0  0  0  0  0  0  0  0  0  0  0  0
   -2.2244    0.1972    2.5614 O   0  0  0  0  0  0  0  0  0  0  0  0
   -2.2150    2.4953    2.5327 N   0  0  0  0  0  0  0  0  0  0  0  0
    2.0949    0.6178   -1.6227 H   0  0  0  0  0  0  0  0  0  0  0  0
    2.2430    0.7855    0.8013 H   0  0  0  0  0  0  0  0  0  0  0  0
   -0.4828   -0.6328    0.6247 H   0  0  0  0  0  0  0  0  0  0  0  0
    0.4357   -0.5305    2.1163 H   0  0  0  0  0  0  0  0  0  0  0  0
   -0.6422    1.8260    0.4936 H   0  0  0  0  0  0  0  0  0  0  0  0
    0.3016    2.0060    1.9751 H   0  0  0  0  0  0  0  0  0  0  0  0
   -1.7211    3.3226    2.2148 H   0  0  0  0  0  0  0  0  0  0  0  0
   -3.0772    2.6109    3.0555 H   0  0  0  0  0  0  0  0  0  0  0  0
    2.0778   -1.8309   -1.0258 N   0  0  0  0  0  0  0  0  0  0  0  0
    2.6353   -3.1109   -1.3994 C   0  0  2  0  0  0  0  0  0  0  0  0
    2.2309   -4.1272   -0.3396 C   0  0  0  0  0  0  0  0  0  0  0  0
    1.9109   -3.8120    0.8046 O   0  0  0  0  0  0  0  0  0  0  0  0
    4.1484   -3.0377   -1.5329 C   0  0  0  0  0  0  0  0  0  0  0  0
    1.5711   -1.3016   -1.7293 H   0  0  0  0  0  0  0  0  0  0  0  0
    2.1841   -3.3843   -2.3594 H   0  0  0  0  0  0  0  0  0  0  0  0
    4.6181   -2.7649   -0.5809 H   0  0  0  0  0  0  0  0  0  0  0  0
    4.5663   -4.0009   -1.8437 H   0  0  0  0  0  0  0  0  0  0  0  0
    4.4382   -2.2851   -2.2741 H   0  0  0  0  0  0  0  0  0  0  0  0
    2.3110   -5.4308   -0.8092 N   0  0  0  0  0  0  0  0  0  0  0  0
    1.9907   -6.5758    0.0107 C   0  0  0  0  0  0  0  0  0  0  0  0
    2.5673   -5.5981   -1.7777 H   0  0  0  0  0  0  0  0  0  0  0  0
    2.9052   -6.9470    0.4965 H   0  0  0  0  0  0  0  0  0  0  0  0
    1.2602   -6.2835    0.7793 H   0  0  0  0  0  0  0  0  0  0  0  0
    1.5624   -7.3694   -0.6193 H   0  0  0  0  0  0  0  0  0  0  0  0
  1  3  1  0  0  0  0
  1  7  1  0  0  0  0
  1  2  2  0  0  0  0
 22 23  1  0  0  0  0
 23 25  1  0  0  0  0
 23 24  2  0  0  0  0
 35 36  1  0  0  0  0
 36 44  1  0  0  0  0
 36 37  2  0  0  0  0
  8  9  1  0  0  0  0
  9 17  1  0  0  0  0
  9 10  2  0  0  0  0
 18 19  1  0  0  0  0
 19 34  1  0  0  0  0
 19 20  2  0  0  0  0
 35 38  1  0  0  0  0
  8 11  1  0  0  0  0
 44 45  1  0  0  0  0
 21 22  1  0  0  0  0
 18 21  1  0  0  0  0
 34 35  1  0  0  0  0
  7  8  1  0  0  0  0
 17 18  1  0  0  0  0
  3  4  1  0  0  0  0
  3  5  1  0  0  0  0
  3  6  1  0  0  0  0
 38 41  1  0  0  0  0
 38 42  1  0  0  0  0
 38 43  1  0  0  0  0
 11 14  1  0  0  0  0
 11 15  1  0  0  0  0
 11 16  1  0  0  0  0
 45 47  1  0  0  0  0
 45 48  1  0  0  0  0
 45 49  1  0  0  0  0
 22 30  1  0  0  0  0
 22 31  1  0  0  0  0
 21 28  1  0  0  0  0
 21 29  1  0  0  0  0
 35 40  1  0  0  0  0
  8 13  1  0  0  0  0
 18 27  1  0  0  0  0
 25 32  1  0  0  0  0
 25 33  1  0  0  0  0
 44 46  1  0  0  0  0
  7 12  1  0  0  0  0
 34 39  1  0  0  0  0
 17 26  1  0  0  0  0
M  END
$$$$

  -OEChem-05262214473D

 49 48  0     1  0  0  0  0  0999 V2000
   -1.9833   -0.0509   -3.3423 C   0  0  0  0  0  0  0  0  0  0  0  0
   -1.6199   -1.0613   -2.7518 O   0  0  0  0  0  0  0  0  0  0  0  0
   -3.3243   -0.0235   -3.9975 C   0  0  0  0  0  0  0  0  0  0  0  0
   -3.2886   -0.3689   -5.0432 H   0  0  0  0  0  0  0  0  0  0  0  0
   -4.0503   -0.6845   -3.4973 H   0  0  0  0  0  0  0  0  0  0  0  0
   -3.8104    0.9645   -4.0351 H   0  0  0  0  0  0  0  0  0  0  0  0
   -1.2607    1.1231   -3.4768 N   0  0  0  0  0  0  0  0  0  0  0  0
    0.0536    1.3115   -2.9213 C   0  0  2  0  0  0  0  0  0  0  0  0
    0.0266    0.8315   -1.4761 C   0  0  0  0  0  0  0  0  0  0  0  0
   -1.0065    0.7530   -0.8146 O   0  0  0  0  0  0  0  0  0  0  0  0
    0.4852    2.7674   -3.0025 C   0  0  0  0  0  0  0  0  0  0  0  0
   -1.6809    1.8924   -3.9952 H   0  0  0  0  0  0  0  0  0  0  0  0
    0.7360    0.6822   -3.5030 H   0  0  0  0  0  0  0  0  0  0  0  0
   -0.1867    3.4133   -2.4256 H   0  0  0  0  0  0  0  0  0  0  0  0
    1.4966    2.9042   -2.6056 H   0  0  0  0  0  0  0  0  0  0  0  0
    0.4754    3.1196   -4.0397 H   0  0  0  0  0  0  0  0  0  0  0  0
    1.2978    0.5411   -0.9947 N   0  0  0  0  0  0  0  0  0  0  0  0
    1.5371    0.0807    0.3489 C   0  0  2  0  0  0  0  0  0  0  0  0
    2.2000   -1.2884    0.2459 C   0  0  0  0  0  0  0  0  0  0  0  0
    2.5678   -1.9291    1.2283 O   0  0  0  0  0  0  0  0  0  0  0  0
    0.2435   -0.0134    1.1678 C   0  0  0  0  0  0  0  0  0  0  0  0
   -0.3982    1.3466    1.4497 C   0  0  0  0  0  0  0  0  0  0  0  0
   -1.6909    1.2546    2.2390 C   0  0  0  0  0  0  0  0  0  0  0  0
   -2.2244    0.1972    2.5614 O   0  0  0  0  0  0  0  0  0  0  0  0
   -2.2150    2.4953    2.5327 N   0  0  0  0  0  0  0  0  0  0  0  0
    2.0949    0.6178   -1.6227 H   0  0  0  0  0  0  0  0  0  0  0  0
    2.2430    0.7855    0.8013 H   0  0  0  0  0  0  0  0  0  0  0  0
   -0.4828   -0.6328    0.6247 H   0  0  0  0  0  0  0  0  0  0  0  0
    0.4357   -0.5305    2.1163 H   0  0  0  0  0  0  0  0  0  0  0  0
   -0.6422    1.8260    0.4936 H   0  0  0  0  0  0  0  0  0  0  0  0
    0.3016    2.0060    1.9751 H   0  0  0  0  0  0  0  0  0  0  0  0
   -1.7211    3.3226    2.2148 H   0  0  0  0  0  0  0  0  0  0  0  0
   -3.0772    2.6109    3.0555 H   0  0  0  0  0  0  0  0  0  0  0  0
    2.3758   -1.6830   -1.0732 N   0  0  0  0  0  0  0  0  0  0  0  0
    2.9996   -2.9305   -1.4517 C   0  0  2  0  0  0  0  0  0  0  0  0
    2.3548   -4.0448   -0.6379 C   0  0  0  0  0  0  0  0  0  0  0  0
    1.7779   -3.8481    0.4295 O   0  0  0  0  0  0  0  0  0  0  0  0
    4.5024   -2.8896   -1.2222 C   0  0  0  0  0  0  0  0  0  0  0  0
    2.0495   -1.0640   -1.8094 H   0  0  0  0  0  0  0  0  0  0  0  0
    2.7839   -3.0822   -2.5149 H   0  0  0  0  0  0  0  0  0  0  0  0
    4.7381   -2.7384   -0.1624 H   0  0  0  0  0  0  0  0  0  0  0  0
    4.9773   -3.8250   -1.5361 H   0  0  0  0  0  0  0  0  0  0  0  0
    4.9604   -2.0691   -1.7849 H   0  0  0  0  0  0  0  0  0  0  0  0
    2.5369   -5.2903   -1.2224 N   0  0  0  0  0  0  0  0  0  0  0  0
    2.0293   -6.5085   -0.6357 C   0  0  0  0  0  0  0  0  0  0  0  0
    3.0115   -5.3575   -2.1180 H   0  0  0  0  0  0  0  0  0  0  0  0
    2.8035   -6.9590    0.0027 H   0  0  0  0  0  0  0  0  0  0  0  0
    1.1407   -6.2805   -0.0287 H   0  0  0  0  0  0  0  0  0  0  0  0
    1.7565   -7.2141   -1.4344 H   0  0  0  0  0  0  0  0  0  0  0  0
  1  3  1  0  0  0  0
  1  7  1  0  0  0  0
  1  2  2  0  0  0  0
 22 23  1  0  0  0  0
 23 25  1  0  0  0  0
 23 24  2  0  0  0  0
 35 36  1  0  0  0  0
 36 44  1  0  0  0  0
 36 37  2  0  0  0  0
  8  9  1  0  0  0  0
  9 17  1  0  0  0  0
  9 10  2  0  0  0  0
 18 19  1  0  0  0  0
 19 34  1  0  0  0  0
 19 20  2  0  0  0  0
 35 38  1  0  0  0  0
  8 11  1  0  0  0  0
 44 45  1  0  0  0  0
 21 22  1  0  0  0  0
 18 21  1  0  0  0  0
 34 35  1  0  0  0  0
  7  8  1  0  0  0  0
 17 18  1  0  0  0  0
  3  4  1  0  0  0  0
  3  5  1  0  0  0  0
  3  6  1  0  0  0  0
 38 41  1  0  0  0  0
 38 42  1  0  0  0  0
 38 43  1  0  0  0  0
 11 14  1  0  0  0  0
 11 15  1  0  0  0  0
 11 16  1  0  0  0  0
 45 47  1  0  0  0  0
 45 48  1  0  0  0  0
 45 49  1  0  0  0  0
 22 30  1  0  0  0  0
 22 31  1  0  0  0  0
 21 28  1  0  0  0  0
 21 29  1  0  0  0  0
 35 40  1  0  0  0  0
  8 13  1  0  0  0  0
 18 27  1  0  0  0  0
 25 32  1  0  0  0  0
 25 33  1  0  0  0  0
 44 46  1  0  0  0  0
  7 12  1  0  0  0  0
 34 39  1  0  0  0  0
 17 26  1  0  0  0  0
M  END
$$$$

  -OEChem-05262214473D

 49 48  0     1  0  0  0  0  0999 V2000
   -1.9833   -0.0509   -3.3423 C   0  0  0  0  0  0  0  0  0  0  0  0
   -1.6199   -1.0613   -2.7518 O   0  0  0  0  0  0  0  0  0  0  0  0
   -3.3243   -0.0235   -3.9975 C   0  0  0  0  0  0  0  0  0  0  0  0
   -3.2886   -0.3689   -5.0432 H   0  0  0  0  0  0  0  0  0  0  0  0
   -4.0503   -0.6845   -3.4973 H   0  0  0  0  0  0  0  0  0  0  0  0
   -3.8104    0.9645   -4.0351 H   0  0  0  0  0  0  0  0  0  0  0  0
   -1.2607    1.1231   -3.4768 N   0  0  0  0  0  0  0  0  0  0  0  0
    0.0536    1.3115   -2.9213 C   0  0  2  0  0  0  0  0  0  0  0  0
    0.0266    0.8315   -1.4761 C   0  0  0  0  0  0  0  0  0  0  0  0
   -1.0065    0.7530   -0.8146 O   0  0  0  0  0  0  0  0  0  0  0  0
    0.4852    2.7674   -3.0025 C   0  0  0  0  0  0  0  0  0  0  0  0
   -1.6809    1.8924   -3.9952 H   0  0  0  0  0  0  0  0  0  0  0  0
    0.7360    0.6822   -3.5030 H   0  0  0  0  0  0  0  0  0  0  0  0
   -0.1867    3.4133   -2.4256 H   0  0  0  0  0  0  0  0  0  0  0  0
    1.4966    2.9042   -2.6056 H   0  0  0  0  0  0  0  0  0  0  0  0
    0.4754    3.1196   -4.0397 H   0  0  0  0  0  0  0  0  0  0  0  0
    1.2978    0.5411   -0.9947 N   0  0  0  0  0  0  0  0  0  0  0  0
    1.5371    0.0807    0.3489 C   0  0  2  0  0  0  0  0  0  0  0  0
    2.2000   -1.2884    0.2459 C   0  0  0  0  0  0  0  0  0  0  0  0
    2.3256   -2.0448    1.2066 O   0  0  0  0  0  0  0  0  0  0  0  0
    0.2435   -0.0134    1.1678 C   0  0  0  0  0  0  0  0  0  0  0  0
   -0.3982    1.3466    1.4497 C   0  0  0  0  0  0  0  0  0  0  0  0
   -1.6909    1.2546    2.2390 C   0  0  0  0  0  0  0  0  0  0  0  0
   -2.2244    0.1972    2.5614 O   0  0  0  0  0  0  0  0  0  0  0  0
   -2.2150    2.4953    2.5327 N   0  0  0  0  0  0  0  0  0  0  0  0
    2.0949    0.6178   -1.6227 H   0  0  0  0  0  0  0  0  0  0  0  0
    2.2430    0.7855    0.8013 H   0  0  0  0  0  0  0  0  0  0  0  0
   -0.4828   -0.6328    0.6247 H   0  0  0  0  0  0  0  0  0  0  0  0
    0.4357   -0.5305    2.1163 H   0  0  0  0  0  0  0  0  0  0  0  0
   -0.6422    1.8260    0.4936 H   0  0  0  0  0  0  0  0  0  0  0  0
    0.3016    2.0060    1.9751 H   0  0  0  0  0  0  0  0  0  0  0  0
   -1.7211    3.3226    2.2148 H   0  0  0  0  0  0  0  0  0  0  0  0
   -3.0772    2.6109    3.0555 H   0  0  0  0  0  0  0  0  0  0  0  0
    2.6771   -1.5401   -1.0330 N   0  0  0  0  0  0  0  0  0  0  0  0
    3.3669   -2.7568   -1.3972 C   0  0  2  0  0  0  0  0  0  0  0  0
    2.5453   -3.9337   -0.8880 C   0  0  0  0  0  0  0  0  0  0  0  0
    1.7359   -3.8385    0.0323 O   0  0  0  0  0  0  0  0  0  0  0  0
    4.7748   -2.7878   -0.8231 C   0  0  0  0  0  0  0  0  0  0  0  0
    2.5343   -0.8338   -1.7488 H   0  0  0  0  0  0  0  0  0  0  0  0
    3.4047   -2.7834   -2.4917 H   0  0  0  0  0  0  0  0  0  0  0  0
    4.7572   -2.7618    0.2726 H   0  0  0  0  0  0  0  0  0  0  0  0
    5.3059   -3.6970   -1.1236 H   0  0  0  0  0  0  0  0  0  0  0  0
    5.3549   -1.9246   -1.1667 H   0  0  0  0  0  0  0  0  0  0  0  0
    2.8535   -5.1121   -1.5533 N   0  0  0  0  0  0  0  0  0  0  0  0
    2.2179   -6.3715   -1.2436 C   0  0  0  0  0  0  0  0  0  0  0  0
    3.5238   -5.0945   -2.3163 H   0  0  0  0  0  0  0  0  0  0  0  0
    2.8198   -6.9133   -0.4993 H   0  0  0  0  0  0  0  0  0  0  0  0
    1.2131   -6.1846   -0.8367 H   0  0  0  0  0  0  0  0  0  0  0  0
    2.1362   -6.9757   -2.1591 H   0  0  0  0  0  0  0  0  0  0  0  0
  1  3  1  0  0  0  0
  1  7  1  0  0  0  0
  1  2  2  0  0  0  0
 22 23  1  0  0  0  0
 23 25  1  0  0  0  0
 23 24  2  0  0  0  0
 35 36  1  0  0  0  0
 36 44  1  0  0  0  0
 36 37  2  0  0  0  0
  8  9  1  0  0  0  0
  9 17  1  0  0  0  0
  9 10  2  0  0  0  0
 18 19  1  0  0  0  0
 19 34  1  0  0  0  0
 19 20  2  0  0  0  0
 35 38  1  0  0  0  0
  8 11  1  0  0  0  0
 44 45  1  0  0  0  0
 21 22  1  0  0  0  0
 18 21  1  0  0  0  0
 34 35  1  0  0  0  0
  7  8  1  0  0  0  0
 17 18  1  0  0  0  0
  3  4  1  0  0  0  0
  3  5  1  0  0  0  0
  3  6  1  0  0  0  0
 38 41  1  0  0  0  0
 38 42  1  0  0  0  0
 38 43  1  0  0  0  0
 11 14  1  0  0  0  0
 11 15  1  0  0  0  0
 11 16  1  0  0  0  0
 45 47  1  0  0  0  0
 45 48  1  0  0  0  0
 45 49  1  0  0  0  0
 22 30  1  0  0  0  0
 22 31  1  0  0  0  0
 21 28  1  0  0  0  0
 21 29  1  0  0  0  0
 35 40  1  0  0  0  0
  8 13  1  0  0  0  0
 18 27  1  0  0  0  0
 25 32  1  0  0  0  0
 25 33  1  0  0  0  0
 44 46  1  0  0  0  0
  7 12  1  0  0  0  0
 34 39  1  0  0  0  0
 17 26  1  0  0  0  0
M  END
$$$$

  -OEChem-05262214473D

 49 48  0     1  0  0  0  0  0999 V2000
   -1.9833   -0.0509   -3.3423 C   0  0  0  0  0  0  0  0  0  0  0  0
   -1.6199   -1.0613   -2.7518 O   0  0  0  0  0  0  0  0  0  0  0  0
   -3.3243   -0.0235   -3.9975 C   0  0  0  0  0  0  0  0  0  0  0  0
   -3.2886   -0.3689   -5.0432 H   0  0  0  0  0  0  0  0  0  0  0  0
   -4.0503   -0.6845   -3.4973 H   0  0  0  0  0  0  0  0  0  0  0  0
   -3.8104    0.9645   -4.0351 H   0  0  0  0  0  0  0  0  0  0  0  0
   -1.2607    1.1231   -3.4768 N   0  0  0  0  0  0  0  0  0  0  0  0
    0.0536    1.3115   -2.9213 C   0  0  2  0  0  0  0  0  0  0  0  0
    0.0266    0.8315   -1.4761 C   0  0  0  0  0  0  0  0  0  0  0  0
   -1.0065    0.7530   -0.8146 O   0  0  0  0  0  0  0  0  0  0  0  0
    0.4852    2.7674   -3.0025 C   0  0  0  0  0  0  0  0  0  0  0  0
   -1.6809    1.8924   -3.9952 H   0  0  0  0  0  0  0  0  0  0  0  0
    0.7360    0.6822   -3.5030 H   0  0  0  0  0  0  0  0  0  0  0  0
   -0.1867    3.4133   -2.4256 H   0  0  0  0  0  0  0  0  0  0  0  0
    1.4966    2.9042   -2.6056 H   0  0  0  0  0  0  0  0  0  0  0  0
    0.4754    3.1196   -4.0397 H   0  0  0  0  0  0  0  0  0  0  0  0
    1.2978    0.5411   -0.9947 N   0  0  0  0  0  0  0  0  0  0  0  0
    1.5371    0.0807    0.3489 C   0  0  2  0  0  0  0  0  0  0  0  0
    2.2000   -1.2884    0.2459 C   0  0  0  0  0  0  0  0  0  0  0  0
    2.0947   -2.1498    1.1164 O   0  0  0  0  0  0  0  0  0  0  0  0
    0.2435   -0.0134    1.1678 C   0  0  0  0  0  0  0  0  0  0  0  0
   -0.3982    1.3466    1.4497 C   0  0  0  0  0  0  0  0  0  0  0  0
   -1.6909    1.2546    2.2390 C   0  0  0  0  0  0  0  0  0  0  0  0
   -2.2244    0.1972    2.5614 O   0  0  0  0  0  0  0  0  0  0  0  0
   -2.2150    2.4953    2.5327 N   0  0  0  0  0  0  0  0  0  0  0  0
    2.0949    0.6178   -1.6227 H   0  0  0  0  0  0  0  0  0  0  0  0
    2.2430    0.7855    0.8013 H   0  0  0  0  0  0  0  0  0  0  0  0
   -0.4828   -0.6328    0.6247 H   0  0  0  0  0  0  0  0  0  0  0  0
    0.4357   -0.5305    2.1163 H   0  0  0  0  0  0  0  0  0  0  0  0
   -0.6422    1.8260    0.4936 H   0  0  0  0  0  0  0  0  0  0  0  0
    0.3016    2.0060    1.9751 H   0  0  0  0  0  0  0  0  0  0  0  0
   -1.7211    3.3226    2.2148 H   0  0  0  0  0  0  0  0  0  0  0  0
   -3.0772    2.6109    3.0555 H   0  0  0  0  0  0  0  0  0  0  0  0
    2.9614   -1.4119   -0.9080 N   0  0  0  0  0  0  0  0  0  0  0  0
    3.7120   -2.6015   -1.2398 C   0  0  2  0  0  0  0  0  0  0  0  0
    2.7894   -3.8016   -1.0728 C   0  0  0  0  0  0  0  0  0  0  0  0
    1.7879   -3.7838   -0.3601 O   0  0  0  0  0  0  0  0  0  0  0  0
    4.9469   -2.7391   -0.3628 C   0  0  0  0  0  0  0  0  0  0  0  0
    2.9926   -0.6268   -1.5516 H   0  0  0  0  0  0  0  0  0  0  0  0
    4.0041   -2.5082   -2.2914 H   0  0  0  0  0  0  0  0  0  0  0  0
    4.6741   -2.8338    0.6946 H   0  0  0  0  0  0  0  0  0  0  0  0
    5.5296   -3.6255   -0.6344 H   0  0  0  0  0  0  0  0  0  0  0  0
    5.5948   -1.8615   -0.4616 H   0  0  0  0  0  0  0  0  0  0  0  0
    3.2394   -4.9082   -1.7792 N   0  0  0  0  0  0  0  0  0  0  0  0
    2.5438   -6.1739   -1.7715 C   0  0  0  0  0  0  0  0  0  0  0  0
    4.0693   -4.8271   -2.3593 H   0  0  0  0  0  0  0  0  0  0  0  0
    2.9531   -6.8130   -0.9752 H   0  0  0  0  0  0  0  0  0  0  0  0
    1.4726   -6.0023   -1.5894 H   0  0  0  0  0  0  0  0  0  0  0  0
    2.6755   -6.6706   -2.7441 H   0  0  0  0  0  0  0  0  0  0  0  0
  1  3  1  0  0  0  0
  1  7  1  0  0  0  0
  1  2  2  0  0  0  0
 22 23  1  0  0  0  0
 23 25  1  0  0  0  0
 23 24  2  0  0  0  0
 35 36  1  0  0  0  0
 36 44  1  0  0  0  0
 36 37  2  0  0  0  0
  8  9  1  0  0  0  0
  9 17  1  0  0  0  0
  9 10  2  0  0  0  0
 18 19  1  0  0  0  0
 19 34  1  0  0  0  0
 19 20  2  0  0  0  0
 35 38  1  0  0  0  0
  8 11  1  0  0  0  0
 44 45  1  0  0  0  0
 21 22  1  0  0  0  0
 18 21  1  0  0  0  0
 34 35  1  0  0  0  0
  7  8  1  0  0  0  0
 17 18  1  0  0  0  0
  3  4  1  0  0  0  0
  3  5  1  0  0  0  0
  3  6  1  0  0  0  0
 38 41  1  0  0  0  0
 38 42  1  0  0  0  0
 38 43  1  0  0  0  0
 11 14  1  0  0  0  0
 11 15  1  0  0  0  0
 11 16  1  0  0  0  0
 45 47  1  0  0  0  0
 45 48  1  0  0  0  0
 45 49  1  0  0  0  0
 22 30  1  0  0  0  0
 22 31  1  0  0  0  0
 21 28  1  0  0  0  0
 21 29  1  0  0  0  0
 35 40  1  0  0  0  0
  8 13  1  0  0  0  0
 18 27  1  0  0  0  0
 25 32  1  0  0  0  0
 25 33  1  0  0  0  0
 44 46  1  0  0  0  0
  7 12  1  0  0  0  0
 34 39  1  0  0  0  0
 17 26  1  0  0  0  0
M  END
$$$$

  -OEChem-05262214473D

 49 48  0     1  0  0  0  0  0999 V2000
   -1.9833   -0.0509   -3.3423 C   0  0  0  0  0  0  0  0  0  0  0  0
   -1.6199   -1.0613   -2.7518 O   0  0  0  0  0  0  0  0  0  0  0  0
   -3.3243   -0.0235   -3.9975 C   0  0  0  0  0  0  0  0  0  0  0  0
   -3.2886   -0.3689   -5.0432 H   0  0  0  0  0  0  0  0  0  0  0  0
   -4.0503   -0.6845   -3.4973 H   0  0  0  0  0  0  0  0  0  0  0  0
   -3.8104    0.9645   -4.0351 H   0  0  0  0  0  0  0  0  0  0  0  0
   -1.2607    1.1231   -3.4768 N   0  0  0  0  0  0  0  0  0  0  0  0
    0.0536    1.3115   -2.9213 C   0  0  2  0  0  0  0  0  0  0  0  0
    0.0266    0.8315   -1.4761 C   0  0  0  0  0  0  0  0  0  0  0  0
   -1.0065    0.7530   -0.8146 O   0  0  0  0  0  0  0  0  0  0  0  0
    0.4852    2.7674   -3.0025 C   0  0  0  0  0  0  0  0  0  0  0  0
   -1.6809    1.8924   -3.9952 H   0  0  0  0  0  0  0  0  0  0  0  0
    0.7360    0.6822   -3.5030 H   0  0  0  0  0  0  0  0  0  0  0  0
   -0.1867    3.4133   -2.4256 H   0  0  0  0  0  0  0  0  0  0  0  0
    1.4966    2.9042   -2.6056 H   0  0  0  0  0  0  0  0  0  0  0  0
    0.4754    3.1196   -4.0397 H   0  0  0  0  0  0  0  0  0  0  0  0
    1.2978    0.5411   -0.9947 N   0  0  0  0  0  0  0  0  0  0  0  0
    1.5371    0.0807    0.3489 C   0  0  2  0  0  0  0  0  0  0  0  0
    2.2000   -1.2884    0.2459 C   0  0  0  0  0  0  0  0  0  0  0  0
    1.8908   -2.2370    0.9638 O   0  0  0  0  0  0  0  0  0  0  0  0
    0.2435   -0.0134    1.1678 C   0  0  0  0  0  0  0  0  0  0  0  0
   -0.3982    1.3466    1.4497 C   0  0  0  0  0  0  0  0  0  0  0  0
   -1.6909    1.2546    2.2390 C   0  0  0  0  0  0  0  0  0  0  0  0
   -2.2244    0.1972    2.5614 O   0  0  0  0  0  0  0  0  0  0  0  0
   -2.2150    2.4953    2.5327 N   0  0  0  0  0  0  0  0  0  0  0  0
    2.0949    0.6178   -1.6227 H   0  0  0  0  0  0  0  0  0  0  0  0
    2.2430    0.7855    0.8013 H   0  0  0  0  0  0  0  0  0  0  0  0
   -0.4828   -0.6328    0.6247 H   0  0  0  0  0  0  0  0  0  0  0  0
    0.4357   -0.5305    2.1163 H   0  0  0  0  0  0  0  0  0  0  0  0
   -0.6422    1.8260    0.4936 H   0  0  0  0  0  0  0  0  0  0  0  0
    0.3016    2.0060    1.9751 H   0  0  0  0  0  0  0  0  0  0  0  0
   -1.7211    3.3226    2.2148 H   0  0  0  0  0  0  0  0  0  0  0  0
   -3.0772    2.6109    3.0555 H   0  0  0  0  0  0  0  0  0  0  0  0
    3.2092   -1.3071   -0.7068 N   0  0  0  0  0  0  0  0  0  0  0  0
    4.0115   -2.4753   -0.9899 C   0  0  2  0  0  0  0  0  0  0  0  0
    3.0703   -3.6575   -1.1797 C   0  0  0  0  0  0  0  0  0  0  0  0
    1.9303   -3.6877   -0.7209 O   0  0  0  0  0  0  0  0  0  0  0  0
    5.0069   -2.7469    0.1272 C   0  0  0  0  0  0  0  0  0  0  0  0
    3.3930   -0.4570   -1.2314 H   0  0  0  0  0  0  0  0  0  0  0  0
    4.5414   -2.2754   -1.9276 H   0  0  0  0  0  0  0  0  0  0  0  0
    4.4945   -2.9494    1.0748 H   0  0  0  0  0  0  0  0  0  0  0  0
    5.6333   -3.6154   -0.1019 H   0  0  0  0  0  0  0  0  0  0  0  0
    5.6637   -1.8841    0.2823 H   0  0  0  0  0  0  0  0  0  0  0  0
    3.6682   -4.6927   -1.8849 N   0  0  0  0  0  0  0  0  0  0  0  0
    2.9847   -5.9294   -2.1834 C   0  0  0  0  0  0  0  0  0  0  0  0
    4.6109   -4.5736   -2.2439 H   0  0  0  0  0  0  0  0  0  0  0  0
    3.1942   -6.6649   -1.3926 H   0  0  0  0  0  0  0  0  0  0  0  0
    1.9013   -5.7461   -2.2358 H   0  0  0  0  0  0  0  0  0  0  0  0
    3.3377   -6.3194   -3.1495 H   0  0  0  0  0  0  0  0  0  0  0  0
  1  3  1  0  0  0  0
  1  7  1  0  0  0  0
  1  2  2  0  0  0  0
 22 23  1  0  0  0  0
 23 25  1  0  0  0  0
 23 24  2  0  0  0  0
 35 36  1  0  0  0  0
 36 44  1  0  0  0  0
 36 37  2  0  0  0  0
  8  9  1  0  0  0  0
  9 17  1  0  0  0  0
  9 10  2  0  0  0  0
 18 19  1  0  0  0  0
 19 34  1  0  0  0  0
 19 20  2  0  0  0  0
 35 38  1  0  0  0  0
  8 11  1  0  0  0  0
 44 45  1  0  0  0  0
 21 22  1  0  0  0  0
 18 21  1  0  0  0  0
 34 35  1  0  0  0  0
  7  8  1  0  0  0  0
 17 18  1  0  0  0  0
  3  4  1  0  0  0  0
  3  5  1  0  0  0  0
  3  6  1  0  0  0  0
 38 41  1  0  0  0  0
 38 42  1  0  0  0  0
 38 43  1  0  0  0  0
 11 14  1  0  0  0  0
 11 15  1  0  0  0  0
 11 16  1  0  0  0  0
 45 47  1  0  0  0  0
 45 48  1  0  0  0  0
 45 49  1  0  0  0  0
 22 30  1  0  0  0  0
 22 31  1  0  0  0  0
 21 28  1  0  0  0  0
 21 29  1  0  0  0  0
 35 40  1  0  0  0  0
  8 13  1  0  0  0  0
 18 27  1  0  0  0  0
 25 32  1  0  0  0  0
 25 33  1  0  0  0  0
 44 46  1  0  0  0  0
  7 12  1  0  0  0  0
 34 39  1  0  0  0  0
 17 26  1  0  0  0  0
M  END
$$$$

  -OEChem-05262214473D

 49 48  0     1  0  0  0  0  0999 V2000
   -1.9833   -0.0509   -3.3423 C   0  0  0  0  0  0  0  0  0  0  0  0
   -1.6199   -1.0613   -2.7518 O   0  0  0  0  0  0  0  0  0  0  0  0
   -3.3243   -0.0235   -3.9975 C   0  0  0  0  0  0  0  0  0  0  0  0
   -3.2886   -0.3689   -5.0432 H   0  0  0  0  0  0  0  0  0  0  0  0
   -4.0503   -0.6845   -3.4973 H   0  0  0  0  0  0  0  0  0  0  0  0
   -3.8104    0.9645   -4.0351 H   0  0  0  0  0  0  0  0  0  0  0  0
   -1.2607    1.1231   -3.4768 N   0  0  0  0  0  0  0  0  0  0  0  0
    0.0536    1.3115   -2.9213 C   0  0  2  0  0  0  0  0  0  0  0  0
    0.0266    0.8315   -1.4761 C   0  0  0  0  0  0  0  0  0  0  0  0
   -1.0065    0.7530   -0.8146 O   0  0  0  0  0  0  0  0  0  0  0  0
    0.4852    2.7674   -3.0025 C   0  0  0  0  0  0  0  0  0  0  0  0
   -1.6809    1.8924   -3.9952 H   0  0  0  0  0  0  0  0  0  0  0  0
    0.7360    0.6822   -3.5030 H   0  0  0  0  0  0  0  0  0  0  0  0
   -0.1867    3.4133   -2.4256 H   0  0  0  0  0  0  0  0  0  0  0  0
    1.4966    2.9042   -2.6056 H   0  0  0  0  0  0  0  0  0  0  0  0
    0.4754    3.1196   -4.0397 H   0  0  0  0  0  0  0  0  0  0  0  0
    1.2978    0.5411   -0.9947 N   0  0  0  0  0  0  0  0  0  0  0  0
    1.5371    0.0807    0.3489 C   0  0  2  0  0  0  0  0  0  0  0  0
    2.2000   -1.2884    0.2459 C   0  0  0  0  0  0  0  0  0  0  0  0
    1.7278   -2.3006    0.7592 O   0  0  0  0  0  0  0  0  0  0  0  0
    0.2435   -0.0134    1.1678 C   0  0  0  0  0  0  0  0  0  0  0  0
   -0.3982    1.3466    1.4497 C   0  0  0  0  0  0  0  0  0  0  0  0
   -1.6909    1.2546    2.2390 C   0  0  0  0  0  0  0  0  0  0  0  0
   -2.2244    0.1972    2.5614 O   0  0  0  0  0  0  0  0  0  0  0  0
   -2.2150    2.4953    2.5327 N   0  0  0  0  0  0  0  0  0  0  0  0
    2.0949    0.6178   -1.6227 H   0  0  0  0  0  0  0  0  0  0  0  0
    2.2430    0.7855    0.8013 H   0  0  0  0  0  0  0  0  0  0  0  0
   -0.4828   -0.6328    0.6247 H   0  0  0  0  0  0  0  0  0  0  0  0
    0.4357   -0.5305    2.1163 H   0  0  0  0  0  0  0  0  0  0  0  0
   -0.6422    1.8260    0.4936 H   0  0  0  0  0  0  0  0  0  0  0  0
    0.3016    2.0060    1.9751 H   0  0  0  0  0  0  0  0  0  0  0  0
   -1.7211    3.3226    2.2148 H   0  0  0  0  0  0  0  0  0  0  0  0
   -3.0772    2.6109    3.0555 H   0  0  0  0  0  0  0  0  0  0  0  0
    3.4036   -1.2328   -0.4431 N   0  0  0  0  0  0  0  0  0  0  0  0
    4.2450   -2.3868   -0.6648 C   0  0  2  0  0  0  0  0  0  0  0  0
    3.3691   -3.5112   -1.2015 C   0  0  0  0  0  0  0  0  0  0  0  0
    2.1534   -3.5568   -1.0255 O   0  0  0  0  0  0  0  0  0  0  0  0
    4.9510   -2.8106    0.6137 C   0  0  0  0  0  0  0  0  0  0  0  0
    3.7084   -0.3360   -0.8100 H   0  0  0  0  0  0  0  0  0  0  0  0
    4.9799   -2.1009   -1.4252 H   0  0  0  0  0  0  0  0  0  0  0  0
    4.2307   -3.1007    1.3873 H   0  0  0  0  0  0  0  0  0  0  0  0
    5.6099   -3.6673    0.4378 H   0  0  0  0  0  0  0  0  0  0  0  0
    5.5570   -1.9909    1.0144 H   0  0  0  0  0  0  0  0  0  0  0  0
    4.1108   -4.4801   -1.8629 N   0  0  0  0  0  0  0  0  0  0  0  0
    3.5106   -5.6546   -2.4513 C   0  0  0  0  0  0  0  0  0  0  0  0
    5.1117   -4.3511   -1.9780 H   0  0  0  0  0  0  0  0  0  0  0  0
    3.5266   -6.4790   -1.7232 H   0  0  0  0  0  0  0  0  0  0  0  0
    2.4702   -5.4334   -2.7316 H   0  0  0  0  0  0  0  0  0  0  0  0
    4.0777   -5.9462   -3.3476 H   0  0  0  0  0  0  0  0  0  0  0  0
  1  3  1  0  0  0  0
  1  7  1  0  0  0  0
  1  2  2  0  0  0  0
 22 23  1  0  0  0  0
 23 25  1  0  0  0  0
 23 24  2  0  0  0  0
 35 36  1  0  0  0  0
 36 44  1  0  0  0  0
 36 37  2  0  0  0  0
  8  9  1  0  0  0  0
  9 17  1  0  0  0  0
  9 10  2  0  0  0  0
 18 19  1  0  0  0  0
 19 34  1  0  0  0  0
 19 20  2  0  0  0  0
 35 38  1  0  0  0  0
  8 11  1  0  0  0  0
 44 45  1  0  0  0  0
 21 22  1  0  0  0  0
 18 21  1  0  0  0  0
 34 35  1  0  0  0  0
  7  8  1  0  0  0  0
 17 18  1  0  0  0  0
  3  4  1  0  0  0  0
  3  5  1  0  0  0  0
  3  6  1  0  0  0  0
 38 41  1  0  0  0  0
 38 42  1  0  0  0  0
 38 43  1  0  0  0  0
 11 14  1  0  0  0  0
 11 15  1  0  0  0  0
 11 16  1  0  0  0  0
 45 47  1  0  0  0  0
 45 48  1  0  0  0  0
 45 49  1  0  0  0  0
 22 30  1  0  0  0  0
 22 31  1  0  0  0  0
 21 28  1  0  0  0  0
 21 29  1  0  0  0  0
 35 40  1  0  0  0  0
  8 13  1  0  0  0  0
 18 27  1  0  0  0  0
 25 32  1  0  0  0  0
 25 33  1  0  0  0  0
 44 46  1  0  0  0  0
  7 12  1  0  0  0  0
 34 39  1  0  0  0  0
 17 26  1  0  0  0  0
M  END
$$$$

  -OEChem-05262214473D

 49 48  0     1  0  0  0  0  0999 V2000
   -1.9833   -0.0509   -3.3423 C   0  0  0  0  0  0  0  0  0  0  0  0
   -1.6199   -1.0613   -2.7518 O   0  0  0  0  0  0  0  0  0  0  0  0
   -3.3243   -0.0235   -3.9975 C   0  0  0  0  0  0  0  0  0  0  0  0
   -3.2886   -0.3689   -5.0432 H   0  0  0  0  0  0  0  0  0  0  0  0
   -4.0503   -0.6845   -3.4973 H   0  0  0  0  0  0  0  0  0  0  0  0
   -3.8104    0.9645   -4.0351 H   0  0  0  0  0  0  0  0  0  0  0  0
   -1.2607    1.1231   -3.4768 N   0  0  0  0  0  0  0  0  0  0  0  0
    0.0536    1.3115   -2.9213 C   0  0  2  0  0  0  0  0  0  0  0  0
    0.0266    0.8315   -1.4761 C   0  0  0  0  0  0  0  0  0  0  0  0
   -1.0065    0.7530   -0.8146 O   0  0  0  0  0  0  0  0  0  0  0  0
    0.4852    2.7674   -3.0025 C   0  0  0  0  0  0  0  0  0  0  0  0
   -1.6809    1.8924   -3.9952 H   0  0  0  0  0  0  0  0  0  0  0  0
    0.7360    0.6822   -3.5030 H   0  0  0  0  0  0  0  0  0  0  0  0
   -0.1867    3.4133   -2.4256 H   0  0  0  0  0  0  0  0  0  0  0  0
    1.4966    2.9042   -2.6056 H   0  0  0  0  0  0  0  0  0  0  0  0
    0.4754    3.1196   -4.0397 H   0  0  0  0  0  0  0  0  0  0  0  0
    1.2978    0.5411   -0.9947 N   0  0  0  0  0  0  0  0  0  0  0  0
    1.5371    0.0807    0.3489 C   0  0  2  0  0  0  0  0  0  0  0  0
    2.2000   -1.2884    0.2459 C   0  0  0  0  0  0  0  0  0  0  0  0
    1.6168   -2.3360    0.5165 O   0  0  0  0  0  0  0  0  0  0  0  0
    0.2435   -0.0134    1.1678 C   0  0  0  0  0  0  0  0  0  0  0  0
   -0.3982    1.3466    1.4497 C   0  0  0  0  0  0  0  0  0  0  0  0
   -1.6909    1.2546    2.2390 C   0  0  0  0  0  0  0  0  0  0  0  0
   -2.2244    0.1972    2.5614 O   0  0  0  0  0  0  0  0  0  0  0  0
   -2.2150    2.4953    2.5327 N   0  0  0  0  0  0  0  0  0  0  0  0
    2.0949    0.6178   -1.6227 H   0  0  0  0  0  0  0  0  0  0  0  0
    2.2430    0.7855    0.8013 H   0  0  0  0  0  0  0  0  0  0  0  0
   -0.4828   -0.6328    0.6247 H   0  0  0  0  0  0  0  0  0  0  0  0
    0.4357   -0.5305    2.1163 H   0  0  0  0  0  0  0  0  0  0  0  0
   -0.6422    1.8260    0.4936 H   0  0  0  0  0  0  0  0  0  0  0  0
    0.3016    2.0060    1.9751 H   0  0  0  0  0  0  0  0  0  0  0  0
   -1.7211    3.3226    2.2148 H   0  0  0  0  0  0  0  0  0  0  0  0
   -3.0772    2.6109    3.0555 H   0  0  0  0  0  0  0  0  0  0  0  0
    3.5314   -1.1941   -0.1349 N   0  0  0  0  0  0  0  0  0  0  0  0
    4.3964   -2.3419   -0.2866 C   0  0  2  0  0  0  0  0  0  0  0  0
    3.6653   -3.3727   -1.1366 C   0  0  0  0  0  0  0  0  0  0  0  0
    2.4419   -3.4000   -1.2531 O   0  0  0  0  0  0  0  0  0  0  0  0
    4.7827   -2.9260    1.0634 C   0  0  0  0  0  0  0  0  0  0  0  0
    3.9171   -0.2721   -0.3159 H   0  0  0  0  0  0  0  0  0  0  0  0
    5.2898   -1.9966   -0.8183 H   0  0  0  0  0  0  0  0  0  0  0  0
    3.9005   -3.2773    1.6108 H   0  0  0  0  0  0  0  0  0  0  0  0
    5.4609   -3.7778    0.9477 H   0  0  0  0  0  0  0  0  0  0  0  0
    5.2819   -2.1745    1.6847 H   0  0  0  0  0  0  0  0  0  0  0  0
    4.5368   -4.2849   -1.7150 N   0  0  0  0  0  0  0  0  0  0  0  0
    4.0856   -5.3683   -2.5569 C   0  0  0  0  0  0  0  0  0  0  0  0
    5.5375   -4.1749   -1.5797 H   0  0  0  0  0  0  0  0  0  0  0  0
    3.9278   -6.2681   -1.9442 H   0  0  0  0  0  0  0  0  0  0  0  0
    3.1403   -5.0854   -3.0431 H   0  0  0  0  0  0  0  0  0  0  0  0
    4.8451   -5.5763   -3.3250 H   0  0  0  0  0  0  0  0  0  0  0  0
  1  3  1  0  0  0  0
  1  7  1  0  0  0  0
  1  2  2  0  0  0  0
 22 23  1  0  0  0  0
 23 25  1  0  0  0  0
 23 24  2  0  0  0  0
 35 36  1  0  0  0  0
 36 44  1  0  0  0  0
 36 37  2  0  0  0  0
  8  9  1  0  0  0  0
  9 17  1  0  0  0  0
  9 10  2  0  0  0  0
 18 19  1  0  0  0  0
 19 34  1  0  0  0  0
 19 20  2  0  0  0  0
 35 38  1  0  0  0  0
  8 11  1  0  0  0  0
 44 45  1  0  0  0  0
 21 22  1  0  0  0  0
 18 21  1  0  0  0  0
 34 35  1  0  0  0  0
  7  8  1  0  0  0  0
 17 18  1  0  0  0  0
  3  4  1  0  0  0  0
  3  5  1  0  0  0  0
  3  6  1  0  0  0  0
 38 41  1  0  0  0  0
 38 42  1  0  0  0  0
 38 43  1  0  0  0  0
 11 14  1  0  0  0  0
 11 15  1  0  0  0  0
 11 16  1  0  0  0  0
 45 47  1  0  0  0  0
 45 48  1  0  0  0  0
 45 49  1  0  0  0  0
 22 30  1  0  0  0  0
 22 31  1  0  0  0  0
 21 28  1  0  0  0  0
 21 29  1  0  0  0  0
 35 40  1  0  0  0  0
  8 13  1  0  0  0  0
 18 27  1  0  0  0  0
 25 32  1  0  0  0  0
 25 33  1  0  0  0  0
 44 46  1  0  0  0  0
  7 12  1  0  0  0  0
 34 39  1  0  0  0  0
 17 26  1  0  0  0  0
M  END
$$$$

  -OEChem-05262214473D

 49 48  0     1  0  0  0  0  0999 V2000
   -1.9833   -0.0509   -3.3423 C   0  0  0  0  0  0  0  0  0  0  0  0
   -1.6199   -1.0613   -2.7518 O   0  0  0  0  0  0  0  0  0  0  0  0
   -3.3243   -0.0235   -3.9975 C   0  0  0  0  0  0  0  0  0  0  0  0
   -3.2886   -0.3689   -5.0432 H   0  0  0  0  0  0  0  0  0  0  0  0
   -4.0503   -0.6845   -3.4973 H   0  0  0  0  0  0  0  0  0  0  0  0
   -3.8104    0.9645   -4.0351 H   0  0  0  0  0  0  0  0  0  0  0  0
   -1.2607    1.1231   -3.4768 N   0  0  0  0  0  0  0  0  0  0  0  0
    0.0536    1.3115   -2.9213 C   0  0  2  0  0  0  0  0  0  0  0  0
    0.0266    0.8315   -1.4761 C   0  0  0  0  0  0  0  0  0  0  0  0
   -1.0065    0.7530   -0.8146 O   0  0  0  0  0  0  0  0  0  0  0  0
    0.4852    2.7674   -3.0025 C   0  0  0  0  0  0  0  0  0  0  0  0
   -1.6809    1.8924   -3.9952 H   0  0  0  0  0  0  0  0  0  0  0  0
    0.7360    0.6822   -3.5030 H   0  0  0  0  0  0  0  0  0  0  0  0
   -0.1867    3.4133   -2.4256 H   0  0  0  0  0  0  0  0  0  0  0  0
    1.4966    2.9042   -2.6056 H   0  0  0  0  0  0  0  0  0  0  0  0
    0.4754    3.1196   -4.0397 H   0  0  0  0  0  0  0  0  0  0  0  0
    1.2978    0.5411   -0.9947 N   0  0  0  0  0  0  0  0  0  0  0  0
    1.5371    0.0807    0.3489 C   0  0  2  0  0  0  0  0  0  0  0  0
    2.2000   -1.2884    0.2459 C   0  0  0  0  0  0  0  0  0  0  0  0
    1.5653   -2.3411    0.2523 O   0  0  0  0  0  0  0  0  0  0  0  0
    0.2435   -0.0134    1.1678 C   0  0  0  0  0  0  0  0  0  0  0  0
   -0.3982    1.3466    1.4497 C   0  0  0  0  0  0  0  0  0  0  0  0
   -1.6909    1.2546    2.2390 C   0  0  0  0  0  0  0  0  0  0  0  0
   -2.2244    0.1972    2.5614 O   0  0  0  0  0  0  0  0  0  0  0  0
   -2.2150    2.4953    2.5327 N   0  0  0  0  0  0  0  0  0  0  0  0
    2.0949    0.6178   -1.6227 H   0  0  0  0  0  0  0  0  0  0  0  0
    2.2430    0.7855    0.8013 H   0  0  0  0  0  0  0  0  0  0  0  0
   -0.4828   -0.6328    0.6247 H   0  0  0  0  0  0  0  0  0  0  0  0
    0.4357   -0.5305    2.1163 H   0  0  0  0  0  0  0  0  0  0  0  0
   -0.6422    1.8260    0.4936 H   0  0  0  0  0  0  0  0  0  0  0  0
    0.3016    2.0060    1.9751 H   0  0  0  0  0  0  0  0  0  0  0  0
   -1.7211    3.3226    2.2148 H   0  0  0  0  0  0  0  0  0  0  0  0
   -3.0772    2.6109    3.0555 H   0  0  0  0  0  0  0  0  0  0  0  0
    3.5839   -1.1937    0.1970 N   0  0  0  0  0  0  0  0  0  0  0  0
    4.4556   -2.3438    0.1190 C   0  0  2  0  0  0  0  0  0  0  0  0
    3.9388   -3.2514   -0.9894 C   0  0  0  0  0  0  0  0  0  0  0  0
    2.7763   -3.2279   -1.3883 O   0  0  0  0  0  0  0  0  0  0  0  0
    4.5137   -3.0850    1.4457 C   0  0  0  0  0  0  0  0  0  0  0  0
    4.0051   -0.2697    0.2169 H   0  0  0  0  0  0  0  0  0  0  0  0
    5.4498   -1.9695   -0.1484 H   0  0  0  0  0  0  0  0  0  0  0  0
    3.5266   -3.4674    1.7301 H   0  0  0  0  0  0  0  0  0  0  0  0
    5.1965   -3.9394    1.3932 H   0  0  0  0  0  0  0  0  0  0  0  0
    4.8572   -2.4226    2.2475 H   0  0  0  0  0  0  0  0  0  0  0  0
    4.9174   -4.1205   -1.4511 N   0  0  0  0  0  0  0  0  0  0  0  0
    4.6707   -5.0898   -2.4930 C   0  0  0  0  0  0  0  0  0  0  0  0
    5.8593   -4.0570   -1.0763 H   0  0  0  0  0  0  0  0  0  0  0  0
    4.3704   -6.0466   -2.0408 H   0  0  0  0  0  0  0  0  0  0  0  0
    3.8661   -4.7260   -3.1490 H   0  0  0  0  0  0  0  0  0  0  0  0
    5.5875   -5.2351   -3.0831 H   0  0  0  0  0  0  0  0  0  0  0  0
  1  3  1  0  0  0  0
  1  7  1  0  0  0  0
  1  2  2  0  0  0  0
 22 23  1  0  0  0  0
 23 25  1  0  0  0  0
 23 24  2  0  0  0  0
 35 36  1  0  0  0  0
 36 44  1  0  0  0  0
 36 37  2  0  0  0  0
  8  9  1  0  0  0  0
  9 17  1  0  0  0  0
  9 10  2  0  0  0  0
 18 19  1  0  0  0  0
 19 34  1  0  0  0  0
 19 20  2  0  0  0  0
 35 38  1  0  0  0  0
  8 11  1  0  0  0  0
 44 45  1  0  0  0  0
 21 22  1  0  0  0  0
 18 21  1  0  0  0  0
 34 35  1  0  0  0  0
  7  8  1  0  0  0  0
 17 18  1  0  0  0  0
  3  4  1  0  0  0  0
  3  5  1  0  0  0  0
  3  6  1  0  0  0  0
 38 41  1  0  0  0  0
 38 42  1  0  0  0  0
 38 43  1  0  0  0  0
 11 14  1  0  0  0  0
 11 15  1  0  0  0  0
 11 16  1  0  0  0  0
 45 47  1  0  0  0  0
 45 48  1  0  0  0  0
 45 49  1  0  0  0  0
 22 30  1  0  0  0  0
 22 31  1  0  0  0  0
 21 28  1  0  0  0  0
 21 29  1  0  0  0  0
 35 40  1  0  0  0  0
  8 13  1  0  0  0  0
 18 27  1  0  0  0  0
 25 32  1  0  0  0  0
 25 33  1  0  0  0  0
 44 46  1  0  0  0  0
  7 12  1  0  0  0  0
 34 39  1  0  0  0  0
 17 26  1  0  0  0  0
M  END
$$$$

  -OEChem-05262214473D

 49 48  0     1  0  0  0  0  0999 V2000
   -1.9833   -0.0509   -3.3423 C   0  0  0  0  0  0  0  0  0  0  0  0
   -1.6199   -1.0613   -2.7518 O   0  0  0  0  0  0  0  0  0  0  0  0
   -3.3243   -0.0235   -3.9975 C   0  0  0  0  0  0  0  0  0  0  0  0
   -3.2886   -0.3689   -5.0432 H   0  0  0  0  0  0  0  0  0  0  0  0
   -4.0503   -0.6845   -3.4973 H   0  0  0  0  0  0  0  0  0  0  0  0
   -3.8104    0.9645   -4.0351 H   0  0  0  0  0  0  0  0  0  0  0  0
   -1.2607    1.1231   -3.4768 N   0  0  0  0  0  0  0  0  0  0  0  0
    0.0536    1.3115   -2.9213 C   0  0  2  0  0  0  0  0  0  0  0  0
    0.0266    0.8315   -1.4761 C   0  0  0  0  0  0  0  0  0  0  0  0
   -1.0065    0.7530   -0.8146 O   0  0  0  0  0  0  0  0  0  0  0  0
    0.4852    2.7674   -3.0025 C   0  0  0  0  0  0  0  0  0  0  0  0
   -1.6809    1.8924   -3.9952 H   0  0  0  0  0  0  0  0  0  0  0  0
    0.7360    0.6822   -3.5030 H   0  0  0  0  0  0  0  0  0  0  0  0
   -0.1867    3.4133   -2.4256 H   0  0  0  0  0  0  0  0  0  0  0  0
    1.4966    2.9042   -2.6056 H   0  0  0  0  0  0  0  0  0  0  0  0
    0.4754    3.1196   -4.0397 H   0  0  0  0  0  0  0  0  0  0  0  0
    1.2978    0.5411   -0.9947 N   0  0  0  0  0  0  0  0  0  0  0  0
    1.5371    0.0807    0.3489 C   0  0  2  0  0  0  0  0  0  0  0  0
    2.2000   -1.2884    0.2459 C   0  0  0  0  0  0  0  0  0  0  0  0
    1.5770   -2.3153   -0.0154 O   0  0  0  0  0  0  0  0  0  0  0  0
    0.2435   -0.0134    1.1678 C   0  0  0  0  0  0  0  0  0  0  0  0
   -0.3982    1.3466    1.4497 C   0  0  0  0  0  0  0  0  0  0  0  0
   -1.6909    1.2546    2.2390 C   0  0  0  0  0  0  0  0  0  0  0  0
   -2.2244    0.1972    2.5614 O   0  0  0  0  0  0  0  0  0  0  0  0
   -2.2150    2.4953    2.5327 N   0  0  0  0  0  0  0  0  0  0  0  0
    2.0949    0.6178   -1.6227 H   0  0  0  0  0  0  0  0  0  0  0  0
    2.2430    0.7855    0.8013 H   0  0  0  0  0  0  0  0  0  0  0  0
   -0.4828   -0.6328    0.6247 H   0  0  0  0  0  0  0  0  0  0  0  0
    0.4357   -0.5305    2.1163 H   0  0  0  0  0  0  0  0  0  0  0  0
   -0.6422    1.8260    0.4936 H   0  0  0  0  0  0  0  0  0  0  0  0
    0.3016    2.0060    1.9751 H   0  0  0  0  0  0  0  0  0  0  0  0
   -1.7211    3.3226    2.2148 H   0  0  0  0  0  0  0  0  0  0  0  0
   -3.0772    2.6109    3.0555 H   0  0  0  0  0  0  0  0  0  0  0  0
    3.5575   -1.2315    0.5297 N   0  0  0  0  0  0  0  0  0  0  0  0
    4.4185   -2.3923    0.5244 C   0  0  2  0  0  0  0  0  0  0  0  0
    4.1709   -3.1555   -0.7701 C   0  0  0  0  0  0  0  0  0  0  0  0
    3.1337   -3.0523   -1.4218 O   0  0  0  0  0  0  0  0  0  0  0  0
    4.1622   -3.2769    1.7345 C   0  0  0  0  0  0  0  0  0  0  0  0
    3.9662   -0.3288    0.7524 H   0  0  0  0  0  0  0  0  0  0  0  0
    5.4492   -2.0216    0.5390 H   0  0  0  0  0  0  0  0  0  0  0  0
    3.1344   -3.6578    1.7371 H   0  0  0  0  0  0  0  0  0  0  0  0
    4.8348   -4.1409    1.7440 H   0  0  0  0  0  0  0  0  0  0  0  0
    4.3118   -2.7180    2.6645 H   0  0  0  0  0  0  0  0  0  0  0  0
    5.2266   -3.9980   -1.0893 N   0  0  0  0  0  0  0  0  0  0  0  0
    5.2258   -4.8383   -2.2640 C   0  0  0  0  0  0  0  0  0  0  0  0
    6.0552   -4.0054   -0.5019 H   0  0  0  0  0  0  0  0  0  0  0  0
    4.8243   -5.8294   -2.0062 H   0  0  0  0  0  0  0  0  0  0  0  0
    4.5981   -4.3796   -3.0423 H   0  0  0  0  0  0  0  0  0  0  0  0
    6.2544   -4.9456   -2.6386 H   0  0  0  0  0  0  0  0  0  0  0  0
  1  3  1  0  0  0  0
  1  7  1  0  0  0  0
  1  2  2  0  0  0  0
 22 23  1  0  0  0  0
 23 25  1  0  0  0  0
 23 24  2  0  0  0  0
 35 36  1  0  0  0  0
 36 44  1  0  0  0  0
 36 37  2  0  0  0  0
  8  9  1  0  0  0  0
  9 17  1  0  0  0  0
  9 10  2  0  0  0  0
 18 19  1  0  0  0  0
 19 34  1  0  0  0  0
 19 20  2  0  0  0  0
 35 38  1  0  0  0  0
  8 11  1  0  0  0  0
 44 45  1  0  0  0  0
 21 22  1  0  0  0  0
 18 21  1  0  0  0  0
 34 35  1  0  0  0  0
  7  8  1  0  0  0  0
 17 18  1  0  0  0  0
  3  4  1  0  0  0  0
  3  5  1  0  0  0  0
  3  6  1  0  0  0  0
 38 41  1  0  0  0  0
 38 42  1  0  0  0  0
 38 43  1  0  0  0  0
 11 14  1  0  0  0  0
 11 15  1  0  0  0  0
 11 16  1  0  0  0  0
 45 47  1  0  0  0  0
 45 48  1  0  0  0  0
 45 49  1  0  0  0  0
 22 30  1  0  0  0  0
 22 31  1  0  0  0  0
 21 28  1  0  0  0  0
 21 29  1  0  0  0  0
 35 40  1  0  0  0  0
  8 13  1  0  0  0  0
 18 27  1  0  0  0  0
 25 32  1  0  0  0  0
 25 33  1  0  0  0  0
 44 46  1  0  0  0  0
  7 12  1  0  0  0  0
 34 39  1  0  0  0  0
 17 26  1  0  0  0  0
M  END
$$$$

  -OEChem-05262214473D

 49 48  0     1  0  0  0  0  0999 V2000
   -1.9833   -0.0509   -3.3423 C   0  0  0  0  0  0  0  0  0  0  0  0
   -1.6199   -1.0613   -2.7518 O   0  0  0  0  0  0  0  0  0  0  0  0
   -3.3243   -0.0235   -3.9975 C   0  0  0  0  0  0  0  0  0  0  0  0
   -3.2886   -0.3689   -5.0432 H   0  0  0  0  0  0  0  0  0  0  0  0
   -4.0503   -0.6845   -3.4973 H   0  0  0  0  0  0  0  0  0  0  0  0
   -3.8104    0.9645   -4.0351 H   0  0  0  0  0  0  0  0  0  0  0  0
   -1.2607    1.1231   -3.4768 N   0  0  0  0  0  0  0  0  0  0  0  0
    0.0536    1.3115   -2.9213 C   0  0  2  0  0  0  0  0  0  0  0  0
    0.0266    0.8315   -1.4761 C   0  0  0  0  0  0  0  0  0  0  0  0
   -1.0065    0.7530   -0.8146 O   0  0  0  0  0  0  0  0  0  0  0  0
    0.4852    2.7674   -3.0025 C   0  0  0  0  0  0  0  0  0  0  0  0
   -1.6809    1.8924   -3.9952 H   0  0  0  0  0  0  0  0  0  0  0  0
    0.7360    0.6822   -3.5030 H   0  0  0  0  0  0  0  0  0  0  0  0
   -0.1867    3.4133   -2.4256 H   0  0  0  0  0  0  0  0  0  0  0  0
    1.4966    2.9042   -2.6056 H   0  0  0  0  0  0  0  0  0  0  0  0
    0.4754    3.1196   -4.0397 H   0  0  0  0  0  0  0  0  0  0  0  0
    1.2978    0.5411   -0.9947 N   0  0  0  0  0  0  0  0  0  0  0  0
    1.5371    0.0807    0.3489 C   0  0  2  0  0  0  0  0  0  0  0  0
    2.2000   -1.2884    0.2459 C   0  0  0  0  0  0  0  0  0  0  0  0
    1.6509   -2.2605   -0.2684 O   0  0  0  0  0  0  0  0  0  0  0  0
    0.2435   -0.0134    1.1678 C   0  0  0  0  0  0  0  0  0  0  0  0
   -0.3982    1.3466    1.4497 C   0  0  0  0  0  0  0  0  0  0  0  0
   -1.6909    1.2546    2.2390 C   0  0  0  0  0  0  0  0  0  0  0  0
   -2.2244    0.1972    2.5614 O   0  0  0  0  0  0  0  0  0  0  0  0
   -2.2150    2.4953    2.5327 N   0  0  0  0  0  0  0  0  0  0  0  0
    2.0949    0.6178   -1.6227 H   0  0  0  0  0  0  0  0  0  0  0  0
    2.2430    0.7855    0.8013 H   0  0  0  0  0  0  0  0  0  0  0  0
   -0.4828   -0.6328    0.6247 H   0  0  0  0  0  0  0  0  0  0  0  0
    0.4357   -0.5305    2.1163 H   0  0  0  0  0  0  0  0  0  0  0  0
   -0.6422    1.8260    0.4936 H   0  0  0  0  0  0  0  0  0  0  0  0
    0.3016    2.0060    1.9751 H   0  0  0  0  0  0  0  0  0  0  0  0
   -1.7211    3.3226    2.2148 H   0  0  0  0  0  0  0  0  0  0  0  0
   -3.0772    2.6109    3.0555 H   0  0  0  0  0  0  0  0  0  0  0  0
    3.4539   -1.3051    0.8407 N   0  0  0  0  0  0  0  0  0  0  0  0
    4.2875   -2.4841    0.9018 C   0  0  2  0  0  0  0  0  0  0  0  0
    4.3457   -3.0917   -0.4935 C   0  0  0  0  0  0  0  0  0  0  0  0
    3.4897   -2.8852   -1.3513 O   0  0  0  0  0  0  0  0  0  0  0  0
    3.7521   -3.4887    1.9102 C   0  0  0  0  0  0  0  0  0  0  0  0
    3.8032   -0.4454    1.2539 H   0  0  0  0  0  0  0  0  0  0  0  0
    5.2879   -2.1492    1.1969 H   0  0  0  0  0  0  0  0  0  0  0  0
    2.7505   -3.8357    1.6312 H   0  0  0  0  0  0  0  0  0  0  0  0
    4.4004   -4.3687    1.9760 H   0  0  0  0  0  0  0  0  0  0  0  0
    3.6829   -3.0408    2.9074 H   0  0  0  0  0  0  0  0  0  0  0  0
    5.4432   -3.9259   -0.6541 N   0  0  0  0  0  0  0  0  0  0  0  0
    5.7131   -4.6308   -1.8855 C   0  0  0  0  0  0  0  0  0  0  0  0
    6.1118   -4.0236    0.1043 H   0  0  0  0  0  0  0  0  0  0  0  0
    5.2584   -5.6315   -1.8430 H   0  0  0  0  0  0  0  0  0  0  0  0
    5.2864   -4.0699   -2.7301 H   0  0  0  0  0  0  0  0  0  0  0  0
    6.8004   -4.7277   -2.0216 H   0  0  0  0  0  0  0  0  0  0  0  0
  1  3  1  0  0  0  0
  1  7  1  0  0  0  0
  1  2  2  0  0  0  0
 22 23  1  0  0  0  0
 23 25  1  0  0  0  0
 23 24  2  0  0  0  0
 35 36  1  0  0  0  0
 36 44  1  0  0  0  0
 36 37  2  0  0  0  0
  8  9  1  0  0  0  0
  9 17  1  0  0  0  0
  9 10  2  0  0  0  0
 18 19  1  0  0  0  0
 19 34  1  0  0  0  0
 19 20  2  0  0  0  0
 35 38  1  0  0  0  0
  8 11  1  0  0  0  0
 44 45  1  0  0  0  0
 21 22  1  0  0  0  0
 18 21  1  0  0  0  0
 34 35  1  0  0  0  0
  7  8  1  0  0  0  0
 17 18  1  0  0  0  0
  3  4  1  0  0  0  0
  3  5  1  0  0  0  0
  3  6  1  0  0  0  0
 38 41  1  0  0  0  0
 38 42  1  0  0  0  0
 38 43  1  0  0  0  0
 11 14  1  0  0  0  0
 11 15  1  0  0  0  0
 11 16  1  0  0  0  0
 45 47  1  0  0  0  0
 45 48  1  0  0  0  0
 45 49  1  0  0  0  0
 22 30  1  0  0  0  0
 22 31  1  0  0  0  0
 21 28  1  0  0  0  0
 21 29  1  0  0  0  0
 35 40  1  0  0  0  0
  8 13  1  0  0  0  0
 18 27  1  0  0  0  0
 25 32  1  0  0  0  0
 25 33  1  0  0  0  0
 44 46  1  0  0  0  0
  7 12  1  0  0  0  0
 34 39  1  0  0  0  0
 17 26  1  0  0  0  0
M  END
$$$$

  -OEChem-05262214473D

 49 48  0     1  0  0  0  0  0999 V2000
   -1.9833   -0.0509   -3.3423 C   0  0  0  0  0  0  0  0  0  0  0  0
   -1.6199   -1.0613   -2.7518 O   0  0  0  0  0  0  0  0  0  0  0  0
   -3.3243   -0.0235   -3.9975 C   0  0  0  0  0  0  0  0  0  0  0  0
   -3.2886   -0.3689   -5.0432 H   0  0  0  0  0  0  0  0  0  0  0  0
   -4.0503   -0.6845   -3.4973 H   0  0  0  0  0  0  0  0  0  0  0  0
   -3.8104    0.9645   -4.0351 H   0  0  0  0  0  0  0  0  0  0  0  0
   -1.2607    1.1231   -3.4768 N   0  0  0  0  0  0  0  0  0  0  0  0
    0.0536    1.3115   -2.9213 C   0  0  2  0  0  0  0  0  0  0  0  0
    0.0266    0.8315   -1.4761 C   0  0  0  0  0  0  0  0  0  0  0  0
   -1.0065    0.7530   -0.8146 O   0  0  0  0  0  0  0  0  0  0  0  0
    0.4852    2.7674   -3.0025 C   0  0  0  0  0  0  0  0  0  0  0  0
   -1.6809    1.8924   -3.9952 H   0  0  0  0  0  0  0  0  0  0  0  0
    0.7360    0.6822   -3.5030 H   0  0  0  0  0  0  0  0  0  0  0  0
   -0.1867    3.4133   -2.4256 H   0  0  0  0  0  0  0  0  0  0  0  0
    1.4966    2.9042   -2.6056 H   0  0  0  0  0  0  0  0  0  0  0  0
    0.4754    3.1196   -4.0397 H   0  0  0  0  0  0  0  0  0  0  0  0
    1.2978    0.5411   -0.9947 N   0  0  0  0  0  0  0  0  0  0  0  0
    1.5371    0.0807    0.3489 C   0  0  2  0  0  0  0  0  0  0  0  0
    2.2000   -1.2884    0.2459 C   0  0  0  0  0  0  0  0  0  0  0  0
    1.7820   -2.1803   -0.4894 O   0  0  0  0  0  0  0  0  0  0  0  0
    0.2435   -0.0134    1.1678 C   0  0  0  0  0  0  0  0  0  0  0  0
   -0.3982    1.3466    1.4497 C   0  0  0  0  0  0  0  0  0  0  0  0
   -1.6909    1.2546    2.2390 C   0  0  0  0  0  0  0  0  0  0  0  0
   -2.2244    0.1972    2.5614 O   0  0  0  0  0  0  0  0  0  0  0  0
   -2.2150    2.4953    2.5327 N   0  0  0  0  0  0  0  0  0  0  0  0
    2.0949    0.6178   -1.6227 H   0  0  0  0  0  0  0  0  0  0  0  0
    2.2430    0.7855    0.8013 H   0  0  0  0  0  0  0  0  0  0  0  0
   -0.4828   -0.6328    0.6247 H   0  0  0  0  0  0  0  0  0  0  0  0
    0.4357   -0.5305    2.1163 H   0  0  0  0  0  0  0  0  0  0  0  0
   -0.6422    1.8260    0.4936 H   0  0  0  0  0  0  0  0  0  0  0  0
    0.3016    2.0060    1.9751 H   0  0  0  0  0  0  0  0  0  0  0  0
   -1.7211    3.3226    2.2148 H   0  0  0  0  0  0  0  0  0  0  0  0
   -3.0772    2.6109    3.0555 H   0  0  0  0  0  0  0  0  0  0  0  0
    3.2804   -1.4093    1.1088 N   0  0  0  0  0  0  0  0  0  0  0  0
    4.0717   -2.6129    1.2256 C   0  0  2  0  0  0  0  0  0  0  0  0
    4.4515   -3.0642   -0.1786 C   0  0  0  0  0  0  0  0  0  0  0  0
    3.8202   -2.7380   -1.1816 O   0  0  0  0  0  0  0  0  0  0  0  0
    3.3116   -3.7058    1.9608 C   0  0  0  0  0  0  0  0  0  0  0  0
    3.5271   -0.6117    1.6873 H   0  0  0  0  0  0  0  0  0  0  0  0
    4.9770   -2.3437    1.7806 H   0  0  0  0  0  0  0  0  0  0  0  0
    2.4013   -3.9889    1.4197 H   0  0  0  0  0  0  0  0  0  0  0  0
    3.9228   -4.6073    2.0735 H   0  0  0  0  0  0  0  0  0  0  0  0
    3.0133   -3.3689    2.9594 H   0  0  0  0  0  0  0  0  0  0  0  0
    5.5526   -3.9089   -0.1753 N   0  0  0  0  0  0  0  0  0  0  0  0
    6.0995   -4.4815   -1.3832 C   0  0  0  0  0  0  0  0  0  0  0  0
    6.0253   -4.1104    0.7009 H   0  0  0  0  0  0  0  0  0  0  0  0
    5.6433   -5.4663   -1.5621 H   0  0  0  0  0  0  0  0  0  0  0  0
    5.8841   -3.8178   -2.2336 H   0  0  0  0  0  0  0  0  0  0  0  0
    7.1881   -4.5962   -1.2743 H   0  0  0  0  0  0  0  0  0  0  0  0
  1  3  1  0  0  0  0
  1  7  1  0  0  0  0
  1  2  2  0  0  0  0
 22 23  1  0  0  0  0
 23 25  1  0  0  0  0
 23 24  2  0  0  0  0
 35 36  1  0  0  0  0
 36 44  1  0  0  0  0
 36 37  2  0  0  0  0
  8  9  1  0  0  0  0
  9 17  1  0  0  0  0
  9 10  2  0  0  0  0
 18 19  1  0  0  0  0
 19 34  1  0  0  0  0
 19 20  2  0  0  0  0
 35 38  1  0  0  0  0
  8 11  1  0  0  0  0
 44 45  1  0  0  0  0
 21 22  1  0  0  0  0
 18 21  1  0  0  0  0
 34 35  1  0  0  0  0
  7  8  1  0  0  0  0
 17 18  1  0  0  0  0
  3  4  1  0  0  0  0
  3  5  1  0  0  0  0
  3  6  1  0  0  0  0
 38 41  1  0  0  0  0
 38 42  1  0  0  0  0
 38 43  1  0  0  0  0
 11 14  1  0  0  0  0
 11 15  1  0  0  0  0
 11 16  1  0  0  0  0
 45 47  1  0  0  0  0
 45 48  1  0  0  0  0
 45 49  1  0  0  0  0
 22 30  1  0  0  0  0
 22 31  1  0  0  0  0
 21 28  1  0  0  0  0
 21 29  1  0  0  0  0
 35 40  1  0  0  0  0
  8 13  1  0  0  0  0
 18 27  1  0  0  0  0
 25 32  1  0  0  0  0
 25 33  1  0  0  0  0
 44 46  1  0  0  0  0
  7 12  1  0  0  0  0
 34 39  1  0  0  0  0
 17 26  1  0  0  0  0
M  END
$$$$

  -OEChem-05262214473D

 49 48  0     1  0  0  0  0  0999 V2000
   -1.9833   -0.0509   -3.3423 C   0  0  0  0  0  0  0  0  0  0  0  0
   -1.6199   -1.0613   -2.7518 O   0  0  0  0  0  0  0  0  0  0  0  0
   -3.3243   -0.0235   -3.9975 C   0  0  0  0  0  0  0  0  0  0  0  0
   -3.2886   -0.3689   -5.0432 H   0  0  0  0  0  0  0  0  0  0  0  0
   -4.0503   -0.6845   -3.4973 H   0  0  0  0  0  0  0  0  0  0  0  0
   -3.8104    0.9645   -4.0351 H   0  0  0  0  0  0  0  0  0  0  0  0
   -1.2607    1.1231   -3.4768 N   0  0  0  0  0  0  0  0  0  0  0  0
    0.0536    1.3115   -2.9213 C   0  0  2  0  0  0  0  0  0  0  0  0
    0.0266    0.8315   -1.4761 C   0  0  0  0  0  0  0  0  0  0  0  0
   -1.0065    0.7530   -0.8146 O   0  0  0  0  0  0  0  0  0  0  0  0
    0.4852    2.7674   -3.0025 C   0  0  0  0  0  0  0  0  0  0  0  0
   -1.6809    1.8924   -3.9952 H   0  0  0  0  0  0  0  0  0  0  0  0
    0.7360    0.6822   -3.5030 H   0  0  0  0  0  0  0  0  0  0  0  0
   -0.1867    3.4133   -2.4256 H   0  0  0  0  0  0  0  0  0  0  0  0
    1.4966    2.9042   -2.6056 H   0  0  0  0  0  0  0  0  0  0  0  0
    0.4754    3.1196   -4.0397 H   0  0  0  0  0  0  0  0  0  0  0  0
    1.2978    0.5411   -0.9947 N   0  0  0  0  0  0  0  0  0  0  0  0
    1.5371    0.0807    0.3489 C   0  0  2  0  0  0  0  0  0  0  0  0
    2.2000   -1.2884    0.2459 C   0  0  0  0  0  0  0  0  0  0  0  0
    1.9614   -2.0804   -0.6635 O   0  0  0  0  0  0  0  0  0  0  0  0
    0.2435   -0.0134    1.1678 C   0  0  0  0  0  0  0  0  0  0  0  0
   -0.3982    1.3466    1.4497 C   0  0  0  0  0  0  0  0  0  0  0  0
   -1.6909    1.2546    2.2390 C   0  0  0  0  0  0  0  0  0  0  0  0
   -2.2244    0.1972    2.5614 O   0  0  0  0  0  0  0  0  0  0  0  0
   -2.2150    2.4953    2.5327 N   0  0  0  0  0  0  0  0  0  0  0  0
    2.0949    0.6178   -1.6227 H   0  0  0  0  0  0  0  0  0  0  0  0
    2.2430    0.7855    0.8013 H   0  0  0  0  0  0  0  0  0  0  0  0
   -0.4828   -0.6328    0.6247 H   0  0  0  0  0  0  0  0  0  0  0  0
    0.4357   -0.5305    2.1163 H   0  0  0  0  0  0  0  0  0  0  0  0
   -0.6422    1.8260    0.4936 H   0  0  0  0  0  0  0  0  0  0  0  0
    0.3016    2.0060    1.9751 H   0  0  0  0  0  0  0  0  0  0  0  0
   -1.7211    3.3226    2.2148 H   0  0  0  0  0  0  0  0  0  0  0  0
   -3.0772    2.6109    3.0555 H   0  0  0  0  0  0  0  0  0  0  0  0
    3.0486   -1.5371    1.3157 N   0  0  0  0  0  0  0  0  0  0  0  0
    3.7858   -2.7701    1.4737 C   0  0  2  0  0  0  0  0  0  0  0  0
    4.4809   -3.0749    0.1534 C   0  0  0  0  0  0  0  0  0  0  0  0
    4.1026   -2.6206   -0.9244 O   0  0  0  0  0  0  0  0  0  0  0  0
    2.8704   -3.9135    1.8828 C   0  0  0  0  0  0  0  0  0  0  0  0
    3.1568   -0.8163    2.0231 H   0  0  0  0  0  0  0  0  0  0  0  0
    4.5376   -2.5918    2.2503 H   0  0  0  0  0  0  0  0  0  0  0  0
    2.1104   -4.1069    1.1170 H   0  0  0  0  0  0  0  0  0  0  0  0
    3.4347   -4.8403    2.0298 H   0  0  0  0  0  0  0  0  0  0  0  0
    2.3487   -3.6800    2.8172 H   0  0  0  0  0  0  0  0  0  0  0  0
    5.5473   -3.9484    0.3145 N   0  0  0  0  0  0  0  0  0  0  0  0
    6.3587   -4.4006   -0.7915 C   0  0  0  0  0  0  0  0  0  0  0  0
    5.8016   -4.2598    1.2473 H   0  0  0  0  0  0  0  0  0  0  0  0
    5.9526   -5.3451   -1.1827 H   0  0  0  0  0  0  0  0  0  0  0  0
    6.3505   -3.6407   -1.5869 H   0  0  0  0  0  0  0  0  0  0  0  0
    7.3912   -4.5601   -0.4475 H   0  0  0  0  0  0  0  0  0  0  0  0
  1  3  1  0  0  0  0
  1  7  1  0  0  0  0
  1  2  2  0  0  0  0
 22 23  1  0  0  0  0
 23 25  1  0  0  0  0
 23 24  2  0  0  0  0
 35 36  1  0  0  0  0
 36 44  1  0  0  0  0
 36 37  2  0  0  0  0
  8  9  1  0  0  0  0
  9 17  1  0  0  0  0
  9 10  2  0  0  0  0
 18 19  1  0  0  0  0
 19 34  1  0  0  0  0
 19 20  2  0  0  0  0
 35 38  1  0  0  0  0
  8 11  1  0  0  0  0
 44 45  1  0  0  0  0
 21 22  1  0  0  0  0
 18 21  1  0  0  0  0
 34 35  1  0  0  0  0
  7  8  1  0  0  0  0
 17 18  1  0  0  0  0
  3  4  1  0  0  0  0
  3  5  1  0  0  0  0
  3  6  1  0  0  0  0
 38 41  1  0  0  0  0
 38 42  1  0  0  0  0
 38 43  1  0  0  0  0
 11 14  1  0  0  0  0
 11 15  1  0  0  0  0
 11 16  1  0  0  0  0
 45 47  1  0  0  0  0
 45 48  1  0  0  0  0
 45 49  1  0  0  0  0
 22 30  1  0  0  0  0
 22 31  1  0  0  0  0
 21 28  1  0  0  0  0
 21 29  1  0  0  0  0
 35 40  1  0  0  0  0
  8 13  1  0  0  0  0
 18 27  1  0  0  0  0
 25 32  1  0  0  0  0
 25 33  1  0  0  0  0
 44 46  1  0  0  0  0
  7 12  1  0  0  0  0
 34 39  1  0  0  0  0
 17 26  1  0  0  0  0
M  END
$$$$

  -OEChem-05262214473D

 49 48  0     1  0  0  0  0  0999 V2000
   -1.9833   -0.0509   -3.3423 C   0  0  0  0  0  0  0  0  0  0  0  0
   -1.6199   -1.0613   -2.7518 O   0  0  0  0  0  0  0  0  0  0  0  0
   -3.3243   -0.0235   -3.9975 C   0  0  0  0  0  0  0  0  0  0  0  0
   -3.2886   -0.3689   -5.0432 H   0  0  0  0  0  0  0  0  0  0  0  0
   -4.0503   -0.6845   -3.4973 H   0  0  0  0  0  0  0  0  0  0  0  0
   -3.8104    0.9645   -4.0351 H   0  0  0  0  0  0  0  0  0  0  0  0
   -1.2607    1.1231   -3.4768 N   0  0  0  0  0  0  0  0  0  0  0  0
    0.0536    1.3115   -2.9213 C   0  0  2  0  0  0  0  0  0  0  0  0
    0.0266    0.8315   -1.4761 C   0  0  0  0  0  0  0  0  0  0  0  0
   -1.0065    0.7530   -0.8146 O   0  0  0  0  0  0  0  0  0  0  0  0
    0.4852    2.7674   -3.0025 C   0  0  0  0  0  0  0  0  0  0  0  0
   -1.6809    1.8924   -3.9952 H   0  0  0  0  0  0  0  0  0  0  0  0
    0.7360    0.6822   -3.5030 H   0  0  0  0  0  0  0  0  0  0  0  0
   -0.1867    3.4133   -2.4256 H   0  0  0  0  0  0  0  0  0  0  0  0
    1.4966    2.9042   -2.6056 H   0  0  0  0  0  0  0  0  0  0  0  0
    0.4754    3.1196   -4.0397 H   0  0  0  0  0  0  0  0  0  0  0  0
    1.2978    0.5411   -0.9947 N   0  0  0  0  0  0  0  0  0  0  0  0
    1.5371    0.0807    0.3489 C   0  0  2  0  0  0  0  0  0  0  0  0
    2.2000   -1.2884    0.2459 C   0  0  0  0  0  0  0  0  0  0  0  0
    2.1770   -1.9673   -0.7786 O   0  0  0  0  0  0  0  0  0  0  0  0
    0.2435   -0.0134    1.1678 C   0  0  0  0  0  0  0  0  0  0  0  0
   -0.3982    1.3466    1.4497 C   0  0  0  0  0  0  0  0  0  0  0  0
   -1.6909    1.2546    2.2390 C   0  0  0  0  0  0  0  0  0  0  0  0
   -2.2244    0.1972    2.5614 O   0  0  0  0  0  0  0  0  0  0  0  0
   -2.2150    2.4953    2.5327 N   0  0  0  0  0  0  0  0  0  0  0  0
    2.0949    0.6178   -1.6227 H   0  0  0  0  0  0  0  0  0  0  0  0
    2.2430    0.7855    0.8013 H   0  0  0  0  0  0  0  0  0  0  0  0
   -0.4828   -0.6328    0.6247 H   0  0  0  0  0  0  0  0  0  0  0  0
    0.4357   -0.5305    2.1163 H   0  0  0  0  0  0  0  0  0  0  0  0
   -0.6422    1.8260    0.4936 H   0  0  0  0  0  0  0  0  0  0  0  0
    0.3016    2.0060    1.9751 H   0  0  0  0  0  0  0  0  0  0  0  0
   -1.7211    3.3226    2.2148 H   0  0  0  0  0  0  0  0  0  0  0  0
   -3.0772    2.6109    3.0555 H   0  0  0  0  0  0  0  0  0  0  0  0
    2.7744   -1.6798    1.4473 N   0  0  0  0  0  0  0  0  0  0  0  0
    3.4492   -2.9448    1.6292 C   0  0  2  0  0  0  0  0  0  0  0  0
    4.4320   -3.1232    0.4796 C   0  0  0  0  0  0  0  0  0  0  0  0
    4.3176   -2.5412   -0.5971 O   0  0  0  0  0  0  0  0  0  0  0  0
    2.4588   -4.0977    1.6816 C   0  0  0  0  0  0  0  0  0  0  0  0
    2.7175   -1.0452    2.2384 H   0  0  0  0  0  0  0  0  0  0  0  0
    3.9997   -2.8766    2.5739 H   0  0  0  0  0  0  0  0  0  0  0  0
    1.8978   -4.1818    0.7437 H   0  0  0  0  0  0  0  0  0  0  0  0
    2.9693   -5.0520    1.8480 H   0  0  0  0  0  0  0  0  0  0  0  0
    1.7344   -3.9528    2.4903 H   0  0  0  0  0  0  0  0  0  0  0  0
    5.4277   -4.0415    0.7819 N   0  0  0  0  0  0  0  0  0  0  0  0
    6.4729   -4.3935   -0.1506 C   0  0  0  0  0  0  0  0  0  0  0  0
    5.4559   -4.4617    1.7062 H   0  0  0  0  0  0  0  0  0  0  0  0
    6.1654   -5.2761   -0.7308 H   0  0  0  0  0  0  0  0  0  0  0  0
    6.6537   -3.5506   -0.8338 H   0  0  0  0  0  0  0  0  0  0  0  0
    7.3959   -4.6218    0.4025 H   0  0  0  0  0  0  0  0  0  0  0  0
  1  3  1  0  0  0  0
  1  7  1  0  0  0  0
  1  2  2  0  0  0  0
 22 23  1  0  0  0  0
 23 25  1  0  0  0  0
 23 24  2  0  0  0  0
 35 36  1  0  0  0  0
 36 44  1  0  0  0  0
 36 37  2  0  0  0  0
  8  9  1  0  0  0  0
  9 17  1  0  0  0  0
  9 10  2  0  0  0  0
 18 19  1  0  0  0  0
 19 34  1  0  0  0  0
 19 20  2  0  0  0  0
 35 38  1  0  0  0  0
  8 11  1  0  0  0  0
 44 45  1  0  0  0  0
 21 22  1  0  0  0  0
 18 21  1  0  0  0  0
 34 35  1  0  0  0  0
  7  8  1  0  0  0  0
 17 18  1  0  0  0  0
  3  4  1  0  0  0  0
  3  5  1  0  0  0  0
  3  6  1  0  0  0  0
 38 41  1  0  0  0  0
 38 42  1  0  0  0  0
 38 43  1  0  0  0  0
 11 14  1  0  0  0  0
 11 15  1  0  0  0  0
 11 16  1  0  0  0  0
 45 47  1  0  0  0  0
 45 48  1  0  0  0  0
 45 49  1  0  0  0  0
 22 30  1  0  0  0  0
 22 31  1  0  0  0  0
 21 28  1  0  0  0  0
 21 29  1  0  0  0  0
 35 40  1  0  0  0  0
  8 13  1  0  0  0  0
 18 27  1  0  0  0  0
 25 32  1  0  0  0  0
 25 33  1  0  0  0  0
 44 46  1  0  0  0  0
  7 12  1  0  0  0  0
 34 39  1  0  0  0  0
 17 26  1  0  0  0  0
M  END
$$$$

  -OEChem-05262214473D

 49 48  0     1  0  0  0  0  0999 V2000
   -1.9833   -0.0509   -3.3423 C   0  0  0  0  0  0  0  0  0  0  0  0
   -1.6199   -1.0613   -2.7518 O   0  0  0  0  0  0  0  0  0  0  0  0
   -3.3243   -0.0235   -3.9975 C   0  0  0  0  0  0  0  0  0  0  0  0
   -3.2886   -0.3689   -5.0432 H   0  0  0  0  0  0  0  0  0  0  0  0
   -4.0503   -0.6845   -3.4973 H   0  0  0  0  0  0  0  0  0  0  0  0
   -3.8104    0.9645   -4.0351 H   0  0  0  0  0  0  0  0  0  0  0  0
   -1.2607    1.1231   -3.4768 N   0  0  0  0  0  0  0  0  0  0  0  0
    0.0536    1.3115   -2.9213 C   0  0  2  0  0  0  0  0  0  0  0  0
    0.0266    0.8315   -1.4761 C   0  0  0  0  0  0  0  0  0  0  0  0
   -1.0065    0.7530   -0.8146 O   0  0  0  0  0  0  0  0  0  0  0  0
    0.4852    2.7674   -3.0025 C   0  0  0  0  0  0  0  0  0  0  0  0
   -1.6809    1.8924   -3.9952 H   0  0  0  0  0  0  0  0  0  0  0  0
    0.7360    0.6822   -3.5030 H   0  0  0  0  0  0  0  0  0  0  0  0
   -0.1867    3.4133   -2.4256 H   0  0  0  0  0  0  0  0  0  0  0  0
    1.4966    2.9042   -2.6056 H   0  0  0  0  0  0  0  0  0  0  0  0
    0.4754    3.1196   -4.0397 H   0  0  0  0  0  0  0  0  0  0  0  0
    1.2978    0.5411   -0.9947 N   0  0  0  0  0  0  0  0  0  0  0  0
    1.5371    0.0807    0.3489 C   0  0  2  0  0  0  0  0  0  0  0  0
    2.5191   -1.0822    0.2597 C   0  0  0  0  0  0  0  0  0  0  0  0
    2.9453   -1.5173   -0.8080 O   0  0  0  0  0  0  0  0  0  0  0  0
    0.2458   -0.3640    1.0472 C   0  0  0  0  0  0  0  0  0  0  0  0
   -0.7273    0.7856    1.3161 C   0  0  0  0  0  0  0  0  0  0  0  0
   -2.0159    0.3447    1.9851 C   0  0  0  0  0  0  0  0  0  0  0  0
   -2.2995   -0.8253    2.2244 O   0  0  0  0  0  0  0  0  0  0  0  0
   -2.8471    1.4062    2.2721 N   0  0  0  0  0  0  0  0  0  0  0  0
    2.0949    0.6178   -1.6227 H   0  0  0  0  0  0  0  0  0  0  0  0
    2.0131    0.9090    0.8846 H   0  0  0  0  0  0  0  0  0  0  0  0
   -0.2637   -1.1096    0.4223 H   0  0  0  0  0  0  0  0  0  0  0  0
    0.4840   -0.8697    1.9915 H   0  0  0  0  0  0  0  0  0  0  0  0
   -1.0057    1.2427    0.3585 H   0  0  0  0  0  0  0  0  0  0  0  0
   -0.2517    1.5646    1.9224 H   0  0  0  0  0  0  0  0  0  0  0  0
   -2.5462    2.3434    2.0262 H   0  0  0  0  0  0  0  0  0  0  0  0
   -3.7494    1.2839    2.7206 H   0  0  0  0  0  0  0  0  0  0  0  0
    2.8207   -1.6050    1.5095 N   0  0  0  0  0  0  0  0  0  0  0  0
    3.7101   -2.7270    1.7066 C   0  0  2  0  0  0  0  0  0  0  0  0
    4.9824   -2.4639    0.9120 C   0  0  0  0  0  0  0  0  0  0  0  0
    5.0273   -1.6974   -0.0480 O   0  0  0  0  0  0  0  0  0  0  0  0
    3.0592   -4.0317    1.2742 C   0  0  0  0  0  0  0  0  0  0  0  0
    2.3951   -1.1776    2.3267 H   0  0  0  0  0  0  0  0  0  0  0  0
    3.9466   -2.7591    2.7757 H   0  0  0  0  0  0  0  0  0  0  0  0
    2.8150   -4.0182    0.2057 H   0  0  0  0  0  0  0  0  0  0  0  0
    3.7235   -4.8841    1.4506 H   0  0  0  0  0  0  0  0  0  0  0  0
    2.1287   -4.2045    1.8256 H   0  0  0  0  0  0  0  0  0  0  0  0
    6.0518   -3.2184    1.3740 N   0  0  0  0  0  0  0  0  0  0  0  0
    7.3654   -3.1562    0.7770 C   0  0  0  0  0  0  0  0  0  0  0  0
    5.9286   -3.8137    2.1877 H   0  0  0  0  0  0  0  0  0  0  0  0
    7.4558   -3.9359    0.0064 H   0  0  0  0  0  0  0  0  0  0  0  0
    7.5128   -2.1677    0.3174 H   0  0  0  0  0  0  0  0  0  0  0  0
    8.1285   -3.3173    1.5527 H   0  0  0  0  0  0  0  0  0  0  0  0
  1  3  1  0  0  0  0
  1  7  1  0  0  0  0
  1  2  2  0  0  0  0
 22 23  1  0  0  0  0
 23 25  1  0  0  0  0
 23 24  2  0  0  0  0
 35 36  1  0  0  0  0
 36 44  1  0  0  0  0
 36 37  2  0  0  0  0
  8  9  1  0  0  0  0
  9 17  1  0  0  0  0
  9 10  2  0  0  0  0
 18 19  1  0  0  0  0
 19 34  1  0  0  0  0
 19 20  2  0  0  0  0
 35 38  1  0  0  0  0
  8 11  1  0  0  0  0
 44 45  1  0  0  0  0
 21 22  1  0  0  0  0
 18 21  1  0  0  0  0
 34 35  1  0  0  0  0
  7  8  1  0  0  0  0
 17 18  1  0  0  0  0
  3  4  1  0  0  0  0
  3  5  1  0  0  0  0
  3  6  1  0  0  0  0
 38 41  1  0  0  0  0
 38 42  1  0  0  0  0
 38 43  1  0  0  0  0
 11 14  1  0  0  0  0
 11 15  1  0  0  0  0
 11 16  1  0  0  0  0
 45 47  1  0  0  0  0
 45 48  1  0  0  0  0
 45 49  1  0  0  0  0
 22 30  1  0  0  0  0
 22 31  1  0  0  0  0
 21 28  1  0  0  0  0
 21 29  1  0  0  0  0
 35 40  1  0  0  0  0
  8 13  1  0  0  0  0
 18 27  1  0  0  0  0
 25 32  1  0  0  0  0
 25 33  1  0  0  0  0
 44 46  1  0  0  0  0
  7 12  1  0  0  0  0
 34 39  1  0  0  0  0
 17 26  1  0  0  0  0
M  END
$$$$

  -OEChem-05262214473D

 49 48  0     1  0  0  0  0  0999 V2000
   -1.9833   -0.0509   -3.3423 C   0  0  0  0  0  0  0  0  0  0  0  0
   -1.6199   -1.0613   -2.7518 O   0  0  0  0  0  0  0  0  0  0  0  0
   -3.3243   -0.0235   -3.9975 C   0  0  0  0  0  0  0  0  0  0  0  0
   -3.2886   -0.3689   -5.0432 H   0  0  0  0  0  0  0  0  0  0  0  0
   -4.0503   -0.6845   -3.4973 H   0  0  0  0  0  0  0  0  0  0  0  0
   -3.8104    0.9645   -4.0351 H   0  0  0  0  0  0  0  0  0  0  0  0
   -1.2607    1.1231   -3.4768 N   0  0  0  0  0  0  0  0  0  0  0  0
    0.0536    1.3115   -2.9213 C   0  0  2  0  0  0  0  0  0  0  0  0
    0.0266    0.8315   -1.4761 C   0  0  0  0  0  0  0  0  0  0  0  0
   -1.0065    0.7530   -0.8146 O   0  0  0  0  0  0  0  0  0  0  0  0
    0.4852    2.7674   -3.0025 C   0  0  0  0  0  0  0  0  0  0  0  0
   -1.6809    1.8924   -3.9952 H   0  0  0  0  0  0  0  0  0  0  0  0
    0.7360    0.6822   -3.5030 H   0  0  0  0  0  0  0  0  0  0  0  0
   -0.1867    3.4133   -2.4256 H   0  0  0  0  0  0  0  0  0  0  0  0
    1.4966    2.9042   -2.6056 H   0  0  0  0  0  0  0  0  0  0  0  0
    0.4754    3.1196   -4.0397 H   0  0  0  0  0  0  0  0  0  0  0  0
    1.2978    0.5411   -0.9947 N   0  0  0  0  0  0  0  0  0  0  0  0
    1.5371    0.0807    0.3489 C   0  0  2  0  0  0  0  0  0  0  0  0
    2.5191   -1.0822    0.2597 C   0  0  0  0  0  0  0  0  0  0  0  0
    3.1496   -1.3484   -0.7613 O   0  0  0  0  0  0  0  0  0  0  0  0
    0.2458   -0.3640    1.0472 C   0  0  0  0  0  0  0  0  0  0  0  0
   -0.7273    0.7856    1.3161 C   0  0  0  0  0  0  0  0  0  0  0  0
   -2.0159    0.3447    1.9851 C   0  0  0  0  0  0  0  0  0  0  0  0
   -2.2995   -0.8253    2.2244 O   0  0  0  0  0  0  0  0  0  0  0  0
   -2.8471    1.4062    2.2721 N   0  0  0  0  0  0  0  0  0  0  0  0
    2.0949    0.6178   -1.6227 H   0  0  0  0  0  0  0  0  0  0  0  0
    2.0131    0.9090    0.8846 H   0  0  0  0  0  0  0  0  0  0  0  0
   -0.2637   -1.1096    0.4223 H   0  0  0  0  0  0  0  0  0  0  0  0
    0.4840   -0.8697    1.9915 H   0  0  0  0  0  0  0  0  0  0  0  0
   -1.0057    1.2427    0.3585 H   0  0  0  0  0  0  0  0  0  0  0  0
   -0.2517    1.5646    1.9224 H   0  0  0  0  0  0  0  0  0  0  0  0
   -2.5462    2.3434    2.0262 H   0  0  0  0  0  0  0  0  0  0  0  0
   -3.7494    1.2839    2.7206 H   0  0  0  0  0  0  0  0  0  0  0  0
    2.5672   -1.8136    1.4383 N   0  0  0  0  0  0  0  0  0  0  0  0
    3.4015   -2.9806    1.6144 C   0  0  2  0  0  0  0  0  0  0  0  0
    4.8059   -2.6305    1.1405 C   0  0  0  0  0  0  0  0  0  0  0  0
    5.0394   -1.7178    0.3509 O   0  0  0  0  0  0  0  0  0  0  0  0
    2.8516   -4.1744    0.8495 C   0  0  0  0  0  0  0  0  0  0  0  0
    1.9870   -1.5137    2.2161 H   0  0  0  0  0  0  0  0  0  0  0  0
    3.4209   -3.1963    2.6882 H   0  0  0  0  0  0  0  0  0  0  0  0
    2.8245   -3.9769   -0.2283 H   0  0  0  0  0  0  0  0  0  0  0  0
    3.4689   -5.0650    1.0069 H   0  0  0  0  0  0  0  0  0  0  0  0
    1.8304   -4.4062    1.1707 H   0  0  0  0  0  0  0  0  0  0  0  0
    5.7633   -3.4846    1.6697 N   0  0  0  0  0  0  0  0  0  0  0  0
    7.1693   -3.3666    1.3611 C   0  0  0  0  0  0  0  0  0  0  0  0
    5.4819   -4.2019    2.3315 H   0  0  0  0  0  0  0  0  0  0  0  0
    7.4123   -4.0108    0.5032 H   0  0  0  0  0  0  0  0  0  0  0  0
    7.4035   -2.3210    1.1122 H   0  0  0  0  0  0  0  0  0  0  0  0
    7.7633   -3.6778    2.2330 H   0  0  0  0  0  0  0  0  0  0  0  0
  1  3  1  0  0  0  0
  1  7  1  0  0  0  0
  1  2  2  0  0  0  0
 22 23  1  0  0  0  0
 23 25  1  0  0  0  0
 23 24  2  0  0  0  0
 35 36  1  0  0  0  0
 36 44  1  0  0  0  0
 36 37  2  0  0  0  0
  8  9  1  0  0  0  0
  9 17  1  0  0  0  0
  9 10  2  0  0  0  0
 18 19  1  0  0  0  0
 19 34  1  0  0  0  0
 19 20  2  0  0  0  0
 35 38  1  0  0  0  0
  8 11  1  0  0  0  0
 44 45  1  0  0  0  0
 21 22  1  0  0  0  0
 18 21  1  0  0  0  0
 34 35  1  0  0  0  0
  7  8  1  0  0  0  0
 17 18  1  0  0  0  0
  3  4  1  0  0  0  0
  3  5  1  0  0  0  0
  3  6  1  0  0  0  0
 38 41  1  0  0  0  0
 38 42  1  0  0  0  0
 38 43  1  0  0  0  0
 11 14  1  0  0  0  0
 11 15  1  0  0  0  0
 11 16  1  0  0  0  0
 45 47  1  0  0  0  0
 45 48  1  0  0  0  0
 45 49  1  0  0  0  0
 22 30  1  0  0  0  0
 22 31  1  0  0  0  0
 21 28  1  0  0  0  0
 21 29  1  0  0  0  0
 35 40  1  0  0  0  0
  8 13  1  0  0  0  0
 18 27  1  0  0  0  0
 25 32  1  0  0  0  0
 25 33  1  0  0  0  0
 44 46  1  0  0  0  0
  7 12  1  0  0  0  0
 34 39  1  0  0  0  0
 17 26  1  0  0  0  0
M  END
$$$$

  -OEChem-05262214473D

 49 48  0     1  0  0  0  0  0999 V2000
   -1.9833   -0.0509   -3.3423 C   0  0  0  0  0  0  0  0  0  0  0  0
   -1.6199   -1.0613   -2.7518 O   0  0  0  0  0  0  0  0  0  0  0  0
   -3.3243   -0.0235   -3.9975 C   0  0  0  0  0  0  0  0  0  0  0  0
   -3.2886   -0.3689   -5.0432 H   0  0  0  0  0  0  0  0  0  0  0  0
   -4.0503   -0.6845   -3.4973 H   0  0  0  0  0  0  0  0  0  0  0  0
   -3.8104    0.9645   -4.0351 H   0  0  0  0  0  0  0  0  0  0  0  0
   -1.2607    1.1231   -3.4768 N   0  0  0  0  0  0  0  0  0  0  0  0
    0.0536    1.3115   -2.9213 C   0  0  2  0  0  0  0  0  0  0  0  0
    0.0266    0.8315   -1.4761 C   0  0  0  0  0  0  0  0  0  0  0  0
   -1.0065    0.7530   -0.8146 O   0  0  0  0  0  0  0  0  0  0  0  0
    0.4852    2.7674   -3.0025 C   0  0  0  0  0  0  0  0  0  0  0  0
   -1.6809    1.8924   -3.9952 H   0  0  0  0  0  0  0  0  0  0  0  0
    0.7360    0.6822   -3.5030 H   0  0  0  0  0  0  0  0  0  0  0  0
   -0.1867    3.4133   -2.4256 H   0  0  0  0  0  0  0  0  0  0  0  0
    1.4966    2.9042   -2.6056 H   0  0  0  0  0  0  0  0  0  0  0  0
    0.4754    3.1196   -4.0397 H   0  0  0  0  0  0  0  0  0  0  0  0
    1.2978    0.5411   -0.9947 N   0  0  0  0  0  0  0  0  0  0  0  0
    1.5371    0.0807    0.3489 C   0  0  2  0  0  0  0  0  0  0  0  0
    2.5191   -1.0822    0.2597 C   0  0  0  0  0  0  0  0  0  0  0  0
    3.3404   -1.1960   -0.6478 O   0  0  0  0  0  0  0  0  0  0  0  0
    0.2458   -0.3640    1.0472 C   0  0  0  0  0  0  0  0  0  0  0  0
   -0.7273    0.7856    1.3161 C   0  0  0  0  0  0  0  0  0  0  0  0
   -2.0159    0.3447    1.9851 C   0  0  0  0  0  0  0  0  0  0  0  0
   -2.2995   -0.8253    2.2244 O   0  0  0  0  0  0  0  0  0  0  0  0
   -2.8471    1.4062    2.2721 N   0  0  0  0  0  0  0  0  0  0  0  0
    2.0949    0.6178   -1.6227 H   0  0  0  0  0  0  0  0  0  0  0  0
    2.0131    0.9090    0.8846 H   0  0  0  0  0  0  0  0  0  0  0  0
   -0.2637   -1.1096    0.4223 H   0  0  0  0  0  0  0  0  0  0  0  0
    0.4840   -0.8697    1.9915 H   0  0  0  0  0  0  0  0  0  0  0  0
   -1.0057    1.2427    0.3585 H   0  0  0  0  0  0  0  0  0  0  0  0
   -0.2517    1.5646    1.9224 H   0  0  0  0  0  0  0  0  0  0  0  0
   -2.5462    2.3434    2.0262 H   0  0  0  0  0  0  0  0  0  0  0  0
   -3.7494    1.2839    2.7206 H   0  0  0  0  0  0  0  0  0  0  0  0
    2.3332   -1.9994    1.2847 N   0  0  0  0  0  0  0  0  0  0  0  0
    3.1178   -3.2054    1.4221 C   0  0  2  0  0  0  0  0  0  0  0  0
    4.5878   -2.8268    1.2987 C   0  0  0  0  0  0  0  0  0  0  0  0
    4.9720   -1.8041    0.7352 O   0  0  0  0  0  0  0  0  0  0  0  0
    2.7327   -4.2384    0.3745 C   0  0  0  0  0  0  0  0  0  0  0  0
    1.6096   -1.8137    1.9728 H   0  0  0  0  0  0  0  0  0  0  0  0
    2.9238   -3.5961    2.4270 H   0  0  0  0  0  0  0  0  0  0  0  0
    2.9200   -3.8648   -0.6388 H   0  0  0  0  0  0  0  0  0  0  0  0
    3.3079   -5.1619    0.4978 H   0  0  0  0  0  0  0  0  0  0  0  0
    1.6684   -4.4874    0.4455 H   0  0  0  0  0  0  0  0  0  0  0  0
    5.4223   -3.7867    1.8539 N   0  0  0  0  0  0  0  0  0  0  0  0
    6.8614   -3.6642    1.8514 C   0  0  0  0  0  0  0  0  0  0  0  0
    5.0162   -4.5941    2.3174 H   0  0  0  0  0  0  0  0  0  0  0  0
    7.2710   -4.1653    0.9620 H   0  0  0  0  0  0  0  0  0  0  0  0
    7.1386   -2.5999    1.8328 H   0  0  0  0  0  0  0  0  0  0  0  0
    7.2708   -4.1340    2.7579 H   0  0  0  0  0  0  0  0  0  0  0  0
  1  3  1  0  0  0  0
  1  7  1  0  0  0  0
  1  2  2  0  0  0  0
 22 23  1  0  0  0  0
 23 25  1  0  0  0  0
 23 24  2  0  0  0  0
 35 36  1  0  0  0  0
 36 44  1  0  0  0  0
 36 37  2  0  0  0  0
  8  9  1  0  0  0  0
  9 17  1  0  0  0  0
  9 10  2  0  0  0  0
 18 19  1  0  0  0  0
 19 34  1  0  0  0  0
 19 20  2  0  0  0  0
 35 38  1  0  0  0  0
  8 11  1  0  0  0  0
 44 45  1  0  0  0  0
 21 22  1  0  0  0  0
 18 21  1  0  0  0  0
 34 35  1  0  0  0  0
  7  8  1  0  0  0  0
 17 18  1  0  0  0  0
  3  4  1  0  0  0  0
  3  5  1  0  0  0  0
  3  6  1  0  0  0  0
 38 41  1  0  0  0  0
 38 42  1  0  0  0  0
 38 43  1  0  0  0  0
 11 14  1  0  0  0  0
 11 15  1  0  0  0  0
 11 16  1  0  0  0  0
 45 47  1  0  0  0  0
 45 48  1  0  0  0  0
 45 49  1  0  0  0  0
 22 30  1  0  0  0  0
 22 31  1  0  0  0  0
 21 28  1  0  0  0  0
 21 29  1  0  0  0  0
 35 40  1  0  0  0  0
  8 13  1  0  0  0  0
 18 27  1  0  0  0  0
 25 32  1  0  0  0  0
 25 33  1  0  0  0  0
 44 46  1  0  0  0  0
  7 12  1  0  0  0  0
 34 39  1  0  0  0  0
 17 26  1  0  0  0  0
M  END
$$$$

  -OEChem-05262214473D

 49 48  0     1  0  0  0  0  0999 V2000
   -1.9833   -0.0509   -3.3423 C   0  0  0  0  0  0  0  0  0  0  0  0
   -1.6199   -1.0613   -2.7518 O   0  0  0  0  0  0  0  0  0  0  0  0
   -3.3243   -0.0235   -3.9975 C   0  0  0  0  0  0  0  0  0  0  0  0
   -3.2886   -0.3689   -5.0432 H   0  0  0  0  0  0  0  0  0  0  0  0
   -4.0503   -0.6845   -3.4973 H   0  0  0  0  0  0  0  0  0  0  0  0
   -3.8104    0.9645   -4.0351 H   0  0  0  0  0  0  0  0  0  0  0  0
   -1.2607    1.1231   -3.4768 N   0  0  0  0  0  0  0  0  0  0  0  0
    0.0536    1.3115   -2.9213 C   0  0  2  0  0  0  0  0  0  0  0  0
    0.0266    0.8315   -1.4761 C   0  0  0  0  0  0  0  0  0  0  0  0
   -1.0065    0.7530   -0.8146 O   0  0  0  0  0  0  0  0  0  0  0  0
    0.4852    2.7674   -3.0025 C   0  0  0  0  0  0  0  0  0  0  0  0
   -1.6809    1.8924   -3.9952 H   0  0  0  0  0  0  0  0  0  0  0  0
    0.7360    0.6822   -3.5030 H   0  0  0  0  0  0  0  0  0  0  0  0
   -0.1867    3.4133   -2.4256 H   0  0  0  0  0  0  0  0  0  0  0  0
    1.4966    2.9042   -2.6056 H   0  0  0  0  0  0  0  0  0  0  0  0
    0.4754    3.1196   -4.0397 H   0  0  0  0  0  0  0  0  0  0  0  0
    1.2978    0.5411   -0.9947 N   0  0  0  0  0  0  0  0  0  0  0  0
    1.5371    0.0807    0.3489 C   0  0  2  0  0  0  0  0  0  0  0  0
    2.5191   -1.0822    0.2597 C   0  0  0  0  0  0  0  0  0  0  0  0
    3.5045   -1.0707   -0.4750 O   0  0  0  0  0  0  0  0  0  0  0  0
    0.2458   -0.3640    1.0472 C   0  0  0  0  0  0  0  0  0  0  0  0
   -0.7273    0.7856    1.3161 C   0  0  0  0  0  0  0  0  0  0  0  0
   -2.0159    0.3447    1.9851 C   0  0  0  0  0  0  0  0  0  0  0  0
   -2.2995   -0.8253    2.2244 O   0  0  0  0  0  0  0  0  0  0  0  0
   -2.8471    1.4062    2.2721 N   0  0  0  0  0  0  0  0  0  0  0  0
    2.0949    0.6178   -1.6227 H   0  0  0  0  0  0  0  0  0  0  0  0
    2.0131    0.9090    0.8846 H   0  0  0  0  0  0  0  0  0  0  0  0
   -0.2637   -1.1096    0.4223 H   0  0  0  0  0  0  0  0  0  0  0  0
    0.4840   -0.8697    1.9915 H   0  0  0  0  0  0  0  0  0  0  0  0
   -1.0057    1.2427    0.3585 H   0  0  0  0  0  0  0  0  0  0  0  0
   -0.2517    1.5646    1.9224 H   0  0  0  0  0  0  0  0  0  0  0  0
   -2.5462    2.3434    2.0262 H   0  0  0  0  0  0  0  0  0  0  0  0
   -3.7494    1.2839    2.7206 H   0  0  0  0  0  0  0  0  0  0  0  0
    2.1348   -2.1497    1.0592 N   0  0  0  0  0  0  0  0  0  0  0  0
    2.8782   -3.3862    1.1429 C   0  0  2  0  0  0  0  0  0  0  0  0
    4.3429   -3.0395    1.3757 C   0  0  0  0  0  0  0  0  0  0  0  0
    4.8298   -1.9506    1.0787 O   0  0  0  0  0  0  0  0  0  0  0  0
    2.7107   -4.2192   -0.1184 C   0  0  0  0  0  0  0  0  0  0  0  0
    1.2885   -2.0573    1.6132 H   0  0  0  0  0  0  0  0  0  0  0  0
    2.4891   -3.9311    2.0099 H   0  0  0  0  0  0  0  0  0  0  0  0
    3.0950   -3.6895   -0.9977 H   0  0  0  0  0  0  0  0  0  0  0  0
    3.2513   -5.1683   -0.0418 H   0  0  0  0  0  0  0  0  0  0  0  0
    1.6539   -4.4424   -0.3004 H   0  0  0  0  0  0  0  0  0  0  0  0
    5.0520   -4.1040    1.9143 N   0  0  0  0  0  0  0  0  0  0  0  0
    6.4627   -4.0288    2.2147 C   0  0  0  0  0  0  0  0  0  0  0  0
    4.5631   -4.9636    2.1465 H   0  0  0  0  0  0  0  0  0  0  0  0
    7.0416   -4.3888    1.3515 H   0  0  0  0  0  0  0  0  0  0  0  0
    6.7364   -2.9854    2.4301 H   0  0  0  0  0  0  0  0  0  0  0  0
    6.6846   -4.6546    3.0916 H   0  0  0  0  0  0  0  0  0  0  0  0
  1  3  1  0  0  0  0
  1  7  1  0  0  0  0
  1  2  2  0  0  0  0
 22 23  1  0  0  0  0
 23 25  1  0  0  0  0
 23 24  2  0  0  0  0
 35 36  1  0  0  0  0
 36 44  1  0  0  0  0
 36 37  2  0  0  0  0
  8  9  1  0  0  0  0
  9 17  1  0  0  0  0
  9 10  2  0  0  0  0
 18 19  1  0  0  0  0
 19 34  1  0  0  0  0
 19 20  2  0  0  0  0
 35 38  1  0  0  0  0
  8 11  1  0  0  0  0
 44 45  1  0  0  0  0
 21 22  1  0  0  0  0
 18 21  1  0  0  0  0
 34 35  1  0  0  0  0
  7  8  1  0  0  0  0
 17 18  1  0  0  0  0
  3  4  1  0  0  0  0
  3  5  1  0  0  0  0
  3  6  1  0  0  0  0
 38 41  1  0  0  0  0
 38 42  1  0  0  0  0
 38 43  1  0  0  0  0
 11 14  1  0  0  0  0
 11 15  1  0  0  0  0
 11 16  1  0  0  0  0
 45 47  1  0  0  0  0
 45 48  1  0  0  0  0
 45 49  1  0  0  0  0
 22 30  1  0  0  0  0
 22 31  1  0  0  0  0
 21 28  1  0  0  0  0
 21 29  1  0  0  0  0
 35 40  1  0  0  0  0
  8 13  1  0  0  0  0
 18 27  1  0  0  0  0
 25 32  1  0  0  0  0
 25 33  1  0  0  0  0
 44 46  1  0  0  0  0
  7 12  1  0  0  0  0
 34 39  1  0  0  0  0
 17 26  1  0  0  0  0
M  END
$$$$

  -OEChem-05262214473D

 49 48  0     1  0  0  0  0  0999 V2000
   -1.9833   -0.0509   -3.3423 C   0  0  0  0  0  0  0  0  0  0  0  0
   -1.6199   -1.0613   -2.7518 O   0  0  0  0  0  0  0  0  0  0  0  0
   -3.3243   -0.0235   -3.9975 C   0  0  0  0  0  0  0  0  0  0  0  0
   -3.2886   -0.3689   -5.0432 H   0  0  0  0  0  0  0  0  0  0  0  0
   -4.0503   -0.6845   -3.4973 H   0  0  0  0  0  0  0  0  0  0  0  0
   -3.8104    0.9645   -4.0351 H   0  0  0  0  0  0  0  0  0  0  0  0
   -1.2607    1.1231   -3.4768 N   0  0  0  0  0  0  0  0  0  0  0  0
    0.0536    1.3115   -2.9213 C   0  0  2  0  0  0  0  0  0  0  0  0
    0.0266    0.8315   -1.4761 C   0  0  0  0  0  0  0  0  0  0  0  0
   -1.0065    0.7530   -0.8146 O   0  0  0  0  0  0  0  0  0  0  0  0
    0.4852    2.7674   -3.0025 C   0  0  0  0  0  0  0  0  0  0  0  0
   -1.6809    1.8924   -3.9952 H   0  0  0  0  0  0  0  0  0  0  0  0
    0.7360    0.6822   -3.5030 H   0  0  0  0  0  0  0  0  0  0  0  0
   -0.1867    3.4133   -2.4256 H   0  0  0  0  0  0  0  0  0  0  0  0
    1.4966    2.9042   -2.6056 H   0  0  0  0  0  0  0  0  0  0  0  0
    0.4754    3.1196   -4.0397 H   0  0  0  0  0  0  0  0  0  0  0  0
    1.2978    0.5411   -0.9947 N   0  0  0  0  0  0  0  0  0  0  0  0
    1.5371    0.0807    0.3489 C   0  0  2  0  0  0  0  0  0  0  0  0
    2.5191   -1.0822    0.2597 C   0  0  0  0  0  0  0  0  0  0  0  0
    3.6308   -0.9809   -0.2549 O   0  0  0  0  0  0  0  0  0  0  0  0
    0.2458   -0.3640    1.0472 C   0  0  0  0  0  0  0  0  0  0  0  0
   -0.7273    0.7856    1.3161 C   0  0  0  0  0  0  0  0  0  0  0  0
   -2.0159    0.3447    1.9851 C   0  0  0  0  0  0  0  0  0  0  0  0
   -2.2995   -0.8253    2.2244 O   0  0  0  0  0  0  0  0  0  0  0  0
   -2.8471    1.4062    2.2721 N   0  0  0  0  0  0  0  0  0  0  0  0
    2.0949    0.6178   -1.6227 H   0  0  0  0  0  0  0  0  0  0  0  0
    2.0131    0.9090    0.8846 H   0  0  0  0  0  0  0  0  0  0  0  0
   -0.2637   -1.1096    0.4223 H   0  0  0  0  0  0  0  0  0  0  0  0
    0.4840   -0.8697    1.9915 H   0  0  0  0  0  0  0  0  0  0  0  0
   -1.0057    1.2427    0.3585 H   0  0  0  0  0  0  0  0  0  0  0  0
   -0.2517    1.5646    1.9224 H   0  0  0  0  0  0  0  0  0  0  0  0
   -2.5462    2.3434    2.0262 H   0  0  0  0  0  0  0  0  0  0  0  0
   -3.7494    1.2839    2.7206 H   0  0  0  0  0  0  0  0  0  0  0  0
    1.9853   -2.2543    0.7771 N   0  0  0  0  0  0  0  0  0  0  0  0
    2.6993   -3.5107    0.7958 C   0  0  2  0  0  0  0  0  0  0  0  0
    4.0879   -3.2541    1.3662 C   0  0  0  0  0  0  0  0  0  0  0  0
    4.6224   -2.1471    1.3580 O   0  0  0  0  0  0  0  0  0  0  0  0
    2.7870   -4.1181   -0.5956 C   0  0  0  0  0  0  0  0  0  0  0  0
    1.0456   -2.2277    1.1618 H   0  0  0  0  0  0  0  0  0  0  0  0
    2.1465   -4.1787    1.4653 H   0  0  0  0  0  0  0  0  0  0  0  0
    3.3375   -3.4630   -1.2807 H   0  0  0  0  0  0  0  0  0  0  0  0
    3.3032   -5.0836   -0.5753 H   0  0  0  0  0  0  0  0  0  0  0  0
    1.7878   -4.2744   -1.0163 H   0  0  0  0  0  0  0  0  0  0  0  0
    4.6775   -4.4150    1.8465 N   0  0  0  0  0  0  0  0  0  0  0  0
    6.0003   -4.4354    2.4261 C   0  0  0  0  0  0  0  0  0  0  0  0
    4.1536   -5.2851    1.8304 H   0  0  0  0  0  0  0  0  0  0  0  0
    6.7398   -4.6662    1.6452 H   0  0  0  0  0  0  0  0  0  0  0  0
    6.2241   -3.4512    2.8634 H   0  0  0  0  0  0  0  0  0  0  0  0
    6.0445   -5.2043    3.2115 H   0  0  0  0  0  0  0  0  0  0  0  0
  1  3  1  0  0  0  0
  1  7  1  0  0  0  0
  1  2  2  0  0  0  0
 22 23  1  0  0  0  0
 23 25  1  0  0  0  0
 23 24  2  0  0  0  0
 35 36  1  0  0  0  0
 36 44  1  0  0  0  0
 36 37  2  0  0  0  0
  8  9  1  0  0  0  0
  9 17  1  0  0  0  0
  9 10  2  0  0  0  0
 18 19  1  0  0  0  0
 19 34  1  0  0  0  0
 19 20  2  0  0  0  0
 35 38  1  0  0  0  0
  8 11  1  0  0  0  0
 44 45  1  0  0  0  0
 21 22  1  0  0  0  0
 18 21  1  0  0  0  0
 34 35  1  0  0  0  0
  7  8  1  0  0  0  0
 17 18  1  0  0  0  0
  3  4  1  0  0  0  0
  3  5  1  0  0  0  0
  3  6  1  0  0  0  0
 38 41  1  0  0  0  0
 38 42  1  0  0  0  0
 38 43  1  0  0  0  0
 11 14  1  0  0  0  0
 11 15  1  0  0  0  0
 11 16  1  0  0  0  0
 45 47  1  0  0  0  0
 45 48  1  0  0  0  0
 45 49  1  0  0  0  0
 22 30  1  0  0  0  0
 22 31  1  0  0  0  0
 21 28  1  0  0  0  0
 21 29  1  0  0  0  0
 35 40  1  0  0  0  0
  8 13  1  0  0  0  0
 18 27  1  0  0  0  0
 25 32  1  0  0  0  0
 25 33  1  0  0  0  0
 44 46  1  0  0  0  0
  7 12  1  0  0  0  0
 34 39  1  0  0  0  0
 17 26  1  0  0  0  0
M  END
$$$$

  -OEChem-05262214473D

 49 48  0     1  0  0  0  0  0999 V2000
   -1.9833   -0.0509   -3.3423 C   0  0  0  0  0  0  0  0  0  0  0  0
   -1.6199   -1.0613   -2.7518 O   0  0  0  0  0  0  0  0  0  0  0  0
   -3.3243   -0.0235   -3.9975 C   0  0  0  0  0  0  0  0  0  0  0  0
   -3.2886   -0.3689   -5.0432 H   0  0  0  0  0  0  0  0  0  0  0  0
   -4.0503   -0.6845   -3.4973 H   0  0  0  0  0  0  0  0  0  0  0  0
   -3.8104    0.9645   -4.0351 H   0  0  0  0  0  0  0  0  0  0  0  0
   -1.2607    1.1231   -3.4768 N   0  0  0  0  0  0  0  0  0  0  0  0
    0.0536    1.3115   -2.9213 C   0  0  2  0  0  0  0  0  0  0  0  0
    0.0266    0.8315   -1.4761 C   0  0  0  0  0  0  0  0  0  0  0  0
   -1.0065    0.7530   -0.8146 O   0  0  0  0  0  0  0  0  0  0  0  0
    0.4852    2.7674   -3.0025 C   0  0  0  0  0  0  0  0  0  0  0  0
   -1.6809    1.8924   -3.9952 H   0  0  0  0  0  0  0  0  0  0  0  0
    0.7360    0.6822   -3.5030 H   0  0  0  0  0  0  0  0  0  0  0  0
   -0.1867    3.4133   -2.4256 H   0  0  0  0  0  0  0  0  0  0  0  0
    1.4966    2.9042   -2.6056 H   0  0  0  0  0  0  0  0  0  0  0  0
    0.4754    3.1196   -4.0397 H   0  0  0  0  0  0  0  0  0  0  0  0
    1.2978    0.5411   -0.9947 N   0  0  0  0  0  0  0  0  0  0  0  0
    1.5371    0.0807    0.3489 C   0  0  2  0  0  0  0  0  0  0  0  0
    2.5191   -1.0822    0.2597 C   0  0  0  0  0  0  0  0  0  0  0  0
    3.7107   -0.9328   -0.0023 O   0  0  0  0  0  0  0  0  0  0  0  0
    0.2458   -0.3640    1.0472 C   0  0  0  0  0  0  0  0  0  0  0  0
   -0.7273    0.7856    1.3161 C   0  0  0  0  0  0  0  0  0  0  0  0
   -2.0159    0.3447    1.9851 C   0  0  0  0  0  0  0  0  0  0  0  0
   -2.2995   -0.8253    2.2244 O   0  0  0  0  0  0  0  0  0  0  0  0
   -2.8471    1.4062    2.2721 N   0  0  0  0  0  0  0  0  0  0  0  0
    2.0949    0.6178   -1.6227 H   0  0  0  0  0  0  0  0  0  0  0  0
    2.0131    0.9090    0.8846 H   0  0  0  0  0  0  0  0  0  0  0  0
   -0.2637   -1.1096    0.4223 H   0  0  0  0  0  0  0  0  0  0  0  0
    0.4840   -0.8697    1.9915 H   0  0  0  0  0  0  0  0  0  0  0  0
   -1.0057    1.2427    0.3585 H   0  0  0  0  0  0  0  0  0  0  0  0
   -0.2517    1.5646    1.9224 H   0  0  0  0  0  0  0  0  0  0  0  0
   -2.5462    2.3434    2.0262 H   0  0  0  0  0  0  0  0  0  0  0  0
   -3.7494    1.2839    2.7206 H   0  0  0  0  0  0  0  0  0  0  0  0
    1.8950   -2.3060    0.4576 N   0  0  0  0  0  0  0  0  0  0  0  0
    2.5930   -3.5704    0.4044 C   0  0  2  0  0  0  0  0  0  0  0  0
    3.8402   -3.4559    1.2710 C   0  0  0  0  0  0  0  0  0  0  0  0
    4.3639   -2.3804    1.5540 O   0  0  0  0  0  0  0  0  0  0  0  0
    2.9564   -3.9421   -1.0248 C   0  0  0  0  0  0  0  0  0  0  0  0
    0.8976   -2.3134    0.6495 H   0  0  0  0  0  0  0  0  0  0  0  0
    1.9193   -4.3218    0.8305 H   0  0  0  0  0  0  0  0  0  0  0  0
    3.6310   -3.2007   -1.4683 H   0  0  0  0  0  0  0  0  0  0  0  0
    3.4598   -4.9137   -1.0663 H   0  0  0  0  0  0  0  0  0  0  0  0
    2.0610   -3.9948   -1.6534 H   0  0  0  0  0  0  0  0  0  0  0  0
    4.3245   -4.6984    1.6553 N   0  0  0  0  0  0  0  0  0  0  0  0
    5.5058   -4.8565    2.4712 C   0  0  0  0  0  0  0  0  0  0  0  0
    3.8157   -5.5368    1.3907 H   0  0  0  0  0  0  0  0  0  0  0  0
    6.3861   -4.9786    1.8230 H   0  0  0  0  0  0  0  0  0  0  0  0
    5.6366   -3.9657    3.1031 H   0  0  0  0  0  0  0  0  0  0  0  0
    5.3943   -5.7455    3.1093 H   0  0  0  0  0  0  0  0  0  0  0  0
  1  3  1  0  0  0  0
  1  7  1  0  0  0  0
  1  2  2  0  0  0  0
 22 23  1  0  0  0  0
 23 25  1  0  0  0  0
 23 24  2  0  0  0  0
 35 36  1  0  0  0  0
 36 44  1  0  0  0  0
 36 37  2  0  0  0  0
  8  9  1  0  0  0  0
  9 17  1  0  0  0  0
  9 10  2  0  0  0  0
 18 19  1  0  0  0  0
 19 34  1  0  0  0  0
 19 20  2  0  0  0  0
 35 38  1  0  0  0  0
  8 11  1  0  0  0  0
 44 45  1  0  0  0  0
 21 22  1  0  0  0  0
 18 21  1  0  0  0  0
 34 35  1  0  0  0  0
  7  8  1  0  0  0  0
 17 18  1  0  0  0  0
  3  4  1  0  0  0  0
  3  5  1  0  0  0  0
  3  6  1  0  0  0  0
 38 41  1  0  0  0  0
 38 42  1  0  0  0  0
 38 43  1  0  0  0  0
 11 14  1  0  0  0  0
 11 15  1  0  0  0  0
 11 16  1  0  0  0  0
 45 47  1  0  0  0  0
 45 48  1  0  0  0  0
 45 49  1  0  0  0  0
 22 30  1  0  0  0  0
 22 31  1  0  0  0  0
 21 28  1  0  0  0  0
 21 29  1  0  0  0  0
 35 40  1  0  0  0  0
  8 13  1  0  0  0  0
 18 27  1  0  0  0  0
 25 32  1  0  0  0  0
 25 33  1  0  0  0  0
 44 46  1  0  0  0  0
  7 12  1  0  0  0  0
 34 39  1  0  0  0  0
 17 26  1  0  0  0  0
M  END
$$$$

  -OEChem-05262214473D

 49 48  0     1  0  0  0  0  0999 V2000
   -1.9833   -0.0509   -3.3423 C   0  0  0  0  0  0  0  0  0  0  0  0
   -1.6199   -1.0613   -2.7518 O   0  0  0  0  0  0  0  0  0  0  0  0
   -3.3243   -0.0235   -3.9975 C   0  0  0  0  0  0  0  0  0  0  0  0
   -3.2886   -0.3689   -5.0432 H   0  0  0  0  0  0  0  0  0  0  0  0
   -4.0503   -0.6845   -3.4973 H   0  0  0  0  0  0  0  0  0  0  0  0
   -3.8104    0.9645   -4.0351 H   0  0  0  0  0  0  0  0  0  0  0  0
   -1.2607    1.1231   -3.4768 N   0  0  0  0  0  0  0  0  0  0  0  0
    0.0536    1.3115   -2.9213 C   0  0  2  0  0  0  0  0  0  0  0  0
    0.0266    0.8315   -1.4761 C   0  0  0  0  0  0  0  0  0  0  0  0
   -1.0065    0.7530   -0.8146 O   0  0  0  0  0  0  0  0  0  0  0  0
    0.4852    2.7674   -3.0025 C   0  0  0  0  0  0  0  0  0  0  0  0
   -1.6809    1.8924   -3.9952 H   0  0  0  0  0  0  0  0  0  0  0  0
    0.7360    0.6822   -3.5030 H   0  0  0  0  0  0  0  0  0  0  0  0
   -0.1867    3.4133   -2.4256 H   0  0  0  0  0  0  0  0  0  0  0  0
    1.4966    2.9042   -2.6056 H   0  0  0  0  0  0  0  0  0  0  0  0
    0.4754    3.1196   -4.0397 H   0  0  0  0  0  0  0  0  0  0  0  0
    1.2978    0.5411   -0.9947 N   0  0  0  0  0  0  0  0  0  0  0  0
    1.5371    0.0807    0.3489 C   0  0  2  0  0  0  0  0  0  0  0  0
    2.5191   -1.0822    0.2597 C   0  0  0  0  0  0  0  0  0  0  0  0
    3.7388   -0.9297    0.2654 O   0  0  0  0  0  0  0  0  0  0  0  0
    0.2458   -0.3640    1.0472 C   0  0  0  0  0  0  0  0  0  0  0  0
   -0.7273    0.7856    1.3161 C   0  0  0  0  0  0  0  0  0  0  0  0
   -2.0159    0.3447    1.9851 C   0  0  0  0  0  0  0  0  0  0  0  0
   -2.2995   -0.8253    2.2244 O   0  0  0  0  0  0  0  0  0  0  0  0
   -2.8471    1.4062    2.2721 N   0  0  0  0  0  0  0  0  0  0  0  0
    2.0949    0.6178   -1.6227 H   0  0  0  0  0  0  0  0  0  0  0  0
    2.0131    0.9090    0.8846 H   0  0  0  0  0  0  0  0  0  0  0  0
   -0.2637   -1.1096    0.4223 H   0  0  0  0  0  0  0  0  0  0  0  0
    0.4840   -0.8697    1.9915 H   0  0  0  0  0  0  0  0  0  0  0  0
   -1.0057    1.2427    0.3585 H   0  0  0  0  0  0  0  0  0  0  0  0
   -0.2517    1.5646    1.9224 H   0  0  0  0  0  0  0  0  0  0  0  0
   -2.5462    2.3434    2.0262 H   0  0  0  0  0  0  0  0  0  0  0  0
   -3.7494    1.2839    2.7206 H   0  0  0  0  0  0  0  0  0  0  0  0
    1.8701   -2.3014    0.1226 N   0  0  0  0  0  0  0  0  0  0  0  0
    2.5668   -3.5612   -0.0046 C   0  0  2  0  0  0  0  0  0  0  0  0
    3.6167   -3.6312    1.0964 C   0  0  0  0  0  0  0  0  0  0  0  0
    4.0720   -2.6345    1.6535 O   0  0  0  0  0  0  0  0  0  0  0  0
    3.2075   -3.7031   -1.3764 C   0  0  0  0  0  0  0  0  0  0  0  0
    0.8544   -2.3085    0.1112 H   0  0  0  0  0  0  0  0  0  0  0  0
    1.8230   -4.3508    0.1485 H   0  0  0  0  0  0  0  0  0  0  0  0
    3.9556   -2.9206   -1.5480 H   0  0  0  0  0  0  0  0  0  0  0  0
    3.7106   -4.6700   -1.4813 H   0  0  0  0  0  0  0  0  0  0  0  0
    2.4549   -3.6227   -2.1683 H   0  0  0  0  0  0  0  0  0  0  0  0
    4.0170   -4.9350    1.3537 N   0  0  0  0  0  0  0  0  0  0  0  0
    5.0128   -5.2632    2.3470 C   0  0  0  0  0  0  0  0  0  0  0  0
    3.5722   -5.7014    0.8572 H   0  0  0  0  0  0  0  0  0  0  0  0
    6.0046   -5.3046    1.8729 H   0  0  0  0  0  0  0  0  0  0  0  0
    5.0141   -4.4936    3.1330 H   0  0  0  0  0  0  0  0  0  0  0  0
    4.7782   -6.2414    2.7920 H   0  0  0  0  0  0  0  0  0  0  0  0
  1  3  1  0  0  0  0
  1  7  1  0  0  0  0
  1  2  2  0  0  0  0
 22 23  1  0  0  0  0
 23 25  1  0  0  0  0
 23 24  2  0  0  0  0
 35 36  1  0  0  0  0
 36 44  1  0  0  0  0
 36 37  2  0  0  0  0
  8  9  1  0  0  0  0
  9 17  1  0  0  0  0
  9 10  2  0  0  0  0
 18 19  1  0  0  0  0
 19 34  1  0  0  0  0
 19 20  2  0  0  0  0
 35 38  1  0  0  0  0
  8 11  1  0  0  0  0
 44 45  1  0  0  0  0
 21 22  1  0  0  0  0
 18 21  1  0  0  0  0
 34 35  1  0  0  0  0
  7  8  1  0  0  0  0
 17 18  1  0  0  0  0
  3  4  1  0  0  0  0
  3  5  1  0  0  0  0
  3  6  1  0  0  0  0
 38 41  1  0  0  0  0
 38 42  1  0  0  0  0
 38 43  1  0  0  0  0
 11 14  1  0  0  0  0
 11 15  1  0  0  0  0
 11 16  1  0  0  0  0
 45 47  1  0  0  0  0
 45 48  1  0  0  0  0
 45 49  1  0  0  0  0
 22 30  1  0  0  0  0
 22 31  1  0  0  0  0
 21 28  1  0  0  0  0
 21 29  1  0  0  0  0
 35 40  1  0  0  0  0
  8 13  1  0  0  0  0
 18 27  1  0  0  0  0
 25 32  1  0  0  0  0
 25 33  1  0  0  0  0
 44 46  1  0  0  0  0
  7 12  1  0  0  0  0
 34 39  1  0  0  0  0
 17 26  1  0  0  0  0
M  END
$$$$

  -OEChem-05262214473D

 49 48  0     1  0  0  0  0  0999 V2000
   -1.9833   -0.0509   -3.3423 C   0  0  0  0  0  0  0  0  0  0  0  0
   -1.6199   -1.0613   -2.7518 O   0  0  0  0  0  0  0  0  0  0  0  0
   -3.3243   -0.0235   -3.9975 C   0  0  0  0  0  0  0  0  0  0  0  0
   -3.2886   -0.3689   -5.0432 H   0  0  0  0  0  0  0  0  0  0  0  0
   -4.0503   -0.6845   -3.4973 H   0  0  0  0  0  0  0  0  0  0  0  0
   -3.8104    0.9645   -4.0351 H   0  0  0  0  0  0  0  0  0  0  0  0
   -1.2607    1.1231   -3.4768 N   0  0  0  0  0  0  0  0  0  0  0  0
    0.0536    1.3115   -2.9213 C   0  0  2  0  0  0  0  0  0  0  0  0
    0.0266    0.8315   -1.4761 C   0  0  0  0  0  0  0  0  0  0  0  0
   -1.0065    0.7530   -0.8146 O   0  0  0  0  0  0  0  0  0  0  0  0
    0.4852    2.7674   -3.0025 C   0  0  0  0  0  0  0  0  0  0  0  0
   -1.6809    1.8924   -3.9952 H   0  0  0  0  0  0  0  0  0  0  0  0
    0.7360    0.6822   -3.5030 H   0  0  0  0  0  0  0  0  0  0  0  0
   -0.1867    3.4133   -2.4256 H   0  0  0  0  0  0  0  0  0  0  0  0
    1.4966    2.9042   -2.6056 H   0  0  0  0  0  0  0  0  0  0  0  0
    0.4754    3.1196   -4.0397 H   0  0  0  0  0  0  0  0  0  0  0  0
    1.2978    0.5411   -0.9947 N   0  0  0  0  0  0  0  0  0  0  0  0
    1.5371    0.0807    0.3489 C   0  0  2  0  0  0  0  0  0  0  0  0
    2.5191   -1.0822    0.2597 C   0  0  0  0  0  0  0  0  0  0  0  0
    3.7131   -0.9717    0.5301 O   0  0  0  0  0  0  0  0  0  0  0  0
    0.2458   -0.3640    1.0472 C   0  0  0  0  0  0  0  0  0  0  0  0
   -0.7273    0.7856    1.3161 C   0  0  0  0  0  0  0  0  0  0  0  0
   -2.0159    0.3447    1.9851 C   0  0  0  0  0  0  0  0  0  0  0  0
   -2.2995   -0.8253    2.2244 O   0  0  0  0  0  0  0  0  0  0  0  0
   -2.8471    1.4062    2.2721 N   0  0  0  0  0  0  0  0  0  0  0  0
    2.0949    0.6178   -1.6227 H   0  0  0  0  0  0  0  0  0  0  0  0
    2.0131    0.9090    0.8846 H   0  0  0  0  0  0  0  0  0  0  0  0
   -0.2637   -1.1096    0.4223 H   0  0  0  0  0  0  0  0  0  0  0  0
    0.4840   -0.8697    1.9915 H   0  0  0  0  0  0  0  0  0  0  0  0
   -1.0057    1.2427    0.3585 H   0  0  0  0  0  0  0  0  0  0  0  0
   -0.2517    1.5646    1.9224 H   0  0  0  0  0  0  0  0  0  0  0  0
   -2.5462    2.3434    2.0262 H   0  0  0  0  0  0  0  0  0  0  0  0
   -3.7494    1.2839    2.7206 H   0  0  0  0  0  0  0  0  0  0  0  0
    1.9122   -2.2407   -0.2051 N   0  0  0  0  0  0  0  0  0  0  0  0
    2.6223   -3.4837   -0.4032 C   0  0  2  0  0  0  0  0  0  0  0  0
    3.4326   -3.7681    0.8545 C   0  0  0  0  0  0  0  0  0  0  0  0
    3.7666   -2.8922    1.6496 O   0  0  0  0  0  0  0  0  0  0  0  0
    3.5230   -3.4175   -1.6268 C   0  0  0  0  0  0  0  0  0  0  0  0
    0.9191   -2.2135   -0.4166 H   0  0  0  0  0  0  0  0  0  0  0  0
    1.8642   -4.2636   -0.5341 H   0  0  0  0  0  0  0  0  0  0  0  0
    4.2890   -2.6416   -1.5141 H   0  0  0  0  0  0  0  0  0  0  0  0
    4.0385   -4.3693   -1.7920 H   0  0  0  0  0  0  0  0  0  0  0  0
    2.9426   -3.1834   -2.5258 H   0  0  0  0  0  0  0  0  0  0  0  0
    3.7759   -5.1085    0.9622 N   0  0  0  0  0  0  0  0  0  0  0  0
    4.5550   -5.6279    2.0619 C   0  0  0  0  0  0  0  0  0  0  0  0
    3.4398   -5.7679    0.2665 H   0  0  0  0  0  0  0  0  0  0  0  0
    5.6212   -5.6220    1.7915 H   0  0  0  0  0  0  0  0  0  0  0  0
    4.3989   -4.9991    2.9509 H   0  0  0  0  0  0  0  0  0  0  0  0
    4.2382   -6.6582    2.2812 H   0  0  0  0  0  0  0  0  0  0  0  0
  1  3  1  0  0  0  0
  1  7  1  0  0  0  0
  1  2  2  0  0  0  0
 22 23  1  0  0  0  0
 23 25  1  0  0  0  0
 23 24  2  0  0  0  0
 35 36  1  0  0  0  0
 36 44  1  0  0  0  0
 36 37  2  0  0  0  0
  8  9  1  0  0  0  0
  9 17  1  0  0  0  0
  9 10  2  0  0  0  0
 18 19  1  0  0  0  0
 19 34  1  0  0  0  0
 19 20  2  0  0  0  0
 35 38  1  0  0  0  0
  8 11  1  0  0  0  0
 44 45  1  0  0  0  0
 21 22  1  0  0  0  0
 18 21  1  0  0  0  0
 34 35  1  0  0  0  0
  7  8  1  0  0  0  0
 17 18  1  0  0  0  0
  3  4  1  0  0  0  0
  3  5  1  0  0  0  0
  3  6  1  0  0  0  0
 38 41  1  0  0  0  0
 38 42  1  0  0  0  0
 38 43  1  0  0  0  0
 11 14  1  0  0  0  0
 11 15  1  0  0  0  0
 11 16  1  0  0  0  0
 45 47  1  0  0  0  0
 45 48  1  0  0  0  0
 45 49  1  0  0  0  0
 22 30  1  0  0  0  0
 22 31  1  0  0  0  0
 21 28  1  0  0  0  0
 21 29  1  0  0  0  0
 35 40  1  0  0  0  0
  8 13  1  0  0  0  0
 18 27  1  0  0  0  0
 25 32  1  0  0  0  0
 25 33  1  0  0  0  0
 44 46  1  0  0  0  0
  7 12  1  0  0  0  0
 34 39  1  0  0  0  0
 17 26  1  0  0  0  0
M  END
$$$$

  -OEChem-05262214473D

 49 48  0     1  0  0  0  0  0999 V2000
   -1.9833   -0.0509   -3.3423 C   0  0  0  0  0  0  0  0  0  0  0  0
   -1.6199   -1.0613   -2.7518 O   0  0  0  0  0  0  0  0  0  0  0  0
   -3.3243   -0.0235   -3.9975 C   0  0  0  0  0  0  0  0  0  0  0  0
   -3.2886   -0.3689   -5.0432 H   0  0  0  0  0  0  0  0  0  0  0  0
   -4.0503   -0.6845   -3.4973 H   0  0  0  0  0  0  0  0  0  0  0  0
   -3.8104    0.9645   -4.0351 H   0  0  0  0  0  0  0  0  0  0  0  0
   -1.2607    1.1231   -3.4768 N   0  0  0  0  0  0  0  0  0  0  0  0
    0.0536    1.3115   -2.9213 C   0  0  2  0  0  0  0  0  0  0  0  0
    0.0266    0.8315   -1.4761 C   0  0  0  0  0  0  0  0  0  0  0  0
   -1.0065    0.7530   -0.8146 O   0  0  0  0  0  0  0  0  0  0  0  0
    0.4852    2.7674   -3.0025 C   0  0  0  0  0  0  0  0  0  0  0  0
   -1.6809    1.8924   -3.9952 H   0  0  0  0  0  0  0  0  0  0  0  0
    0.7360    0.6822   -3.5030 H   0  0  0  0  0  0  0  0  0  0  0  0
   -0.1867    3.4133   -2.4256 H   0  0  0  0  0  0  0  0  0  0  0  0
    1.4966    2.9042   -2.6056 H   0  0  0  0  0  0  0  0  0  0  0  0
    0.4754    3.1196   -4.0397 H   0  0  0  0  0  0  0  0  0  0  0  0
    1.2978    0.5411   -0.9947 N   0  0  0  0  0  0  0  0  0  0  0  0
    1.5371    0.0807    0.3489 C   0  0  2  0  0  0  0  0  0  0  0  0
    2.5191   -1.0822    0.2597 C   0  0  0  0  0  0  0  0  0  0  0  0
    3.6354   -1.0560    0.7737 O   0  0  0  0  0  0  0  0  0  0  0  0
    0.2458   -0.3640    1.0472 C   0  0  0  0  0  0  0  0  0  0  0  0
   -0.7273    0.7856    1.3161 C   0  0  0  0  0  0  0  0  0  0  0  0
   -2.0159    0.3447    1.9851 C   0  0  0  0  0  0  0  0  0  0  0  0
   -2.2995   -0.8253    2.2244 O   0  0  0  0  0  0  0  0  0  0  0  0
   -2.8471    1.4062    2.2721 N   0  0  0  0  0  0  0  0  0  0  0  0
    2.0949    0.6178   -1.6227 H   0  0  0  0  0  0  0  0  0  0  0  0
    2.0131    0.9090    0.8846 H   0  0  0  0  0  0  0  0  0  0  0  0
   -0.2637   -1.1096    0.4223 H   0  0  0  0  0  0  0  0  0  0  0  0
    0.4840   -0.8697    1.9915 H   0  0  0  0  0  0  0  0  0  0  0  0
   -1.0057    1.2427    0.3585 H   0  0  0  0  0  0  0  0  0  0  0  0
   -0.2517    1.5646    1.9224 H   0  0  0  0  0  0  0  0  0  0  0  0
   -2.5462    2.3434    2.0262 H   0  0  0  0  0  0  0  0  0  0  0  0
   -3.7494    1.2839    2.7206 H   0  0  0  0  0  0  0  0  0  0  0  0
    2.0185   -2.1281   -0.5032 N   0  0  0  0  0  0  0  0  0  0  0  0
    2.7558   -3.3433   -0.7645 C   0  0  2  0  0  0  0  0  0  0  0  0
    3.3005   -3.8572    0.5617 C   0  0  0  0  0  0  0  0  0  0  0  0
    3.4684   -3.1357    1.5427 O   0  0  0  0  0  0  0  0  0  0  0  0
    3.8815   -3.1046   -1.7586 C   0  0  0  0  0  0  0  0  0  0  0  0
    1.0872   -2.0346   -0.8977 H   0  0  0  0  0  0  0  0  0  0  0  0
    2.0400   -4.0663   -1.1707 H   0  0  0  0  0  0  0  0  0  0  0  0
    4.6087   -2.3828   -1.3690 H   0  0  0  0  0  0  0  0  0  0  0  0
    4.4211   -4.0320   -1.9773 H   0  0  0  0  0  0  0  0  0  0  0  0
    3.4910   -2.7069   -2.7016 H   0  0  0  0  0  0  0  0  0  0  0  0
    3.6176   -5.2073    0.5076 N   0  0  0  0  0  0  0  0  0  0  0  0
    4.1636   -5.9257    1.6353 C   0  0  0  0  0  0  0  0  0  0  0  0
    3.4276   -5.7316   -0.3414 H   0  0  0  0  0  0  0  0  0  0  0  0
    5.2623   -5.9092    1.5842 H   0  0  0  0  0  0  0  0  0  0  0  0
    3.8329   -5.4478    2.5693 H   0  0  0  0  0  0  0  0  0  0  0  0
    3.8112   -6.9674    1.6118 H   0  0  0  0  0  0  0  0  0  0  0  0
  1  3  1  0  0  0  0
  1  7  1  0  0  0  0
  1  2  2  0  0  0  0
 22 23  1  0  0  0  0
 23 25  1  0  0  0  0
 23 24  2  0  0  0  0
 35 36  1  0  0  0  0
 36 44  1  0  0  0  0
 36 37  2  0  0  0  0
  8  9  1  0  0  0  0
  9 17  1  0  0  0  0
  9 10  2  0  0  0  0
 18 19  1  0  0  0  0
 19 34  1  0  0  0  0
 19 20  2  0  0  0  0
 35 38  1  0  0  0  0
  8 11  1  0  0  0  0
 44 45  1  0  0  0  0
 21 22  1  0  0  0  0
 18 21  1  0  0  0  0
 34 35  1  0  0  0  0
  7  8  1  0  0  0  0
 17 18  1  0  0  0  0
  3  4  1  0  0  0  0
  3  5  1  0  0  0  0
  3  6  1  0  0  0  0
 38 41  1  0  0  0  0
 38 42  1  0  0  0  0
 38 43  1  0  0  0  0
 11 14  1  0  0  0  0
 11 15  1  0  0  0  0
 11 16  1  0  0  0  0
 45 47  1  0  0  0  0
 45 48  1  0  0  0  0
 45 49  1  0  0  0  0
 22 30  1  0  0  0  0
 22 31  1  0  0  0  0
 21 28  1  0  0  0  0
 21 29  1  0  0  0  0
 35 40  1  0  0  0  0
  8 13  1  0  0  0  0
 18 27  1  0  0  0  0
 25 32  1  0  0  0  0
 25 33  1  0  0  0  0
 44 46  1  0  0  0  0
  7 12  1  0  0  0  0
 34 39  1  0  0  0  0
 17 26  1  0  0  0  0
M  END
$$$$

  -OEChem-05262214473D

 49 48  0     1  0  0  0  0  0999 V2000
   -1.9833   -0.0509   -3.3423 C   0  0  0  0  0  0  0  0  0  0  0  0
   -1.6199   -1.0613   -2.7518 O   0  0  0  0  0  0  0  0  0  0  0  0
   -3.3243   -0.0235   -3.9975 C   0  0  0  0  0  0  0  0  0  0  0  0
   -3.2886   -0.3689   -5.0432 H   0  0  0  0  0  0  0  0  0  0  0  0
   -4.0503   -0.6845   -3.4973 H   0  0  0  0  0  0  0  0  0  0  0  0
   -3.8104    0.9645   -4.0351 H   0  0  0  0  0  0  0  0  0  0  0  0
   -1.2607    1.1231   -3.4768 N   0  0  0  0  0  0  0  0  0  0  0  0
    0.0536    1.3115   -2.9213 C   0  0  2  0  0  0  0  0  0  0  0  0
    0.0266    0.8315   -1.4761 C   0  0  0  0  0  0  0  0  0  0  0  0
   -1.0065    0.7530   -0.8146 O   0  0  0  0  0  0  0  0  0  0  0  0
    0.4852    2.7674   -3.0025 C   0  0  0  0  0  0  0  0  0  0  0  0
   -1.6809    1.8924   -3.9952 H   0  0  0  0  0  0  0  0  0  0  0  0
    0.7360    0.6822   -3.5030 H   0  0  0  0  0  0  0  0  0  0  0  0
   -0.1867    3.4133   -2.4256 H   0  0  0  0  0  0  0  0  0  0  0  0
    1.4966    2.9042   -2.6056 H   0  0  0  0  0  0  0  0  0  0  0  0
    0.4754    3.1196   -4.0397 H   0  0  0  0  0  0  0  0  0  0  0  0
    1.2978    0.5411   -0.9947 N   0  0  0  0  0  0  0  0  0  0  0  0
    1.5371    0.0807    0.3489 C   0  0  2  0  0  0  0  0  0  0  0  0
    2.5191   -1.0822    0.2597 C   0  0  0  0  0  0  0  0  0  0  0  0
    3.5109   -1.1768    0.9796 O   0  0  0  0  0  0  0  0  0  0  0  0
    0.2458   -0.3640    1.0472 C   0  0  0  0  0  0  0  0  0  0  0  0
   -0.7273    0.7856    1.3161 C   0  0  0  0  0  0  0  0  0  0  0  0
   -2.0159    0.3447    1.9851 C   0  0  0  0  0  0  0  0  0  0  0  0
   -2.2995   -0.8253    2.2244 O   0  0  0  0  0  0  0  0  0  0  0  0
   -2.8471    1.4062    2.2721 N   0  0  0  0  0  0  0  0  0  0  0  0
    2.0949    0.6178   -1.6227 H   0  0  0  0  0  0  0  0  0  0  0  0
    2.0131    0.9090    0.8846 H   0  0  0  0  0  0  0  0  0  0  0  0
   -0.2637   -1.1096    0.4223 H   0  0  0  0  0  0  0  0  0  0  0  0
    0.4840   -0.8697    1.9915 H   0  0  0  0  0  0  0  0  0  0  0  0
   -1.0057    1.2427    0.3585 H   0  0  0  0  0  0  0  0  0  0  0  0
   -0.2517    1.5646    1.9224 H   0  0  0  0  0  0  0  0  0  0  0  0
   -2.5462    2.3434    2.0262 H   0  0  0  0  0  0  0  0  0  0  0  0
   -3.7494    1.2839    2.7206 H   0  0  0  0  0  0  0  0  0  0  0  0
    2.1817   -1.9712   -0.7514 N   0  0  0  0  0  0  0  0  0  0  0  0
    2.9581   -3.1495   -1.0636 C   0  0  2  0  0  0  0  0  0  0  0  0
    3.2294   -3.8925    0.2379 C   0  0  0  0  0  0  0  0  0  0  0  0
    3.1978   -3.3486    1.3398 O   0  0  0  0  0  0  0  0  0  0  0  0
    4.2586   -2.7859   -1.7631 C   0  0  0  0  0  0  0  0  0  0  0  0
    1.3472   -1.7842   -1.2994 H   0  0  0  0  0  0  0  0  0  0  0  0
    2.3386   -3.7722   -1.7181 H   0  0  0  0  0  0  0  0  0  0  0  0
    4.8927   -2.1619   -1.1227 H   0  0  0  0  0  0  0  0  0  0  0  0
    4.8323   -3.6812   -2.0245 H   0  0  0  0  0  0  0  0  0  0  0  0
    4.0626   -2.2256   -2.6837 H   0  0  0  0  0  0  0  0  0  0  0  0
    3.5530   -5.2245    0.0207 N   0  0  0  0  0  0  0  0  0  0  0  0
    3.8652   -6.1363    1.0964 C   0  0  0  0  0  0  0  0  0  0  0  0
    3.5363   -5.5950   -0.9249 H   0  0  0  0  0  0  0  0  0  0  0  0
    4.9521   -6.1466    1.2653 H   0  0  0  0  0  0  0  0  0  0  0  0
    3.3548   -5.8089    2.0142 H   0  0  0  0  0  0  0  0  0  0  0  0
    3.5261   -7.1481    0.8293 H   0  0  0  0  0  0  0  0  0  0  0  0
  1  3  1  0  0  0  0
  1  7  1  0  0  0  0
  1  2  2  0  0  0  0
 22 23  1  0  0  0  0
 23 25  1  0  0  0  0
 23 24  2  0  0  0  0
 35 36  1  0  0  0  0
 36 44  1  0  0  0  0
 36 37  2  0  0  0  0
  8  9  1  0  0  0  0
  9 17  1  0  0  0  0
  9 10  2  0  0  0  0
 18 19  1  0  0  0  0
 19 34  1  0  0  0  0
 19 20  2  0  0  0  0
 35 38  1  0  0  0  0
  8 11  1  0  0  0  0
 44 45  1  0  0  0  0
 21 22  1  0  0  0  0
 18 21  1  0  0  0  0
 34 35  1  0  0  0  0
  7  8  1  0  0  0  0
 17 18  1  0  0  0  0
  3  4  1  0  0  0  0
  3  5  1  0  0  0  0
  3  6  1  0  0  0  0
 38 41  1  0  0  0  0
 38 42  1  0  0  0  0
 38 43  1  0  0  0  0
 11 14  1  0  0  0  0
 11 15  1  0  0  0  0
 11 16  1  0  0  0  0
 45 47  1  0  0  0  0
 45 48  1  0  0  0  0
 45 49  1  0  0  0  0
 22 30  1  0  0  0  0
 22 31  1  0  0  0  0
 21 28  1  0  0  0  0
 21 29  1  0  0  0  0
 35 40  1  0  0  0  0
  8 13  1  0  0  0  0
 18 27  1  0  0  0  0
 25 32  1  0  0  0  0
 25 33  1  0  0  0  0
 44 46  1  0  0  0  0
  7 12  1  0  0  0  0
 34 39  1  0  0  0  0
 17 26  1  0  0  0  0
M  END
$$$$

  -OEChem-05262214473D

 49 48  0     1  0  0  0  0  0999 V2000
   -1.9833   -0.0509   -3.3423 C   0  0  0  0  0  0  0  0  0  0  0  0
   -1.6199   -1.0613   -2.7518 O   0  0  0  0  0  0  0  0  0  0  0  0
   -3.3243   -0.0235   -3.9975 C   0  0  0  0  0  0  0  0  0  0  0  0
   -3.2886   -0.3689   -5.0432 H   0  0  0  0  0  0  0  0  0  0  0  0
   -4.0503   -0.6845   -3.4973 H   0  0  0  0  0  0  0  0  0  0  0  0
   -3.8104    0.9645   -4.0351 H   0  0  0  0  0  0  0  0  0  0  0  0
   -1.2607    1.1231   -3.4768 N   0  0  0  0  0  0  0  0  0  0  0  0
    0.0536    1.3115   -2.9213 C   0  0  2  0  0  0  0  0  0  0  0  0
    0.0266    0.8315   -1.4761 C   0  0  0  0  0  0  0  0  0  0  0  0
   -1.0065    0.7530   -0.8146 O   0  0  0  0  0  0  0  0  0  0  0  0
    0.4852    2.7674   -3.0025 C   0  0  0  0  0  0  0  0  0  0  0  0
   -1.6809    1.8924   -3.9952 H   0  0  0  0  0  0  0  0  0  0  0  0
    0.7360    0.6822   -3.5030 H   0  0  0  0  0  0  0  0  0  0  0  0
   -0.1867    3.4133   -2.4256 H   0  0  0  0  0  0  0  0  0  0  0  0
    1.4966    2.9042   -2.6056 H   0  0  0  0  0  0  0  0  0  0  0  0
    0.4754    3.1196   -4.0397 H   0  0  0  0  0  0  0  0  0  0  0  0
    1.2978    0.5411   -0.9947 N   0  0  0  0  0  0  0  0  0  0  0  0
    1.5371    0.0807    0.3489 C   0  0  2  0  0  0  0  0  0  0  0  0
    2.5191   -1.0822    0.2597 C   0  0  0  0  0  0  0  0  0  0  0  0
    3.3483   -1.3260    1.1337 O   0  0  0  0  0  0  0  0  0  0  0  0
    0.2458   -0.3640    1.0472 C   0  0  0  0  0  0  0  0  0  0  0  0
   -0.7273    0.7856    1.3161 C   0  0  0  0  0  0  0  0  0  0  0  0
   -2.0159    0.3447    1.9851 C   0  0  0  0  0  0  0  0  0  0  0  0
   -2.2995   -0.8253    2.2244 O   0  0  0  0  0  0  0  0  0  0  0  0
   -2.8471    1.4062    2.2721 N   0  0  0  0  0  0  0  0  0  0  0  0
    2.0949    0.6178   -1.6227 H   0  0  0  0  0  0  0  0  0  0  0  0
    2.0131    0.9090    0.8846 H   0  0  0  0  0  0  0  0  0  0  0  0
   -0.2637   -1.1096    0.4223 H   0  0  0  0  0  0  0  0  0  0  0  0
    0.4840   -0.8697    1.9915 H   0  0  0  0  0  0  0  0  0  0  0  0
   -1.0057    1.2427    0.3585 H   0  0  0  0  0  0  0  0  0  0  0  0
   -0.2517    1.5646    1.9224 H   0  0  0  0  0  0  0  0  0  0  0  0
   -2.5462    2.3434    2.0262 H   0  0  0  0  0  0  0  0  0  0  0  0
   -3.7494    1.2839    2.7206 H   0  0  0  0  0  0  0  0  0  0  0  0
    2.3907   -1.7807   -0.9328 N   0  0  0  0  0  0  0  0  0  0  0  0
    3.2156   -2.9154   -1.2803 C   0  0  2  0  0  0  0  0  0  0  0  0
    3.2240   -3.8715   -0.0948 C   0  0  0  0  0  0  0  0  0  0  0  0
    2.9733   -3.5164    1.0550 O   0  0  0  0  0  0  0  0  0  0  0  0
    4.6286   -2.4829   -1.6398 C   0  0  0  0  0  0  0  0  0  0  0  0
    1.6815   -1.4793   -1.5944 H   0  0  0  0  0  0  0  0  0  0  0  0
    2.7394   -3.4015   -2.1388 H   0  0  0  0  0  0  0  0  0  0  0  0
    5.1217   -1.9939   -0.7918 H   0  0  0  0  0  0  0  0  0  0  0  0
    5.2442   -3.3406   -1.9304 H   0  0  0  0  0  0  0  0  0  0  0  0
    4.6185   -1.7724   -2.4734 H   0  0  0  0  0  0  0  0  0  0  0  0
    3.5865   -5.1589   -0.4652 N   0  0  0  0  0  0  0  0  0  0  0  0
    3.6802   -6.2454    0.4818 C   0  0  0  0  0  0  0  0  0  0  0  0
    3.7586   -5.3675   -1.4443 H   0  0  0  0  0  0  0  0  0  0  0  0
    4.7119   -6.3181    0.8564 H   0  0  0  0  0  0  0  0  0  0  0  0
    2.9970   -6.0580    1.3234 H   0  0  0  0  0  0  0  0  0  0  0  0
    3.4025   -7.1878   -0.0129 H   0  0  0  0  0  0  0  0  0  0  0  0
  1  3  1  0  0  0  0
  1  7  1  0  0  0  0
  1  2  2  0  0  0  0
 22 23  1  0  0  0  0
 23 25  1  0  0  0  0
 23 24  2  0  0  0  0
 35 36  1  0  0  0  0
 36 44  1  0  0  0  0
 36 37  2  0  0  0  0
  8  9  1  0  0  0  0
  9 17  1  0  0  0  0
  9 10  2  0  0  0  0
 18 19  1  0  0  0  0
 19 34  1  0  0  0  0
 19 20  2  0  0  0  0
 35 38  1  0  0  0  0
  8 11  1  0  0  0  0
 44 45  1  0  0  0  0
 21 22  1  0  0  0  0
 18 21  1  0  0  0  0
 34 35  1  0  0  0  0
  7  8  1  0  0  0  0
 17 18  1  0  0  0  0
  3  4  1  0  0  0  0
  3  5  1  0  0  0  0
  3  6  1  0  0  0  0
 38 41  1  0  0  0  0
 38 42  1  0  0  0  0
 38 43  1  0  0  0  0
 11 14  1  0  0  0  0
 11 15  1  0  0  0  0
 11 16  1  0  0  0  0
 45 47  1  0  0  0  0
 45 48  1  0  0  0  0
 45 49  1  0  0  0  0
 22 30  1  0  0  0  0
 22 31  1  0  0  0  0
 21 28  1  0  0  0  0
 21 29  1  0  0  0  0
 35 40  1  0  0  0  0
  8 13  1  0  0  0  0
 18 27  1  0  0  0  0
 25 32  1  0  0  0  0
 25 33  1  0  0  0  0
 44 46  1  0  0  0  0
  7 12  1  0  0  0  0
 34 39  1  0  0  0  0
 17 26  1  0  0  0  0
M  END
$$$$

  -OEChem-05262214473D

 49 48  0     1  0  0  0  0  0999 V2000
   -1.9833   -0.0509   -3.3423 C   0  0  0  0  0  0  0  0  0  0  0  0
   -1.6199   -1.0613   -2.7518 O   0  0  0  0  0  0  0  0  0  0  0  0
   -3.3243   -0.0235   -3.9975 C   0  0  0  0  0  0  0  0  0  0  0  0
   -3.2886   -0.3689   -5.0432 H   0  0  0  0  0  0  0  0  0  0  0  0
   -4.0503   -0.6845   -3.4973 H   0  0  0  0  0  0  0  0  0  0  0  0
   -3.8104    0.9645   -4.0351 H   0  0  0  0  0  0  0  0  0  0  0  0
   -1.2607    1.1231   -3.4768 N   0  0  0  0  0  0  0  0  0  0  0  0
    0.0536    1.3115   -2.9213 C   0  0  2  0  0  0  0  0  0  0  0  0
    0.0266    0.8315   -1.4761 C   0  0  0  0  0  0  0  0  0  0  0  0
   -1.0065    0.7530   -0.8146 O   0  0  0  0  0  0  0  0  0  0  0  0
    0.4852    2.7674   -3.0025 C   0  0  0  0  0  0  0  0  0  0  0  0
   -1.6809    1.8924   -3.9952 H   0  0  0  0  0  0  0  0  0  0  0  0
    0.7360    0.6822   -3.5030 H   0  0  0  0  0  0  0  0  0  0  0  0
   -0.1867    3.4133   -2.4256 H   0  0  0  0  0  0  0  0  0  0  0  0
    1.4966    2.9042   -2.6056 H   0  0  0  0  0  0  0  0  0  0  0  0
    0.4754    3.1196   -4.0397 H   0  0  0  0  0  0  0  0  0  0  0  0
    1.2978    0.5411   -0.9947 N   0  0  0  0  0  0  0  0  0  0  0  0
    1.5371    0.0807    0.3489 C   0  0  2  0  0  0  0  0  0  0  0  0
    2.5191   -1.0822    0.2597 C   0  0  0  0  0  0  0  0  0  0  0  0
    3.1585   -1.4933    1.2257 O   0  0  0  0  0  0  0  0  0  0  0  0
    0.2458   -0.3640    1.0472 C   0  0  0  0  0  0  0  0  0  0  0  0
   -0.7273    0.7856    1.3161 C   0  0  0  0  0  0  0  0  0  0  0  0
   -2.0159    0.3447    1.9851 C   0  0  0  0  0  0  0  0  0  0  0  0
   -2.2995   -0.8253    2.2244 O   0  0  0  0  0  0  0  0  0  0  0  0
   -2.8471    1.4062    2.2721 N   0  0  0  0  0  0  0  0  0  0  0  0
    2.0949    0.6178   -1.6227 H   0  0  0  0  0  0  0  0  0  0  0  0
    2.0131    0.9090    0.8846 H   0  0  0  0  0  0  0  0  0  0  0  0
   -0.2637   -1.1096    0.4223 H   0  0  0  0  0  0  0  0  0  0  0  0
    0.4840   -0.8697    1.9915 H   0  0  0  0  0  0  0  0  0  0  0  0
   -1.0057    1.2427    0.3585 H   0  0  0  0  0  0  0  0  0  0  0  0
   -0.2517    1.5646    1.9224 H   0  0  0  0  0  0  0  0  0  0  0  0
   -2.5462    2.3434    2.0262 H   0  0  0  0  0  0  0  0  0  0  0  0
   -3.7494    1.2839    2.7206 H   0  0  0  0  0  0  0  0  0  0  0  0
    2.6314   -1.5697   -1.0350 N   0  0  0  0  0  0  0  0  0  0  0  0
    3.5106   -2.6571   -1.3998 C   0  0  2  0  0  0  0  0  0  0  0  0
    3.2848   -3.7956   -0.4137 C   0  0  0  0  0  0  0  0  0  0  0  0
    2.8101   -3.6275    0.7076 O   0  0  0  0  0  0  0  0  0  0  0  0
    4.9662   -2.2165   -1.3972 C   0  0  0  0  0  0  0  0  0  0  0  0
    2.0672   -1.1407   -1.7625 H   0  0  0  0  0  0  0  0  0  0  0  0
    3.2153   -2.9793   -2.4043 H   0  0  0  0  0  0  0  0  0  0  0  0
    5.2802   -1.8902   -0.3990 H   0  0  0  0  0  0  0  0  0  0  0  0
    5.6286   -3.0335   -1.7015 H   0  0  0  0  0  0  0  0  0  0  0  0
    5.1207   -1.3780   -2.0849 H   0  0  0  0  0  0  0  0  0  0  0  0
    3.7158   -5.0151   -0.9170 N   0  0  0  0  0  0  0  0  0  0  0  0
    3.6211   -6.2455   -0.1665 C   0  0  0  0  0  0  0  0  0  0  0  0
    4.0793   -5.0645   -1.8642 H   0  0  0  0  0  0  0  0  0  0  0  0
    4.5579   -6.4120    0.3854 H   0  0  0  0  0  0  0  0  0  0  0  0
    2.7841   -6.1780    0.5440 H   0  0  0  0  0  0  0  0  0  0  0  0
    3.4488   -7.0839   -0.8575 H   0  0  0  0  0  0  0  0  0  0  0  0
  1  3  1  0  0  0  0
  1  7  1  0  0  0  0
  1  2  2  0  0  0  0
 22 23  1  0  0  0  0
 23 25  1  0  0  0  0
 23 24  2  0  0  0  0
 35 36  1  0  0  0  0
 36 44  1  0  0  0  0
 36 37  2  0  0  0  0
  8  9  1  0  0  0  0
  9 17  1  0  0  0  0
  9 10  2  0  0  0  0
 18 19  1  0  0  0  0
 19 34  1  0  0  0  0
 19 20  2  0  0  0  0
 35 38  1  0  0  0  0
  8 11  1  0  0  0  0
 44 45  1  0  0  0  0
 21 22  1  0  0  0  0
 18 21  1  0  0  0  0
 34 35  1  0  0  0  0
  7  8  1  0  0  0  0
 17 18  1  0  0  0  0
  3  4  1  0  0  0  0
  3  5  1  0  0  0  0
  3  6  1  0  0  0  0
 38 41  1  0  0  0  0
 38 42  1  0  0  0  0
 38 43  1  0  0  0  0
 11 14  1  0  0  0  0
 11 15  1  0  0  0  0
 11 16  1  0  0  0  0
 45 47  1  0  0  0  0
 45 48  1  0  0  0  0
 45 49  1  0  0  0  0
 22 30  1  0  0  0  0
 22 31  1  0  0  0  0
 21 28  1  0  0  0  0
 21 29  1  0  0  0  0
 35 40  1  0  0  0  0
  8 13  1  0  0  0  0
 18 27  1  0  0  0  0
 25 32  1  0  0  0  0
 25 33  1  0  0  0  0
 44 46  1  0  0  0  0
  7 12  1  0  0  0  0
 34 39  1  0  0  0  0
 17 26  1  0  0  0  0
M  END
$$$$

  -OEChem-05262214473D

 49 48  0     1  0  0  0  0  0999 V2000
   -1.9833   -0.0509   -3.3423 C   0  0  0  0  0  0  0  0  0  0  0  0
   -1.6199   -1.0613   -2.7518 O   0  0  0  0  0  0  0  0  0  0  0  0
   -3.3243   -0.0235   -3.9975 C   0  0  0  0  0  0  0  0  0  0  0  0
   -3.2886   -0.3689   -5.0432 H   0  0  0  0  0  0  0  0  0  0  0  0
   -4.0503   -0.6845   -3.4973 H   0  0  0  0  0  0  0  0  0  0  0  0
   -3.8104    0.9645   -4.0351 H   0  0  0  0  0  0  0  0  0  0  0  0
   -1.2607    1.1231   -3.4768 N   0  0  0  0  0  0  0  0  0  0  0  0
    0.0536    1.3115   -2.9213 C   0  0  2  0  0  0  0  0  0  0  0  0
    0.0266    0.8315   -1.4761 C   0  0  0  0  0  0  0  0  0  0  0  0
   -1.0065    0.7530   -0.8146 O   0  0  0  0  0  0  0  0  0  0  0  0
    0.4852    2.7674   -3.0025 C   0  0  0  0  0  0  0  0  0  0  0  0
   -1.6809    1.8924   -3.9952 H   0  0  0  0  0  0  0  0  0  0  0  0
    0.7360    0.6822   -3.5030 H   0  0  0  0  0  0  0  0  0  0  0  0
   -0.1867    3.4133   -2.4256 H   0  0  0  0  0  0  0  0  0  0  0  0
    1.4966    2.9042   -2.6056 H   0  0  0  0  0  0  0  0  0  0  0  0
    0.4754    3.1196   -4.0397 H   0  0  0  0  0  0  0  0  0  0  0  0
    1.2978    0.5411   -0.9947 N   0  0  0  0  0  0  0  0  0  0  0  0
    1.5371    0.0807    0.3489 C   0  0  2  0  0  0  0  0  0  0  0  0
    2.5191   -1.0822    0.2597 C   0  0  0  0  0  0  0  0  0  0  0  0
    2.9544   -1.6674    1.2491 O   0  0  0  0  0  0  0  0  0  0  0  0
    0.2458   -0.3640    1.0472 C   0  0  0  0  0  0  0  0  0  0  0  0
   -0.7273    0.7856    1.3161 C   0  0  0  0  0  0  0  0  0  0  0  0
   -2.0159    0.3447    1.9851 C   0  0  0  0  0  0  0  0  0  0  0  0
   -2.2995   -0.8253    2.2244 O   0  0  0  0  0  0  0  0  0  0  0  0
   -2.8471    1.4062    2.2721 N   0  0  0  0  0  0  0  0  0  0  0  0
    2.0949    0.6178   -1.6227 H   0  0  0  0  0  0  0  0  0  0  0  0
    2.0131    0.9090    0.8846 H   0  0  0  0  0  0  0  0  0  0  0  0
   -0.2637   -1.1096    0.4223 H   0  0  0  0  0  0  0  0  0  0  0  0
    0.4840   -0.8697    1.9915 H   0  0  0  0  0  0  0  0  0  0  0  0
   -1.0057    1.2427    0.3585 H   0  0  0  0  0  0  0  0  0  0  0  0
   -0.2517    1.5646    1.9224 H   0  0  0  0  0  0  0  0  0  0  0  0
   -2.5462    2.3434    2.0262 H   0  0  0  0  0  0  0  0  0  0  0  0
   -3.7494    1.2839    2.7206 H   0  0  0  0  0  0  0  0  0  0  0  0
    2.8871   -1.3525   -1.0510 N   0  0  0  0  0  0  0  0  0  0  0  0
    3.8231   -2.3922   -1.4139 C   0  0  2  0  0  0  0  0  0  0  0  0
    3.4077   -3.6701   -0.6971 C   0  0  0  0  0  0  0  0  0  0  0  0
    2.7193   -3.6745    0.3213 O   0  0  0  0  0  0  0  0  0  0  0  0
    5.2484   -2.0047   -1.0518 C   0  0  0  0  0  0  0  0  0  0  0  0
    2.4781   -0.7915   -1.7923 H   0  0  0  0  0  0  0  0  0  0  0  0
    3.7338   -2.5344   -2.4964 H   0  0  0  0  0  0  0  0  0  0  0  0
    5.3574   -1.8579    0.0290 H   0  0  0  0  0  0  0  0  0  0  0  0
    5.9594   -2.7810   -1.3532 H   0  0  0  0  0  0  0  0  0  0  0  0
    5.5352   -1.0695   -1.5448 H   0  0  0  0  0  0  0  0  0  0  0  0
    3.9320   -4.8029   -1.3039 N   0  0  0  0  0  0  0  0  0  0  0  0
    3.6920   -6.1367   -0.8045 C   0  0  0  0  0  0  0  0  0  0  0  0
    4.4765   -4.7066   -2.1559 H   0  0  0  0  0  0  0  0  0  0  0  0
    4.5008   -6.4218   -0.1155 H   0  0  0  0  0  0  0  0  0  0  0  0
    2.7304   -6.1608   -0.2709 H   0  0  0  0  0  0  0  0  0  0  0  0
    3.6618   -6.8435   -1.6468 H   0  0  0  0  0  0  0  0  0  0  0  0
  1  3  1  0  0  0  0
  1  7  1  0  0  0  0
  1  2  2  0  0  0  0
 22 23  1  0  0  0  0
 23 25  1  0  0  0  0
 23 24  2  0  0  0  0
 35 36  1  0  0  0  0
 36 44  1  0  0  0  0
 36 37  2  0  0  0  0
  8  9  1  0  0  0  0
  9 17  1  0  0  0  0
  9 10  2  0  0  0  0
 18 19  1  0  0  0  0
 19 34  1  0  0  0  0
 19 20  2  0  0  0  0
 35 38  1  0  0  0  0
  8 11  1  0  0  0  0
 44 45  1  0  0  0  0
 21 22  1  0  0  0  0
 18 21  1  0  0  0  0
 34 35  1  0  0  0  0
  7  8  1  0  0  0  0
 17 18  1  0  0  0  0
  3  4  1  0  0  0  0
  3  5  1  0  0  0  0
  3  6  1  0  0  0  0
 38 41  1  0  0  0  0
 38 42  1  0  0  0  0
 38 43  1  0  0  0  0
 11 14  1  0  0  0  0
 11 15  1  0  0  0  0
 11 16  1  0  0  0  0
 45 47  1  0  0  0  0
 45 48  1  0  0  0  0
 45 49  1  0  0  0  0
 22 30  1  0  0  0  0
 22 31  1  0  0  0  0
 21 28  1  0  0  0  0
 21 29  1  0  0  0  0
 35 40  1  0  0  0  0
  8 13  1  0  0  0  0
 18 27  1  0  0  0  0
 25 32  1  0  0  0  0
 25 33  1  0  0  0  0
 44 46  1  0  0  0  0
  7 12  1  0  0  0  0
 34 39  1  0  0  0  0
 17 26  1  0  0  0  0
M  END
$$$$

  -OEChem-05262214473D

 49 48  0     1  0  0  0  0  0999 V2000
   -1.9833   -0.0509   -3.3423 C   0  0  0  0  0  0  0  0  0  0  0  0
   -1.6199   -1.0613   -2.7518 O   0  0  0  0  0  0  0  0  0  0  0  0
   -3.3243   -0.0235   -3.9975 C   0  0  0  0  0  0  0  0  0  0  0  0
   -3.2886   -0.3689   -5.0432 H   0  0  0  0  0  0  0  0  0  0  0  0
   -4.0503   -0.6845   -3.4973 H   0  0  0  0  0  0  0  0  0  0  0  0
   -3.8104    0.9645   -4.0351 H   0  0  0  0  0  0  0  0  0  0  0  0
   -1.2607    1.1231   -3.4768 N   0  0  0  0  0  0  0  0  0  0  0  0
    0.0536    1.3115   -2.9213 C   0  0  2  0  0  0  0  0  0  0  0  0
    0.0266    0.8315   -1.4761 C   0  0  0  0  0  0  0  0  0  0  0  0
   -1.0065    0.7530   -0.8146 O   0  0  0  0  0  0  0  0  0  0  0  0
    0.4852    2.7674   -3.0025 C   0  0  0  0  0  0  0  0  0  0  0  0
   -1.6809    1.8924   -3.9952 H   0  0  0  0  0  0  0  0  0  0  0  0
    0.7360    0.6822   -3.5030 H   0  0  0  0  0  0  0  0  0  0  0  0
   -0.1867    3.4133   -2.4256 H   0  0  0  0  0  0  0  0  0  0  0  0
    1.4966    2.9042   -2.6056 H   0  0  0  0  0  0  0  0  0  0  0  0
    0.4754    3.1196   -4.0397 H   0  0  0  0  0  0  0  0  0  0  0  0
    1.2978    0.5411   -0.9947 N   0  0  0  0  0  0  0  0  0  0  0  0
    1.5371    0.0807    0.3489 C   0  0  2  0  0  0  0  0  0  0  0  0
    2.5191   -1.0822    0.2597 C   0  0  0  0  0  0  0  0  0  0  0  0
    2.7501   -1.8364    1.2024 O   0  0  0  0  0  0  0  0  0  0  0  0
    0.2458   -0.3640    1.0472 C   0  0  0  0  0  0  0  0  0  0  0  0
   -0.7273    0.7856    1.3161 C   0  0  0  0  0  0  0  0  0  0  0  0
   -2.0159    0.3447    1.9851 C   0  0  0  0  0  0  0  0  0  0  0  0
   -2.2995   -0.8253    2.2244 O   0  0  0  0  0  0  0  0  0  0  0  0
   -2.8471    1.4062    2.2721 N   0  0  0  0  0  0  0  0  0  0  0  0
    2.0949    0.6178   -1.6227 H   0  0  0  0  0  0  0  0  0  0  0  0
    2.0131    0.9090    0.8846 H   0  0  0  0  0  0  0  0  0  0  0  0
   -0.2637   -1.1096    0.4223 H   0  0  0  0  0  0  0  0  0  0  0  0
    0.4840   -0.8697    1.9915 H   0  0  0  0  0  0  0  0  0  0  0  0
   -1.0057    1.2427    0.3585 H   0  0  0  0  0  0  0  0  0  0  0  0
   -0.2517    1.5646    1.9224 H   0  0  0  0  0  0  0  0  0  0  0  0
   -2.5462    2.3434    2.0262 H   0  0  0  0  0  0  0  0  0  0  0  0
   -3.7494    1.2839    2.7206 H   0  0  0  0  0  0  0  0  0  0  0  0
    3.1407   -1.1439   -0.9798 N   0  0  0  0  0  0  0  0  0  0  0  0
    4.1317   -2.1387   -1.3217 C   0  0  2  0  0  0  0  0  0  0  0  0
    3.5842   -3.5036   -0.9257 C   0  0  0  0  0  0  0  0  0  0  0  0
    2.7072   -3.6542   -0.0775 O   0  0  0  0  0  0  0  0  0  0  0  0
    5.4560   -1.8619   -0.6272 C   0  0  0  0  0  0  0  0  0  0  0  0
    2.8862   -0.4554   -1.6818 H   0  0  0  0  0  0  0  0  0  0  0  0
    4.2595   -2.0972   -2.4089 H   0  0  0  0  0  0  0  0  0  0  0  0
    5.3478   -1.8992    0.4630 H   0  0  0  0  0  0  0  0  0  0  0  0
    6.2140   -2.6000   -0.9095 H   0  0  0  0  0  0  0  0  0  0  0  0
    5.8336   -0.8678   -0.8898 H   0  0  0  0  0  0  0  0  0  0  0  0
    4.2204   -4.5366   -1.5996 N   0  0  0  0  0  0  0  0  0  0  0  0
    3.8882   -5.9263   -1.3885 C   0  0  0  0  0  0  0  0  0  0  0  0
    4.9232   -4.3184   -2.2997 H   0  0  0  0  0  0  0  0  0  0  0  0
    4.5443   -6.3469   -0.6123 H   0  0  0  0  0  0  0  0  0  0  0  0
    2.8397   -6.0075   -1.0657 H   0  0  0  0  0  0  0  0  0  0  0  0
    4.0270   -6.4830   -2.3271 H   0  0  0  0  0  0  0  0  0  0  0  0
  1  3  1  0  0  0  0
  1  7  1  0  0  0  0
  1  2  2  0  0  0  0
 22 23  1  0  0  0  0
 23 25  1  0  0  0  0
 23 24  2  0  0  0  0
 35 36  1  0  0  0  0
 36 44  1  0  0  0  0
 36 37  2  0  0  0  0
  8  9  1  0  0  0  0
  9 17  1  0  0  0  0
  9 10  2  0  0  0  0
 18 19  1  0  0  0  0
 19 34  1  0  0  0  0
 19 20  2  0  0  0  0
 35 38  1  0  0  0  0
  8 11  1  0  0  0  0
 44 45  1  0  0  0  0
 21 22  1  0  0  0  0
 18 21  1  0  0  0  0
 34 35  1  0  0  0  0
  7  8  1  0  0  0  0
 17 18  1  0  0  0  0
  3  4  1  0  0  0  0
  3  5  1  0  0  0  0
  3  6  1  0  0  0  0
 38 41  1  0  0  0  0
 38 42  1  0  0  0  0
 38 43  1  0  0  0  0
 11 14  1  0  0  0  0
 11 15  1  0  0  0  0
 11 16  1  0  0  0  0
 45 47  1  0  0  0  0
 45 48  1  0  0  0  0
 45 49  1  0  0  0  0
 22 30  1  0  0  0  0
 22 31  1  0  0  0  0
 21 28  1  0  0  0  0
 21 29  1  0  0  0  0
 35 40  1  0  0  0  0
  8 13  1  0  0  0  0
 18 27  1  0  0  0  0
 25 32  1  0  0  0  0
 25 33  1  0  0  0  0
 44 46  1  0  0  0  0
  7 12  1  0  0  0  0
 34 39  1  0  0  0  0
 17 26  1  0  0  0  0
M  END
$$$$

  -OEChem-05262214473D

 49 48  0     1  0  0  0  0  0999 V2000
   -1.9833   -0.0509   -3.3423 C   0  0  0  0  0  0  0  0  0  0  0  0
   -1.6199   -1.0613   -2.7518 O   0  0  0  0  0  0  0  0  0  0  0  0
   -3.3243   -0.0235   -3.9975 C   0  0  0  0  0  0  0  0  0  0  0  0
   -3.2886   -0.3689   -5.0432 H   0  0  0  0  0  0  0  0  0  0  0  0
   -4.0503   -0.6845   -3.4973 H   0  0  0  0  0  0  0  0  0  0  0  0
   -3.8104    0.9645   -4.0351 H   0  0  0  0  0  0  0  0  0  0  0  0
   -1.2607    1.1231   -3.4768 N   0  0  0  0  0  0  0  0  0  0  0  0
    0.0536    1.3115   -2.9213 C   0  0  2  0  0  0  0  0  0  0  0  0
    0.0266    0.8315   -1.4761 C   0  0  0  0  0  0  0  0  0  0  0  0
   -1.0065    0.7530   -0.8146 O   0  0  0  0  0  0  0  0  0  0  0  0
    0.4852    2.7674   -3.0025 C   0  0  0  0  0  0  0  0  0  0  0  0
   -1.6809    1.8924   -3.9952 H   0  0  0  0  0  0  0  0  0  0  0  0
    0.7360    0.6822   -3.5030 H   0  0  0  0  0  0  0  0  0  0  0  0
   -0.1867    3.4133   -2.4256 H   0  0  0  0  0  0  0  0  0  0  0  0
    1.4966    2.9042   -2.6056 H   0  0  0  0  0  0  0  0  0  0  0  0
    0.4754    3.1196   -4.0397 H   0  0  0  0  0  0  0  0  0  0  0  0
    1.2978    0.5411   -0.9947 N   0  0  0  0  0  0  0  0  0  0  0  0
    1.5371    0.0807    0.3489 C   0  0  2  0  0  0  0  0  0  0  0  0
    2.5191   -1.0822    0.2597 C   0  0  0  0  0  0  0  0  0  0  0  0
    2.5594   -1.9887    1.0889 O   0  0  0  0  0  0  0  0  0  0  0  0
    0.2458   -0.3640    1.0472 C   0  0  0  0  0  0  0  0  0  0  0  0
   -0.7273    0.7856    1.3161 C   0  0  0  0  0  0  0  0  0  0  0  0
   -2.0159    0.3447    1.9851 C   0  0  0  0  0  0  0  0  0  0  0  0
   -2.2995   -0.8253    2.2244 O   0  0  0  0  0  0  0  0  0  0  0  0
   -2.8471    1.4062    2.2721 N   0  0  0  0  0  0  0  0  0  0  0  0
    2.0949    0.6178   -1.6227 H   0  0  0  0  0  0  0  0  0  0  0  0
    2.0131    0.9090    0.8846 H   0  0  0  0  0  0  0  0  0  0  0  0
   -0.2637   -1.1096    0.4223 H   0  0  0  0  0  0  0  0  0  0  0  0
    0.4840   -0.8697    1.9915 H   0  0  0  0  0  0  0  0  0  0  0  0
   -1.0057    1.2427    0.3585 H   0  0  0  0  0  0  0  0  0  0  0  0
   -0.2517    1.5646    1.9224 H   0  0  0  0  0  0  0  0  0  0  0  0
   -2.5462    2.3434    2.0262 H   0  0  0  0  0  0  0  0  0  0  0  0
   -3.7494    1.2839    2.7206 H   0  0  0  0  0  0  0  0  0  0  0  0
    3.3746   -0.9581   -0.8261 N   0  0  0  0  0  0  0  0  0  0  0  0
    4.4155   -1.9138   -1.1294 C   0  0  2  0  0  0  0  0  0  0  0  0
    3.8024   -3.3072   -1.0838 C   0  0  0  0  0  0  0  0  0  0  0  0
    2.7746   -3.5678   -0.4618 O   0  0  0  0  0  0  0  0  0  0  0  0
    5.5749   -1.7980   -0.1522 C   0  0  0  0  0  0  0  0  0  0  0  0
    3.2637   -0.1553   -1.4384 H   0  0  0  0  0  0  0  0  0  0  0  0
    4.7566   -1.6975   -2.1476 H   0  0  0  0  0  0  0  0  0  0  0  0
    5.2524   -2.0113    0.8734 H   0  0  0  0  0  0  0  0  0  0  0  0
    6.3751   -2.5031   -0.4004 H   0  0  0  0  0  0  0  0  0  0  0  0
    5.9956   -0.7867   -0.1647 H   0  0  0  0  0  0  0  0  0  0  0  0
    4.5614   -4.2346   -1.7839 N   0  0  0  0  0  0  0  0  0  0  0  0
    4.1961   -5.6286   -1.8789 C   0  0  0  0  0  0  0  0  0  0  0  0
    5.3890   -3.9262   -2.2856 H   0  0  0  0  0  0  0  0  0  0  0  0
    4.6856   -6.1924   -1.0711 H   0  0  0  0  0  0  0  0  0  0  0  0
    3.1046   -5.7287   -1.7863 H   0  0  0  0  0  0  0  0  0  0  0  0
    4.5195   -6.0268   -2.8520 H   0  0  0  0  0  0  0  0  0  0  0  0
  1  3  1  0  0  0  0
  1  7  1  0  0  0  0
  1  2  2  0  0  0  0
 22 23  1  0  0  0  0
 23 25  1  0  0  0  0
 23 24  2  0  0  0  0
 35 36  1  0  0  0  0
 36 44  1  0  0  0  0
 36 37  2  0  0  0  0
  8  9  1  0  0  0  0
  9 17  1  0  0  0  0
  9 10  2  0  0  0  0
 18 19  1  0  0  0  0
 19 34  1  0  0  0  0
 19 20  2  0  0  0  0
 35 38  1  0  0  0  0
  8 11  1  0  0  0  0
 44 45  1  0  0  0  0
 21 22  1  0  0  0  0
 18 21  1  0  0  0  0
 34 35  1  0  0  0  0
  7  8  1  0  0  0  0
 17 18  1  0  0  0  0
  3  4  1  0  0  0  0
  3  5  1  0  0  0  0
  3  6  1  0  0  0  0
 38 41  1  0  0  0  0
 38 42  1  0  0  0  0
 38 43  1  0  0  0  0
 11 14  1  0  0  0  0
 11 15  1  0  0  0  0
 11 16  1  0  0  0  0
 45 47  1  0  0  0  0
 45 48  1  0  0  0  0
 45 49  1  0  0  0  0
 22 30  1  0  0  0  0
 22 31  1  0  0  0  0
 21 28  1  0  0  0  0
 21 29  1  0  0  0  0
 35 40  1  0  0  0  0
  8 13  1  0  0  0  0
 18 27  1  0  0  0  0
 25 32  1  0  0  0  0
 25 33  1  0  0  0  0
 44 46  1  0  0  0  0
  7 12  1  0  0  0  0
 34 39  1  0  0  0  0
 17 26  1  0  0  0  0
M  END
$$$$

  -OEChem-05262214473D

 49 48  0     1  0  0  0  0  0999 V2000
   -1.9833   -0.0509   -3.3423 C   0  0  0  0  0  0  0  0  0  0  0  0
   -1.6199   -1.0613   -2.7518 O   0  0  0  0  0  0  0  0  0  0  0  0
   -3.3243   -0.0235   -3.9975 C   0  0  0  0  0  0  0  0  0  0  0  0
   -3.2886   -0.3689   -5.0432 H   0  0  0  0  0  0  0  0  0  0  0  0
   -4.0503   -0.6845   -3.4973 H   0  0  0  0  0  0  0  0  0  0  0  0
   -3.8104    0.9645   -4.0351 H   0  0  0  0  0  0  0  0  0  0  0  0
   -1.2607    1.1231   -3.4768 N   0  0  0  0  0  0  0  0  0  0  0  0
    0.0536    1.3115   -2.9213 C   0  0  2  0  0  0  0  0  0  0  0  0
    0.0266    0.8315   -1.4761 C   0  0  0  0  0  0  0  0  0  0  0  0
   -1.0065    0.7530   -0.8146 O   0  0  0  0  0  0  0  0  0  0  0  0
    0.4852    2.7674   -3.0025 C   0  0  0  0  0  0  0  0  0  0  0  0
   -1.6809    1.8924   -3.9952 H   0  0  0  0  0  0  0  0  0  0  0  0
    0.7360    0.6822   -3.5030 H   0  0  0  0  0  0  0  0  0  0  0  0
   -0.1867    3.4133   -2.4256 H   0  0  0  0  0  0  0  0  0  0  0  0
    1.4966    2.9042   -2.6056 H   0  0  0  0  0  0  0  0  0  0  0  0
    0.4754    3.1196   -4.0397 H   0  0  0  0  0  0  0  0  0  0  0  0
    1.2978    0.5411   -0.9947 N   0  0  0  0  0  0  0  0  0  0  0  0
    1.5371    0.0807    0.3489 C   0  0  2  0  0  0  0  0  0  0  0  0
    2.5191   -1.0822    0.2597 C   0  0  0  0  0  0  0  0  0  0  0  0
    2.3953   -2.1141    0.9161 O   0  0  0  0  0  0  0  0  0  0  0  0
    0.2458   -0.3640    1.0472 C   0  0  0  0  0  0  0  0  0  0  0  0
   -0.7273    0.7856    1.3161 C   0  0  0  0  0  0  0  0  0  0  0  0
   -2.0159    0.3447    1.9851 C   0  0  0  0  0  0  0  0  0  0  0  0
   -2.2995   -0.8253    2.2244 O   0  0  0  0  0  0  0  0  0  0  0  0
   -2.8471    1.4062    2.2721 N   0  0  0  0  0  0  0  0  0  0  0  0
    2.0949    0.6178   -1.6227 H   0  0  0  0  0  0  0  0  0  0  0  0
    2.0131    0.9090    0.8846 H   0  0  0  0  0  0  0  0  0  0  0  0
   -0.2637   -1.1096    0.4223 H   0  0  0  0  0  0  0  0  0  0  0  0
    0.4840   -0.8697    1.9915 H   0  0  0  0  0  0  0  0  0  0  0  0
   -1.0057    1.2427    0.3585 H   0  0  0  0  0  0  0  0  0  0  0  0
   -0.2517    1.5646    1.9224 H   0  0  0  0  0  0  0  0  0  0  0  0
   -2.5462    2.3434    2.0262 H   0  0  0  0  0  0  0  0  0  0  0  0
   -3.7494    1.2839    2.7206 H   0  0  0  0  0  0  0  0  0  0  0  0
    3.5731   -0.8078   -0.6006 N   0  0  0  0  0  0  0  0  0  0  0  0
    4.6550   -1.7330   -0.8502 C   0  0  2  0  0  0  0  0  0  0  0  0
    4.0473   -3.0945   -1.1608 C   0  0  0  0  0  0  0  0  0  0  0  0
    2.9168   -3.4214   -0.8053 O   0  0  0  0  0  0  0  0  0  0  0  0
    5.5970   -1.8172    0.3407 C   0  0  0  0  0  0  0  0  0  0  0  0
    3.5847    0.0882   -1.0788 H   0  0  0  0  0  0  0  0  0  0  0  0
    5.1913   -1.3624   -1.7306 H   0  0  0  0  0  0  0  0  0  0  0  0
    5.0774   -2.1866    1.2324 H   0  0  0  0  0  0  0  0  0  0  0  0
    6.4316   -2.4967    0.1392 H   0  0  0  0  0  0  0  0  0  0  0  0
    6.0101   -0.8316    0.5813 H   0  0  0  0  0  0  0  0  0  0  0  0
    4.9317   -3.9172   -1.8442 N   0  0  0  0  0  0  0  0  0  0  0  0
    4.5948   -5.2641   -2.2422 C   0  0  0  0  0  0  0  0  0  0  0  0
    5.8420   -3.5567   -2.1147 H   0  0  0  0  0  0  0  0  0  0  0  0
    4.9150   -5.9688   -1.4606 H   0  0  0  0  0  0  0  0  0  0  0  0
    3.5068   -5.3432   -2.3836 H   0  0  0  0  0  0  0  0  0  0  0  0
    5.1058   -5.5062   -3.1857 H   0  0  0  0  0  0  0  0  0  0  0  0
  1  3  1  0  0  0  0
  1  7  1  0  0  0  0
  1  2  2  0  0  0  0
 22 23  1  0  0  0  0
 23 25  1  0  0  0  0
 23 24  2  0  0  0  0
 35 36  1  0  0  0  0
 36 44  1  0  0  0  0
 36 37  2  0  0  0  0
  8  9  1  0  0  0  0
  9 17  1  0  0  0  0
  9 10  2  0  0  0  0
 18 19  1  0  0  0  0
 19 34  1  0  0  0  0
 19 20  2  0  0  0  0
 35 38  1  0  0  0  0
  8 11  1  0  0  0  0
 44 45  1  0  0  0  0
 21 22  1  0  0  0  0
 18 21  1  0  0  0  0
 34 35  1  0  0  0  0
  7  8  1  0  0  0  0
 17 18  1  0  0  0  0
  3  4  1  0  0  0  0
  3  5  1  0  0  0  0
  3  6  1  0  0  0  0
 38 41  1  0  0  0  0
 38 42  1  0  0  0  0
 38 43  1  0  0  0  0
 11 14  1  0  0  0  0
 11 15  1  0  0  0  0
 11 16  1  0  0  0  0
 45 47  1  0  0  0  0
 45 48  1  0  0  0  0
 45 49  1  0  0  0  0
 22 30  1  0  0  0  0
 22 31  1  0  0  0  0
 21 28  1  0  0  0  0
 21 29  1  0  0  0  0
 35 40  1  0  0  0  0
  8 13  1  0  0  0  0
 18 27  1  0  0  0  0
 25 32  1  0  0  0  0
 25 33  1  0  0  0  0
 44 46  1  0  0  0  0
  7 12  1  0  0  0  0
 34 39  1  0  0  0  0
 17 26  1  0  0  0  0
M  END
$$$$

  -OEChem-05262214473D

 49 48  0     1  0  0  0  0  0999 V2000
   -1.9833   -0.0509   -3.3423 C   0  0  0  0  0  0  0  0  0  0  0  0
   -1.6199   -1.0613   -2.7518 O   0  0  0  0  0  0  0  0  0  0  0  0
   -3.3243   -0.0235   -3.9975 C   0  0  0  0  0  0  0  0  0  0  0  0
   -3.2886   -0.3689   -5.0432 H   0  0  0  0  0  0  0  0  0  0  0  0
   -4.0503   -0.6845   -3.4973 H   0  0  0  0  0  0  0  0  0  0  0  0
   -3.8104    0.9645   -4.0351 H   0  0  0  0  0  0  0  0  0  0  0  0
   -1.2607    1.1231   -3.4768 N   0  0  0  0  0  0  0  0  0  0  0  0
    0.0536    1.3115   -2.9213 C   0  0  2  0  0  0  0  0  0  0  0  0
    0.0266    0.8315   -1.4761 C   0  0  0  0  0  0  0  0  0  0  0  0
   -1.0065    0.7530   -0.8146 O   0  0  0  0  0  0  0  0  0  0  0  0
    0.4852    2.7674   -3.0025 C   0  0  0  0  0  0  0  0  0  0  0  0
   -1.6809    1.8924   -3.9952 H   0  0  0  0  0  0  0  0  0  0  0  0
    0.7360    0.6822   -3.5030 H   0  0  0  0  0  0  0  0  0  0  0  0
   -0.1867    3.4133   -2.4256 H   0  0  0  0  0  0  0  0  0  0  0  0
    1.4966    2.9042   -2.6056 H   0  0  0  0  0  0  0  0  0  0  0  0
    0.4754    3.1196   -4.0397 H   0  0  0  0  0  0  0  0  0  0  0  0
    1.2978    0.5411   -0.9947 N   0  0  0  0  0  0  0  0  0  0  0  0
    1.5371    0.0807    0.3489 C   0  0  2  0  0  0  0  0  0  0  0  0
    2.5191   -1.0822    0.2597 C   0  0  0  0  0  0  0  0  0  0  0  0
    2.2690   -2.2038    0.6960 O   0  0  0  0  0  0  0  0  0  0  0  0
    0.2458   -0.3640    1.0472 C   0  0  0  0  0  0  0  0  0  0  0  0
   -0.7273    0.7856    1.3161 C   0  0  0  0  0  0  0  0  0  0  0  0
   -2.0159    0.3447    1.9851 C   0  0  0  0  0  0  0  0  0  0  0  0
   -2.2995   -0.8253    2.2244 O   0  0  0  0  0  0  0  0  0  0  0  0
   -2.8471    1.4062    2.2721 N   0  0  0  0  0  0  0  0  0  0  0  0
    2.0949    0.6178   -1.6227 H   0  0  0  0  0  0  0  0  0  0  0  0
    2.0131    0.9090    0.8846 H   0  0  0  0  0  0  0  0  0  0  0  0
   -0.2637   -1.1096    0.4223 H   0  0  0  0  0  0  0  0  0  0  0  0
    0.4840   -0.8697    1.9915 H   0  0  0  0  0  0  0  0  0  0  0  0
   -1.0057    1.2427    0.3585 H   0  0  0  0  0  0  0  0  0  0  0  0
   -0.2517    1.5646    1.9224 H   0  0  0  0  0  0  0  0  0  0  0  0
   -2.5462    2.3434    2.0262 H   0  0  0  0  0  0  0  0  0  0  0  0
   -3.7494    1.2839    2.7206 H   0  0  0  0  0  0  0  0  0  0  0  0
    3.7226   -0.7032   -0.3185 N   0  0  0  0  0  0  0  0  0  0  0  0
    4.8340   -1.6085   -0.5031 C   0  0  2  0  0  0  0  0  0  0  0  0
    4.3022   -2.8799   -1.1513 C   0  0  0  0  0  0  0  0  0  0  0  0
    3.1242   -3.2248   -1.0846 O   0  0  0  0  0  0  0  0  0  0  0  0
    5.5207   -1.9182    0.8180 C   0  0  0  0  0  0  0  0  0  0  0  0
    3.8276    0.2586   -0.6274 H   0  0  0  0  0  0  0  0  0  0  0  0
    5.5339   -1.1149   -1.1860 H   0  0  0  0  0  0  0  0  0  0  0  0
    4.8349   -2.4131    1.5153 H   0  0  0  0  0  0  0  0  0  0  0  0
    6.3798   -2.5814    0.6727 H   0  0  0  0  0  0  0  0  0  0  0  0
    5.8762   -0.9996    1.2972 H   0  0  0  0  0  0  0  0  0  0  0  0
    5.3062   -3.6062   -1.7764 N   0  0  0  0  0  0  0  0  0  0  0  0
    5.0572   -4.8574   -2.4535 C   0  0  0  0  0  0  0  0  0  0  0  0
    6.2515   -3.2352   -1.7986 H   0  0  0  0  0  0  0  0  0  0  0  0
    5.2168   -5.6914   -1.7543 H   0  0  0  0  0  0  0  0  0  0  0  0
    4.0191   -4.8773   -2.8169 H   0  0  0  0  0  0  0  0  0  0  0  0
    5.7459   -4.9565   -3.3056 H   0  0  0  0  0  0  0  0  0  0  0  0
  1  3  1  0  0  0  0
  1  7  1  0  0  0  0
  1  2  2  0  0  0  0
 22 23  1  0  0  0  0
 23 25  1  0  0  0  0
 23 24  2  0  0  0  0
 35 36  1  0  0  0  0
 36 44  1  0  0  0  0
 36 37  2  0  0  0  0
  8  9  1  0  0  0  0
  9 17  1  0  0  0  0
  9 10  2  0  0  0  0
 18 19  1  0  0  0  0
 19 34  1  0  0  0  0
 19 20  2  0  0  0  0
 35 38  1  0  0  0  0
  8 11  1  0  0  0  0
 44 45  1  0  0  0  0
 21 22  1  0  0  0  0
 18 21  1  0  0  0  0
 34 35  1  0  0  0  0
  7  8  1  0  0  0  0
 17 18  1  0  0  0  0
  3  4  1  0  0  0  0
  3  5  1  0  0  0  0
  3  6  1  0  0  0  0
 38 41  1  0  0  0  0
 38 42  1  0  0  0  0
 38 43  1  0  0  0  0
 11 14  1  0  0  0  0
 11 15  1  0  0  0  0
 11 16  1  0  0  0  0
 45 47  1  0  0  0  0
 45 48  1  0  0  0  0
 45 49  1  0  0  0  0
 22 30  1  0  0  0  0
 22 31  1  0  0  0  0
 21 28  1  0  0  0  0
 21 29  1  0  0  0  0
 35 40  1  0  0  0  0
  8 13  1  0  0  0  0
 18 27  1  0  0  0  0
 25 32  1  0  0  0  0
 25 33  1  0  0  0  0
 44 46  1  0  0  0  0
  7 12  1  0  0  0  0
 34 39  1  0  0  0  0
 17 26  1  0  0  0  0
M  END
$$$$

  -OEChem-05262214473D

 49 48  0     1  0  0  0  0  0999 V2000
   -1.9833   -0.0509   -3.3423 C   0  0  0  0  0  0  0  0  0  0  0  0
   -1.6199   -1.0613   -2.7518 O   0  0  0  0  0  0  0  0  0  0  0  0
   -3.3243   -0.0235   -3.9975 C   0  0  0  0  0  0  0  0  0  0  0  0
   -3.2886   -0.3689   -5.0432 H   0  0  0  0  0  0  0  0  0  0  0  0
   -4.0503   -0.6845   -3.4973 H   0  0  0  0  0  0  0  0  0  0  0  0
   -3.8104    0.9645   -4.0351 H   0  0  0  0  0  0  0  0  0  0  0  0
   -1.2607    1.1231   -3.4768 N   0  0  0  0  0  0  0  0  0  0  0  0
    0.0536    1.3115   -2.9213 C   0  0  2  0  0  0  0  0  0  0  0  0
    0.0266    0.8315   -1.4761 C   0  0  0  0  0  0  0  0  0  0  0  0
   -1.0065    0.7530   -0.8146 O   0  0  0  0  0  0  0  0  0  0  0  0
    0.4852    2.7674   -3.0025 C   0  0  0  0  0  0  0  0  0  0  0  0
   -1.6809    1.8924   -3.9952 H   0  0  0  0  0  0  0  0  0  0  0  0
    0.7360    0.6822   -3.5030 H   0  0  0  0  0  0  0  0  0  0  0  0
   -0.1867    3.4133   -2.4256 H   0  0  0  0  0  0  0  0  0  0  0  0
    1.4966    2.9042   -2.6056 H   0  0  0  0  0  0  0  0  0  0  0  0
    0.4754    3.1196   -4.0397 H   0  0  0  0  0  0  0  0  0  0  0  0
    1.2978    0.5411   -0.9947 N   0  0  0  0  0  0  0  0  0  0  0  0
    1.5371    0.0807    0.3489 C   0  0  2  0  0  0  0  0  0  0  0  0
    2.5191   -1.0822    0.2597 C   0  0  0  0  0  0  0  0  0  0  0  0
    2.1890   -2.2519    0.4434 O   0  0  0  0  0  0  0  0  0  0  0  0
    0.2458   -0.3640    1.0472 C   0  0  0  0  0  0  0  0  0  0  0  0
   -0.7273    0.7856    1.3161 C   0  0  0  0  0  0  0  0  0  0  0  0
   -2.0159    0.3447    1.9851 C   0  0  0  0  0  0  0  0  0  0  0  0
   -2.2995   -0.8253    2.2244 O   0  0  0  0  0  0  0  0  0  0  0  0
   -2.8471    1.4062    2.2721 N   0  0  0  0  0  0  0  0  0  0  0  0
    2.0949    0.6178   -1.6227 H   0  0  0  0  0  0  0  0  0  0  0  0
    2.0131    0.9090    0.8846 H   0  0  0  0  0  0  0  0  0  0  0  0
   -0.2637   -1.1096    0.4223 H   0  0  0  0  0  0  0  0  0  0  0  0
    0.4840   -0.8697    1.9915 H   0  0  0  0  0  0  0  0  0  0  0  0
   -1.0057    1.2427    0.3585 H   0  0  0  0  0  0  0  0  0  0  0  0
   -0.2517    1.5646    1.9224 H   0  0  0  0  0  0  0  0  0  0  0  0
   -2.5462    2.3434    2.0262 H   0  0  0  0  0  0  0  0  0  0  0  0
   -3.7494    1.2839    2.7206 H   0  0  0  0  0  0  0  0  0  0  0  0
    3.8129   -0.6515    0.0009 N   0  0  0  0  0  0  0  0  0  0  0  0
    4.9402   -1.5488   -0.1117 C   0  0  2  0  0  0  0  0  0  0  0  0
    4.5499   -2.6781   -1.0561 C   0  0  0  0  0  0  0  0  0  0  0  0
    3.3827   -2.9915   -1.2807 O   0  0  0  0  0  0  0  0  0  0  0  0
    5.3512   -2.0942    1.2471 C   0  0  0  0  0  0  0  0  0  0  0  0
    3.9756    0.3443   -0.1151 H   0  0  0  0  0  0  0  0  0  0  0  0
    5.7611   -0.9717   -0.5511 H   0  0  0  0  0  0  0  0  0  0  0  0
    4.5413   -2.6754    1.7030 H   0  0  0  0  0  0  0  0  0  0  0  0
    6.2231   -2.7514    1.1637 H   0  0  0  0  0  0  0  0  0  0  0  0
    5.6030   -1.2792    1.9343 H   0  0  0  0  0  0  0  0  0  0  0  0
    5.6592   -3.3228   -1.5853 N   0  0  0  0  0  0  0  0  0  0  0  0
    5.5517   -4.4364   -2.4987 C   0  0  0  0  0  0  0  0  0  0  0  0
    6.5895   -2.9836   -1.3589 H   0  0  0  0  0  0  0  0  0  0  0  0
    5.5706   -5.3791   -1.9322 H   0  0  0  0  0  0  0  0  0  0  0  0
    4.6066   -4.3629   -3.0566 H   0  0  0  0  0  0  0  0  0  0  0  0
    6.3961   -4.4153   -3.2034 H   0  0  0  0  0  0  0  0  0  0  0  0
  1  3  1  0  0  0  0
  1  7  1  0  0  0  0
  1  2  2  0  0  0  0
 22 23  1  0  0  0  0
 23 25  1  0  0  0  0
 23 24  2  0  0  0  0
 35 36  1  0  0  0  0
 36 44  1  0  0  0  0
 36 37  2  0  0  0  0
  8  9  1  0  0  0  0
  9 17  1  0  0  0  0
  9 10  2  0  0  0  0
 18 19  1  0  0  0  0
 19 34  1  0  0  0  0
 19 20  2  0  0  0  0
 35 38  1  0  0  0  0
  8 11  1  0  0  0  0
 44 45  1  0  0  0  0
 21 22  1  0  0  0  0
 18 21  1  0  0  0  0
 34 35  1  0  0  0  0
  7  8  1  0  0  0  0
 17 18  1  0  0  0  0
  3  4  1  0  0  0  0
  3  5  1  0  0  0  0
  3  6  1  0  0  0  0
 38 41  1  0  0  0  0
 38 42  1  0  0  0  0
 38 43  1  0  0  0  0
 11 14  1  0  0  0  0
 11 15  1  0  0  0  0
 11 16  1  0  0  0  0
 45 47  1  0  0  0  0
 45 48  1  0  0  0  0
 45 49  1  0  0  0  0
 22 30  1  0  0  0  0
 22 31  1  0  0  0  0
 21 28  1  0  0  0  0
 21 29  1  0  0  0  0
 35 40  1  0  0  0  0
  8 13  1  0  0  0  0
 18 27  1  0  0  0  0
 25 32  1  0  0  0  0
 25 33  1  0  0  0  0
 44 46  1  0  0  0  0
  7 12  1  0  0  0  0
 34 39  1  0  0  0  0
 17 26  1  0  0  0  0
M  END
$$$$

  -OEChem-05262214473D

 49 48  0     1  0  0  0  0  0999 V2000
   -1.9833   -0.0509   -3.3423 C   0  0  0  0  0  0  0  0  0  0  0  0
   -1.6199   -1.0613   -2.7518 O   0  0  0  0  0  0  0  0  0  0  0  0
   -3.3243   -0.0235   -3.9975 C   0  0  0  0  0  0  0  0  0  0  0  0
   -3.2886   -0.3689   -5.0432 H   0  0  0  0  0  0  0  0  0  0  0  0
   -4.0503   -0.6845   -3.4973 H   0  0  0  0  0  0  0  0  0  0  0  0
   -3.8104    0.9645   -4.0351 H   0  0  0  0  0  0  0  0  0  0  0  0
   -1.2607    1.1231   -3.4768 N   0  0  0  0  0  0  0  0  0  0  0  0
    0.0536    1.3115   -2.9213 C   0  0  2  0  0  0  0  0  0  0  0  0
    0.0266    0.8315   -1.4761 C   0  0  0  0  0  0  0  0  0  0  0  0
   -1.0065    0.7530   -0.8146 O   0  0  0  0  0  0  0  0  0  0  0  0
    0.4852    2.7674   -3.0025 C   0  0  0  0  0  0  0  0  0  0  0  0
   -1.6809    1.8924   -3.9952 H   0  0  0  0  0  0  0  0  0  0  0  0
    0.7360    0.6822   -3.5030 H   0  0  0  0  0  0  0  0  0  0  0  0
   -0.1867    3.4133   -2.4256 H   0  0  0  0  0  0  0  0  0  0  0  0
    1.4966    2.9042   -2.6056 H   0  0  0  0  0  0  0  0  0  0  0  0
    0.4754    3.1196   -4.0397 H   0  0  0  0  0  0  0  0  0  0  0  0
    1.2978    0.5411   -0.9947 N   0  0  0  0  0  0  0  0  0  0  0  0
    1.5371    0.0807    0.3489 C   0  0  2  0  0  0  0  0  0  0  0  0
    2.5191   -1.0822    0.2597 C   0  0  0  0  0  0  0  0  0  0  0  0
    2.1610   -2.2551    0.1757 O   0  0  0  0  0  0  0  0  0  0  0  0
    0.2458   -0.3640    1.0472 C   0  0  0  0  0  0  0  0  0  0  0  0
   -0.7273    0.7856    1.3161 C   0  0  0  0  0  0  0  0  0  0  0  0
   -2.0159    0.3447    1.9851 C   0  0  0  0  0  0  0  0  0  0  0  0
   -2.2995   -0.8253    2.2244 O   0  0  0  0  0  0  0  0  0  0  0  0
   -2.8471    1.4062    2.2721 N   0  0  0  0  0  0  0  0  0  0  0  0
    2.0949    0.6178   -1.6227 H   0  0  0  0  0  0  0  0  0  0  0  0
    2.0131    0.9090    0.8846 H   0  0  0  0  0  0  0  0  0  0  0  0
   -0.2637   -1.1096    0.4223 H   0  0  0  0  0  0  0  0  0  0  0  0
    0.4840   -0.8697    1.9915 H   0  0  0  0  0  0  0  0  0  0  0  0
   -1.0057    1.2427    0.3585 H   0  0  0  0  0  0  0  0  0  0  0  0
   -0.2517    1.5646    1.9224 H   0  0  0  0  0  0  0  0  0  0  0  0
   -2.5462    2.3434    2.0262 H   0  0  0  0  0  0  0  0  0  0  0  0
   -3.7494    1.2839    2.7206 H   0  0  0  0  0  0  0  0  0  0  0  0
    3.8378   -0.6562    0.3359 N   0  0  0  0  0  0  0  0  0  0  0  0
    4.9665   -1.5580    0.2973 C   0  0  2  0  0  0  0  0  0  0  0  0
    4.7734   -2.5028   -0.8816 C   0  0  0  0  0  0  0  0  0  0  0  0
    3.6746   -2.7374   -1.3802 O   0  0  0  0  0  0  0  0  0  0  0  0
    5.1002   -2.3332    1.5988 C   0  0  0  0  0  0  0  0  0  0  0  0
    4.0188    0.3395    0.4232 H   0  0  0  0  0  0  0  0  0  0  0  0
    5.8574   -0.9428    0.1309 H   0  0  0  0  0  0  0  0  0  0  0  0
    4.2168   -2.9555    1.7826 H   0  0  0  0  0  0  0  0  0  0  0  0
    5.9723   -2.9950    1.5787 H   0  0  0  0  0  0  0  0  0  0  0  0
    5.2091   -1.6513    2.4491 H   0  0  0  0  0  0  0  0  0  0  0  0
    5.9667   -3.0862   -1.2836 N   0  0  0  0  0  0  0  0  0  0  0  0
    6.0447   -4.0297   -2.3745 C   0  0  0  0  0  0  0  0  0  0  0  0
    6.8330   -2.8189   -0.8255 H   0  0  0  0  0  0  0  0  0  0  0  0
    5.9521   -5.0531   -1.9821 H   0  0  0  0  0  0  0  0  0  0  0  0
    5.2291   -3.8349   -3.0865 H   0  0  0  0  0  0  0  0  0  0  0  0
    7.0122   -3.9194   -2.8861 H   0  0  0  0  0  0  0  0  0  0  0  0
  1  3  1  0  0  0  0
  1  7  1  0  0  0  0
  1  2  2  0  0  0  0
 22 23  1  0  0  0  0
 23 25  1  0  0  0  0
 23 24  2  0  0  0  0
 35 36  1  0  0  0  0
 36 44  1  0  0  0  0
 36 37  2  0  0  0  0
  8  9  1  0  0  0  0
  9 17  1  0  0  0  0
  9 10  2  0  0  0  0
 18 19  1  0  0  0  0
 19 34  1  0  0  0  0
 19 20  2  0  0  0  0
 35 38  1  0  0  0  0
  8 11  1  0  0  0  0
 44 45  1  0  0  0  0
 21 22  1  0  0  0  0
 18 21  1  0  0  0  0
 34 35  1  0  0  0  0
  7  8  1  0  0  0  0
 17 18  1  0  0  0  0
  3  4  1  0  0  0  0
  3  5  1  0  0  0  0
  3  6  1  0  0  0  0
 38 41  1  0  0  0  0
 38 42  1  0  0  0  0
 38 43  1  0  0  0  0
 11 14  1  0  0  0  0
 11 15  1  0  0  0  0
 11 16  1  0  0  0  0
 45 47  1  0  0  0  0
 45 48  1  0  0  0  0
 45 49  1  0  0  0  0
 22 30  1  0  0  0  0
 22 31  1  0  0  0  0
 21 28  1  0  0  0  0
 21 29  1  0  0  0  0
 35 40  1  0  0  0  0
  8 13  1  0  0  0  0
 18 27  1  0  0  0  0
 25 32  1  0  0  0  0
 25 33  1  0  0  0  0
 44 46  1  0  0  0  0
  7 12  1  0  0  0  0
 34 39  1  0  0  0  0
 17 26  1  0  0  0  0
M  END
$$$$

  -OEChem-05262214473D

 49 48  0     1  0  0  0  0  0999 V2000
   -1.9833   -0.0509   -3.3423 C   0  0  0  0  0  0  0  0  0  0  0  0
   -1.6199   -1.0613   -2.7518 O   0  0  0  0  0  0  0  0  0  0  0  0
   -3.3243   -0.0235   -3.9975 C   0  0  0  0  0  0  0  0  0  0  0  0
   -3.2886   -0.3689   -5.0432 H   0  0  0  0  0  0  0  0  0  0  0  0
   -4.0503   -0.6845   -3.4973 H   0  0  0  0  0  0  0  0  0  0  0  0
   -3.8104    0.9645   -4.0351 H   0  0  0  0  0  0  0  0  0  0  0  0
   -1.2607    1.1231   -3.4768 N   0  0  0  0  0  0  0  0  0  0  0  0
    0.0536    1.3115   -2.9213 C   0  0  2  0  0  0  0  0  0  0  0  0
    0.0266    0.8315   -1.4761 C   0  0  0  0  0  0  0  0  0  0  0  0
   -1.0065    0.7530   -0.8146 O   0  0  0  0  0  0  0  0  0  0  0  0
    0.4852    2.7674   -3.0025 C   0  0  0  0  0  0  0  0  0  0  0  0
   -1.6809    1.8924   -3.9952 H   0  0  0  0  0  0  0  0  0  0  0  0
    0.7360    0.6822   -3.5030 H   0  0  0  0  0  0  0  0  0  0  0  0
   -0.1867    3.4133   -2.4256 H   0  0  0  0  0  0  0  0  0  0  0  0
    1.4966    2.9042   -2.6056 H   0  0  0  0  0  0  0  0  0  0  0  0
    0.4754    3.1196   -4.0397 H   0  0  0  0  0  0  0  0  0  0  0  0
    1.2978    0.5411   -0.9947 N   0  0  0  0  0  0  0  0  0  0  0  0
    1.5371    0.0807    0.3489 C   0  0  2  0  0  0  0  0  0  0  0  0
    2.5191   -1.0822    0.2597 C   0  0  0  0  0  0  0  0  0  0  0  0
    2.1867   -2.2131   -0.0890 O   0  0  0  0  0  0  0  0  0  0  0  0
    0.2458   -0.3640    1.0472 C   0  0  0  0  0  0  0  0  0  0  0  0
   -0.7273    0.7856    1.3161 C   0  0  0  0  0  0  0  0  0  0  0  0
   -2.0159    0.3447    1.9851 C   0  0  0  0  0  0  0  0  0  0  0  0
   -2.2995   -0.8253    2.2244 O   0  0  0  0  0  0  0  0  0  0  0  0
   -2.8471    1.4062    2.2721 N   0  0  0  0  0  0  0  0  0  0  0  0
    2.0949    0.6178   -1.6227 H   0  0  0  0  0  0  0  0  0  0  0  0
    2.0131    0.9090    0.8846 H   0  0  0  0  0  0  0  0  0  0  0  0
   -0.2637   -1.1096    0.4223 H   0  0  0  0  0  0  0  0  0  0  0  0
    0.4840   -0.8697    1.9915 H   0  0  0  0  0  0  0  0  0  0  0  0
   -1.0057    1.2427    0.3585 H   0  0  0  0  0  0  0  0  0  0  0  0
   -0.2517    1.5646    1.9224 H   0  0  0  0  0  0  0  0  0  0  0  0
   -2.5462    2.3434    2.0262 H   0  0  0  0  0  0  0  0  0  0  0  0
   -3.7494    1.2839    2.7206 H   0  0  0  0  0  0  0  0  0  0  0  0
    3.7957   -0.7169    0.6636 N   0  0  0  0  0  0  0  0  0  0  0  0
    4.9110   -1.6355    0.6960 C   0  0  2  0  0  0  0  0  0  0  0  0
    4.9575   -2.3659   -0.6397 C   0  0  0  0  0  0  0  0  0  0  0  0
    3.9800   -2.4798   -1.3763 O   0  0  0  0  0  0  0  0  0  0  0  0
    4.7846   -2.6188    1.8491 C   0  0  0  0  0  0  0  0  0  0  0  0
    3.9541    0.2444    0.9510 H   0  0  0  0  0  0  0  0  0  0  0  0
    5.8162   -1.0299    0.8134 H   0  0  0  0  0  0  0  0  0  0  0  0
    3.8833   -3.2345    1.7487 H   0  0  0  0  0  0  0  0  0  0  0  0
    5.6444   -3.2957    1.8894 H   0  0  0  0  0  0  0  0  0  0  0  0
    4.7213   -2.0906    2.8066 H   0  0  0  0  0  0  0  0  0  0  0  0
    6.2079   -2.9127   -0.8922 N   0  0  0  0  0  0  0  0  0  0  0  0
    6.5024   -3.6650   -2.0894 C   0  0  0  0  0  0  0  0  0  0  0  0
    6.9653   -2.7525   -0.2347 H   0  0  0  0  0  0  0  0  0  0  0  0
    6.3354   -4.7357   -1.9006 H   0  0  0  0  0  0  0  0  0  0  0  0
    5.8443   -3.3294   -2.9044 H   0  0  0  0  0  0  0  0  0  0  0  0
    7.5522   -3.5026   -2.3753 H   0  0  0  0  0  0  0  0  0  0  0  0
  1  3  1  0  0  0  0
  1  7  1  0  0  0  0
  1  2  2  0  0  0  0
 22 23  1  0  0  0  0
 23 25  1  0  0  0  0
 23 24  2  0  0  0  0
 35 36  1  0  0  0  0
 36 44  1  0  0  0  0
 36 37  2  0  0  0  0
  8  9  1  0  0  0  0
  9 17  1  0  0  0  0
  9 10  2  0  0  0  0
 18 19  1  0  0  0  0
 19 34  1  0  0  0  0
 19 20  2  0  0  0  0
 35 38  1  0  0  0  0
  8 11  1  0  0  0  0
 44 45  1  0  0  0  0
 21 22  1  0  0  0  0
 18 21  1  0  0  0  0
 34 35  1  0  0  0  0
  7  8  1  0  0  0  0
 17 18  1  0  0  0  0
  3  4  1  0  0  0  0
  3  5  1  0  0  0  0
  3  6  1  0  0  0  0
 38 41  1  0  0  0  0
 38 42  1  0  0  0  0
 38 43  1  0  0  0  0
 11 14  1  0  0  0  0
 11 15  1  0  0  0  0
 11 16  1  0  0  0  0
 45 47  1  0  0  0  0
 45 48  1  0  0  0  0
 45 49  1  0  0  0  0
 22 30  1  0  0  0  0
 22 31  1  0  0  0  0
 21 28  1  0  0  0  0
 21 29  1  0  0  0  0
 35 40  1  0  0  0  0
  8 13  1  0  0  0  0
 18 27  1  0  0  0  0
 25 32  1  0  0  0  0
 25 33  1  0  0  0  0
 44 46  1  0  0  0  0
  7 12  1  0  0  0  0
 34 39  1  0  0  0  0
 17 26  1  0  0  0  0
M  END
$$$$

  -OEChem-05262214473D

 49 48  0     1  0  0  0  0  0999 V2000
   -1.9833   -0.0509   -3.3423 C   0  0  0  0  0  0  0  0  0  0  0  0
   -1.6199   -1.0613   -2.7518 O   0  0  0  0  0  0  0  0  0  0  0  0
   -3.3243   -0.0235   -3.9975 C   0  0  0  0  0  0  0  0  0  0  0  0
   -3.2886   -0.3689   -5.0432 H   0  0  0  0  0  0  0  0  0  0  0  0
   -4.0503   -0.6845   -3.4973 H   0  0  0  0  0  0  0  0  0  0  0  0
   -3.8104    0.9645   -4.0351 H   0  0  0  0  0  0  0  0  0  0  0  0
   -1.2607    1.1231   -3.4768 N   0  0  0  0  0  0  0  0  0  0  0  0
    0.0536    1.3115   -2.9213 C   0  0  2  0  0  0  0  0  0  0  0  0
    0.0266    0.8315   -1.4761 C   0  0  0  0  0  0  0  0  0  0  0  0
   -1.0065    0.7530   -0.8146 O   0  0  0  0  0  0  0  0  0  0  0  0
    0.4852    2.7674   -3.0025 C   0  0  0  0  0  0  0  0  0  0  0  0
   -1.6809    1.8924   -3.9952 H   0  0  0  0  0  0  0  0  0  0  0  0
    0.7360    0.6822   -3.5030 H   0  0  0  0  0  0  0  0  0  0  0  0
   -0.1867    3.4133   -2.4256 H   0  0  0  0  0  0  0  0  0  0  0  0
    1.4966    2.9042   -2.6056 H   0  0  0  0  0  0  0  0  0  0  0  0
    0.4754    3.1196   -4.0397 H   0  0  0  0  0  0  0  0  0  0  0  0
    1.2978    0.5411   -0.9947 N   0  0  0  0  0  0  0  0  0  0  0  0
    1.5371    0.0807    0.3489 C   0  0  2  0  0  0  0  0  0  0  0  0
    2.5191   -1.0822    0.2597 C   0  0  0  0  0  0  0  0  0  0  0  0
    2.2644   -2.1288   -0.3326 O   0  0  0  0  0  0  0  0  0  0  0  0
    0.2458   -0.3640    1.0472 C   0  0  0  0  0  0  0  0  0  0  0  0
   -0.7273    0.7856    1.3161 C   0  0  0  0  0  0  0  0  0  0  0  0
   -2.0159    0.3447    1.9851 C   0  0  0  0  0  0  0  0  0  0  0  0
   -2.2995   -0.8253    2.2244 O   0  0  0  0  0  0  0  0  0  0  0  0
   -2.8471    1.4062    2.2721 N   0  0  0  0  0  0  0  0  0  0  0  0
    2.0949    0.6178   -1.6227 H   0  0  0  0  0  0  0  0  0  0  0  0
    2.0131    0.9090    0.8846 H   0  0  0  0  0  0  0  0  0  0  0  0
   -0.2637   -1.1096    0.4223 H   0  0  0  0  0  0  0  0  0  0  0  0
    0.4840   -0.8697    1.9915 H   0  0  0  0  0  0  0  0  0  0  0  0
   -1.0057    1.2427    0.3585 H   0  0  0  0  0  0  0  0  0  0  0  0
   -0.2517    1.5646    1.9224 H   0  0  0  0  0  0  0  0  0  0  0  0
   -2.5462    2.3434    2.0262 H   0  0  0  0  0  0  0  0  0  0  0  0
   -3.7494    1.2839    2.7206 H   0  0  0  0  0  0  0  0  0  0  0  0
    3.6894   -0.8295    0.9618 N   0  0  0  0  0  0  0  0  0  0  0  0
    4.7775   -1.7759    1.0572 C   0  0  2  0  0  0  0  0  0  0  0  0
    5.0896   -2.2768   -0.3468 C   0  0  0  0  0  0  0  0  0  0  0  0
    4.2782   -2.2362   -1.2693 O   0  0  0  0  0  0  0  0  0  0  0  0
    4.4261   -2.9317    1.9810 C   0  0  0  0  0  0  0  0  0  0  0  0
    3.7860    0.0656    1.4321 H   0  0  0  0  0  0  0  0  0  0  0  0
    5.6404   -1.2272    1.4501 H   0  0  0  0  0  0  0  0  0  0  0  0
    3.5637   -3.4933    1.6037 H   0  0  0  0  0  0  0  0  0  0  0  0
    5.2618   -3.6330    2.0747 H   0  0  0  0  0  0  0  0  0  0  0  0
    4.1730   -2.5671    2.9824 H   0  0  0  0  0  0  0  0  0  0  0  0
    6.3661   -2.8140   -0.4375 N   0  0  0  0  0  0  0  0  0  0  0  0
    6.8939   -3.3672   -1.6628 C   0  0  0  0  0  0  0  0  0  0  0  0
    6.9776   -2.7888    0.3732 H   0  0  0  0  0  0  0  0  0  0  0  0
    6.6944   -4.4485   -1.6934 H   0  0  0  0  0  0  0  0  0  0  0  0
    6.4103   -2.8808   -2.5228 H   0  0  0  0  0  0  0  0  0  0  0  0
    7.9792   -3.1934   -1.7058 H   0  0  0  0  0  0  0  0  0  0  0  0
  1  3  1  0  0  0  0
  1  7  1  0  0  0  0
  1  2  2  0  0  0  0
 22 23  1  0  0  0  0
 23 25  1  0  0  0  0
 23 24  2  0  0  0  0
 35 36  1  0  0  0  0
 36 44  1  0  0  0  0
 36 37  2  0  0  0  0
  8  9  1  0  0  0  0
  9 17  1  0  0  0  0
  9 10  2  0  0  0  0
 18 19  1  0  0  0  0
 19 34  1  0  0  0  0
 19 20  2  0  0  0  0
 35 38  1  0  0  0  0
  8 11  1  0  0  0  0
 44 45  1  0  0  0  0
 21 22  1  0  0  0  0
 18 21  1  0  0  0  0
 34 35  1  0  0  0  0
  7  8  1  0  0  0  0
 17 18  1  0  0  0  0
  3  4  1  0  0  0  0
  3  5  1  0  0  0  0
  3  6  1  0  0  0  0
 38 41  1  0  0  0  0
 38 42  1  0  0  0  0
 38 43  1  0  0  0  0
 11 14  1  0  0  0  0
 11 15  1  0  0  0  0
 11 16  1  0  0  0  0
 45 47  1  0  0  0  0
 45 48  1  0  0  0  0
 45 49  1  0  0  0  0
 22 30  1  0  0  0  0
 22 31  1  0  0  0  0
 21 28  1  0  0  0  0
 21 29  1  0  0  0  0
 35 40  1  0  0  0  0
  8 13  1  0  0  0  0
 18 27  1  0  0  0  0
 25 32  1  0  0  0  0
 25 33  1  0  0  0  0
 44 46  1  0  0  0  0
  7 12  1  0  0  0  0
 34 39  1  0  0  0  0
 17 26  1  0  0  0  0
M  END
$$$$

  -OEChem-05262214473D

 49 48  0     1  0  0  0  0  0999 V2000
   -1.9833   -0.0509   -3.3423 C   0  0  0  0  0  0  0  0  0  0  0  0
   -1.6199   -1.0613   -2.7518 O   0  0  0  0  0  0  0  0  0  0  0  0
   -3.3243   -0.0235   -3.9975 C   0  0  0  0  0  0  0  0  0  0  0  0
   -3.2886   -0.3689   -5.0432 H   0  0  0  0  0  0  0  0  0  0  0  0
   -4.0503   -0.6845   -3.4973 H   0  0  0  0  0  0  0  0  0  0  0  0
   -3.8104    0.9645   -4.0351 H   0  0  0  0  0  0  0  0  0  0  0  0
   -1.2607    1.1231   -3.4768 N   0  0  0  0  0  0  0  0  0  0  0  0
    0.0536    1.3115   -2.9213 C   0  0  2  0  0  0  0  0  0  0  0  0
    0.0266    0.8315   -1.4761 C   0  0  0  0  0  0  0  0  0  0  0  0
   -1.0065    0.7530   -0.8146 O   0  0  0  0  0  0  0  0  0  0  0  0
    0.4852    2.7674   -3.0025 C   0  0  0  0  0  0  0  0  0  0  0  0
   -1.6809    1.8924   -3.9952 H   0  0  0  0  0  0  0  0  0  0  0  0
    0.7360    0.6822   -3.5030 H   0  0  0  0  0  0  0  0  0  0  0  0
   -0.1867    3.4133   -2.4256 H   0  0  0  0  0  0  0  0  0  0  0  0
    1.4966    2.9042   -2.6056 H   0  0  0  0  0  0  0  0  0  0  0  0
    0.4754    3.1196   -4.0397 H   0  0  0  0  0  0  0  0  0  0  0  0
    1.2978    0.5411   -0.9947 N   0  0  0  0  0  0  0  0  0  0  0  0
    1.5371    0.0807    0.3489 C   0  0  2  0  0  0  0  0  0  0  0  0
    2.5191   -1.0822    0.2597 C   0  0  0  0  0  0  0  0  0  0  0  0
    2.3888   -2.0079   -0.5384 O   0  0  0  0  0  0  0  0  0  0  0  0
    0.2458   -0.3640    1.0472 C   0  0  0  0  0  0  0  0  0  0  0  0
   -0.7273    0.7856    1.3161 C   0  0  0  0  0  0  0  0  0  0  0  0
   -2.0159    0.3447    1.9851 C   0  0  0  0  0  0  0  0  0  0  0  0
   -2.2995   -0.8253    2.2244 O   0  0  0  0  0  0  0  0  0  0  0  0
   -2.8471    1.4062    2.2721 N   0  0  0  0  0  0  0  0  0  0  0  0
    2.0949    0.6178   -1.6227 H   0  0  0  0  0  0  0  0  0  0  0  0
    2.0131    0.9090    0.8846 H   0  0  0  0  0  0  0  0  0  0  0  0
   -0.2637   -1.1096    0.4223 H   0  0  0  0  0  0  0  0  0  0  0  0
    0.4840   -0.8697    1.9915 H   0  0  0  0  0  0  0  0  0  0  0  0
   -1.0057    1.2427    0.3585 H   0  0  0  0  0  0  0  0  0  0  0  0
   -0.2517    1.5646    1.9224 H   0  0  0  0  0  0  0  0  0  0  0  0
   -2.5462    2.3434    2.0262 H   0  0  0  0  0  0  0  0  0  0  0  0
   -3.7494    1.2839    2.7206 H   0  0  0  0  0  0  0  0  0  0  0  0
    3.5262   -0.9864    1.2100 N   0  0  0  0  0  0  0  0  0  0  0  0
    4.5751   -1.9698    1.3563 C   0  0  2  0  0  0  0  0  0  0  0  0
    5.1608   -2.2415   -0.0230 C   0  0  0  0  0  0  0  0  0  0  0  0
    4.5488   -2.0233   -1.0665 O   0  0  0  0  0  0  0  0  0  0  0  0
    4.0490   -3.2504    1.9854 C   0  0  0  0  0  0  0  0  0  0  0  0
    3.5260   -0.1848    1.8338 H   0  0  0  0  0  0  0  0  0  0  0  0
    5.3418   -1.5213    1.9974 H   0  0  0  0  0  0  0  0  0  0  0  0
    3.2797   -3.7142    1.3573 H   0  0  0  0  0  0  0  0  0  0  0  0
    4.8506   -3.9839    2.1219 H   0  0  0  0  0  0  0  0  0  0  0  0
    3.6014   -3.0484    2.9645 H   0  0  0  0  0  0  0  0  0  0  0  0
    6.4307   -2.7968    0.0494 N   0  0  0  0  0  0  0  0  0  0  0  0
    7.1923   -3.1565   -1.1239 C   0  0  0  0  0  0  0  0  0  0  0  0
    6.8688   -2.9253    0.9567 H   0  0  0  0  0  0  0  0  0  0  0  0
    7.0045   -4.2110   -1.3744 H   0  0  0  0  0  0  0  0  0  0  0  0
    6.8884   -2.5196   -1.9677 H   0  0  0  0  0  0  0  0  0  0  0  0
    8.2642   -3.0127   -0.9233 H   0  0  0  0  0  0  0  0  0  0  0  0
  1  3  1  0  0  0  0
  1  7  1  0  0  0  0
  1  2  2  0  0  0  0
 22 23  1  0  0  0  0
 23 25  1  0  0  0  0
 23 24  2  0  0  0  0
 35 36  1  0  0  0  0
 36 44  1  0  0  0  0
 36 37  2  0  0  0  0
  8  9  1  0  0  0  0
  9 17  1  0  0  0  0
  9 10  2  0  0  0  0
 18 19  1  0  0  0  0
 19 34  1  0  0  0  0
 19 20  2  0  0  0  0
 35 38  1  0  0  0  0
  8 11  1  0  0  0  0
 44 45  1  0  0  0  0
 21 22  1  0  0  0  0
 18 21  1  0  0  0  0
 34 35  1  0  0  0  0
  7  8  1  0  0  0  0
 17 18  1  0  0  0  0
  3  4  1  0  0  0  0
  3  5  1  0  0  0  0
  3  6  1  0  0  0  0
 38 41  1  0  0  0  0
 38 42  1  0  0  0  0
 38 43  1  0  0  0  0
 11 14  1  0  0  0  0
 11 15  1  0  0  0  0
 11 16  1  0  0  0  0
 45 47  1  0  0  0  0
 45 48  1  0  0  0  0
 45 49  1  0  0  0  0
 22 30  1  0  0  0  0
 22 31  1  0  0  0  0
 21 28  1  0  0  0  0
 21 29  1  0  0  0  0
 35 40  1  0  0  0  0
  8 13  1  0  0  0  0
 18 27  1  0  0  0  0
 25 32  1  0  0  0  0
 25 33  1  0  0  0  0
 44 46  1  0  0  0  0
  7 12  1  0  0  0  0
 34 39  1  0  0  0  0
 17 26  1  0  0  0  0
M  END
$$$$

  -OEChem-05262214473D

 49 48  0     1  0  0  0  0  0999 V2000
   -1.9833   -0.0509   -3.3423 C   0  0  0  0  0  0  0  0  0  0  0  0
   -1.6199   -1.0613   -2.7518 O   0  0  0  0  0  0  0  0  0  0  0  0
   -3.3243   -0.0235   -3.9975 C   0  0  0  0  0  0  0  0  0  0  0  0
   -3.2886   -0.3689   -5.0432 H   0  0  0  0  0  0  0  0  0  0  0  0
   -4.0503   -0.6845   -3.4973 H   0  0  0  0  0  0  0  0  0  0  0  0
   -3.8104    0.9645   -4.0351 H   0  0  0  0  0  0  0  0  0  0  0  0
   -1.2607    1.1231   -3.4768 N   0  0  0  0  0  0  0  0  0  0  0  0
    0.0536    1.3115   -2.9213 C   0  0  2  0  0  0  0  0  0  0  0  0
    0.0266    0.8315   -1.4761 C   0  0  0  0  0  0  0  0  0  0  0  0
   -1.0065    0.7530   -0.8146 O   0  0  0  0  0  0  0  0  0  0  0  0
    0.4852    2.7674   -3.0025 C   0  0  0  0  0  0  0  0  0  0  0  0
   -1.6809    1.8924   -3.9952 H   0  0  0  0  0  0  0  0  0  0  0  0
    0.7360    0.6822   -3.5030 H   0  0  0  0  0  0  0  0  0  0  0  0
   -0.1867    3.4133   -2.4256 H   0  0  0  0  0  0  0  0  0  0  0  0
    1.4966    2.9042   -2.6056 H   0  0  0  0  0  0  0  0  0  0  0  0
    0.4754    3.1196   -4.0397 H   0  0  0  0  0  0  0  0  0  0  0  0
    1.2978    0.5411   -0.9947 N   0  0  0  0  0  0  0  0  0  0  0  0
    1.5371    0.0807    0.3489 C   0  0  2  0  0  0  0  0  0  0  0  0
    2.5191   -1.0822    0.2597 C   0  0  0  0  0  0  0  0  0  0  0  0
    2.5515   -1.8587   -0.6926 O   0  0  0  0  0  0  0  0  0  0  0  0
    0.2458   -0.3640    1.0472 C   0  0  0  0  0  0  0  0  0  0  0  0
   -0.7273    0.7856    1.3161 C   0  0  0  0  0  0  0  0  0  0  0  0
   -2.0159    0.3447    1.9851 C   0  0  0  0  0  0  0  0  0  0  0  0
   -2.2995   -0.8253    2.2244 O   0  0  0  0  0  0  0  0  0  0  0  0
   -2.8471    1.4062    2.2721 N   0  0  0  0  0  0  0  0  0  0  0  0
    2.0949    0.6178   -1.6227 H   0  0  0  0  0  0  0  0  0  0  0  0
    2.0131    0.9090    0.8846 H   0  0  0  0  0  0  0  0  0  0  0  0
   -0.2637   -1.1096    0.4223 H   0  0  0  0  0  0  0  0  0  0  0  0
    0.4840   -0.8697    1.9915 H   0  0  0  0  0  0  0  0  0  0  0  0
   -1.0057    1.2427    0.3585 H   0  0  0  0  0  0  0  0  0  0  0  0
   -0.2517    1.5646    1.9224 H   0  0  0  0  0  0  0  0  0  0  0  0
   -2.5462    2.3434    2.0262 H   0  0  0  0  0  0  0  0  0  0  0  0
   -3.7494    1.2839    2.7206 H   0  0  0  0  0  0  0  0  0  0  0  0
    3.3171   -1.1768    1.3913 N   0  0  0  0  0  0  0  0  0  0  0  0
    4.3176   -2.2038    1.5730 C   0  0  2  0  0  0  0  0  0  0  0  0
    5.1661   -2.2625    0.3097 C   0  0  0  0  0  0  0  0  0  0  0  0
    4.7733   -1.8555   -0.7817 O   0  0  0  0  0  0  0  0  0  0  0  0
    3.6791   -3.5534    1.8622 C   0  0  0  0  0  0  0  0  0  0  0  0
    3.1917   -0.4897    2.1288 H   0  0  0  0  0  0  0  0  0  0  0  0
    4.9410   -1.8921    2.4182 H   0  0  0  0  0  0  0  0  0  0  0  0
    3.0506   -3.8822    1.0265 H   0  0  0  0  0  0  0  0  0  0  0  0
    4.4387   -4.3244    2.0278 H   0  0  0  0  0  0  0  0  0  0  0  0
    3.0455   -3.5017    2.7542 H   0  0  0  0  0  0  0  0  0  0  0  0
    6.3972   -2.8623    0.5353 N   0  0  0  0  0  0  0  0  0  0  0  0
    7.3773   -3.0474   -0.5093 C   0  0  0  0  0  0  0  0  0  0  0  0
    6.6466   -3.1529    1.4761 H   0  0  0  0  0  0  0  0  0  0  0  0
    7.2448   -4.0396   -0.9655 H   0  0  0  0  0  0  0  0  0  0  0  0
    7.2462   -2.2705   -1.2769 H   0  0  0  0  0  0  0  0  0  0  0  0
    8.3878   -2.9730   -0.0811 H   0  0  0  0  0  0  0  0  0  0  0  0
  1  3  1  0  0  0  0
  1  7  1  0  0  0  0
  1  2  2  0  0  0  0
 22 23  1  0  0  0  0
 23 25  1  0  0  0  0
 23 24  2  0  0  0  0
 35 36  1  0  0  0  0
 36 44  1  0  0  0  0
 36 37  2  0  0  0  0
  8  9  1  0  0  0  0
  9 17  1  0  0  0  0
  9 10  2  0  0  0  0
 18 19  1  0  0  0  0
 19 34  1  0  0  0  0
 19 20  2  0  0  0  0
 35 38  1  0  0  0  0
  8 11  1  0  0  0  0
 44 45  1  0  0  0  0
 21 22  1  0  0  0  0
 18 21  1  0  0  0  0
 34 35  1  0  0  0  0
  7  8  1  0  0  0  0
 17 18  1  0  0  0  0
  3  4  1  0  0  0  0
  3  5  1  0  0  0  0
  3  6  1  0  0  0  0
 38 41  1  0  0  0  0
 38 42  1  0  0  0  0
 38 43  1  0  0  0  0
 11 14  1  0  0  0  0
 11 15  1  0  0  0  0
 11 16  1  0  0  0  0
 45 47  1  0  0  0  0
 45 48  1  0  0  0  0
 45 49  1  0  0  0  0
 22 30  1  0  0  0  0
 22 31  1  0  0  0  0
 21 28  1  0  0  0  0
 21 29  1  0  0  0  0
 35 40  1  0  0  0  0
  8 13  1  0  0  0  0
 18 27  1  0  0  0  0
 25 32  1  0  0  0  0
 25 33  1  0  0  0  0
 44 46  1  0  0  0  0
  7 12  1  0  0  0  0
 34 39  1  0  0  0  0
 17 26  1  0  0  0  0
M  END
$$$$

  -OEChem-05262214473D

 49 48  0     1  0  0  0  0  0999 V2000
   -1.9833   -0.0509   -3.3423 C   0  0  0  0  0  0  0  0  0  0  0  0
   -1.6199   -1.0613   -2.7518 O   0  0  0  0  0  0  0  0  0  0  0  0
   -3.3243   -0.0235   -3.9975 C   0  0  0  0  0  0  0  0  0  0  0  0
   -3.2886   -0.3689   -5.0432 H   0  0  0  0  0  0  0  0  0  0  0  0
   -4.0503   -0.6845   -3.4973 H   0  0  0  0  0  0  0  0  0  0  0  0
   -3.8104    0.9645   -4.0351 H   0  0  0  0  0  0  0  0  0  0  0  0
   -1.2607    1.1231   -3.4768 N   0  0  0  0  0  0  0  0  0  0  0  0
    0.0536    1.3115   -2.9213 C   0  0  2  0  0  0  0  0  0  0  0  0
    0.0266    0.8315   -1.4761 C   0  0  0  0  0  0  0  0  0  0  0  0
   -1.0065    0.7530   -0.8146 O   0  0  0  0  0  0  0  0  0  0  0  0
    0.4852    2.7674   -3.0025 C   0  0  0  0  0  0  0  0  0  0  0  0
   -1.6809    1.8924   -3.9952 H   0  0  0  0  0  0  0  0  0  0  0  0
    0.7360    0.6822   -3.5030 H   0  0  0  0  0  0  0  0  0  0  0  0
   -0.1867    3.4133   -2.4256 H   0  0  0  0  0  0  0  0  0  0  0  0
    1.4966    2.9042   -2.6056 H   0  0  0  0  0  0  0  0  0  0  0  0
    0.4754    3.1196   -4.0397 H   0  0  0  0  0  0  0  0  0  0  0  0
    1.2978    0.5411   -0.9947 N   0  0  0  0  0  0  0  0  0  0  0  0
    1.5371    0.0807    0.3489 C   0  0  2  0  0  0  0  0  0  0  0  0
    2.5191   -1.0822    0.2597 C   0  0  0  0  0  0  0  0  0  0  0  0
    2.7413   -1.6914   -0.7845 O   0  0  0  0  0  0  0  0  0  0  0  0
    0.2458   -0.3640    1.0472 C   0  0  0  0  0  0  0  0  0  0  0  0
   -0.7273    0.7856    1.3161 C   0  0  0  0  0  0  0  0  0  0  0  0
   -2.0159    0.3447    1.9851 C   0  0  0  0  0  0  0  0  0  0  0  0
   -2.2995   -0.8253    2.2244 O   0  0  0  0  0  0  0  0  0  0  0  0
   -2.8471    1.4062    2.2721 N   0  0  0  0  0  0  0  0  0  0  0  0
    2.0949    0.6178   -1.6227 H   0  0  0  0  0  0  0  0  0  0  0  0
    2.0131    0.9090    0.8846 H   0  0  0  0  0  0  0  0  0  0  0  0
   -0.2637   -1.1096    0.4223 H   0  0  0  0  0  0  0  0  0  0  0  0
    0.4840   -0.8697    1.9915 H   0  0  0  0  0  0  0  0  0  0  0  0
   -1.0057    1.2427    0.3585 H   0  0  0  0  0  0  0  0  0  0  0  0
   -0.2517    1.5646    1.9224 H   0  0  0  0  0  0  0  0  0  0  0  0
   -2.5462    2.3434    2.0262 H   0  0  0  0  0  0  0  0  0  0  0  0
   -3.7494    1.2839    2.7206 H   0  0  0  0  0  0  0  0  0  0  0  0
    3.0765   -1.3878    1.4935 N   0  0  0  0  0  0  0  0  0  0  0  0
    4.0226   -2.4621    1.6925 C   0  0  2  0  0  0  0  0  0  0  0  0
    5.1053   -2.3384    0.6286 C   0  0  0  0  0  0  0  0  0  0  0  0
    4.9365   -1.7444   -0.4343 O   0  0  0  0  0  0  0  0  0  0  0  0
    3.3415   -3.8198    1.6196 C   0  0  0  0  0  0  0  0  0  0  0  0
    2.8060   -0.8283    2.2969 H   0  0  0  0  0  0  0  0  0  0  0  0
    4.4651   -2.3143    2.6836 H   0  0  0  0  0  0  0  0  0  0  0  0
    2.8921   -3.9859    0.6337 H   0  0  0  0  0  0  0  0  0  0  0  0
    4.0543   -4.6315    1.7989 H   0  0  0  0  0  0  0  0  0  0  0  0
    2.5432   -3.8960    2.3657 H   0  0  0  0  0  0  0  0  0  0  0  0
    6.2680   -3.0061    0.9871 N   0  0  0  0  0  0  0  0  0  0  0  0
    7.4364   -3.0473    0.1391 C   0  0  0  0  0  0  0  0  0  0  0  0
    6.3259   -3.4559    1.8960 H   0  0  0  0  0  0  0  0  0  0  0  0
    7.3987   -3.9457   -0.4946 H   0  0  0  0  0  0  0  0  0  0  0  0
    7.4591   -2.1505   -0.4975 H   0  0  0  0  0  0  0  0  0  0  0  0
    8.3415   -3.0768    0.7634 H   0  0  0  0  0  0  0  0  0  0  0  0
  1  3  1  0  0  0  0
  1  7  1  0  0  0  0
  1  2  2  0  0  0  0
 22 23  1  0  0  0  0
 23 25  1  0  0  0  0
 23 24  2  0  0  0  0
 35 36  1  0  0  0  0
 36 44  1  0  0  0  0
 36 37  2  0  0  0  0
  8  9  1  0  0  0  0
  9 17  1  0  0  0  0
  9 10  2  0  0  0  0
 18 19  1  0  0  0  0
 19 34  1  0  0  0  0
 19 20  2  0  0  0  0
 35 38  1  0  0  0  0
  8 11  1  0  0  0  0
 44 45  1  0  0  0  0
 21 22  1  0  0  0  0
 18 21  1  0  0  0  0
 34 35  1  0  0  0  0
  7  8  1  0  0  0  0
 17 18  1  0  0  0  0
  3  4  1  0  0  0  0
  3  5  1  0  0  0  0
  3  6  1  0  0  0  0
 38 41  1  0  0  0  0
 38 42  1  0  0  0  0
 38 43  1  0  0  0  0
 11 14  1  0  0  0  0
 11 15  1  0  0  0  0
 11 16  1  0  0  0  0
 45 47  1  0  0  0  0
 45 48  1  0  0  0  0
 45 49  1  0  0  0  0
 22 30  1  0  0  0  0
 22 31  1  0  0  0  0
 21 28  1  0  0  0  0
 21 29  1  0  0  0  0
 35 40  1  0  0  0  0
  8 13  1  0  0  0  0
 18 27  1  0  0  0  0
 25 32  1  0  0  0  0
 25 33  1  0  0  0  0
 44 46  1  0  0  0  0
  7 12  1  0  0  0  0
 34 39  1  0  0  0  0
 17 26  1  0  0  0  0
M  END
$$$$

  -OEChem-05262214473D

 49 48  0     1  0  0  0  0  0999 V2000
   -1.9833   -0.0509   -3.3423 C   0  0  0  0  0  0  0  0  0  0  0  0
   -1.6199   -1.0613   -2.7518 O   0  0  0  0  0  0  0  0  0  0  0  0
   -3.3243   -0.0235   -3.9975 C   0  0  0  0  0  0  0  0  0  0  0  0
   -3.2886   -0.3689   -5.0432 H   0  0  0  0  0  0  0  0  0  0  0  0
   -4.0503   -0.6845   -3.4973 H   0  0  0  0  0  0  0  0  0  0  0  0
   -3.8104    0.9645   -4.0351 H   0  0  0  0  0  0  0  0  0  0  0  0
   -1.2607    1.1231   -3.4768 N   0  0  0  0  0  0  0  0  0  0  0  0
    0.0536    1.3115   -2.9213 C   0  0  2  0  0  0  0  0  0  0  0  0
    0.0266    0.8315   -1.4761 C   0  0  0  0  0  0  0  0  0  0  0  0
   -1.0065    0.7530   -0.8146 O   0  0  0  0  0  0  0  0  0  0  0  0
    0.4852    2.7674   -3.0025 C   0  0  0  0  0  0  0  0  0  0  0  0
   -1.6809    1.8924   -3.9952 H   0  0  0  0  0  0  0  0  0  0  0  0
    0.7360    0.6822   -3.5030 H   0  0  0  0  0  0  0  0  0  0  0  0
   -0.1867    3.4133   -2.4256 H   0  0  0  0  0  0  0  0  0  0  0  0
    1.4966    2.9042   -2.6056 H   0  0  0  0  0  0  0  0  0  0  0  0
    0.4754    3.1196   -4.0397 H   0  0  0  0  0  0  0  0  0  0  0  0
    1.2978    0.5411   -0.9947 N   0  0  0  0  0  0  0  0  0  0  0  0
    1.5371    0.0807    0.3489 C   0  0  2  0  0  0  0  0  0  0  0  0
    2.7763   -0.8066    0.3083 C   0  0  0  0  0  0  0  0  0  0  0  0
    3.3770   -1.0695   -0.7314 O   0  0  0  0  0  0  0  0  0  0  0  0
    0.3427   -0.6970    0.9159 C   0  0  0  0  0  0  0  0  0  0  0  0
   -0.8986    0.1700    1.1357 C   0  0  0  0  0  0  0  0  0  0  0  0
   -2.0891   -0.6018    1.6739 C   0  0  0  0  0  0  0  0  0  0  0  0
   -2.0972   -1.8167    1.8487 O   0  0  0  0  0  0  0  0  0  0  0  0
   -3.1732    0.2128    1.9213 N   0  0  0  0  0  0  0  0  0  0  0  0
    2.0949    0.6178   -1.6227 H   0  0  0  0  0  0  0  0  0  0  0  0
    1.7544    0.9692    0.9513 H   0  0  0  0  0  0  0  0  0  0  0  0
    0.0798   -1.5086    0.2244 H   0  0  0  0  0  0  0  0  0  0  0  0
    0.6229   -1.1803    1.8603 H   0  0  0  0  0  0  0  0  0  0  0  0
   -1.2049    0.5973    0.1728 H   0  0  0  0  0  0  0  0  0  0  0  0
   -0.6753    1.0069    1.8067 H   0  0  0  0  0  0  0  0  0  0  0  0
   -3.0912    1.2065    1.7338 H   0  0  0  0  0  0  0  0  0  0  0  0
   -4.0506   -0.1458    2.2843 H   0  0  0  0  0  0  0  0  0  0  0  0
    3.0984   -1.3076    1.5620 N   0  0  0  0  0  0  0  0  0  0  0  0
    4.2159   -2.1926    1.7996 C   0  0  2  0  0  0  0  0  0  0  0  0
    5.4436   -1.5903    1.1291 C   0  0  0  0  0  0  0  0  0  0  0  0
    5.3749   -0.7855    0.2025 O   0  0  0  0  0  0  0  0  0  0  0  0
    3.9375   -3.5903    1.2690 C   0  0  0  0  0  0  0  0  0  0  0  0
    2.5195   -1.0387    2.3521 H   0  0  0  0  0  0  0  0  0  0  0  0
    4.3697   -2.2239    2.8838 H   0  0  0  0  0  0  0  0  0  0  0  0
    3.7808   -3.5790    0.1842 H   0  0  0  0  0  0  0  0  0  0  0  0
    4.7734   -4.2668    1.4752 H   0  0  0  0  0  0  0  0  0  0  0  0
    3.0372   -4.0102    1.7304 H   0  0  0  0  0  0  0  0  0  0  0  0
    6.6253   -2.0901    1.6584 N   0  0  0  0  0  0  0  0  0  0  0  0
    7.9265   -1.6833    1.1818 C   0  0  0  0  0  0  0  0  0  0  0  0
    6.5880   -2.7399    2.4382 H   0  0  0  0  0  0  0  0  0  0  0  0
    8.2633   -2.3765    0.3969 H   0  0  0  0  0  0  0  0  0  0  0  0
    7.8641   -0.6653    0.7696 H   0  0  0  0  0  0  0  0  0  0  0  0
    8.6435   -1.6978    2.0159 H   0  0  0  0  0  0  0  0  0  0  0  0
  1  3  1  0  0  0  0
  1  7  1  0  0  0  0
  1  2  2  0  0  0  0
 22 23  1  0  0  0  0
 23 25  1  0  0  0  0
 23 24  2  0  0  0  0
 35 36  1  0  0  0  0
 36 44  1  0  0  0  0
 36 37  2  0  0  0  0
  8  9  1  0  0  0  0
  9 17  1  0  0  0  0
  9 10  2  0  0  0  0
 18 19  1  0  0  0  0
 19 34  1  0  0  0  0
 19 20  2  0  0  0  0
 35 38  1  0  0  0  0
  8 11  1  0  0  0  0
 44 45  1  0  0  0  0
 21 22  1  0  0  0  0
 18 21  1  0  0  0  0
 34 35  1  0  0  0  0
  7  8  1  0  0  0  0
 17 18  1  0  0  0  0
  3  4  1  0  0  0  0
  3  5  1  0  0  0  0
  3  6  1  0  0  0  0
 38 41  1  0  0  0  0
 38 42  1  0  0  0  0
 38 43  1  0  0  0  0
 11 14  1  0  0  0  0
 11 15  1  0  0  0  0
 11 16  1  0  0  0  0
 45 47  1  0  0  0  0
 45 48  1  0  0  0  0
 45 49  1  0  0  0  0
 22 30  1  0  0  0  0
 22 31  1  0  0  0  0
 21 28  1  0  0  0  0
 21 29  1  0  0  0  0
 35 40  1  0  0  0  0
  8 13  1  0  0  0  0
 18 27  1  0  0  0  0
 25 32  1  0  0  0  0
 25 33  1  0  0  0  0
 44 46  1  0  0  0  0
  7 12  1  0  0  0  0
 34 39  1  0  0  0  0
 17 26  1  0  0  0  0
M  END
$$$$

  -OEChem-05262214473D

 49 48  0     1  0  0  0  0  0999 V2000
   -1.9833   -0.0509   -3.3423 C   0  0  0  0  0  0  0  0  0  0  0  0
   -1.6199   -1.0613   -2.7518 O   0  0  0  0  0  0  0  0  0  0  0  0
   -3.3243   -0.0235   -3.9975 C   0  0  0  0  0  0  0  0  0  0  0  0
   -3.2886   -0.3689   -5.0432 H   0  0  0  0  0  0  0  0  0  0  0  0
   -4.0503   -0.6845   -3.4973 H   0  0  0  0  0  0  0  0  0  0  0  0
   -3.8104    0.9645   -4.0351 H   0  0  0  0  0  0  0  0  0  0  0  0
   -1.2607    1.1231   -3.4768 N   0  0  0  0  0  0  0  0  0  0  0  0
    0.0536    1.3115   -2.9213 C   0  0  2  0  0  0  0  0  0  0  0  0
    0.0266    0.8315   -1.4761 C   0  0  0  0  0  0  0  0  0  0  0  0
   -1.0065    0.7530   -0.8146 O   0  0  0  0  0  0  0  0  0  0  0  0
    0.4852    2.7674   -3.0025 C   0  0  0  0  0  0  0  0  0  0  0  0
   -1.6809    1.8924   -3.9952 H   0  0  0  0  0  0  0  0  0  0  0  0
    0.7360    0.6822   -3.5030 H   0  0  0  0  0  0  0  0  0  0  0  0
   -0.1867    3.4133   -2.4256 H   0  0  0  0  0  0  0  0  0  0  0  0
    1.4966    2.9042   -2.6056 H   0  0  0  0  0  0  0  0  0  0  0  0
    0.4754    3.1196   -4.0397 H   0  0  0  0  0  0  0  0  0  0  0  0
    1.2978    0.5411   -0.9947 N   0  0  0  0  0  0  0  0  0  0  0  0
    1.5371    0.0807    0.3489 C   0  0  2  0  0  0  0  0  0  0  0  0
    2.7763   -0.8066    0.3083 C   0  0  0  0  0  0  0  0  0  0  0  0
    3.5298   -0.8592   -0.6614 O   0  0  0  0  0  0  0  0  0  0  0  0
    0.3427   -0.6970    0.9159 C   0  0  0  0  0  0  0  0  0  0  0  0
   -0.8986    0.1700    1.1357 C   0  0  0  0  0  0  0  0  0  0  0  0
   -2.0891   -0.6018    1.6739 C   0  0  0  0  0  0  0  0  0  0  0  0
   -2.0972   -1.8167    1.8487 O   0  0  0  0  0  0  0  0  0  0  0  0
   -3.1732    0.2128    1.9213 N   0  0  0  0  0  0  0  0  0  0  0  0
    2.0949    0.6178   -1.6227 H   0  0  0  0  0  0  0  0  0  0  0  0
    1.7544    0.9692    0.9513 H   0  0  0  0  0  0  0  0  0  0  0  0
    0.0798   -1.5086    0.2244 H   0  0  0  0  0  0  0  0  0  0  0  0
    0.6229   -1.1803    1.8603 H   0  0  0  0  0  0  0  0  0  0  0  0
   -1.2049    0.5973    0.1728 H   0  0  0  0  0  0  0  0  0  0  0  0
   -0.6753    1.0069    1.8067 H   0  0  0  0  0  0  0  0  0  0  0  0
   -3.0912    1.2065    1.7338 H   0  0  0  0  0  0  0  0  0  0  0  0
   -4.0506   -0.1458    2.2843 H   0  0  0  0  0  0  0  0  0  0  0  0
    2.9095   -1.5667    1.4619 N   0  0  0  0  0  0  0  0  0  0  0  0
    3.9864   -2.5074    1.6723 C   0  0  2  0  0  0  0  0  0  0  0  0
    5.2958   -1.8063    1.3357 C   0  0  0  0  0  0  0  0  0  0  0  0
    5.3607   -0.8236    0.6000 O   0  0  0  0  0  0  0  0  0  0  0  0
    3.8043   -3.7558    0.8232 C   0  0  0  0  0  0  0  0  0  0  0  0
    2.2153   -1.4564    2.1951 H   0  0  0  0  0  0  0  0  0  0  0  0
    3.9745   -2.7690    2.7360 H   0  0  0  0  0  0  0  0  0  0  0  0
    3.8136   -3.5136   -0.2457 H   0  0  0  0  0  0  0  0  0  0  0  0
    4.6057   -4.4796    1.0050 H   0  0  0  0  0  0  0  0  0  0  0  0
    2.8485   -4.2424    1.0455 H   0  0  0  0  0  0  0  0  0  0  0  0
    6.3883   -2.4330    1.9187 N   0  0  0  0  0  0  0  0  0  0  0  0
    7.7429   -1.9653    1.7391 C   0  0  0  0  0  0  0  0  0  0  0  0
    6.2394   -3.2310    2.5292 H   0  0  0  0  0  0  0  0  0  0  0  0
    8.2009   -2.4859    0.8852 H   0  0  0  0  0  0  0  0  0  0  0  0
    7.7342   -0.8823    1.5463 H   0  0  0  0  0  0  0  0  0  0  0  0
    8.3254   -2.1710    2.6492 H   0  0  0  0  0  0  0  0  0  0  0  0
  1  3  1  0  0  0  0
  1  7  1  0  0  0  0
  1  2  2  0  0  0  0
 22 23  1  0  0  0  0
 23 25  1  0  0  0  0
 23 24  2  0  0  0  0
 35 36  1  0  0  0  0
 36 44  1  0  0  0  0
 36 37  2  0  0  0  0
  8  9  1  0  0  0  0
  9 17  1  0  0  0  0
  9 10  2  0  0  0  0
 18 19  1  0  0  0  0
 19 34  1  0  0  0  0
 19 20  2  0  0  0  0
 35 38  1  0  0  0  0
  8 11  1  0  0  0  0
 44 45  1  0  0  0  0
 21 22  1  0  0  0  0
 18 21  1  0  0  0  0
 34 35  1  0  0  0  0
  7  8  1  0  0  0  0
 17 18  1  0  0  0  0
  3  4  1  0  0  0  0
  3  5  1  0  0  0  0
  3  6  1  0  0  0  0
 38 41  1  0  0  0  0
 38 42  1  0  0  0  0
 38 43  1  0  0  0  0
 11 14  1  0  0  0  0
 11 15  1  0  0  0  0
 11 16  1  0  0  0  0
 45 47  1  0  0  0  0
 45 48  1  0  0  0  0
 45 49  1  0  0  0  0
 22 30  1  0  0  0  0
 22 31  1  0  0  0  0
 21 28  1  0  0  0  0
 21 29  1  0  0  0  0
 35 40  1  0  0  0  0
  8 13  1  0  0  0  0
 18 27  1  0  0  0  0
 25 32  1  0  0  0  0
 25 33  1  0  0  0  0
 44 46  1  0  0  0  0
  7 12  1  0  0  0  0
 34 39  1  0  0  0  0
 17 26  1  0  0  0  0
M  END
$$$$

  -OEChem-05262214473D

 49 48  0     1  0  0  0  0  0999 V2000
   -1.9833   -0.0509   -3.3423 C   0  0  0  0  0  0  0  0  0  0  0  0
   -1.6199   -1.0613   -2.7518 O   0  0  0  0  0  0  0  0  0  0  0  0
   -3.3243   -0.0235   -3.9975 C   0  0  0  0  0  0  0  0  0  0  0  0
   -3.2886   -0.3689   -5.0432 H   0  0  0  0  0  0  0  0  0  0  0  0
   -4.0503   -0.6845   -3.4973 H   0  0  0  0  0  0  0  0  0  0  0  0
   -3.8104    0.9645   -4.0351 H   0  0  0  0  0  0  0  0  0  0  0  0
   -1.2607    1.1231   -3.4768 N   0  0  0  0  0  0  0  0  0  0  0  0
    0.0536    1.3115   -2.9213 C   0  0  2  0  0  0  0  0  0  0  0  0
    0.0266    0.8315   -1.4761 C   0  0  0  0  0  0  0  0  0  0  0  0
   -1.0065    0.7530   -0.8146 O   0  0  0  0  0  0  0  0  0  0  0  0
    0.4852    2.7674   -3.0025 C   0  0  0  0  0  0  0  0  0  0  0  0
   -1.6809    1.8924   -3.9952 H   0  0  0  0  0  0  0  0  0  0  0  0
    0.7360    0.6822   -3.5030 H   0  0  0  0  0  0  0  0  0  0  0  0
   -0.1867    3.4133   -2.4256 H   0  0  0  0  0  0  0  0  0  0  0  0
    1.4966    2.9042   -2.6056 H   0  0  0  0  0  0  0  0  0  0  0  0
    0.4754    3.1196   -4.0397 H   0  0  0  0  0  0  0  0  0  0  0  0
    1.2978    0.5411   -0.9947 N   0  0  0  0  0  0  0  0  0  0  0  0
    1.5371    0.0807    0.3489 C   0  0  2  0  0  0  0  0  0  0  0  0
    2.7763   -0.8066    0.3083 C   0  0  0  0  0  0  0  0  0  0  0  0
    3.6684   -0.6719   -0.5266 O   0  0  0  0  0  0  0  0  0  0  0  0
    0.3427   -0.6970    0.9159 C   0  0  0  0  0  0  0  0  0  0  0  0
   -0.8986    0.1700    1.1357 C   0  0  0  0  0  0  0  0  0  0  0  0
   -2.0891   -0.6018    1.6739 C   0  0  0  0  0  0  0  0  0  0  0  0
   -2.0972   -1.8167    1.8487 O   0  0  0  0  0  0  0  0  0  0  0  0
   -3.1732    0.2128    1.9213 N   0  0  0  0  0  0  0  0  0  0  0  0
    2.0949    0.6178   -1.6227 H   0  0  0  0  0  0  0  0  0  0  0  0
    1.7544    0.9692    0.9513 H   0  0  0  0  0  0  0  0  0  0  0  0
    0.0798   -1.5086    0.2244 H   0  0  0  0  0  0  0  0  0  0  0  0
    0.6229   -1.1803    1.8603 H   0  0  0  0  0  0  0  0  0  0  0  0
   -1.2049    0.5973    0.1728 H   0  0  0  0  0  0  0  0  0  0  0  0
   -0.6753    1.0069    1.8067 H   0  0  0  0  0  0  0  0  0  0  0  0
   -3.0912    1.2065    1.7338 H   0  0  0  0  0  0  0  0  0  0  0  0
   -4.0506   -0.1458    2.2843 H   0  0  0  0  0  0  0  0  0  0  0  0
    2.7404   -1.7947    1.2823 N   0  0  0  0  0  0  0  0  0  0  0  0
    3.7816   -2.7831    1.4486 C   0  0  2  0  0  0  0  0  0  0  0  0
    5.1204   -2.0573    1.4675 C   0  0  0  0  0  0  0  0  0  0  0  0
    5.2868   -0.9439    0.9739 O   0  0  0  0  0  0  0  0  0  0  0  0
    3.7417   -3.8211    0.3378 C   0  0  0  0  0  0  0  0  0  0  0  0
    1.9422   -1.8248    1.9097 H   0  0  0  0  0  0  0  0  0  0  0  0
    3.6113   -3.2618    2.4191 H   0  0  0  0  0  0  0  0  0  0  0  0
    3.9104   -3.3602   -0.6423 H   0  0  0  0  0  0  0  0  0  0  0  0
    4.5129   -4.5851    0.4809 H   0  0  0  0  0  0  0  0  0  0  0  0
    2.7677   -4.3213    0.3066 H   0  0  0  0  0  0  0  0  0  0  0  0
    6.1178   -2.8174    2.0622 N   0  0  0  0  0  0  0  0  0  0  0  0
    7.4796   -2.3536    2.1904 C   0  0  0  0  0  0  0  0  0  0  0  0
    5.8856   -3.7221    2.4614 H   0  0  0  0  0  0  0  0  0  0  0  0
    8.0664   -2.6939    1.3244 H   0  0  0  0  0  0  0  0  0  0  0  0
    7.4902   -1.2545    2.2312 H   0  0  0  0  0  0  0  0  0  0  0  0
    7.9195   -2.7591    3.1135 H   0  0  0  0  0  0  0  0  0  0  0  0
  1  3  1  0  0  0  0
  1  7  1  0  0  0  0
  1  2  2  0  0  0  0
 22 23  1  0  0  0  0
 23 25  1  0  0  0  0
 23 24  2  0  0  0  0
 35 36  1  0  0  0  0
 36 44  1  0  0  0  0
 36 37  2  0  0  0  0
  8  9  1  0  0  0  0
  9 17  1  0  0  0  0
  9 10  2  0  0  0  0
 18 19  1  0  0  0  0
 19 34  1  0  0  0  0
 19 20  2  0  0  0  0
 35 38  1  0  0  0  0
  8 11  1  0  0  0  0
 44 45  1  0  0  0  0
 21 22  1  0  0  0  0
 18 21  1  0  0  0  0
 34 35  1  0  0  0  0
  7  8  1  0  0  0  0
 17 18  1  0  0  0  0
  3  4  1  0  0  0  0
  3  5  1  0  0  0  0
  3  6  1  0  0  0  0
 38 41  1  0  0  0  0
 38 42  1  0  0  0  0
 38 43  1  0  0  0  0
 11 14  1  0  0  0  0
 11 15  1  0  0  0  0
 11 16  1  0  0  0  0
 45 47  1  0  0  0  0
 45 48  1  0  0  0  0
 45 49  1  0  0  0  0
 22 30  1  0  0  0  0
 22 31  1  0  0  0  0
 21 28  1  0  0  0  0
 21 29  1  0  0  0  0
 35 40  1  0  0  0  0
  8 13  1  0  0  0  0
 18 27  1  0  0  0  0
 25 32  1  0  0  0  0
 25 33  1  0  0  0  0
 44 46  1  0  0  0  0
  7 12  1  0  0  0  0
 34 39  1  0  0  0  0
 17 26  1  0  0  0  0
M  END
$$$$

  -OEChem-05262214473D

 49 48  0     1  0  0  0  0  0999 V2000
   -1.9833   -0.0509   -3.3423 C   0  0  0  0  0  0  0  0  0  0  0  0
   -1.6199   -1.0613   -2.7518 O   0  0  0  0  0  0  0  0  0  0  0  0
   -3.3243   -0.0235   -3.9975 C   0  0  0  0  0  0  0  0  0  0  0  0
   -3.2886   -0.3689   -5.0432 H   0  0  0  0  0  0  0  0  0  0  0  0
   -4.0503   -0.6845   -3.4973 H   0  0  0  0  0  0  0  0  0  0  0  0
   -3.8104    0.9645   -4.0351 H   0  0  0  0  0  0  0  0  0  0  0  0
   -1.2607    1.1231   -3.4768 N   0  0  0  0  0  0  0  0  0  0  0  0
    0.0536    1.3115   -2.9213 C   0  0  2  0  0  0  0  0  0  0  0  0
    0.0266    0.8315   -1.4761 C   0  0  0  0  0  0  0  0  0  0  0  0
   -1.0065    0.7530   -0.8146 O   0  0  0  0  0  0  0  0  0  0  0  0
    0.4852    2.7674   -3.0025 C   0  0  0  0  0  0  0  0  0  0  0  0
   -1.6809    1.8924   -3.9952 H   0  0  0  0  0  0  0  0  0  0  0  0
    0.7360    0.6822   -3.5030 H   0  0  0  0  0  0  0  0  0  0  0  0
   -0.1867    3.4133   -2.4256 H   0  0  0  0  0  0  0  0  0  0  0  0
    1.4966    2.9042   -2.6056 H   0  0  0  0  0  0  0  0  0  0  0  0
    0.4754    3.1196   -4.0397 H   0  0  0  0  0  0  0  0  0  0  0  0
    1.2978    0.5411   -0.9947 N   0  0  0  0  0  0  0  0  0  0  0  0
    1.5371    0.0807    0.3489 C   0  0  2  0  0  0  0  0  0  0  0  0
    2.7763   -0.8066    0.3083 C   0  0  0  0  0  0  0  0  0  0  0  0
    3.7832   -0.5202   -0.3360 O   0  0  0  0  0  0  0  0  0  0  0  0
    0.3427   -0.6970    0.9159 C   0  0  0  0  0  0  0  0  0  0  0  0
   -0.8986    0.1700    1.1357 C   0  0  0  0  0  0  0  0  0  0  0  0
   -2.0891   -0.6018    1.6739 C   0  0  0  0  0  0  0  0  0  0  0  0
   -2.0972   -1.8167    1.8487 O   0  0  0  0  0  0  0  0  0  0  0  0
   -3.1732    0.2128    1.9213 N   0  0  0  0  0  0  0  0  0  0  0  0
    2.0949    0.6178   -1.6227 H   0  0  0  0  0  0  0  0  0  0  0  0
    1.7544    0.9692    0.9513 H   0  0  0  0  0  0  0  0  0  0  0  0
    0.0798   -1.5086    0.2244 H   0  0  0  0  0  0  0  0  0  0  0  0
    0.6229   -1.1803    1.8603 H   0  0  0  0  0  0  0  0  0  0  0  0
   -1.2049    0.5973    0.1728 H   0  0  0  0  0  0  0  0  0  0  0  0
   -0.6753    1.0069    1.8067 H   0  0  0  0  0  0  0  0  0  0  0  0
   -3.0912    1.2065    1.7338 H   0  0  0  0  0  0  0  0  0  0  0  0
   -4.0506   -0.1458    2.2843 H   0  0  0  0  0  0  0  0  0  0  0  0
    2.6025   -1.9760    1.0354 N   0  0  0  0  0  0  0  0  0  0  0  0
    3.6156   -3.0010    1.1436 C   0  0  2  0  0  0  0  0  0  0  0  0
    4.9294   -2.3263    1.5156 C   0  0  0  0  0  0  0  0  0  0  0  0
    5.1583   -1.1382    1.2985 O   0  0  0  0  0  0  0  0  0  0  0  0
    3.7539   -3.7816   -0.1542 C   0  0  0  0  0  0  0  0  0  0  0  0
    1.7189   -2.1187    1.5155 H   0  0  0  0  0  0  0  0  0  0  0  0
    3.3048   -3.6686    1.9546 H   0  0  0  0  0  0  0  0  0  0  0  0
    4.0647   -3.1293   -0.9785 H   0  0  0  0  0  0  0  0  0  0  0  0
    4.5016   -4.5762   -0.0616 H   0  0  0  0  0  0  0  0  0  0  0  0
    2.8005   -4.2415   -0.4358 H   0  0  0  0  0  0  0  0  0  0  0  0
    5.8322   -3.2170    2.0792 N   0  0  0  0  0  0  0  0  0  0  0  0
    7.1546   -2.8219    2.5050 C   0  0  0  0  0  0  0  0  0  0  0  0
    5.5507   -4.1797    2.2392 H   0  0  0  0  0  0  0  0  0  0  0  0
    7.8688   -2.9863    1.6847 H   0  0  0  0  0  0  0  0  0  0  0  0
    7.1488   -1.7563    2.7778 H   0  0  0  0  0  0  0  0  0  0  0  0
    7.4535   -3.4221    3.3770 H   0  0  0  0  0  0  0  0  0  0  0  0
  1  3  1  0  0  0  0
  1  7  1  0  0  0  0
  1  2  2  0  0  0  0
 22 23  1  0  0  0  0
 23 25  1  0  0  0  0
 23 24  2  0  0  0  0
 35 36  1  0  0  0  0
 36 44  1  0  0  0  0
 36 37  2  0  0  0  0
  8  9  1  0  0  0  0
  9 17  1  0  0  0  0
  9 10  2  0  0  0  0
 18 19  1  0  0  0  0
 19 34  1  0  0  0  0
 19 20  2  0  0  0  0
 35 38  1  0  0  0  0
  8 11  1  0  0  0  0
 44 45  1  0  0  0  0
 21 22  1  0  0  0  0
 18 21  1  0  0  0  0
 34 35  1  0  0  0  0
  7  8  1  0  0  0  0
 17 18  1  0  0  0  0
  3  4  1  0  0  0  0
  3  5  1  0  0  0  0
  3  6  1  0  0  0  0
 38 41  1  0  0  0  0
 38 42  1  0  0  0  0
 38 43  1  0  0  0  0
 11 14  1  0  0  0  0
 11 15  1  0  0  0  0
 11 16  1  0  0  0  0
 45 47  1  0  0  0  0
 45 48  1  0  0  0  0
 45 49  1  0  0  0  0
 22 30  1  0  0  0  0
 22 31  1  0  0  0  0
 21 28  1  0  0  0  0
 21 29  1  0  0  0  0
 35 40  1  0  0  0  0
  8 13  1  0  0  0  0
 18 27  1  0  0  0  0
 25 32  1  0  0  0  0
 25 33  1  0  0  0  0
 44 46  1  0  0  0  0
  7 12  1  0  0  0  0
 34 39  1  0  0  0  0
 17 26  1  0  0  0  0
M  END
$$$$

  -OEChem-05262214473D

 49 48  0     1  0  0  0  0  0999 V2000
   -1.9833   -0.0509   -3.3423 C   0  0  0  0  0  0  0  0  0  0  0  0
   -1.6199   -1.0613   -2.7518 O   0  0  0  0  0  0  0  0  0  0  0  0
   -3.3243   -0.0235   -3.9975 C   0  0  0  0  0  0  0  0  0  0  0  0
   -3.2886   -0.3689   -5.0432 H   0  0  0  0  0  0  0  0  0  0  0  0
   -4.0503   -0.6845   -3.4973 H   0  0  0  0  0  0  0  0  0  0  0  0
   -3.8104    0.9645   -4.0351 H   0  0  0  0  0  0  0  0  0  0  0  0
   -1.2607    1.1231   -3.4768 N   0  0  0  0  0  0  0  0  0  0  0  0
    0.0536    1.3115   -2.9213 C   0  0  2  0  0  0  0  0  0  0  0  0
    0.0266    0.8315   -1.4761 C   0  0  0  0  0  0  0  0  0  0  0  0
   -1.0065    0.7530   -0.8146 O   0  0  0  0  0  0  0  0  0  0  0  0
    0.4852    2.7674   -3.0025 C   0  0  0  0  0  0  0  0  0  0  0  0
   -1.6809    1.8924   -3.9952 H   0  0  0  0  0  0  0  0  0  0  0  0
    0.7360    0.6822   -3.5030 H   0  0  0  0  0  0  0  0  0  0  0  0
   -0.1867    3.4133   -2.4256 H   0  0  0  0  0  0  0  0  0  0  0  0
    1.4966    2.9042   -2.6056 H   0  0  0  0  0  0  0  0  0  0  0  0
    0.4754    3.1196   -4.0397 H   0  0  0  0  0  0  0  0  0  0  0  0
    1.2978    0.5411   -0.9947 N   0  0  0  0  0  0  0  0  0  0  0  0
    1.5371    0.0807    0.3489 C   0  0  2  0  0  0  0  0  0  0  0  0
    2.7763   -0.8066    0.3083 C   0  0  0  0  0  0  0  0  0  0  0  0
    3.8664   -0.4146   -0.1028 O   0  0  0  0  0  0  0  0  0  0  0  0
    0.3427   -0.6970    0.9159 C   0  0  0  0  0  0  0  0  0  0  0  0
   -0.8986    0.1700    1.1357 C   0  0  0  0  0  0  0  0  0  0  0  0
   -2.0891   -0.6018    1.6739 C   0  0  0  0  0  0  0  0  0  0  0  0
   -2.0972   -1.8167    1.8487 O   0  0  0  0  0  0  0  0  0  0  0  0
   -3.1732    0.2128    1.9213 N   0  0  0  0  0  0  0  0  0  0  0  0
    2.0949    0.6178   -1.6227 H   0  0  0  0  0  0  0  0  0  0  0  0
    1.7544    0.9692    0.9513 H   0  0  0  0  0  0  0  0  0  0  0  0
    0.0798   -1.5086    0.2244 H   0  0  0  0  0  0  0  0  0  0  0  0
    0.6229   -1.1803    1.8603 H   0  0  0  0  0  0  0  0  0  0  0  0
   -1.2049    0.5973    0.1728 H   0  0  0  0  0  0  0  0  0  0  0  0
   -0.6753    1.0069    1.8067 H   0  0  0  0  0  0  0  0  0  0  0  0
   -3.0912    1.2065    1.7338 H   0  0  0  0  0  0  0  0  0  0  0  0
   -4.0506   -0.1458    2.2843 H   0  0  0  0  0  0  0  0  0  0  0  0
    2.5053   -2.0982    0.7379 N   0  0  0  0  0  0  0  0  0  0  0  0
    3.4998   -3.1461    0.7781 C   0  0  2  0  0  0  0  0  0  0  0  0
    4.7358   -2.5949    1.4767 C   0  0  0  0  0  0  0  0  0  0  0  0
    4.9839   -1.3933    1.5519 O   0  0  0  0  0  0  0  0  0  0  0  0
    3.8401   -3.6399   -0.6194 C   0  0  0  0  0  0  0  0  0  0  0  0
    1.5605   -2.3181    1.0392 H   0  0  0  0  0  0  0  0  0  0  0  0
    3.0759   -3.9617    1.3742 H   0  0  0  0  0  0  0  0  0  0  0  0
    4.2660   -2.8365   -1.2314 H   0  0  0  0  0  0  0  0  0  0  0  0
    4.5724   -4.4533   -0.5854 H   0  0  0  0  0  0  0  0  0  0  0  0
    2.9446   -4.0085   -1.1313 H   0  0  0  0  0  0  0  0  0  0  0  0
    5.5511   -3.6046    1.9686 N   0  0  0  0  0  0  0  0  0  0  0  0
    6.7901   -3.3382    2.6614 C   0  0  0  0  0  0  0  0  0  0  0  0
    5.2575   -4.5727    1.8779 H   0  0  0  0  0  0  0  0  0  0  0  0
    7.6217   -3.3432    1.9414 H   0  0  0  0  0  0  0  0  0  0  0  0
    6.7332   -2.3537    3.1488 H   0  0  0  0  0  0  0  0  0  0  0  0
    6.9590   -4.1147    3.4220 H   0  0  0  0  0  0  0  0  0  0  0  0
  1  3  1  0  0  0  0
  1  7  1  0  0  0  0
  1  2  2  0  0  0  0
 22 23  1  0  0  0  0
 23 25  1  0  0  0  0
 23 24  2  0  0  0  0
 35 36  1  0  0  0  0
 36 44  1  0  0  0  0
 36 37  2  0  0  0  0
  8  9  1  0  0  0  0
  9 17  1  0  0  0  0
  9 10  2  0  0  0  0
 18 19  1  0  0  0  0
 19 34  1  0  0  0  0
 19 20  2  0  0  0  0
 35 38  1  0  0  0  0
  8 11  1  0  0  0  0
 44 45  1  0  0  0  0
 21 22  1  0  0  0  0
 18 21  1  0  0  0  0
 34 35  1  0  0  0  0
  7  8  1  0  0  0  0
 17 18  1  0  0  0  0
  3  4  1  0  0  0  0
  3  5  1  0  0  0  0
  3  6  1  0  0  0  0
 38 41  1  0  0  0  0
 38 42  1  0  0  0  0
 38 43  1  0  0  0  0
 11 14  1  0  0  0  0
 11 15  1  0  0  0  0
 11 16  1  0  0  0  0
 45 47  1  0  0  0  0
 45 48  1  0  0  0  0
 45 49  1  0  0  0  0
 22 30  1  0  0  0  0
 22 31  1  0  0  0  0
 21 28  1  0  0  0  0
 21 29  1  0  0  0  0
 35 40  1  0  0  0  0
  8 13  1  0  0  0  0
 18 27  1  0  0  0  0
 25 32  1  0  0  0  0
 25 33  1  0  0  0  0
 44 46  1  0  0  0  0
  7 12  1  0  0  0  0
 34 39  1  0  0  0  0
 17 26  1  0  0  0  0
M  END
$$$$

  -OEChem-05262214473D

 49 48  0     1  0  0  0  0  0999 V2000
   -1.9833   -0.0509   -3.3423 C   0  0  0  0  0  0  0  0  0  0  0  0
   -1.6199   -1.0613   -2.7518 O   0  0  0  0  0  0  0  0  0  0  0  0
   -3.3243   -0.0235   -3.9975 C   0  0  0  0  0  0  0  0  0  0  0  0
   -3.2886   -0.3689   -5.0432 H   0  0  0  0  0  0  0  0  0  0  0  0
   -4.0503   -0.6845   -3.4973 H   0  0  0  0  0  0  0  0  0  0  0  0
   -3.8104    0.9645   -4.0351 H   0  0  0  0  0  0  0  0  0  0  0  0
   -1.2607    1.1231   -3.4768 N   0  0  0  0  0  0  0  0  0  0  0  0
    0.0536    1.3115   -2.9213 C   0  0  2  0  0  0  0  0  0  0  0  0
    0.0266    0.8315   -1.4761 C   0  0  0  0  0  0  0  0  0  0  0  0
   -1.0065    0.7530   -0.8146 O   0  0  0  0  0  0  0  0  0  0  0  0
    0.4852    2.7674   -3.0025 C   0  0  0  0  0  0  0  0  0  0  0  0
   -1.6809    1.8924   -3.9952 H   0  0  0  0  0  0  0  0  0  0  0  0
    0.7360    0.6822   -3.5030 H   0  0  0  0  0  0  0  0  0  0  0  0
   -0.1867    3.4133   -2.4256 H   0  0  0  0  0  0  0  0  0  0  0  0
    1.4966    2.9042   -2.6056 H   0  0  0  0  0  0  0  0  0  0  0  0
    0.4754    3.1196   -4.0397 H   0  0  0  0  0  0  0  0  0  0  0  0
    1.2978    0.5411   -0.9947 N   0  0  0  0  0  0  0  0  0  0  0  0
    1.5371    0.0807    0.3489 C   0  0  2  0  0  0  0  0  0  0  0  0
    2.7763   -0.8066    0.3083 C   0  0  0  0  0  0  0  0  0  0  0  0
    3.9124   -0.3623    0.1572 O   0  0  0  0  0  0  0  0  0  0  0  0
    0.3427   -0.6970    0.9159 C   0  0  0  0  0  0  0  0  0  0  0  0
   -0.8986    0.1700    1.1357 C   0  0  0  0  0  0  0  0  0  0  0  0
   -2.0891   -0.6018    1.6739 C   0  0  0  0  0  0  0  0  0  0  0  0
   -2.0972   -1.8167    1.8487 O   0  0  0  0  0  0  0  0  0  0  0  0
   -3.1732    0.2128    1.9213 N   0  0  0  0  0  0  0  0  0  0  0  0
    2.0949    0.6178   -1.6227 H   0  0  0  0  0  0  0  0  0  0  0  0
    1.7544    0.9692    0.9513 H   0  0  0  0  0  0  0  0  0  0  0  0
    0.0798   -1.5086    0.2244 H   0  0  0  0  0  0  0  0  0  0  0  0
    0.6229   -1.1803    1.8603 H   0  0  0  0  0  0  0  0  0  0  0  0
   -1.2049    0.5973    0.1728 H   0  0  0  0  0  0  0  0  0  0  0  0
   -0.6753    1.0069    1.8067 H   0  0  0  0  0  0  0  0  0  0  0  0
   -3.0912    1.2065    1.7338 H   0  0  0  0  0  0  0  0  0  0  0  0
   -4.0506   -0.1458    2.2843 H   0  0  0  0  0  0  0  0  0  0  0  0
    2.4553   -2.1530    0.4103 N   0  0  0  0  0  0  0  0  0  0  0  0
    3.4419   -3.2086    0.3772 C   0  0  2  0  0  0  0  0  0  0  0  0
    4.5528   -2.8448    1.3534 C   0  0  0  0  0  0  0  0  0  0  0  0
    4.7756   -1.6918    1.7167 O   0  0  0  0  0  0  0  0  0  0  0  0
    3.9943   -3.4059   -1.0259 C   0  0  0  0  0  0  0  0  0  0  0  0
    1.4779   -2.4094    0.5133 H   0  0  0  0  0  0  0  0  0  0  0  0
    2.9403   -4.1211    0.7174 H   0  0  0  0  0  0  0  0  0  0  0  0
    4.5006   -2.5020   -1.3838 H   0  0  0  0  0  0  0  0  0  0  0  0
    4.7206   -4.2249   -1.0548 H   0  0  0  0  0  0  0  0  0  0  0  0
    3.1901   -3.6382   -1.7323 H   0  0  0  0  0  0  0  0  0  0  0  0
    5.2935   -3.9537    1.7379 N   0  0  0  0  0  0  0  0  0  0  0  0
    6.4109   -3.8672    2.6490 C   0  0  0  0  0  0  0  0  0  0  0  0
    5.0259   -4.8743    1.4021 H   0  0  0  0  0  0  0  0  0  0  0  0
    7.3419   -3.7402    2.0771 H   0  0  0  0  0  0  0  0  0  0  0  0
    6.2718   -3.0059    3.3189 H   0  0  0  0  0  0  0  0  0  0  0  0
    6.4699   -4.7897    3.2452 H   0  0  0  0  0  0  0  0  0  0  0  0
  1  3  1  0  0  0  0
  1  7  1  0  0  0  0
  1  2  2  0  0  0  0
 22 23  1  0  0  0  0
 23 25  1  0  0  0  0
 23 24  2  0  0  0  0
 35 36  1  0  0  0  0
 36 44  1  0  0  0  0
 36 37  2  0  0  0  0
  8  9  1  0  0  0  0
  9 17  1  0  0  0  0
  9 10  2  0  0  0  0
 18 19  1  0  0  0  0
 19 34  1  0  0  0  0
 19 20  2  0  0  0  0
 35 38  1  0  0  0  0
  8 11  1  0  0  0  0
 44 45  1  0  0  0  0
 21 22  1  0  0  0  0
 18 21  1  0  0  0  0
 34 35  1  0  0  0  0
  7  8  1  0  0  0  0
 17 18  1  0  0  0  0
  3  4  1  0  0  0  0
  3  5  1  0  0  0  0
  3  6  1  0  0  0  0
 38 41  1  0  0  0  0
 38 42  1  0  0  0  0
 38 43  1  0  0  0  0
 11 14  1  0  0  0  0
 11 15  1  0  0  0  0
 11 16  1  0  0  0  0
 45 47  1  0  0  0  0
 45 48  1  0  0  0  0
 45 49  1  0  0  0  0
 22 30  1  0  0  0  0
 22 31  1  0  0  0  0
 21 28  1  0  0  0  0
 21 29  1  0  0  0  0
 35 40  1  0  0  0  0
  8 13  1  0  0  0  0
 18 27  1  0  0  0  0
 25 32  1  0  0  0  0
 25 33  1  0  0  0  0
 44 46  1  0  0  0  0
  7 12  1  0  0  0  0
 34 39  1  0  0  0  0
 17 26  1  0  0  0  0
M  END
$$$$

  -OEChem-05262214473D

 49 48  0     1  0  0  0  0  0999 V2000
   -1.9833   -0.0509   -3.3423 C   0  0  0  0  0  0  0  0  0  0  0  0
   -1.6199   -1.0613   -2.7518 O   0  0  0  0  0  0  0  0  0  0  0  0
   -3.3243   -0.0235   -3.9975 C   0  0  0  0  0  0  0  0  0  0  0  0
   -3.2886   -0.3689   -5.0432 H   0  0  0  0  0  0  0  0  0  0  0  0
   -4.0503   -0.6845   -3.4973 H   0  0  0  0  0  0  0  0  0  0  0  0
   -3.8104    0.9645   -4.0351 H   0  0  0  0  0  0  0  0  0  0  0  0
   -1.2607    1.1231   -3.4768 N   0  0  0  0  0  0  0  0  0  0  0  0
    0.0536    1.3115   -2.9213 C   0  0  2  0  0  0  0  0  0  0  0  0
    0.0266    0.8315   -1.4761 C   0  0  0  0  0  0  0  0  0  0  0  0
   -1.0065    0.7530   -0.8146 O   0  0  0  0  0  0  0  0  0  0  0  0
    0.4852    2.7674   -3.0025 C   0  0  0  0  0  0  0  0  0  0  0  0
   -1.6809    1.8924   -3.9952 H   0  0  0  0  0  0  0  0  0  0  0  0
    0.7360    0.6822   -3.5030 H   0  0  0  0  0  0  0  0  0  0  0  0
   -0.1867    3.4133   -2.4256 H   0  0  0  0  0  0  0  0  0  0  0  0
    1.4966    2.9042   -2.6056 H   0  0  0  0  0  0  0  0  0  0  0  0
    0.4754    3.1196   -4.0397 H   0  0  0  0  0  0  0  0  0  0  0  0
    1.2978    0.5411   -0.9947 N   0  0  0  0  0  0  0  0  0  0  0  0
    1.5371    0.0807    0.3489 C   0  0  2  0  0  0  0  0  0  0  0  0
    2.7763   -0.8066    0.3083 C   0  0  0  0  0  0  0  0  0  0  0  0
    3.9181   -0.3667    0.4264 O   0  0  0  0  0  0  0  0  0  0  0  0
    0.3427   -0.6970    0.9159 C   0  0  0  0  0  0  0  0  0  0  0  0
   -0.8986    0.1700    1.1357 C   0  0  0  0  0  0  0  0  0  0  0  0
   -2.0891   -0.6018    1.6739 C   0  0  0  0  0  0  0  0  0  0  0  0
   -2.0972   -1.8167    1.8487 O   0  0  0  0  0  0  0  0  0  0  0  0
   -3.1732    0.2128    1.9213 N   0  0  0  0  0  0  0  0  0  0  0  0
    2.0949    0.6178   -1.6227 H   0  0  0  0  0  0  0  0  0  0  0  0
    1.7544    0.9692    0.9513 H   0  0  0  0  0  0  0  0  0  0  0  0
    0.0798   -1.5086    0.2244 H   0  0  0  0  0  0  0  0  0  0  0  0
    0.6229   -1.1803    1.8603 H   0  0  0  0  0  0  0  0  0  0  0  0
   -1.2049    0.5973    0.1728 H   0  0  0  0  0  0  0  0  0  0  0  0
   -0.6753    1.0069    1.8067 H   0  0  0  0  0  0  0  0  0  0  0  0
   -3.0912    1.2065    1.7338 H   0  0  0  0  0  0  0  0  0  0  0  0
   -4.0506   -0.1458    2.2843 H   0  0  0  0  0  0  0  0  0  0  0  0
    2.4560   -2.1367    0.0747 N   0  0  0  0  0  0  0  0  0  0  0  0
    3.4459   -3.1843   -0.0320 C   0  0  2  0  0  0  0  0  0  0  0  0
    4.3928   -3.0591    1.1543 C   0  0  0  0  0  0  0  0  0  0  0  0
    4.5475   -2.0134    1.7817 O   0  0  0  0  0  0  0  0  0  0  0  0
    4.2062   -3.0954   -1.3461 C   0  0  0  0  0  0  0  0  0  0  0  0
    1.4767   -2.3864   -0.0263 H   0  0  0  0  0  0  0  0  0  0  0  0
    2.9070   -4.1360    0.0290 H   0  0  0  0  0  0  0  0  0  0  0  0
    4.7524   -2.1484   -1.4253 H   0  0  0  0  0  0  0  0  0  0  0  0
    4.9360   -3.9066   -1.4379 H   0  0  0  0  0  0  0  0  0  0  0  0
    3.5203   -3.1557   -2.1980 H   0  0  0  0  0  0  0  0  0  0  0  0
    5.0770   -4.2407    1.4028 N   0  0  0  0  0  0  0  0  0  0  0  0
    6.0428   -4.3730    2.4685 C   0  0  0  0  0  0  0  0  0  0  0  0
    4.8719   -5.0639    0.8442 H   0  0  0  0  0  0  0  0  0  0  0  0
    7.0485   -4.1503    2.0825 H   0  0  0  0  0  0  0  0  0  0  0  0
    5.7960   -3.6685    3.2764 H   0  0  0  0  0  0  0  0  0  0  0  0
    6.0194   -5.4012    2.8588 H   0  0  0  0  0  0  0  0  0  0  0  0
  1  3  1  0  0  0  0
  1  7  1  0  0  0  0
  1  2  2  0  0  0  0
 22 23  1  0  0  0  0
 23 25  1  0  0  0  0
 23 24  2  0  0  0  0
 35 36  1  0  0  0  0
 36 44  1  0  0  0  0
 36 37  2  0  0  0  0
  8  9  1  0  0  0  0
  9 17  1  0  0  0  0
  9 10  2  0  0  0  0
 18 19  1  0  0  0  0
 19 34  1  0  0  0  0
 19 20  2  0  0  0  0
 35 38  1  0  0  0  0
  8 11  1  0  0  0  0
 44 45  1  0  0  0  0
 21 22  1  0  0  0  0
 18 21  1  0  0  0  0
 34 35  1  0  0  0  0
  7  8  1  0  0  0  0
 17 18  1  0  0  0  0
  3  4  1  0  0  0  0
  3  5  1  0  0  0  0
  3  6  1  0  0  0  0
 38 41  1  0  0  0  0
 38 42  1  0  0  0  0
 38 43  1  0  0  0  0
 11 14  1  0  0  0  0
 11 15  1  0  0  0  0
 11 16  1  0  0  0  0
 45 47  1  0  0  0  0
 45 48  1  0  0  0  0
 45 49  1  0  0  0  0
 22 30  1  0  0  0  0
 22 31  1  0  0  0  0
 21 28  1  0  0  0  0
 21 29  1  0  0  0  0
 35 40  1  0  0  0  0
  8 13  1  0  0  0  0
 18 27  1  0  0  0  0
 25 32  1  0  0  0  0
 25 33  1  0  0  0  0
 44 46  1  0  0  0  0
  7 12  1  0  0  0  0
 34 39  1  0  0  0  0
 17 26  1  0  0  0  0
M  END
$$$$

  -OEChem-05262214473D

 49 48  0     1  0  0  0  0  0999 V2000
   -1.9833   -0.0509   -3.3423 C   0  0  0  0  0  0  0  0  0  0  0  0
   -1.6199   -1.0613   -2.7518 O   0  0  0  0  0  0  0  0  0  0  0  0
   -3.3243   -0.0235   -3.9975 C   0  0  0  0  0  0  0  0  0  0  0  0
   -3.2886   -0.3689   -5.0432 H   0  0  0  0  0  0  0  0  0  0  0  0
   -4.0503   -0.6845   -3.4973 H   0  0  0  0  0  0  0  0  0  0  0  0
   -3.8104    0.9645   -4.0351 H   0  0  0  0  0  0  0  0  0  0  0  0
   -1.2607    1.1231   -3.4768 N   0  0  0  0  0  0  0  0  0  0  0  0
    0.0536    1.3115   -2.9213 C   0  0  2  0  0  0  0  0  0  0  0  0
    0.0266    0.8315   -1.4761 C   0  0  0  0  0  0  0  0  0  0  0  0
   -1.0065    0.7530   -0.8146 O   0  0  0  0  0  0  0  0  0  0  0  0
    0.4852    2.7674   -3.0025 C   0  0  0  0  0  0  0  0  0  0  0  0
   -1.6809    1.8924   -3.9952 H   0  0  0  0  0  0  0  0  0  0  0  0
    0.7360    0.6822   -3.5030 H   0  0  0  0  0  0  0  0  0  0  0  0
   -0.1867    3.4133   -2.4256 H   0  0  0  0  0  0  0  0  0  0  0  0
    1.4966    2.9042   -2.6056 H   0  0  0  0  0  0  0  0  0  0  0  0
    0.4754    3.1196   -4.0397 H   0  0  0  0  0  0  0  0  0  0  0  0
    1.2978    0.5411   -0.9947 N   0  0  0  0  0  0  0  0  0  0  0  0
    1.5371    0.0807    0.3489 C   0  0  2  0  0  0  0  0  0  0  0  0
    2.7763   -0.8066    0.3083 C   0  0  0  0  0  0  0  0  0  0  0  0
    3.8829   -0.4277    0.6862 O   0  0  0  0  0  0  0  0  0  0  0  0
    0.3427   -0.6970    0.9159 C   0  0  0  0  0  0  0  0  0  0  0  0
   -0.8986    0.1700    1.1357 C   0  0  0  0  0  0  0  0  0  0  0  0
   -2.0891   -0.6018    1.6739 C   0  0  0  0  0  0  0  0  0  0  0  0
   -2.0972   -1.8167    1.8487 O   0  0  0  0  0  0  0  0  0  0  0  0
   -3.1732    0.2128    1.9213 N   0  0  0  0  0  0  0  0  0  0  0  0
    2.0949    0.6178   -1.6227 H   0  0  0  0  0  0  0  0  0  0  0  0
    1.7544    0.9692    0.9513 H   0  0  0  0  0  0  0  0  0  0  0  0
    0.0798   -1.5086    0.2244 H   0  0  0  0  0  0  0  0  0  0  0  0
    0.6229   -1.1803    1.8603 H   0  0  0  0  0  0  0  0  0  0  0  0
   -1.2049    0.5973    0.1728 H   0  0  0  0  0  0  0  0  0  0  0  0
   -0.6753    1.0069    1.8067 H   0  0  0  0  0  0  0  0  0  0  0  0
   -3.0912    1.2065    1.7338 H   0  0  0  0  0  0  0  0  0  0  0  0
   -4.0506   -0.1458    2.2843 H   0  0  0  0  0  0  0  0  0  0  0  0
    2.5073   -2.0503   -0.2459 N   0  0  0  0  0  0  0  0  0  0  0  0
    3.5116   -3.0747   -0.4215 C   0  0  2  0  0  0  0  0  0  0  0  0
    4.2669   -3.2230    0.8927 C   0  0  0  0  0  0  0  0  0  0  0  0
    4.3151   -2.3361    1.7425 O   0  0  0  0  0  0  0  0  0  0  0  0
    4.4612   -2.7296   -1.5581 C   0  0  0  0  0  0  0  0  0  0  0  0
    1.5569   -2.2507   -0.5429 H   0  0  0  0  0  0  0  0  0  0  0  0
    2.9785   -4.0054   -0.6441 H   0  0  0  0  0  0  0  0  0  0  0  0
    5.0043   -1.7998   -1.3531 H   0  0  0  0  0  0  0  0  0  0  0  0
    5.2039   -3.5200   -1.7085 H   0  0  0  0  0  0  0  0  0  0  0  0
    3.9127   -2.5940   -2.4965 H   0  0  0  0  0  0  0  0  0  0  0  0
    4.9165   -4.4459    0.9861 N   0  0  0  0  0  0  0  0  0  0  0  0
    5.7110   -4.8211    2.1324 C   0  0  0  0  0  0  0  0  0  0  0  0
    4.8058   -5.1286    0.2422 H   0  0  0  0  0  0  0  0  0  0  0  0
    6.7614   -4.5455    1.9572 H   0  0  0  0  0  0  0  0  0  0  0  0
    5.3382   -4.2963    3.0244 H   0  0  0  0  0  0  0  0  0  0  0  0
    5.6383   -5.9075    2.2891 H   0  0  0  0  0  0  0  0  0  0  0  0
  1  3  1  0  0  0  0
  1  7  1  0  0  0  0
  1  2  2  0  0  0  0
 22 23  1  0  0  0  0
 23 25  1  0  0  0  0
 23 24  2  0  0  0  0
 35 36  1  0  0  0  0
 36 44  1  0  0  0  0
 36 37  2  0  0  0  0
  8  9  1  0  0  0  0
  9 17  1  0  0  0  0
  9 10  2  0  0  0  0
 18 19  1  0  0  0  0
 19 34  1  0  0  0  0
 19 20  2  0  0  0  0
 35 38  1  0  0  0  0
  8 11  1  0  0  0  0
 44 45  1  0  0  0  0
 21 22  1  0  0  0  0
 18 21  1  0  0  0  0
 34 35  1  0  0  0  0
  7  8  1  0  0  0  0
 17 18  1  0  0  0  0
  3  4  1  0  0  0  0
  3  5  1  0  0  0  0
  3  6  1  0  0  0  0
 38 41  1  0  0  0  0
 38 42  1  0  0  0  0
 38 43  1  0  0  0  0
 11 14  1  0  0  0  0
 11 15  1  0  0  0  0
 11 16  1  0  0  0  0
 45 47  1  0  0  0  0
 45 48  1  0  0  0  0
 45 49  1  0  0  0  0
 22 30  1  0  0  0  0
 22 31  1  0  0  0  0
 21 28  1  0  0  0  0
 21 29  1  0  0  0  0
 35 40  1  0  0  0  0
  8 13  1  0  0  0  0
 18 27  1  0  0  0  0
 25 32  1  0  0  0  0
 25 33  1  0  0  0  0
 44 46  1  0  0  0  0
  7 12  1  0  0  0  0
 34 39  1  0  0  0  0
 17 26  1  0  0  0  0
M  END
$$$$

  -OEChem-05262214473D

 49 48  0     1  0  0  0  0  0999 V2000
   -1.9833   -0.0509   -3.3423 C   0  0  0  0  0  0  0  0  0  0  0  0
   -1.6199   -1.0613   -2.7518 O   0  0  0  0  0  0  0  0  0  0  0  0
   -3.3243   -0.0235   -3.9975 C   0  0  0  0  0  0  0  0  0  0  0  0
   -3.2886   -0.3689   -5.0432 H   0  0  0  0  0  0  0  0  0  0  0  0
   -4.0503   -0.6845   -3.4973 H   0  0  0  0  0  0  0  0  0  0  0  0
   -3.8104    0.9645   -4.0351 H   0  0  0  0  0  0  0  0  0  0  0  0
   -1.2607    1.1231   -3.4768 N   0  0  0  0  0  0  0  0  0  0  0  0
    0.0536    1.3115   -2.9213 C   0  0  2  0  0  0  0  0  0  0  0  0
    0.0266    0.8315   -1.4761 C   0  0  0  0  0  0  0  0  0  0  0  0
   -1.0065    0.7530   -0.8146 O   0  0  0  0  0  0  0  0  0  0  0  0
    0.4852    2.7674   -3.0025 C   0  0  0  0  0  0  0  0  0  0  0  0
   -1.6809    1.8924   -3.9952 H   0  0  0  0  0  0  0  0  0  0  0  0
    0.7360    0.6822   -3.5030 H   0  0  0  0  0  0  0  0  0  0  0  0
   -0.1867    3.4133   -2.4256 H   0  0  0  0  0  0  0  0  0  0  0  0
    1.4966    2.9042   -2.6056 H   0  0  0  0  0  0  0  0  0  0  0  0
    0.4754    3.1196   -4.0397 H   0  0  0  0  0  0  0  0  0  0  0  0
    1.2978    0.5411   -0.9947 N   0  0  0  0  0  0  0  0  0  0  0  0
    1.5371    0.0807    0.3489 C   0  0  2  0  0  0  0  0  0  0  0  0
    2.7763   -0.8066    0.3083 C   0  0  0  0  0  0  0  0  0  0  0  0
    3.8094   -0.5410    0.9191 O   0  0  0  0  0  0  0  0  0  0  0  0
    0.3427   -0.6970    0.9159 C   0  0  0  0  0  0  0  0  0  0  0  0
   -0.8986    0.1700    1.1357 C   0  0  0  0  0  0  0  0  0  0  0  0
   -2.0891   -0.6018    1.6739 C   0  0  0  0  0  0  0  0  0  0  0  0
   -2.0972   -1.8167    1.8487 O   0  0  0  0  0  0  0  0  0  0  0  0
   -3.1732    0.2128    1.9213 N   0  0  0  0  0  0  0  0  0  0  0  0
    2.0949    0.6178   -1.6227 H   0  0  0  0  0  0  0  0  0  0  0  0
    1.7544    0.9692    0.9513 H   0  0  0  0  0  0  0  0  0  0  0  0
    0.0798   -1.5086    0.2244 H   0  0  0  0  0  0  0  0  0  0  0  0
    0.6229   -1.1803    1.8603 H   0  0  0  0  0  0  0  0  0  0  0  0
   -1.2049    0.5973    0.1728 H   0  0  0  0  0  0  0  0  0  0  0  0
   -0.6753    1.0069    1.8067 H   0  0  0  0  0  0  0  0  0  0  0  0
   -3.0912    1.2065    1.7338 H   0  0  0  0  0  0  0  0  0  0  0  0
   -4.0506   -0.1458    2.2843 H   0  0  0  0  0  0  0  0  0  0  0  0
    2.6058   -1.8998   -0.5296 N   0  0  0  0  0  0  0  0  0  0  0  0
    3.6345   -2.8873   -0.7647 C   0  0  2  0  0  0  0  0  0  0  0  0
    4.1835   -3.3255    0.5866 C   0  0  0  0  0  0  0  0  0  0  0  0
    4.0944   -2.6380    1.6017 O   0  0  0  0  0  0  0  0  0  0  0  0
    4.7419   -2.3333   -1.6476 C   0  0  0  0  0  0  0  0  0  0  0  0
    1.7132   -2.0115   -1.0012 H   0  0  0  0  0  0  0  0  0  0  0  0
    3.1498   -3.7381   -1.2559 H   0  0  0  0  0  0  0  0  0  0  0  0
    5.2392   -1.4801   -1.1720 H   0  0  0  0  0  0  0  0  0  0  0  0
    5.5061   -3.0915   -1.8482 H   0  0  0  0  0  0  0  0  0  0  0  0
    4.3406   -1.9913   -2.6077 H   0  0  0  0  0  0  0  0  0  0  0  0
    4.8227   -4.5554    0.5163 N   0  0  0  0  0  0  0  0  0  0  0  0
    5.4380   -5.1809    1.6635 C   0  0  0  0  0  0  0  0  0  0  0  0
    4.8323   -5.0641   -0.3628 H   0  0  0  0  0  0  0  0  0  0  0  0
    6.5002   -4.8989    1.7099 H   0  0  0  0  0  0  0  0  0  0  0  0
    4.9297   -4.8465    2.5800 H   0  0  0  0  0  0  0  0  0  0  0  0
    5.3525   -6.2740    1.5748 H   0  0  0  0  0  0  0  0  0  0  0  0
  1  3  1  0  0  0  0
  1  7  1  0  0  0  0
  1  2  2  0  0  0  0
 22 23  1  0  0  0  0
 23 25  1  0  0  0  0
 23 24  2  0  0  0  0
 35 36  1  0  0  0  0
 36 44  1  0  0  0  0
 36 37  2  0  0  0  0
  8  9  1  0  0  0  0
  9 17  1  0  0  0  0
  9 10  2  0  0  0  0
 18 19  1  0  0  0  0
 19 34  1  0  0  0  0
 19 20  2  0  0  0  0
 35 38  1  0  0  0  0
  8 11  1  0  0  0  0
 44 45  1  0  0  0  0
 21 22  1  0  0  0  0
 18 21  1  0  0  0  0
 34 35  1  0  0  0  0
  7  8  1  0  0  0  0
 17 18  1  0  0  0  0
  3  4  1  0  0  0  0
  3  5  1  0  0  0  0
  3  6  1  0  0  0  0
 38 41  1  0  0  0  0
 38 42  1  0  0  0  0
 38 43  1  0  0  0  0
 11 14  1  0  0  0  0
 11 15  1  0  0  0  0
 11 16  1  0  0  0  0
 45 47  1  0  0  0  0
 45 48  1  0  0  0  0
 45 49  1  0  0  0  0
 22 30  1  0  0  0  0
 22 31  1  0  0  0  0
 21 28  1  0  0  0  0
 21 29  1  0  0  0  0
 35 40  1  0  0  0  0
  8 13  1  0  0  0  0
 18 27  1  0  0  0  0
 25 32  1  0  0  0  0
 25 33  1  0  0  0  0
 44 46  1  0  0  0  0
  7 12  1  0  0  0  0
 34 39  1  0  0  0  0
 17 26  1  0  0  0  0
M  END
$$$$

  -OEChem-05262214473D

 49 48  0     1  0  0  0  0  0999 V2000
   -1.9833   -0.0509   -3.3423 C   0  0  0  0  0  0  0  0  0  0  0  0
   -1.6199   -1.0613   -2.7518 O   0  0  0  0  0  0  0  0  0  0  0  0
   -3.3243   -0.0235   -3.9975 C   0  0  0  0  0  0  0  0  0  0  0  0
   -3.2886   -0.3689   -5.0432 H   0  0  0  0  0  0  0  0  0  0  0  0
   -4.0503   -0.6845   -3.4973 H   0  0  0  0  0  0  0  0  0  0  0  0
   -3.8104    0.9645   -4.0351 H   0  0  0  0  0  0  0  0  0  0  0  0
   -1.2607    1.1231   -3.4768 N   0  0  0  0  0  0  0  0  0  0  0  0
    0.0536    1.3115   -2.9213 C   0  0  2  0  0  0  0  0  0  0  0  0
    0.0266    0.8315   -1.4761 C   0  0  0  0  0  0  0  0  0  0  0  0
   -1.0065    0.7530   -0.8146 O   0  0  0  0  0  0  0  0  0  0  0  0
    0.4852    2.7674   -3.0025 C   0  0  0  0  0  0  0  0  0  0  0  0
   -1.6809    1.8924   -3.9952 H   0  0  0  0  0  0  0  0  0  0  0  0
    0.7360    0.6822   -3.5030 H   0  0  0  0  0  0  0  0  0  0  0  0
   -0.1867    3.4133   -2.4256 H   0  0  0  0  0  0  0  0  0  0  0  0
    1.4966    2.9042   -2.6056 H   0  0  0  0  0  0  0  0  0  0  0  0
    0.4754    3.1196   -4.0397 H   0  0  0  0  0  0  0  0  0  0  0  0
    1.2978    0.5411   -0.9947 N   0  0  0  0  0  0  0  0  0  0  0  0
    1.5371    0.0807    0.3489 C   0  0  2  0  0  0  0  0  0  0  0  0
    2.7763   -0.8066    0.3083 C   0  0  0  0  0  0  0  0  0  0  0  0
    3.7026   -0.6989    1.1092 O   0  0  0  0  0  0  0  0  0  0  0  0
    0.3427   -0.6970    0.9159 C   0  0  0  0  0  0  0  0  0  0  0  0
   -0.8986    0.1700    1.1357 C   0  0  0  0  0  0  0  0  0  0  0  0
   -2.0891   -0.6018    1.6739 C   0  0  0  0  0  0  0  0  0  0  0  0
   -2.0972   -1.8167    1.8487 O   0  0  0  0  0  0  0  0  0  0  0  0
   -3.1732    0.2128    1.9213 N   0  0  0  0  0  0  0  0  0  0  0  0
    2.0949    0.6178   -1.6227 H   0  0  0  0  0  0  0  0  0  0  0  0
    1.7544    0.9692    0.9513 H   0  0  0  0  0  0  0  0  0  0  0  0
    0.0798   -1.5086    0.2244 H   0  0  0  0  0  0  0  0  0  0  0  0
    0.6229   -1.1803    1.8603 H   0  0  0  0  0  0  0  0  0  0  0  0
   -1.2049    0.5973    0.1728 H   0  0  0  0  0  0  0  0  0  0  0  0
   -0.6753    1.0069    1.8067 H   0  0  0  0  0  0  0  0  0  0  0  0
   -3.0912    1.2065    1.7338 H   0  0  0  0  0  0  0  0  0  0  0  0
   -4.0506   -0.1458    2.2843 H   0  0  0  0  0  0  0  0  0  0  0  0
    2.7447   -1.6954   -0.7572 N   0  0  0  0  0  0  0  0  0  0  0  0
    3.8062   -2.6350   -1.0384 C   0  0  2  0  0  0  0  0  0  0  0  0
    4.1484   -3.3595    0.2568 C   0  0  0  0  0  0  0  0  0  0  0  0
    3.9003   -2.8984    1.3690 O   0  0  0  0  0  0  0  0  0  0  0  0
    5.0293   -1.9337   -1.6084 C   0  0  0  0  0  0  0  0  0  0  0  0
    1.9348   -1.6851   -1.3701 H   0  0  0  0  0  0  0  0  0  0  0  0
    3.4093   -3.3524   -1.7649 H   0  0  0  0  0  0  0  0  0  0  0  0
    5.4410   -1.2110   -0.8945 H   0  0  0  0  0  0  0  0  0  0  0  0
    5.8220   -2.6503   -1.8475 H   0  0  0  0  0  0  0  0  0  0  0  0
    4.7748   -1.3887   -2.5238 H   0  0  0  0  0  0  0  0  0  0  0  0
    4.8022   -4.5616    0.0254 N   0  0  0  0  0  0  0  0  0  0  0  0
    5.2425   -5.4280    1.0938 C   0  0  0  0  0  0  0  0  0  0  0  0
    4.9493   -4.8746   -0.9297 H   0  0  0  0  0  0  0  0  0  0  0  0
    6.2828   -5.1865    1.3572 H   0  0  0  0  0  0  0  0  0  0  0  0
    4.5982   -5.2817    1.9734 H   0  0  0  0  0  0  0  0  0  0  0  0
    5.1814   -6.4758    0.7648 H   0  0  0  0  0  0  0  0  0  0  0  0
  1  3  1  0  0  0  0
  1  7  1  0  0  0  0
  1  2  2  0  0  0  0
 22 23  1  0  0  0  0
 23 25  1  0  0  0  0
 23 24  2  0  0  0  0
 35 36  1  0  0  0  0
 36 44  1  0  0  0  0
 36 37  2  0  0  0  0
  8  9  1  0  0  0  0
  9 17  1  0  0  0  0
  9 10  2  0  0  0  0
 18 19  1  0  0  0  0
 19 34  1  0  0  0  0
 19 20  2  0  0  0  0
 35 38  1  0  0  0  0
  8 11  1  0  0  0  0
 44 45  1  0  0  0  0
 21 22  1  0  0  0  0
 18 21  1  0  0  0  0
 34 35  1  0  0  0  0
  7  8  1  0  0  0  0
 17 18  1  0  0  0  0
  3  4  1  0  0  0  0
  3  5  1  0  0  0  0
  3  6  1  0  0  0  0
 38 41  1  0  0  0  0
 38 42  1  0  0  0  0
 38 43  1  0  0  0  0
 11 14  1  0  0  0  0
 11 15  1  0  0  0  0
 11 16  1  0  0  0  0
 45 47  1  0  0  0  0
 45 48  1  0  0  0  0
 45 49  1  0  0  0  0
 22 30  1  0  0  0  0
 22 31  1  0  0  0  0
 21 28  1  0  0  0  0
 21 29  1  0  0  0  0
 35 40  1  0  0  0  0
  8 13  1  0  0  0  0
 18 27  1  0  0  0  0
 25 32  1  0  0  0  0
 25 33  1  0  0  0  0
 44 46  1  0  0  0  0
  7 12  1  0  0  0  0
 34 39  1  0  0  0  0
 17 26  1  0  0  0  0
M  END
$$$$

  -OEChem-05262214473D

 49 48  0     1  0  0  0  0  0999 V2000
   -1.9833   -0.0509   -3.3423 C   0  0  0  0  0  0  0  0  0  0  0  0
   -1.6199   -1.0613   -2.7518 O   0  0  0  0  0  0  0  0  0  0  0  0
   -3.3243   -0.0235   -3.9975 C   0  0  0  0  0  0  0  0  0  0  0  0
   -3.2886   -0.3689   -5.0432 H   0  0  0  0  0  0  0  0  0  0  0  0
   -4.0503   -0.6845   -3.4973 H   0  0  0  0  0  0  0  0  0  0  0  0
   -3.8104    0.9645   -4.0351 H   0  0  0  0  0  0  0  0  0  0  0  0
   -1.2607    1.1231   -3.4768 N   0  0  0  0  0  0  0  0  0  0  0  0
    0.0536    1.3115   -2.9213 C   0  0  2  0  0  0  0  0  0  0  0  0
    0.0266    0.8315   -1.4761 C   0  0  0  0  0  0  0  0  0  0  0  0
   -1.0065    0.7530   -0.8146 O   0  0  0  0  0  0  0  0  0  0  0  0
    0.4852    2.7674   -3.0025 C   0  0  0  0  0  0  0  0  0  0  0  0
   -1.6809    1.8924   -3.9952 H   0  0  0  0  0  0  0  0  0  0  0  0
    0.7360    0.6822   -3.5030 H   0  0  0  0  0  0  0  0  0  0  0  0
   -0.1867    3.4133   -2.4256 H   0  0  0  0  0  0  0  0  0  0  0  0
    1.4966    2.9042   -2.6056 H   0  0  0  0  0  0  0  0  0  0  0  0
    0.4754    3.1196   -4.0397 H   0  0  0  0  0  0  0  0  0  0  0  0
    1.2978    0.5411   -0.9947 N   0  0  0  0  0  0  0  0  0  0  0  0
    1.5371    0.0807    0.3489 C   0  0  2  0  0  0  0  0  0  0  0  0
    2.7763   -0.8066    0.3083 C   0  0  0  0  0  0  0  0  0  0  0  0
    3.5697   -0.8907    1.2435 O   0  0  0  0  0  0  0  0  0  0  0  0
    0.3427   -0.6970    0.9159 C   0  0  0  0  0  0  0  0  0  0  0  0
   -0.8986    0.1700    1.1357 C   0  0  0  0  0  0  0  0  0  0  0  0
   -2.0891   -0.6018    1.6739 C   0  0  0  0  0  0  0  0  0  0  0  0
   -2.0972   -1.8167    1.8487 O   0  0  0  0  0  0  0  0  0  0  0  0
   -3.1732    0.2128    1.9213 N   0  0  0  0  0  0  0  0  0  0  0  0
    2.0949    0.6178   -1.6227 H   0  0  0  0  0  0  0  0  0  0  0  0
    1.7544    0.9692    0.9513 H   0  0  0  0  0  0  0  0  0  0  0  0
    0.0798   -1.5086    0.2244 H   0  0  0  0  0  0  0  0  0  0  0  0
    0.6229   -1.1803    1.8603 H   0  0  0  0  0  0  0  0  0  0  0  0
   -1.2049    0.5973    0.1728 H   0  0  0  0  0  0  0  0  0  0  0  0
   -0.6753    1.0069    1.8067 H   0  0  0  0  0  0  0  0  0  0  0  0
   -3.0912    1.2065    1.7338 H   0  0  0  0  0  0  0  0  0  0  0  0
   -4.0506   -0.1458    2.2843 H   0  0  0  0  0  0  0  0  0  0  0  0
    2.9145   -1.4511   -0.9131 N   0  0  0  0  0  0  0  0  0  0  0  0
    4.0150   -2.3349   -1.2238 C   0  0  2  0  0  0  0  0  0  0  0  0
    4.1638   -3.3227   -0.0742 C   0  0  0  0  0  0  0  0  0  0  0  0
    3.7460   -3.0997    1.0602 O   0  0  0  0  0  0  0  0  0  0  0  0
    5.3038   -1.5580   -1.4431 C   0  0  0  0  0  0  0  0  0  0  0  0
    2.2067   -1.2937   -1.6243 H   0  0  0  0  0  0  0  0  0  0  0  0
    3.7393   -2.8746   -2.1364 H   0  0  0  0  0  0  0  0  0  0  0  0
    5.5960   -1.0107   -0.5394 H   0  0  0  0  0  0  0  0  0  0  0  0
    6.1301   -2.2264   -1.7064 H   0  0  0  0  0  0  0  0  0  0  0  0
    5.1857   -0.8273   -2.2505 H   0  0  0  0  0  0  0  0  0  0  0  0
    4.8562   -4.4643   -0.4533 N   0  0  0  0  0  0  0  0  0  0  0  0
    5.1377   -5.5454    0.4621 C   0  0  0  0  0  0  0  0  0  0  0  0
    5.1491   -4.5731   -1.4198 H   0  0  0  0  0  0  0  0  0  0  0  0
    6.1239   -5.3886    0.9234 H   0  0  0  0  0  0  0  0  0  0  0  0
    4.3664   -5.5722    1.2460 H   0  0  0  0  0  0  0  0  0  0  0  0
    5.1368   -6.4992   -0.0859 H   0  0  0  0  0  0  0  0  0  0  0  0
  1  3  1  0  0  0  0
  1  7  1  0  0  0  0
  1  2  2  0  0  0  0
 22 23  1  0  0  0  0
 23 25  1  0  0  0  0
 23 24  2  0  0  0  0
 35 36  1  0  0  0  0
 36 44  1  0  0  0  0
 36 37  2  0  0  0  0
  8  9  1  0  0  0  0
  9 17  1  0  0  0  0
  9 10  2  0  0  0  0
 18 19  1  0  0  0  0
 19 34  1  0  0  0  0
 19 20  2  0  0  0  0
 35 38  1  0  0  0  0
  8 11  1  0  0  0  0
 44 45  1  0  0  0  0
 21 22  1  0  0  0  0
 18 21  1  0  0  0  0
 34 35  1  0  0  0  0
  7  8  1  0  0  0  0
 17 18  1  0  0  0  0
  3  4  1  0  0  0  0
  3  5  1  0  0  0  0
  3  6  1  0  0  0  0
 38 41  1  0  0  0  0
 38 42  1  0  0  0  0
 38 43  1  0  0  0  0
 11 14  1  0  0  0  0
 11 15  1  0  0  0  0
 11 16  1  0  0  0  0
 45 47  1  0  0  0  0
 45 48  1  0  0  0  0
 45 49  1  0  0  0  0
 22 30  1  0  0  0  0
 22 31  1  0  0  0  0
 21 28  1  0  0  0  0
 21 29  1  0  0  0  0
 35 40  1  0  0  0  0
  8 13  1  0  0  0  0
 18 27  1  0  0  0  0
 25 32  1  0  0  0  0
 25 33  1  0  0  0  0
 44 46  1  0  0  0  0
  7 12  1  0  0  0  0
 34 39  1  0  0  0  0
 17 26  1  0  0  0  0
M  END
$$$$

  -OEChem-05262214473D

 49 48  0     1  0  0  0  0  0999 V2000
   -1.9833   -0.0509   -3.3423 C   0  0  0  0  0  0  0  0  0  0  0  0
   -1.6199   -1.0613   -2.7518 O   0  0  0  0  0  0  0  0  0  0  0  0
   -3.3243   -0.0235   -3.9975 C   0  0  0  0  0  0  0  0  0  0  0  0
   -3.2886   -0.3689   -5.0432 H   0  0  0  0  0  0  0  0  0  0  0  0
   -4.0503   -0.6845   -3.4973 H   0  0  0  0  0  0  0  0  0  0  0  0
   -3.8104    0.9645   -4.0351 H   0  0  0  0  0  0  0  0  0  0  0  0
   -1.2607    1.1231   -3.4768 N   0  0  0  0  0  0  0  0  0  0  0  0
    0.0536    1.3115   -2.9213 C   0  0  2  0  0  0  0  0  0  0  0  0
    0.0266    0.8315   -1.4761 C   0  0  0  0  0  0  0  0  0  0  0  0
   -1.0065    0.7530   -0.8146 O   0  0  0  0  0  0  0  0  0  0  0  0
    0.4852    2.7674   -3.0025 C   0  0  0  0  0  0  0  0  0  0  0  0
   -1.6809    1.8924   -3.9952 H   0  0  0  0  0  0  0  0  0  0  0  0
    0.7360    0.6822   -3.5030 H   0  0  0  0  0  0  0  0  0  0  0  0
   -0.1867    3.4133   -2.4256 H   0  0  0  0  0  0  0  0  0  0  0  0
    1.4966    2.9042   -2.6056 H   0  0  0  0  0  0  0  0  0  0  0  0
    0.4754    3.1196   -4.0397 H   0  0  0  0  0  0  0  0  0  0  0  0
    1.2978    0.5411   -0.9947 N   0  0  0  0  0  0  0  0  0  0  0  0
    1.5371    0.0807    0.3489 C   0  0  2  0  0  0  0  0  0  0  0  0
    2.7763   -0.8066    0.3083 C   0  0  0  0  0  0  0  0  0  0  0  0
    3.4197   -1.1033    1.3128 O   0  0  0  0  0  0  0  0  0  0  0  0
    0.3427   -0.6970    0.9159 C   0  0  0  0  0  0  0  0  0  0  0  0
   -0.8986    0.1700    1.1357 C   0  0  0  0  0  0  0  0  0  0  0  0
   -2.0891   -0.6018    1.6739 C   0  0  0  0  0  0  0  0  0  0  0  0
   -2.0972   -1.8167    1.8487 O   0  0  0  0  0  0  0  0  0  0  0  0
   -3.1732    0.2128    1.9213 N   0  0  0  0  0  0  0  0  0  0  0  0
    2.0949    0.6178   -1.6227 H   0  0  0  0  0  0  0  0  0  0  0  0
    1.7544    0.9692    0.9513 H   0  0  0  0  0  0  0  0  0  0  0  0
    0.0798   -1.5086    0.2244 H   0  0  0  0  0  0  0  0  0  0  0  0
    0.6229   -1.1803    1.8603 H   0  0  0  0  0  0  0  0  0  0  0  0
   -1.2049    0.5973    0.1728 H   0  0  0  0  0  0  0  0  0  0  0  0
   -0.6753    1.0069    1.8067 H   0  0  0  0  0  0  0  0  0  0  0  0
   -3.0912    1.2065    1.7338 H   0  0  0  0  0  0  0  0  0  0  0  0
   -4.0506   -0.1458    2.2843 H   0  0  0  0  0  0  0  0  0  0  0  0
    3.1037   -1.1835   -0.9867 N   0  0  0  0  0  0  0  0  0  0  0  0
    4.2467   -2.0075   -1.3083 C   0  0  2  0  0  0  0  0  0  0  0  0
    4.2289   -3.2177   -0.3838 C   0  0  0  0  0  0  0  0  0  0  0  0
    3.6422   -3.2281    0.6963 O   0  0  0  0  0  0  0  0  0  0  0  0
    5.5466   -1.2317   -1.1631 C   0  0  0  0  0  0  0  0  0  0  0  0
    2.5103   -0.8641   -1.7466 H   0  0  0  0  0  0  0  0  0  0  0  0
    4.1173   -2.3371   -2.3449 H   0  0  0  0  0  0  0  0  0  0  0  0
    5.6936   -0.8931   -0.1310 H   0  0  0  0  0  0  0  0  0  0  0  0
    6.4094   -1.8488   -1.4346 H   0  0  0  0  0  0  0  0  0  0  0  0
    5.5453   -0.3453   -1.8067 H   0  0  0  0  0  0  0  0  0  0  0  0
    4.9812   -4.2699   -0.8870 N   0  0  0  0  0  0  0  0  0  0  0  0
    5.1308   -5.5252   -0.1886 C   0  0  0  0  0  0  0  0  0  0  0  0
    5.4180   -4.1802   -1.7996 H   0  0  0  0  0  0  0  0  0  0  0  0
    6.0344   -5.4914    0.4379 H   0  0  0  0  0  0  0  0  0  0  0  0
    4.2501   -5.6981    0.4473 H   0  0  0  0  0  0  0  0  0  0  0  0
    5.2217   -6.3425   -0.9192 H   0  0  0  0  0  0  0  0  0  0  0  0
  1  3  1  0  0  0  0
  1  7  1  0  0  0  0
  1  2  2  0  0  0  0
 22 23  1  0  0  0  0
 23 25  1  0  0  0  0
 23 24  2  0  0  0  0
 35 36  1  0  0  0  0
 36 44  1  0  0  0  0
 36 37  2  0  0  0  0
  8  9  1  0  0  0  0
  9 17  1  0  0  0  0
  9 10  2  0  0  0  0
 18 19  1  0  0  0  0
 19 34  1  0  0  0  0
 19 20  2  0  0  0  0
 35 38  1  0  0  0  0
  8 11  1  0  0  0  0
 44 45  1  0  0  0  0
 21 22  1  0  0  0  0
 18 21  1  0  0  0  0
 34 35  1  0  0  0  0
  7  8  1  0  0  0  0
 17 18  1  0  0  0  0
  3  4  1  0  0  0  0
  3  5  1  0  0  0  0
  3  6  1  0  0  0  0
 38 41  1  0  0  0  0
 38 42  1  0  0  0  0
 38 43  1  0  0  0  0
 11 14  1  0  0  0  0
 11 15  1  0  0  0  0
 11 16  1  0  0  0  0
 45 47  1  0  0  0  0
 45 48  1  0  0  0  0
 45 49  1  0  0  0  0
 22 30  1  0  0  0  0
 22 31  1  0  0  0  0
 21 28  1  0  0  0  0
 21 29  1  0  0  0  0
 35 40  1  0  0  0  0
  8 13  1  0  0  0  0
 18 27  1  0  0  0  0
 25 32  1  0  0  0  0
 25 33  1  0  0  0  0
 44 46  1  0  0  0  0
  7 12  1  0  0  0  0
 34 39  1  0  0  0  0
 17 26  1  0  0  0  0
M  END
$$$$

  -OEChem-05262214473D

 49 48  0     1  0  0  0  0  0999 V2000
   -1.9833   -0.0509   -3.3423 C   0  0  0  0  0  0  0  0  0  0  0  0
   -1.6199   -1.0613   -2.7518 O   0  0  0  0  0  0  0  0  0  0  0  0
   -3.3243   -0.0235   -3.9975 C   0  0  0  0  0  0  0  0  0  0  0  0
   -3.2886   -0.3689   -5.0432 H   0  0  0  0  0  0  0  0  0  0  0  0
   -4.0503   -0.6845   -3.4973 H   0  0  0  0  0  0  0  0  0  0  0  0
   -3.8104    0.9645   -4.0351 H   0  0  0  0  0  0  0  0  0  0  0  0
   -1.2607    1.1231   -3.4768 N   0  0  0  0  0  0  0  0  0  0  0  0
    0.0536    1.3115   -2.9213 C   0  0  2  0  0  0  0  0  0  0  0  0
    0.0266    0.8315   -1.4761 C   0  0  0  0  0  0  0  0  0  0  0  0
   -1.0065    0.7530   -0.8146 O   0  0  0  0  0  0  0  0  0  0  0  0
    0.4852    2.7674   -3.0025 C   0  0  0  0  0  0  0  0  0  0  0  0
   -1.6809    1.8924   -3.9952 H   0  0  0  0  0  0  0  0  0  0  0  0
    0.7360    0.6822   -3.5030 H   0  0  0  0  0  0  0  0  0  0  0  0
   -0.1867    3.4133   -2.4256 H   0  0  0  0  0  0  0  0  0  0  0  0
    1.4966    2.9042   -2.6056 H   0  0  0  0  0  0  0  0  0  0  0  0
    0.4754    3.1196   -4.0397 H   0  0  0  0  0  0  0  0  0  0  0  0
    1.2978    0.5411   -0.9947 N   0  0  0  0  0  0  0  0  0  0  0  0
    1.5371    0.0807    0.3489 C   0  0  2  0  0  0  0  0  0  0  0  0
    2.7763   -0.8066    0.3083 C   0  0  0  0  0  0  0  0  0  0  0  0
    3.2630   -1.3222    1.3125 O   0  0  0  0  0  0  0  0  0  0  0  0
    0.3427   -0.6970    0.9159 C   0  0  0  0  0  0  0  0  0  0  0  0
   -0.8986    0.1700    1.1357 C   0  0  0  0  0  0  0  0  0  0  0  0
   -2.0891   -0.6018    1.6739 C   0  0  0  0  0  0  0  0  0  0  0  0
   -2.0972   -1.8167    1.8487 O   0  0  0  0  0  0  0  0  0  0  0  0
   -3.1732    0.2128    1.9213 N   0  0  0  0  0  0  0  0  0  0  0  0
    2.0949    0.6178   -1.6227 H   0  0  0  0  0  0  0  0  0  0  0  0
    1.7544    0.9692    0.9513 H   0  0  0  0  0  0  0  0  0  0  0  0
    0.0798   -1.5086    0.2244 H   0  0  0  0  0  0  0  0  0  0  0  0
    0.6229   -1.1803    1.8603 H   0  0  0  0  0  0  0  0  0  0  0  0
   -1.2049    0.5973    0.1728 H   0  0  0  0  0  0  0  0  0  0  0  0
   -0.6753    1.0069    1.8067 H   0  0  0  0  0  0  0  0  0  0  0  0
   -3.0912    1.2065    1.7338 H   0  0  0  0  0  0  0  0  0  0  0  0
   -4.0506   -0.1458    2.2843 H   0  0  0  0  0  0  0  0  0  0  0  0
    3.2995   -0.9107   -0.9730 N   0  0  0  0  0  0  0  0  0  0  0  0
    4.4854   -1.6750   -1.2861 C   0  0  2  0  0  0  0  0  0  0  0  0
    4.3391   -3.0515   -0.6510 C   0  0  0  0  0  0  0  0  0  0  0  0
    3.5958   -3.2749    0.3022 O   0  0  0  0  0  0  0  0  0  0  0  0
    5.7412   -0.9771   -0.7875 C   0  0  0  0  0  0  0  0  0  0  0  0
    2.8249   -0.4254   -1.7287 H   0  0  0  0  0  0  0  0  0  0  0  0
    4.5175   -1.7768   -2.3764 H   0  0  0  0  0  0  0  0  0  0  0  0
    5.7271   -0.8661    0.3029 H   0  0  0  0  0  0  0  0  0  0  0  0
    6.6408   -1.5432   -1.0505 H   0  0  0  0  0  0  0  0  0  0  0  0
    5.8292    0.0244   -1.2223 H   0  0  0  0  0  0  0  0  0  0  0  0
    5.1686   -3.9917   -1.2462 N   0  0  0  0  0  0  0  0  0  0  0  0
    5.2224   -5.3688   -0.8139 C   0  0  0  0  0  0  0  0  0  0  0  0
    5.7376   -3.7227   -2.0434 H   0  0  0  0  0  0  0  0  0  0  0  0
    6.0203   -5.4880   -0.0662 H   0  0  0  0  0  0  0  0  0  0  0  0
    4.2572   -5.6510   -0.3681 H   0  0  0  0  0  0  0  0  0  0  0  0
    5.4303   -6.0165   -1.6784 H   0  0  0  0  0  0  0  0  0  0  0  0
  1  3  1  0  0  0  0
  1  7  1  0  0  0  0
  1  2  2  0  0  0  0
 22 23  1  0  0  0  0
 23 25  1  0  0  0  0
 23 24  2  0  0  0  0
 35 36  1  0  0  0  0
 36 44  1  0  0  0  0
 36 37  2  0  0  0  0
  8  9  1  0  0  0  0
  9 17  1  0  0  0  0
  9 10  2  0  0  0  0
 18 19  1  0  0  0  0
 19 34  1  0  0  0  0
 19 20  2  0  0  0  0
 35 38  1  0  0  0  0
  8 11  1  0  0  0  0
 44 45  1  0  0  0  0
 21 22  1  0  0  0  0
 18 21  1  0  0  0  0
 34 35  1  0  0  0  0
  7  8  1  0  0  0  0
 17 18  1  0  0  0  0
  3  4  1  0  0  0  0
  3  5  1  0  0  0  0
  3  6  1  0  0  0  0
 38 41  1  0  0  0  0
 38 42  1  0  0  0  0
 38 43  1  0  0  0  0
 11 14  1  0  0  0  0
 11 15  1  0  0  0  0
 11 16  1  0  0  0  0
 45 47  1  0  0  0  0
 45 48  1  0  0  0  0
 45 49  1  0  0  0  0
 22 30  1  0  0  0  0
 22 31  1  0  0  0  0
 21 28  1  0  0  0  0
 21 29  1  0  0  0  0
 35 40  1  0  0  0  0
  8 13  1  0  0  0  0
 18 27  1  0  0  0  0
 25 32  1  0  0  0  0
 25 33  1  0  0  0  0
 44 46  1  0  0  0  0
  7 12  1  0  0  0  0
 34 39  1  0  0  0  0
 17 26  1  0  0  0  0
M  END
$$$$

  -OEChem-05262214473D

 49 48  0     1  0  0  0  0  0999 V2000
   -1.9833   -0.0509   -3.3423 C   0  0  0  0  0  0  0  0  0  0  0  0
   -1.6199   -1.0613   -2.7518 O   0  0  0  0  0  0  0  0  0  0  0  0
   -3.3243   -0.0235   -3.9975 C   0  0  0  0  0  0  0  0  0  0  0  0
   -3.2886   -0.3689   -5.0432 H   0  0  0  0  0  0  0  0  0  0  0  0
   -4.0503   -0.6845   -3.4973 H   0  0  0  0  0  0  0  0  0  0  0  0
   -3.8104    0.9645   -4.0351 H   0  0  0  0  0  0  0  0  0  0  0  0
   -1.2607    1.1231   -3.4768 N   0  0  0  0  0  0  0  0  0  0  0  0
    0.0536    1.3115   -2.9213 C   0  0  2  0  0  0  0  0  0  0  0  0
    0.0266    0.8315   -1.4761 C   0  0  0  0  0  0  0  0  0  0  0  0
   -1.0065    0.7530   -0.8146 O   0  0  0  0  0  0  0  0  0  0  0  0
    0.4852    2.7674   -3.0025 C   0  0  0  0  0  0  0  0  0  0  0  0
   -1.6809    1.8924   -3.9952 H   0  0  0  0  0  0  0  0  0  0  0  0
    0.7360    0.6822   -3.5030 H   0  0  0  0  0  0  0  0  0  0  0  0
   -0.1867    3.4133   -2.4256 H   0  0  0  0  0  0  0  0  0  0  0  0
    1.4966    2.9042   -2.6056 H   0  0  0  0  0  0  0  0  0  0  0  0
    0.4754    3.1196   -4.0397 H   0  0  0  0  0  0  0  0  0  0  0  0
    1.2978    0.5411   -0.9947 N   0  0  0  0  0  0  0  0  0  0  0  0
    1.5371    0.0807    0.3489 C   0  0  2  0  0  0  0  0  0  0  0  0
    2.7763   -0.8066    0.3083 C   0  0  0  0  0  0  0  0  0  0  0  0
    3.1101   -1.5324    1.2425 O   0  0  0  0  0  0  0  0  0  0  0  0
    0.3427   -0.6970    0.9159 C   0  0  0  0  0  0  0  0  0  0  0  0
   -0.8986    0.1700    1.1357 C   0  0  0  0  0  0  0  0  0  0  0  0
   -2.0891   -0.6018    1.6739 C   0  0  0  0  0  0  0  0  0  0  0  0
   -2.0972   -1.8167    1.8487 O   0  0  0  0  0  0  0  0  0  0  0  0
   -3.1732    0.2128    1.9213 N   0  0  0  0  0  0  0  0  0  0  0  0
    2.0949    0.6178   -1.6227 H   0  0  0  0  0  0  0  0  0  0  0  0
    1.7544    0.9692    0.9513 H   0  0  0  0  0  0  0  0  0  0  0  0
    0.0798   -1.5086    0.2244 H   0  0  0  0  0  0  0  0  0  0  0  0
    0.6229   -1.1803    1.8603 H   0  0  0  0  0  0  0  0  0  0  0  0
   -1.2049    0.5973    0.1728 H   0  0  0  0  0  0  0  0  0  0  0  0
   -0.6753    1.0069    1.8067 H   0  0  0  0  0  0  0  0  0  0  0  0
   -3.0912    1.2065    1.7338 H   0  0  0  0  0  0  0  0  0  0  0  0
   -4.0506   -0.1458    2.2843 H   0  0  0  0  0  0  0  0  0  0  0  0
    3.4883   -0.6516   -0.8730 N   0  0  0  0  0  0  0  0  0  0  0  0
    4.7150   -1.3602   -1.1588 C   0  0  2  0  0  0  0  0  0  0  0  0
    4.4870   -2.8356   -0.8576 C   0  0  0  0  0  0  0  0  0  0  0  0
    3.6100   -3.2368   -0.0953 O   0  0  0  0  0  0  0  0  0  0  0  0
    5.8743   -0.8115   -0.3417 C   0  0  0  0  0  0  0  0  0  0  0  0
    3.1292   -0.0077   -1.5717 H   0  0  0  0  0  0  0  0  0  0  0  0
    4.9126   -1.2316   -2.2286 H   0  0  0  0  0  0  0  0  0  0  0  0
    5.6944   -0.9315    0.7328 H   0  0  0  0  0  0  0  0  0  0  0  0
    6.8086   -1.3304   -0.5803 H   0  0  0  0  0  0  0  0  0  0  0  0
    6.0179    0.2566   -0.5374 H   0  0  0  0  0  0  0  0  0  0  0  0
    5.4056   -3.6488   -1.5064 N   0  0  0  0  0  0  0  0  0  0  0  0
    5.4060   -5.0867   -1.3712 C   0  0  0  0  0  0  0  0  0  0  0  0
    6.0862   -3.2316   -2.1344 H   0  0  0  0  0  0  0  0  0  0  0  0
    6.0827   -5.3785   -0.5545 H   0  0  0  0  0  0  0  0  0  0  0  0
    4.3871   -5.4339   -1.1447 H   0  0  0  0  0  0  0  0  0  0  0  0
    5.7484   -5.5432   -2.3116 H   0  0  0  0  0  0  0  0  0  0  0  0
  1  3  1  0  0  0  0
  1  7  1  0  0  0  0
  1  2  2  0  0  0  0
 22 23  1  0  0  0  0
 23 25  1  0  0  0  0
 23 24  2  0  0  0  0
 35 36  1  0  0  0  0
 36 44  1  0  0  0  0
 36 37  2  0  0  0  0
  8  9  1  0  0  0  0
  9 17  1  0  0  0  0
  9 10  2  0  0  0  0
 18 19  1  0  0  0  0
 19 34  1  0  0  0  0
 19 20  2  0  0  0  0
 35 38  1  0  0  0  0
  8 11  1  0  0  0  0
 44 45  1  0  0  0  0
 21 22  1  0  0  0  0
 18 21  1  0  0  0  0
 34 35  1  0  0  0  0
  7  8  1  0  0  0  0
 17 18  1  0  0  0  0
  3  4  1  0  0  0  0
  3  5  1  0  0  0  0
  3  6  1  0  0  0  0
 38 41  1  0  0  0  0
 38 42  1  0  0  0  0
 38 43  1  0  0  0  0
 11 14  1  0  0  0  0
 11 15  1  0  0  0  0
 11 16  1  0  0  0  0
 45 47  1  0  0  0  0
 45 48  1  0  0  0  0
 45 49  1  0  0  0  0
 22 30  1  0  0  0  0
 22 31  1  0  0  0  0
 21 28  1  0  0  0  0
 21 29  1  0  0  0  0
 35 40  1  0  0  0  0
  8 13  1  0  0  0  0
 18 27  1  0  0  0  0
 25 32  1  0  0  0  0
 25 33  1  0  0  0  0
 44 46  1  0  0  0  0
  7 12  1  0  0  0  0
 34 39  1  0  0  0  0
 17 26  1  0  0  0  0
M  END
$$$$

  -OEChem-05262214473D

 49 48  0     1  0  0  0  0  0999 V2000
   -1.9833   -0.0509   -3.3423 C   0  0  0  0  0  0  0  0  0  0  0  0
   -1.6199   -1.0613   -2.7518 O   0  0  0  0  0  0  0  0  0  0  0  0
   -3.3243   -0.0235   -3.9975 C   0  0  0  0  0  0  0  0  0  0  0  0
   -3.2886   -0.3689   -5.0432 H   0  0  0  0  0  0  0  0  0  0  0  0
   -4.0503   -0.6845   -3.4973 H   0  0  0  0  0  0  0  0  0  0  0  0
   -3.8104    0.9645   -4.0351 H   0  0  0  0  0  0  0  0  0  0  0  0
   -1.2607    1.1231   -3.4768 N   0  0  0  0  0  0  0  0  0  0  0  0
    0.0536    1.3115   -2.9213 C   0  0  2  0  0  0  0  0  0  0  0  0
    0.0266    0.8315   -1.4761 C   0  0  0  0  0  0  0  0  0  0  0  0
   -1.0065    0.7530   -0.8146 O   0  0  0  0  0  0  0  0  0  0  0  0
    0.4852    2.7674   -3.0025 C   0  0  0  0  0  0  0  0  0  0  0  0
   -1.6809    1.8924   -3.9952 H   0  0  0  0  0  0  0  0  0  0  0  0
    0.7360    0.6822   -3.5030 H   0  0  0  0  0  0  0  0  0  0  0  0
   -0.1867    3.4133   -2.4256 H   0  0  0  0  0  0  0  0  0  0  0  0
    1.4966    2.9042   -2.6056 H   0  0  0  0  0  0  0  0  0  0  0  0
    0.4754    3.1196   -4.0397 H   0  0  0  0  0  0  0  0  0  0  0  0
    1.2978    0.5411   -0.9947 N   0  0  0  0  0  0  0  0  0  0  0  0
    1.5371    0.0807    0.3489 C   0  0  2  0  0  0  0  0  0  0  0  0
    2.7763   -0.8066    0.3083 C   0  0  0  0  0  0  0  0  0  0  0  0
    2.9716   -1.7198    1.1076 O   0  0  0  0  0  0  0  0  0  0  0  0
    0.3427   -0.6970    0.9159 C   0  0  0  0  0  0  0  0  0  0  0  0
   -0.8986    0.1700    1.1357 C   0  0  0  0  0  0  0  0  0  0  0  0
   -2.0891   -0.6018    1.6739 C   0  0  0  0  0  0  0  0  0  0  0  0
   -2.0972   -1.8167    1.8487 O   0  0  0  0  0  0  0  0  0  0  0  0
   -3.1732    0.2128    1.9213 N   0  0  0  0  0  0  0  0  0  0  0  0
    2.0949    0.6178   -1.6227 H   0  0  0  0  0  0  0  0  0  0  0  0
    1.7544    0.9692    0.9513 H   0  0  0  0  0  0  0  0  0  0  0  0
    0.0798   -1.5086    0.2244 H   0  0  0  0  0  0  0  0  0  0  0  0
    0.6229   -1.1803    1.8603 H   0  0  0  0  0  0  0  0  0  0  0  0
   -1.2049    0.5973    0.1728 H   0  0  0  0  0  0  0  0  0  0  0  0
   -0.6753    1.0069    1.8067 H   0  0  0  0  0  0  0  0  0  0  0  0
   -3.0912    1.2065    1.7338 H   0  0  0  0  0  0  0  0  0  0  0  0
   -4.0506   -0.1458    2.2843 H   0  0  0  0  0  0  0  0  0  0  0  0
    3.6574   -0.4235   -0.6933 N   0  0  0  0  0  0  0  0  0  0  0  0
    4.9198   -1.0845   -0.9350 C   0  0  2  0  0  0  0  0  0  0  0  0
    4.6624   -2.5846   -0.9894 C   0  0  0  0  0  0  0  0  0  0  0  0
    3.6839   -3.1166   -0.4692 O   0  0  0  0  0  0  0  0  0  0  0  0
    5.9369   -0.7463    0.1437 C   0  0  0  0  0  0  0  0  0  0  0  0
    3.4023    0.3607   -1.2863 H   0  0  0  0  0  0  0  0  0  0  0  0
    5.2758   -0.7388   -1.9117 H   0  0  0  0  0  0  0  0  0  0  0  0
    5.5975   -1.0849    1.1294 H   0  0  0  0  0  0  0  0  0  0  0  0
    6.9013   -1.2249   -0.0562 H   0  0  0  0  0  0  0  0  0  0  0  0
    6.0986    0.3356    0.2015 H   0  0  0  0  0  0  0  0  0  0  0  0
    5.6761   -3.2644   -1.6500 N   0  0  0  0  0  0  0  0  0  0  0  0
    5.6693   -4.6984   -1.8225 C   0  0  0  0  0  0  0  0  0  0  0  0
    6.4401   -2.7405   -2.0666 H   0  0  0  0  0  0  0  0  0  0  0  0
    6.2172   -5.1705   -0.9938 H   0  0  0  0  0  0  0  0  0  0  0  0
    4.6311   -5.0618   -1.8297 H   0  0  0  0  0  0  0  0  0  0  0  0
    6.1543   -4.9551   -2.7759 H   0  0  0  0  0  0  0  0  0  0  0  0
  1  3  1  0  0  0  0
  1  7  1  0  0  0  0
  1  2  2  0  0  0  0
 22 23  1  0  0  0  0
 23 25  1  0  0  0  0
 23 24  2  0  0  0  0
 35 36  1  0  0  0  0
 36 44  1  0  0  0  0
 36 37  2  0  0  0  0
  8  9  1  0  0  0  0
  9 17  1  0  0  0  0
  9 10  2  0  0  0  0
 18 19  1  0  0  0  0
 19 34  1  0  0  0  0
 19 20  2  0  0  0  0
 35 38  1  0  0  0  0
  8 11  1  0  0  0  0
 44 45  1  0  0  0  0
 21 22  1  0  0  0  0
 18 21  1  0  0  0  0
 34 35  1  0  0  0  0
  7  8  1  0  0  0  0
 17 18  1  0  0  0  0
  3  4  1  0  0  0  0
  3  5  1  0  0  0  0
  3  6  1  0  0  0  0
 38 41  1  0  0  0  0
 38 42  1  0  0  0  0
 38 43  1  0  0  0  0
 11 14  1  0  0  0  0
 11 15  1  0  0  0  0
 11 16  1  0  0  0  0
 45 47  1  0  0  0  0
 45 48  1  0  0  0  0
 45 49  1  0  0  0  0
 22 30  1  0  0  0  0
 22 31  1  0  0  0  0
 21 28  1  0  0  0  0
 21 29  1  0  0  0  0
 35 40  1  0  0  0  0
  8 13  1  0  0  0  0
 18 27  1  0  0  0  0
 25 32  1  0  0  0  0
 25 33  1  0  0  0  0
 44 46  1  0  0  0  0
  7 12  1  0  0  0  0
 34 39  1  0  0  0  0
 17 26  1  0  0  0  0
M  END
$$$$

  -OEChem-05262214473D

 49 48  0     1  0  0  0  0  0999 V2000
   -1.9833   -0.0509   -3.3423 C   0  0  0  0  0  0  0  0  0  0  0  0
   -1.6199   -1.0613   -2.7518 O   0  0  0  0  0  0  0  0  0  0  0  0
   -3.3243   -0.0235   -3.9975 C   0  0  0  0  0  0  0  0  0  0  0  0
   -3.2886   -0.3689   -5.0432 H   0  0  0  0  0  0  0  0  0  0  0  0
   -4.0503   -0.6845   -3.4973 H   0  0  0  0  0  0  0  0  0  0  0  0
   -3.8104    0.9645   -4.0351 H   0  0  0  0  0  0  0  0  0  0  0  0
   -1.2607    1.1231   -3.4768 N   0  0  0  0  0  0  0  0  0  0  0  0
    0.0536    1.3115   -2.9213 C   0  0  2  0  0  0  0  0  0  0  0  0
    0.0266    0.8315   -1.4761 C   0  0  0  0  0  0  0  0  0  0  0  0
   -1.0065    0.7530   -0.8146 O   0  0  0  0  0  0  0  0  0  0  0  0
    0.4852    2.7674   -3.0025 C   0  0  0  0  0  0  0  0  0  0  0  0
   -1.6809    1.8924   -3.9952 H   0  0  0  0  0  0  0  0  0  0  0  0
    0.7360    0.6822   -3.5030 H   0  0  0  0  0  0  0  0  0  0  0  0
   -0.1867    3.4133   -2.4256 H   0  0  0  0  0  0  0  0  0  0  0  0
    1.4966    2.9042   -2.6056 H   0  0  0  0  0  0  0  0  0  0  0  0
    0.4754    3.1196   -4.0397 H   0  0  0  0  0  0  0  0  0  0  0  0
    1.2978    0.5411   -0.9947 N   0  0  0  0  0  0  0  0  0  0  0  0
    1.5371    0.0807    0.3489 C   0  0  2  0  0  0  0  0  0  0  0  0
    2.7763   -0.8066    0.3083 C   0  0  0  0  0  0  0  0  0  0  0  0
    2.8568   -1.8714    0.9171 O   0  0  0  0  0  0  0  0  0  0  0  0
    0.3427   -0.6970    0.9159 C   0  0  0  0  0  0  0  0  0  0  0  0
   -0.8986    0.1700    1.1357 C   0  0  0  0  0  0  0  0  0  0  0  0
   -2.0891   -0.6018    1.6739 C   0  0  0  0  0  0  0  0  0  0  0  0
   -2.0972   -1.8167    1.8487 O   0  0  0  0  0  0  0  0  0  0  0  0
   -3.1732    0.2128    1.9213 N   0  0  0  0  0  0  0  0  0  0  0  0
    2.0949    0.6178   -1.6227 H   0  0  0  0  0  0  0  0  0  0  0  0
    1.7544    0.9692    0.9513 H   0  0  0  0  0  0  0  0  0  0  0  0
    0.0798   -1.5086    0.2244 H   0  0  0  0  0  0  0  0  0  0  0  0
    0.6229   -1.1803    1.8603 H   0  0  0  0  0  0  0  0  0  0  0  0
   -1.2049    0.5973    0.1728 H   0  0  0  0  0  0  0  0  0  0  0  0
   -0.6753    1.0069    1.8067 H   0  0  0  0  0  0  0  0  0  0  0  0
   -3.0912    1.2065    1.7338 H   0  0  0  0  0  0  0  0  0  0  0  0
   -4.0506   -0.1458    2.2843 H   0  0  0  0  0  0  0  0  0  0  0  0
    3.7953   -0.2423   -0.4464 N   0  0  0  0  0  0  0  0  0  0  0  0
    5.0857   -0.8666   -0.6301 C   0  0  2  0  0  0  0  0  0  0  0  0
    4.8534   -2.3156   -1.0375 C   0  0  0  0  0  0  0  0  0  0  0  0
    3.8124   -2.9222   -0.7938 O   0  0  0  0  0  0  0  0  0  0  0  0
    5.9247   -0.7858    0.6357 C   0  0  0  0  0  0  0  0  0  0  0  0
    3.6256    0.6546   -0.8920 H   0  0  0  0  0  0  0  0  0  0  0  0
    5.5823   -0.3320   -1.4471 H   0  0  0  0  0  0  0  0  0  0  0  0
    5.4432   -1.3158    1.4656 H   0  0  0  0  0  0  0  0  0  0  0  0
    6.9126   -1.2339    0.4863 H   0  0  0  0  0  0  0  0  0  0  0  0
    6.0658    0.2558    0.9439 H   0  0  0  0  0  0  0  0  0  0  0  0
    5.9616   -2.8648   -1.6670 N   0  0  0  0  0  0  0  0  0  0  0  0
    5.9943   -4.2301   -2.1371 C   0  0  0  0  0  0  0  0  0  0  0  0
    6.7750   -2.2829   -1.8444 H   0  0  0  0  0  0  0  0  0  0  0  0
    6.4148   -4.8781   -1.3540 H   0  0  0  0  0  0  0  0  0  0  0  0
    4.9725   -4.5600   -2.3763 H   0  0  0  0  0  0  0  0  0  0  0  0
    6.6203   -4.2922   -3.0395 H   0  0  0  0  0  0  0  0  0  0  0  0
  1  3  1  0  0  0  0
  1  7  1  0  0  0  0
  1  2  2  0  0  0  0
 22 23  1  0  0  0  0
 23 25  1  0  0  0  0
 23 24  2  0  0  0  0
 35 36  1  0  0  0  0
 36 44  1  0  0  0  0
 36 37  2  0  0  0  0
  8  9  1  0  0  0  0
  9 17  1  0  0  0  0
  9 10  2  0  0  0  0
 18 19  1  0  0  0  0
 19 34  1  0  0  0  0
 19 20  2  0  0  0  0
 35 38  1  0  0  0  0
  8 11  1  0  0  0  0
 44 45  1  0  0  0  0
 21 22  1  0  0  0  0
 18 21  1  0  0  0  0
 34 35  1  0  0  0  0
  7  8  1  0  0  0  0
 17 18  1  0  0  0  0
  3  4  1  0  0  0  0
  3  5  1  0  0  0  0
  3  6  1  0  0  0  0
 38 41  1  0  0  0  0
 38 42  1  0  0  0  0
 38 43  1  0  0  0  0
 11 14  1  0  0  0  0
 11 15  1  0  0  0  0
 11 16  1  0  0  0  0
 45 47  1  0  0  0  0
 45 48  1  0  0  0  0
 45 49  1  0  0  0  0
 22 30  1  0  0  0  0
 22 31  1  0  0  0  0
 21 28  1  0  0  0  0
 21 29  1  0  0  0  0
 35 40  1  0  0  0  0
  8 13  1  0  0  0  0
 18 27  1  0  0  0  0
 25 32  1  0  0  0  0
 25 33  1  0  0  0  0
 44 46  1  0  0  0  0
  7 12  1  0  0  0  0
 34 39  1  0  0  0  0
 17 26  1  0  0  0  0
M  END
$$$$

  -OEChem-05262214473D

 49 48  0     1  0  0  0  0  0999 V2000
   -1.9833   -0.0509   -3.3423 C   0  0  0  0  0  0  0  0  0  0  0  0
   -1.6199   -1.0613   -2.7518 O   0  0  0  0  0  0  0  0  0  0  0  0
   -3.3243   -0.0235   -3.9975 C   0  0  0  0  0  0  0  0  0  0  0  0
   -3.2886   -0.3689   -5.0432 H   0  0  0  0  0  0  0  0  0  0  0  0
   -4.0503   -0.6845   -3.4973 H   0  0  0  0  0  0  0  0  0  0  0  0
   -3.8104    0.9645   -4.0351 H   0  0  0  0  0  0  0  0  0  0  0  0
   -1.2607    1.1231   -3.4768 N   0  0  0  0  0  0  0  0  0  0  0  0
    0.0536    1.3115   -2.9213 C   0  0  2  0  0  0  0  0  0  0  0  0
    0.0266    0.8315   -1.4761 C   0  0  0  0  0  0  0  0  0  0  0  0
   -1.0065    0.7530   -0.8146 O   0  0  0  0  0  0  0  0  0  0  0  0
    0.4852    2.7674   -3.0025 C   0  0  0  0  0  0  0  0  0  0  0  0
   -1.6809    1.8924   -3.9952 H   0  0  0  0  0  0  0  0  0  0  0  0
    0.7360    0.6822   -3.5030 H   0  0  0  0  0  0  0  0  0  0  0  0
   -0.1867    3.4133   -2.4256 H   0  0  0  0  0  0  0  0  0  0  0  0
    1.4966    2.9042   -2.6056 H   0  0  0  0  0  0  0  0  0  0  0  0
    0.4754    3.1196   -4.0397 H   0  0  0  0  0  0  0  0  0  0  0  0
    1.2978    0.5411   -0.9947 N   0  0  0  0  0  0  0  0  0  0  0  0
    1.5371    0.0807    0.3489 C   0  0  2  0  0  0  0  0  0  0  0  0
    2.7763   -0.8066    0.3083 C   0  0  0  0  0  0  0  0  0  0  0  0
    2.7735   -1.9770    0.6838 O   0  0  0  0  0  0  0  0  0  0  0  0
    0.3427   -0.6970    0.9159 C   0  0  0  0  0  0  0  0  0  0  0  0
   -0.8986    0.1700    1.1357 C   0  0  0  0  0  0  0  0  0  0  0  0
   -2.0891   -0.6018    1.6739 C   0  0  0  0  0  0  0  0  0  0  0  0
   -2.0972   -1.8167    1.8487 O   0  0  0  0  0  0  0  0  0  0  0  0
   -3.1732    0.2128    1.9213 N   0  0  0  0  0  0  0  0  0  0  0  0
    2.0949    0.6178   -1.6227 H   0  0  0  0  0  0  0  0  0  0  0  0
    1.7544    0.9692    0.9513 H   0  0  0  0  0  0  0  0  0  0  0  0
    0.0798   -1.5086    0.2244 H   0  0  0  0  0  0  0  0  0  0  0  0
    0.6229   -1.1803    1.8603 H   0  0  0  0  0  0  0  0  0  0  0  0
   -1.2049    0.5973    0.1728 H   0  0  0  0  0  0  0  0  0  0  0  0
   -0.6753    1.0069    1.8067 H   0  0  0  0  0  0  0  0  0  0  0  0
   -3.0912    1.2065    1.7338 H   0  0  0  0  0  0  0  0  0  0  0  0
   -4.0506   -0.1458    2.2843 H   0  0  0  0  0  0  0  0  0  0  0  0
    3.8926   -0.1201   -0.1490 N   0  0  0  0  0  0  0  0  0  0  0  0
    5.2016   -0.7215   -0.2646 C   0  0  2  0  0  0  0  0  0  0  0  0
    5.0470   -2.0470   -0.9986 C   0  0  0  0  0  0  0  0  0  0  0  0
    3.9867   -2.6671   -1.0472 O   0  0  0  0  0  0  0  0  0  0  0  0
    5.8386   -0.9274    1.1009 C   0  0  0  0  0  0  0  0  0  0  0  0
    3.7840    0.8540   -0.4157 H   0  0  0  0  0  0  0  0  0  0  0  0
    5.8112   -0.0389   -0.8667 H   0  0  0  0  0  0  0  0  0  0  0  0
    5.2419   -1.6086    1.7185 H   0  0  0  0  0  0  0  0  0  0  0  0
    6.8418   -1.3567    1.0101 H   0  0  0  0  0  0  0  0  0  0  0  0
    5.9218    0.0228    1.6394 H   0  0  0  0  0  0  0  0  0  0  0  0
    6.2428   -2.4772   -1.5564 N   0  0  0  0  0  0  0  0  0  0  0  0
    6.3588   -3.7138   -2.2935 C   0  0  0  0  0  0  0  0  0  0  0  0
    7.0682   -1.8899   -1.4831 H   0  0  0  0  0  0  0  0  0  0  0  0
    6.6619   -4.5213   -1.6107 H   0  0  0  0  0  0  0  0  0  0  0  0
    5.3881   -3.9626   -2.7473 H   0  0  0  0  0  0  0  0  0  0  0  0
    7.1147   -3.5996   -3.0844 H   0  0  0  0  0  0  0  0  0  0  0  0
  1  3  1  0  0  0  0
  1  7  1  0  0  0  0
  1  2  2  0  0  0  0
 22 23  1  0  0  0  0
 23 25  1  0  0  0  0
 23 24  2  0  0  0  0
 35 36  1  0  0  0  0
 36 44  1  0  0  0  0
 36 37  2  0  0  0  0
  8  9  1  0  0  0  0
  9 17  1  0  0  0  0
  9 10  2  0  0  0  0
 18 19  1  0  0  0  0
 19 34  1  0  0  0  0
 19 20  2  0  0  0  0
 35 38  1  0  0  0  0
  8 11  1  0  0  0  0
 44 45  1  0  0  0  0
 21 22  1  0  0  0  0
 18 21  1  0  0  0  0
 34 35  1  0  0  0  0
  7  8  1  0  0  0  0
 17 18  1  0  0  0  0
  3  4  1  0  0  0  0
  3  5  1  0  0  0  0
  3  6  1  0  0  0  0
 38 41  1  0  0  0  0
 38 42  1  0  0  0  0
 38 43  1  0  0  0  0
 11 14  1  0  0  0  0
 11 15  1  0  0  0  0
 11 16  1  0  0  0  0
 45 47  1  0  0  0  0
 45 48  1  0  0  0  0
 45 49  1  0  0  0  0
 22 30  1  0  0  0  0
 22 31  1  0  0  0  0
 21 28  1  0  0  0  0
 21 29  1  0  0  0  0
 35 40  1  0  0  0  0
  8 13  1  0  0  0  0
 18 27  1  0  0  0  0
 25 32  1  0  0  0  0
 25 33  1  0  0  0  0
 44 46  1  0  0  0  0
  7 12  1  0  0  0  0
 34 39  1  0  0  0  0
 17 26  1  0  0  0  0
M  END
$$$$

  -OEChem-05262214473D

 49 48  0     1  0  0  0  0  0999 V2000
   -1.9833   -0.0509   -3.3423 C   0  0  0  0  0  0  0  0  0  0  0  0
   -1.6199   -1.0613   -2.7518 O   0  0  0  0  0  0  0  0  0  0  0  0
   -3.3243   -0.0235   -3.9975 C   0  0  0  0  0  0  0  0  0  0  0  0
   -3.2886   -0.3689   -5.0432 H   0  0  0  0  0  0  0  0  0  0  0  0
   -4.0503   -0.6845   -3.4973 H   0  0  0  0  0  0  0  0  0  0  0  0
   -3.8104    0.9645   -4.0351 H   0  0  0  0  0  0  0  0  0  0  0  0
   -1.2607    1.1231   -3.4768 N   0  0  0  0  0  0  0  0  0  0  0  0
    0.0536    1.3115   -2.9213 C   0  0  2  0  0  0  0  0  0  0  0  0
    0.0266    0.8315   -1.4761 C   0  0  0  0  0  0  0  0  0  0  0  0
   -1.0065    0.7530   -0.8146 O   0  0  0  0  0  0  0  0  0  0  0  0
    0.4852    2.7674   -3.0025 C   0  0  0  0  0  0  0  0  0  0  0  0
   -1.6809    1.8924   -3.9952 H   0  0  0  0  0  0  0  0  0  0  0  0
    0.7360    0.6822   -3.5030 H   0  0  0  0  0  0  0  0  0  0  0  0
   -0.1867    3.4133   -2.4256 H   0  0  0  0  0  0  0  0  0  0  0  0
    1.4966    2.9042   -2.6056 H   0  0  0  0  0  0  0  0  0  0  0  0
    0.4754    3.1196   -4.0397 H   0  0  0  0  0  0  0  0  0  0  0  0
    1.2978    0.5411   -0.9947 N   0  0  0  0  0  0  0  0  0  0  0  0
    1.5371    0.0807    0.3489 C   0  0  2  0  0  0  0  0  0  0  0  0
    2.7763   -0.8066    0.3083 C   0  0  0  0  0  0  0  0  0  0  0  0
    2.7275   -2.0294    0.4238 O   0  0  0  0  0  0  0  0  0  0  0  0
    0.3427   -0.6970    0.9159 C   0  0  0  0  0  0  0  0  0  0  0  0
   -0.8986    0.1700    1.1357 C   0  0  0  0  0  0  0  0  0  0  0  0
   -2.0891   -0.6018    1.6739 C   0  0  0  0  0  0  0  0  0  0  0  0
   -2.0972   -1.8167    1.8487 O   0  0  0  0  0  0  0  0  0  0  0  0
   -3.1732    0.2128    1.9213 N   0  0  0  0  0  0  0  0  0  0  0  0
    2.0949    0.6178   -1.6227 H   0  0  0  0  0  0  0  0  0  0  0  0
    1.7544    0.9692    0.9513 H   0  0  0  0  0  0  0  0  0  0  0  0
    0.0798   -1.5086    0.2244 H   0  0  0  0  0  0  0  0  0  0  0  0
    0.6229   -1.1803    1.8603 H   0  0  0  0  0  0  0  0  0  0  0  0
   -1.2049    0.5973    0.1728 H   0  0  0  0  0  0  0  0  0  0  0  0
   -0.6753    1.0069    1.8067 H   0  0  0  0  0  0  0  0  0  0  0  0
   -3.0912    1.2065    1.7338 H   0  0  0  0  0  0  0  0  0  0  0  0
   -4.0506   -0.1458    2.2843 H   0  0  0  0  0  0  0  0  0  0  0  0
    3.9425   -0.0653    0.1787 N   0  0  0  0  0  0  0  0  0  0  0  0
    5.2595   -0.6590    0.1363 C   0  0  2  0  0  0  0  0  0  0  0  0
    5.2300   -1.7970   -0.8753 C   0  0  0  0  0  0  0  0  0  0  0  0
    4.1951   -2.3686   -1.2120 O   0  0  0  0  0  0  0  0  0  0  0  0
    5.6843   -1.1614    1.5074 C   0  0  0  0  0  0  0  0  0  0  0  0
    3.8666    0.9453    0.1102 H   0  0  0  0  0  0  0  0  0  0  0  0
    5.9469    0.1205   -0.2099 H   0  0  0  0  0  0  0  0  0  0  0  0
    5.0073   -1.9431    1.8709 H   0  0  0  0  0  0  0  0  0  0  0  0
    6.6937   -1.5851    1.4795 H   0  0  0  0  0  0  0  0  0  0  0  0
    5.6763   -0.3476    2.2404 H   0  0  0  0  0  0  0  0  0  0  0  0
    6.5003   -2.1281   -1.3257 N   0  0  0  0  0  0  0  0  0  0  0  0
    6.7380   -3.1848   -2.2811 C   0  0  0  0  0  0  0  0  0  0  0  0
    7.2997   -1.5883   -1.0073 H   0  0  0  0  0  0  0  0  0  0  0  0
    6.9417   -4.1243   -1.7464 H   0  0  0  0  0  0  0  0  0  0  0  0
    5.8495   -3.3104   -2.9174 H   0  0  0  0  0  0  0  0  0  0  0  0
    7.6039   -2.9245   -2.9077 H   0  0  0  0  0  0  0  0  0  0  0  0
  1  3  1  0  0  0  0
  1  7  1  0  0  0  0
  1  2  2  0  0  0  0
 22 23  1  0  0  0  0
 23 25  1  0  0  0  0
 23 24  2  0  0  0  0
 35 36  1  0  0  0  0
 36 44  1  0  0  0  0
 36 37  2  0  0  0  0
  8  9  1  0  0  0  0
  9 17  1  0  0  0  0
  9 10  2  0  0  0  0
 18 19  1  0  0  0  0
 19 34  1  0  0  0  0
 19 20  2  0  0  0  0
 35 38  1  0  0  0  0
  8 11  1  0  0  0  0
 44 45  1  0  0  0  0
 21 22  1  0  0  0  0
 18 21  1  0  0  0  0
 34 35  1  0  0  0  0
  7  8  1  0  0  0  0
 17 18  1  0  0  0  0
  3  4  1  0  0  0  0
  3  5  1  0  0  0  0
  3  6  1  0  0  0  0
 38 41  1  0  0  0  0
 38 42  1  0  0  0  0
 38 43  1  0  0  0  0
 11 14  1  0  0  0  0
 11 15  1  0  0  0  0
 11 16  1  0  0  0  0
 45 47  1  0  0  0  0
 45 48  1  0  0  0  0
 45 49  1  0  0  0  0
 22 30  1  0  0  0  0
 22 31  1  0  0  0  0
 21 28  1  0  0  0  0
 21 29  1  0  0  0  0
 35 40  1  0  0  0  0
  8 13  1  0  0  0  0
 18 27  1  0  0  0  0
 25 32  1  0  0  0  0
 25 33  1  0  0  0  0
 44 46  1  0  0  0  0
  7 12  1  0  0  0  0
 34 39  1  0  0  0  0
 17 26  1  0  0  0  0
M  END
$$$$

  -OEChem-05262214473D

 49 48  0     1  0  0  0  0  0999 V2000
   -1.9833   -0.0509   -3.3423 C   0  0  0  0  0  0  0  0  0  0  0  0
   -1.6199   -1.0613   -2.7518 O   0  0  0  0  0  0  0  0  0  0  0  0
   -3.3243   -0.0235   -3.9975 C   0  0  0  0  0  0  0  0  0  0  0  0
   -3.2886   -0.3689   -5.0432 H   0  0  0  0  0  0  0  0  0  0  0  0
   -4.0503   -0.6845   -3.4973 H   0  0  0  0  0  0  0  0  0  0  0  0
   -3.8104    0.9645   -4.0351 H   0  0  0  0  0  0  0  0  0  0  0  0
   -1.2607    1.1231   -3.4768 N   0  0  0  0  0  0  0  0  0  0  0  0
    0.0536    1.3115   -2.9213 C   0  0  2  0  0  0  0  0  0  0  0  0
    0.0266    0.8315   -1.4761 C   0  0  0  0  0  0  0  0  0  0  0  0
   -1.0065    0.7530   -0.8146 O   0  0  0  0  0  0  0  0  0  0  0  0
    0.4852    2.7674   -3.0025 C   0  0  0  0  0  0  0  0  0  0  0  0
   -1.6809    1.8924   -3.9952 H   0  0  0  0  0  0  0  0  0  0  0  0
    0.7360    0.6822   -3.5030 H   0  0  0  0  0  0  0  0  0  0  0  0
   -0.1867    3.4133   -2.4256 H   0  0  0  0  0  0  0  0  0  0  0  0
    1.4966    2.9042   -2.6056 H   0  0  0  0  0  0  0  0  0  0  0  0
    0.4754    3.1196   -4.0397 H   0  0  0  0  0  0  0  0  0  0  0  0
    1.2978    0.5411   -0.9947 N   0  0  0  0  0  0  0  0  0  0  0  0
    1.5371    0.0807    0.3489 C   0  0  2  0  0  0  0  0  0  0  0  0
    2.7763   -0.8066    0.3083 C   0  0  0  0  0  0  0  0  0  0  0  0
    2.7219   -2.0249    0.1547 O   0  0  0  0  0  0  0  0  0  0  0  0
    0.3427   -0.6970    0.9159 C   0  0  0  0  0  0  0  0  0  0  0  0
   -0.8986    0.1700    1.1357 C   0  0  0  0  0  0  0  0  0  0  0  0
   -2.0891   -0.6018    1.6739 C   0  0  0  0  0  0  0  0  0  0  0  0
   -2.0972   -1.8167    1.8487 O   0  0  0  0  0  0  0  0  0  0  0  0
   -3.1732    0.2128    1.9213 N   0  0  0  0  0  0  0  0  0  0  0  0
    2.0949    0.6178   -1.6227 H   0  0  0  0  0  0  0  0  0  0  0  0
    1.7544    0.9692    0.9513 H   0  0  0  0  0  0  0  0  0  0  0  0
    0.0798   -1.5086    0.2244 H   0  0  0  0  0  0  0  0  0  0  0  0
    0.6229   -1.1803    1.8603 H   0  0  0  0  0  0  0  0  0  0  0  0
   -1.2049    0.5973    0.1728 H   0  0  0  0  0  0  0  0  0  0  0  0
   -0.6753    1.0069    1.8067 H   0  0  0  0  0  0  0  0  0  0  0  0
   -3.0912    1.2065    1.7338 H   0  0  0  0  0  0  0  0  0  0  0  0
   -4.0506   -0.1458    2.2843 H   0  0  0  0  0  0  0  0  0  0  0  0
    3.9418   -0.0816    0.5143 N   0  0  0  0  0  0  0  0  0  0  0  0
    5.2555   -0.6834    0.5455 C   0  0  2  0  0  0  0  0  0  0  0  0
    5.3899   -1.5828   -0.6762 C   0  0  0  0  0  0  0  0  0  0  0  0
    4.4232   -2.0470   -1.2770 O   0  0  0  0  0  0  0  0  0  0  0  0
    5.4725   -1.4720    1.8276 C   0  0  0  0  0  0  0  0  0  0  0  0
    3.8678    0.9223    0.6498 H   0  0  0  0  0  0  0  0  0  0  0  0
    5.9801    0.1354    0.4784 H   0  0  0  0  0  0  0  0  0  0  0  0
    4.7555   -2.2967    1.9124 H   0  0  0  0  0  0  0  0  0  0  0  0
    6.4783   -1.9035    1.8626 H   0  0  0  0  0  0  0  0  0  0  0  0
    5.3461   -0.8300    2.7061 H   0  0  0  0  0  0  0  0  0  0  0  0
    6.7168   -1.8411   -0.9906 N   0  0  0  0  0  0  0  0  0  0  0  0
    7.1061   -2.6790   -2.1007 C   0  0  0  0  0  0  0  0  0  0  0  0
    7.4538   -1.3987   -0.4494 H   0  0  0  0  0  0  0  0  0  0  0  0
    7.2351   -3.7142   -1.7518 H   0  0  0  0  0  0  0  0  0  0  0  0
    6.3253   -2.6478   -2.8749 H   0  0  0  0  0  0  0  0  0  0  0  0
    8.0543   -2.3130   -2.5213 H   0  0  0  0  0  0  0  0  0  0  0  0
  1  3  1  0  0  0  0
  1  7  1  0  0  0  0
  1  2  2  0  0  0  0
 22 23  1  0  0  0  0
 23 25  1  0  0  0  0
 23 24  2  0  0  0  0
 35 36  1  0  0  0  0
 36 44  1  0  0  0  0
 36 37  2  0  0  0  0
  8  9  1  0  0  0  0
  9 17  1  0  0  0  0
  9 10  2  0  0  0  0
 18 19  1  0  0  0  0
 19 34  1  0  0  0  0
 19 20  2  0  0  0  0
 35 38  1  0  0  0  0
  8 11  1  0  0  0  0
 44 45  1  0  0  0  0
 21 22  1  0  0  0  0
 18 21  1  0  0  0  0
 34 35  1  0  0  0  0
  7  8  1  0  0  0  0
 17 18  1  0  0  0  0
  3  4  1  0  0  0  0
  3  5  1  0  0  0  0
  3  6  1  0  0  0  0
 38 41  1  0  0  0  0
 38 42  1  0  0  0  0
 38 43  1  0  0  0  0
 11 14  1  0  0  0  0
 11 15  1  0  0  0  0
 11 16  1  0  0  0  0
 45 47  1  0  0  0  0
 45 48  1  0  0  0  0
 45 49  1  0  0  0  0
 22 30  1  0  0  0  0
 22 31  1  0  0  0  0
 21 28  1  0  0  0  0
 21 29  1  0  0  0  0
 35 40  1  0  0  0  0
  8 13  1  0  0  0  0
 18 27  1  0  0  0  0
 25 32  1  0  0  0  0
 25 33  1  0  0  0  0
 44 46  1  0  0  0  0
  7 12  1  0  0  0  0
 34 39  1  0  0  0  0
 17 26  1  0  0  0  0
M  END
$$$$

  -OEChem-05262214473D

 49 48  0     1  0  0  0  0  0999 V2000
   -1.9833   -0.0509   -3.3423 C   0  0  0  0  0  0  0  0  0  0  0  0
   -1.6199   -1.0613   -2.7518 O   0  0  0  0  0  0  0  0  0  0  0  0
   -3.3243   -0.0235   -3.9975 C   0  0  0  0  0  0  0  0  0  0  0  0
   -3.2886   -0.3689   -5.0432 H   0  0  0  0  0  0  0  0  0  0  0  0
   -4.0503   -0.6845   -3.4973 H   0  0  0  0  0  0  0  0  0  0  0  0
   -3.8104    0.9645   -4.0351 H   0  0  0  0  0  0  0  0  0  0  0  0
   -1.2607    1.1231   -3.4768 N   0  0  0  0  0  0  0  0  0  0  0  0
    0.0536    1.3115   -2.9213 C   0  0  2  0  0  0  0  0  0  0  0  0
    0.0266    0.8315   -1.4761 C   0  0  0  0  0  0  0  0  0  0  0  0
   -1.0065    0.7530   -0.8146 O   0  0  0  0  0  0  0  0  0  0  0  0
    0.4852    2.7674   -3.0025 C   0  0  0  0  0  0  0  0  0  0  0  0
   -1.6809    1.8924   -3.9952 H   0  0  0  0  0  0  0  0  0  0  0  0
    0.7360    0.6822   -3.5030 H   0  0  0  0  0  0  0  0  0  0  0  0
   -0.1867    3.4133   -2.4256 H   0  0  0  0  0  0  0  0  0  0  0  0
    1.4966    2.9042   -2.6056 H   0  0  0  0  0  0  0  0  0  0  0  0
    0.4754    3.1196   -4.0397 H   0  0  0  0  0  0  0  0  0  0  0  0
    1.2978    0.5411   -0.9947 N   0  0  0  0  0  0  0  0  0  0  0  0
    1.5371    0.0807    0.3489 C   0  0  2  0  0  0  0  0  0  0  0  0
    2.7763   -0.8066    0.3083 C   0  0  0  0  0  0  0  0  0  0  0  0
    2.7570   -1.9640   -0.1052 O   0  0  0  0  0  0  0  0  0  0  0  0
    0.3427   -0.6970    0.9159 C   0  0  0  0  0  0  0  0  0  0  0  0
   -0.8986    0.1700    1.1357 C   0  0  0  0  0  0  0  0  0  0  0  0
   -2.0891   -0.6018    1.6739 C   0  0  0  0  0  0  0  0  0  0  0  0
   -2.0972   -1.8167    1.8487 O   0  0  0  0  0  0  0  0  0  0  0  0
   -3.1732    0.2128    1.9213 N   0  0  0  0  0  0  0  0  0  0  0  0
    2.0949    0.6178   -1.6227 H   0  0  0  0  0  0  0  0  0  0  0  0
    1.7544    0.9692    0.9513 H   0  0  0  0  0  0  0  0  0  0  0  0
    0.0798   -1.5086    0.2244 H   0  0  0  0  0  0  0  0  0  0  0  0
    0.6229   -1.1803    1.8603 H   0  0  0  0  0  0  0  0  0  0  0  0
   -1.2049    0.5973    0.1728 H   0  0  0  0  0  0  0  0  0  0  0  0
   -0.6753    1.0069    1.8067 H   0  0  0  0  0  0  0  0  0  0  0  0
   -3.0912    1.2065    1.7338 H   0  0  0  0  0  0  0  0  0  0  0  0
   -4.0506   -0.1458    2.2843 H   0  0  0  0  0  0  0  0  0  0  0  0
    3.8905   -0.1680    0.8348 N   0  0  0  0  0  0  0  0  0  0  0  0
    5.1898   -0.7929    0.9350 C   0  0  2  0  0  0  0  0  0  0  0  0
    5.5159   -1.4189   -0.4146 C   0  0  0  0  0  0  0  0  0  0  0  0
    4.6555   -1.7243   -1.2378 O   0  0  0  0  0  0  0  0  0  0  0  0
    5.2175   -1.8378    2.0396 C   0  0  0  0  0  0  0  0  0  0  0  0
    3.7876    0.7866    1.1664 H   0  0  0  0  0  0  0  0  0  0  0  0
    5.9086    0.0048    1.1515 H   0  0  0  0  0  0  0  0  0  0  0  0
    4.5036   -2.6453    1.8402 H   0  0  0  0  0  0  0  0  0  0  0  0
    6.2103   -2.2900    2.1332 H   0  0  0  0  0  0  0  0  0  0  0  0
    4.9536   -1.3918    3.0047 H   0  0  0  0  0  0  0  0  0  0  0  0
    6.8774   -1.6359   -0.5739 N   0  0  0  0  0  0  0  0  0  0  0  0
    7.4379   -2.2309   -1.7646 C   0  0  0  0  0  0  0  0  0  0  0  0
    7.5198   -1.3340    0.1526 H   0  0  0  0  0  0  0  0  0  0  0  0
    7.5222   -3.3190   -1.6266 H   0  0  0  0  0  0  0  0  0  0  0  0
    6.7831   -2.0200   -2.6229 H   0  0  0  0  0  0  0  0  0  0  0  0
    8.4355   -1.8068   -1.9515 H   0  0  0  0  0  0  0  0  0  0  0  0
  1  3  1  0  0  0  0
  1  7  1  0  0  0  0
  1  2  2  0  0  0  0
 22 23  1  0  0  0  0
 23 25  1  0  0  0  0
 23 24  2  0  0  0  0
 35 36  1  0  0  0  0
 36 44  1  0  0  0  0
 36 37  2  0  0  0  0
  8  9  1  0  0  0  0
  9 17  1  0  0  0  0
  9 10  2  0  0  0  0
 18 19  1  0  0  0  0
 19 34  1  0  0  0  0
 19 20  2  0  0  0  0
 35 38  1  0  0  0  0
  8 11  1  0  0  0  0
 44 45  1  0  0  0  0
 21 22  1  0  0  0  0
 18 21  1  0  0  0  0
 34 35  1  0  0  0  0
  7  8  1  0  0  0  0
 17 18  1  0  0  0  0
  3  4  1  0  0  0  0
  3  5  1  0  0  0  0
  3  6  1  0  0  0  0
 38 41  1  0  0  0  0
 38 42  1  0  0  0  0
 38 43  1  0  0  0  0
 11 14  1  0  0  0  0
 11 15  1  0  0  0  0
 11 16  1  0  0  0  0
 45 47  1  0  0  0  0
 45 48  1  0  0  0  0
 45 49  1  0  0  0  0
 22 30  1  0  0  0  0
 22 31  1  0  0  0  0
 21 28  1  0  0  0  0
 21 29  1  0  0  0  0
 35 40  1  0  0  0  0
  8 13  1  0  0  0  0
 18 27  1  0  0  0  0
 25 32  1  0  0  0  0
 25 33  1  0  0  0  0
 44 46  1  0  0  0  0
  7 12  1  0  0  0  0
 34 39  1  0  0  0  0
 17 26  1  0  0  0  0
M  END
$$$$

  -OEChem-05262214473D

 49 48  0     1  0  0  0  0  0999 V2000
   -1.9833   -0.0509   -3.3423 C   0  0  0  0  0  0  0  0  0  0  0  0
   -1.6199   -1.0613   -2.7518 O   0  0  0  0  0  0  0  0  0  0  0  0
   -3.3243   -0.0235   -3.9975 C   0  0  0  0  0  0  0  0  0  0  0  0
   -3.2886   -0.3689   -5.0432 H   0  0  0  0  0  0  0  0  0  0  0  0
   -4.0503   -0.6845   -3.4973 H   0  0  0  0  0  0  0  0  0  0  0  0
   -3.8104    0.9645   -4.0351 H   0  0  0  0  0  0  0  0  0  0  0  0
   -1.2607    1.1231   -3.4768 N   0  0  0  0  0  0  0  0  0  0  0  0
    0.0536    1.3115   -2.9213 C   0  0  2  0  0  0  0  0  0  0  0  0
    0.0266    0.8315   -1.4761 C   0  0  0  0  0  0  0  0  0  0  0  0
   -1.0065    0.7530   -0.8146 O   0  0  0  0  0  0  0  0  0  0  0  0
    0.4852    2.7674   -3.0025 C   0  0  0  0  0  0  0  0  0  0  0  0
   -1.6809    1.8924   -3.9952 H   0  0  0  0  0  0  0  0  0  0  0  0
    0.7360    0.6822   -3.5030 H   0  0  0  0  0  0  0  0  0  0  0  0
   -0.1867    3.4133   -2.4256 H   0  0  0  0  0  0  0  0  0  0  0  0
    1.4966    2.9042   -2.6056 H   0  0  0  0  0  0  0  0  0  0  0  0
    0.4754    3.1196   -4.0397 H   0  0  0  0  0  0  0  0  0  0  0  0
    1.2978    0.5411   -0.9947 N   0  0  0  0  0  0  0  0  0  0  0  0
    1.5371    0.0807    0.3489 C   0  0  2  0  0  0  0  0  0  0  0  0
    2.7763   -0.8066    0.3083 C   0  0  0  0  0  0  0  0  0  0  0  0
    2.8305   -1.8507   -0.3381 O   0  0  0  0  0  0  0  0  0  0  0  0
    0.3427   -0.6970    0.9159 C   0  0  0  0  0  0  0  0  0  0  0  0
   -0.8986    0.1700    1.1357 C   0  0  0  0  0  0  0  0  0  0  0  0
   -2.0891   -0.6018    1.6739 C   0  0  0  0  0  0  0  0  0  0  0  0
   -2.0972   -1.8167    1.8487 O   0  0  0  0  0  0  0  0  0  0  0  0
   -3.1732    0.2128    1.9213 N   0  0  0  0  0  0  0  0  0  0  0  0
    2.0949    0.6178   -1.6227 H   0  0  0  0  0  0  0  0  0  0  0  0
    1.7544    0.9692    0.9513 H   0  0  0  0  0  0  0  0  0  0  0  0
    0.0798   -1.5086    0.2244 H   0  0  0  0  0  0  0  0  0  0  0  0
    0.6229   -1.1803    1.8603 H   0  0  0  0  0  0  0  0  0  0  0  0
   -1.2049    0.5973    0.1728 H   0  0  0  0  0  0  0  0  0  0  0  0
   -0.6753    1.0069    1.8067 H   0  0  0  0  0  0  0  0  0  0  0  0
   -3.0912    1.2065    1.7338 H   0  0  0  0  0  0  0  0  0  0  0  0
   -4.0506   -0.1458    2.2843 H   0  0  0  0  0  0  0  0  0  0  0  0
    3.7920   -0.3185    1.1186 N   0  0  0  0  0  0  0  0  0  0  0  0
    5.0669   -0.9803    1.2783 C   0  0  2  0  0  0  0  0  0  0  0  0
    5.5992   -1.3164   -0.1085 C   0  0  0  0  0  0  0  0  0  0  0  0
    4.8763   -1.4224   -1.0970 O   0  0  0  0  0  0  0  0  0  0  0  0
    4.9367   -2.2340    2.1291 C   0  0  0  0  0  0  0  0  0  0  0  0
    3.6313    0.5474    1.6247 H   0  0  0  0  0  0  0  0  0  0  0  0
    5.7373   -0.2625    1.7634 H   0  0  0  0  0  0  0  0  0  0  0  0
    4.2687   -2.9650    1.6591 H   0  0  0  0  0  0  0  0  0  0  0  0
    5.9081   -2.7185    2.2729 H   0  0  0  0  0  0  0  0  0  0  0  0
    4.5258   -1.9945    3.1158 H   0  0  0  0  0  0  0  0  0  0  0  0
    6.9711   -1.5264   -0.1041 N   0  0  0  0  0  0  0  0  0  0  0  0
    7.7109   -1.8711   -1.2957 C   0  0  0  0  0  0  0  0  0  0  0  0
    7.4934   -1.3986    0.7576 H   0  0  0  0  0  0  0  0  0  0  0  0
    7.7834   -2.9655   -1.3792 H   0  0  0  0  0  0  0  0  0  0  0  0
    7.1916   -1.4697   -2.1784 H   0  0  0  0  0  0  0  0  0  0  0  0
    8.7213   -1.4402   -1.2373 H   0  0  0  0  0  0  0  0  0  0  0  0
  1  3  1  0  0  0  0
  1  7  1  0  0  0  0
  1  2  2  0  0  0  0
 22 23  1  0  0  0  0
 23 25  1  0  0  0  0
 23 24  2  0  0  0  0
 35 36  1  0  0  0  0
 36 44  1  0  0  0  0
 36 37  2  0  0  0  0
  8  9  1  0  0  0  0
  9 17  1  0  0  0  0
  9 10  2  0  0  0  0
 18 19  1  0  0  0  0
 19 34  1  0  0  0  0
 19 20  2  0  0  0  0
 35 38  1  0  0  0  0
  8 11  1  0  0  0  0
 44 45  1  0  0  0  0
 21 22  1  0  0  0  0
 18 21  1  0  0  0  0
 34 35  1  0  0  0  0
  7  8  1  0  0  0  0
 17 18  1  0  0  0  0
  3  4  1  0  0  0  0
  3  5  1  0  0  0  0
  3  6  1  0  0  0  0
 38 41  1  0  0  0  0
 38 42  1  0  0  0  0
 38 43  1  0  0  0  0
 11 14  1  0  0  0  0
 11 15  1  0  0  0  0
 11 16  1  0  0  0  0
 45 47  1  0  0  0  0
 45 48  1  0  0  0  0
 45 49  1  0  0  0  0
 22 30  1  0  0  0  0
 22 31  1  0  0  0  0
 21 28  1  0  0  0  0
 21 29  1  0  0  0  0
 35 40  1  0  0  0  0
  8 13  1  0  0  0  0
 18 27  1  0  0  0  0
 25 32  1  0  0  0  0
 25 33  1  0  0  0  0
 44 46  1  0  0  0  0
  7 12  1  0  0  0  0
 34 39  1  0  0  0  0
 17 26  1  0  0  0  0
M  END
$$$$

  -OEChem-05262214473D

 49 48  0     1  0  0  0  0  0999 V2000
   -1.9833   -0.0509   -3.3423 C   0  0  0  0  0  0  0  0  0  0  0  0
   -1.6199   -1.0613   -2.7518 O   0  0  0  0  0  0  0  0  0  0  0  0
   -3.3243   -0.0235   -3.9975 C   0  0  0  0  0  0  0  0  0  0  0  0
   -3.2886   -0.3689   -5.0432 H   0  0  0  0  0  0  0  0  0  0  0  0
   -4.0503   -0.6845   -3.4973 H   0  0  0  0  0  0  0  0  0  0  0  0
   -3.8104    0.9645   -4.0351 H   0  0  0  0  0  0  0  0  0  0  0  0
   -1.2607    1.1231   -3.4768 N   0  0  0  0  0  0  0  0  0  0  0  0
    0.0536    1.3115   -2.9213 C   0  0  2  0  0  0  0  0  0  0  0  0
    0.0266    0.8315   -1.4761 C   0  0  0  0  0  0  0  0  0  0  0  0
   -1.0065    0.7530   -0.8146 O   0  0  0  0  0  0  0  0  0  0  0  0
    0.4852    2.7674   -3.0025 C   0  0  0  0  0  0  0  0  0  0  0  0
   -1.6809    1.8924   -3.9952 H   0  0  0  0  0  0  0  0  0  0  0  0
    0.7360    0.6822   -3.5030 H   0  0  0  0  0  0  0  0  0  0  0  0
   -0.1867    3.4133   -2.4256 H   0  0  0  0  0  0  0  0  0  0  0  0
    1.4966    2.9042   -2.6056 H   0  0  0  0  0  0  0  0  0  0  0  0
    0.4754    3.1196   -4.0397 H   0  0  0  0  0  0  0  0  0  0  0  0
    1.2978    0.5411   -0.9947 N   0  0  0  0  0  0  0  0  0  0  0  0
    1.5371    0.0807    0.3489 C   0  0  2  0  0  0  0  0  0  0  0  0
    2.7763   -0.8066    0.3083 C   0  0  0  0  0  0  0  0  0  0  0  0
    2.9374   -1.6928   -0.5282 O   0  0  0  0  0  0  0  0  0  0  0  0
    0.3427   -0.6970    0.9159 C   0  0  0  0  0  0  0  0  0  0  0  0
   -0.8986    0.1700    1.1357 C   0  0  0  0  0  0  0  0  0  0  0  0
   -2.0891   -0.6018    1.6739 C   0  0  0  0  0  0  0  0  0  0  0  0
   -2.0972   -1.8167    1.8487 O   0  0  0  0  0  0  0  0  0  0  0  0
   -3.1732    0.2128    1.9213 N   0  0  0  0  0  0  0  0  0  0  0  0
    2.0949    0.6178   -1.6227 H   0  0  0  0  0  0  0  0  0  0  0  0
    1.7544    0.9692    0.9513 H   0  0  0  0  0  0  0  0  0  0  0  0
    0.0798   -1.5086    0.2244 H   0  0  0  0  0  0  0  0  0  0  0  0
    0.6229   -1.1803    1.8603 H   0  0  0  0  0  0  0  0  0  0  0  0
   -1.2049    0.5973    0.1728 H   0  0  0  0  0  0  0  0  0  0  0  0
   -0.6753    1.0069    1.8067 H   0  0  0  0  0  0  0  0  0  0  0  0
   -3.0912    1.2065    1.7338 H   0  0  0  0  0  0  0  0  0  0  0  0
   -4.0506   -0.1458    2.2843 H   0  0  0  0  0  0  0  0  0  0  0  0
    3.6532   -0.5228    1.3462 N   0  0  0  0  0  0  0  0  0  0  0  0
    4.8952   -1.2326    1.5519 C   0  0  2  0  0  0  0  0  0  0  0  0
    5.6344   -1.2824    0.2213 C   0  0  0  0  0  0  0  0  0  0  0  0
    5.0704   -1.1620   -0.8643 O   0  0  0  0  0  0  0  0  0  0  0  0
    4.6493   -2.6336    2.0899 C   0  0  0  0  0  0  0  0  0  0  0  0
    3.4097    0.2209    1.9936 H   0  0  0  0  0  0  0  0  0  0  0  0
    5.4778   -0.6482    2.2724 H   0  0  0  0  0  0  0  0  0  0  0  0
    4.0669   -3.2341    1.3816 H   0  0  0  0  0  0  0  0  0  0  0  0
    5.5922   -3.1598    2.2722 H   0  0  0  0  0  0  0  0  0  0  0  0
    4.0916   -2.5971    3.0319 H   0  0  0  0  0  0  0  0  0  0  0  0
    6.9917   -1.5202    0.3869 N   0  0  0  0  0  0  0  0  0  0  0  0
    7.9064   -1.6240   -0.7260 C   0  0  0  0  0  0  0  0  0  0  0  0
    7.3763   -1.5880    1.3245 H   0  0  0  0  0  0  0  0  0  0  0  0
    8.0008   -2.6780   -1.0266 H   0  0  0  0  0  0  0  0  0  0  0  0
    7.5231   -1.0346   -1.5719 H   0  0  0  0  0  0  0  0  0  0  0  0
    8.8924   -1.2384   -0.4272 H   0  0  0  0  0  0  0  0  0  0  0  0
  1  3  1  0  0  0  0
  1  7  1  0  0  0  0
  1  2  2  0  0  0  0
 22 23  1  0  0  0  0
 23 25  1  0  0  0  0
 23 24  2  0  0  0  0
 35 36  1  0  0  0  0
 36 44  1  0  0  0  0
 36 37  2  0  0  0  0
  8  9  1  0  0  0  0
  9 17  1  0  0  0  0
  9 10  2  0  0  0  0
 18 19  1  0  0  0  0
 19 34  1  0  0  0  0
 19 20  2  0  0  0  0
 35 38  1  0  0  0  0
  8 11  1  0  0  0  0
 44 45  1  0  0  0  0
 21 22  1  0  0  0  0
 18 21  1  0  0  0  0
 34 35  1  0  0  0  0
  7  8  1  0  0  0  0
 17 18  1  0  0  0  0
  3  4  1  0  0  0  0
  3  5  1  0  0  0  0
  3  6  1  0  0  0  0
 38 41  1  0  0  0  0
 38 42  1  0  0  0  0
 38 43  1  0  0  0  0
 11 14  1  0  0  0  0
 11 15  1  0  0  0  0
 11 16  1  0  0  0  0
 45 47  1  0  0  0  0
 45 48  1  0  0  0  0
 45 49  1  0  0  0  0
 22 30  1  0  0  0  0
 22 31  1  0  0  0  0
 21 28  1  0  0  0  0
 21 29  1  0  0  0  0
 35 40  1  0  0  0  0
  8 13  1  0  0  0  0
 18 27  1  0  0  0  0
 25 32  1  0  0  0  0
 25 33  1  0  0  0  0
 44 46  1  0  0  0  0
  7 12  1  0  0  0  0
 34 39  1  0  0  0  0
 17 26  1  0  0  0  0
M  END
$$$$

  -OEChem-05262214473D

 49 48  0     1  0  0  0  0  0999 V2000
   -1.9833   -0.0509   -3.3423 C   0  0  0  0  0  0  0  0  0  0  0  0
   -1.6199   -1.0613   -2.7518 O   0  0  0  0  0  0  0  0  0  0  0  0
   -3.3243   -0.0235   -3.9975 C   0  0  0  0  0  0  0  0  0  0  0  0
   -3.2886   -0.3689   -5.0432 H   0  0  0  0  0  0  0  0  0  0  0  0
   -4.0503   -0.6845   -3.4973 H   0  0  0  0  0  0  0  0  0  0  0  0
   -3.8104    0.9645   -4.0351 H   0  0  0  0  0  0  0  0  0  0  0  0
   -1.2607    1.1231   -3.4768 N   0  0  0  0  0  0  0  0  0  0  0  0
    0.0536    1.3115   -2.9213 C   0  0  2  0  0  0  0  0  0  0  0  0
    0.0266    0.8315   -1.4761 C   0  0  0  0  0  0  0  0  0  0  0  0
   -1.0065    0.7530   -0.8146 O   0  0  0  0  0  0  0  0  0  0  0  0
    0.4852    2.7674   -3.0025 C   0  0  0  0  0  0  0  0  0  0  0  0
   -1.6809    1.8924   -3.9952 H   0  0  0  0  0  0  0  0  0  0  0  0
    0.7360    0.6822   -3.5030 H   0  0  0  0  0  0  0  0  0  0  0  0
   -0.1867    3.4133   -2.4256 H   0  0  0  0  0  0  0  0  0  0  0  0
    1.4966    2.9042   -2.6056 H   0  0  0  0  0  0  0  0  0  0  0  0
    0.4754    3.1196   -4.0397 H   0  0  0  0  0  0  0  0  0  0  0  0
    1.2978    0.5411   -0.9947 N   0  0  0  0  0  0  0  0  0  0  0  0
    1.5371    0.0807    0.3489 C   0  0  2  0  0  0  0  0  0  0  0  0
    2.7763   -0.8066    0.3083 C   0  0  0  0  0  0  0  0  0  0  0  0
    3.0703   -1.5010   -0.6624 O   0  0  0  0  0  0  0  0  0  0  0  0
    0.3427   -0.6970    0.9159 C   0  0  0  0  0  0  0  0  0  0  0  0
   -0.8986    0.1700    1.1357 C   0  0  0  0  0  0  0  0  0  0  0  0
   -2.0891   -0.6018    1.6739 C   0  0  0  0  0  0  0  0  0  0  0  0
   -2.0972   -1.8167    1.8487 O   0  0  0  0  0  0  0  0  0  0  0  0
   -3.1732    0.2128    1.9213 N   0  0  0  0  0  0  0  0  0  0  0  0
    2.0949    0.6178   -1.6227 H   0  0  0  0  0  0  0  0  0  0  0  0
    1.7544    0.9692    0.9513 H   0  0  0  0  0  0  0  0  0  0  0  0
    0.0798   -1.5086    0.2244 H   0  0  0  0  0  0  0  0  0  0  0  0
    0.6229   -1.1803    1.8603 H   0  0  0  0  0  0  0  0  0  0  0  0
   -1.2049    0.5973    0.1728 H   0  0  0  0  0  0  0  0  0  0  0  0
   -0.6753    1.0069    1.8067 H   0  0  0  0  0  0  0  0  0  0  0  0
   -3.0912    1.2065    1.7338 H   0  0  0  0  0  0  0  0  0  0  0  0
   -4.0506   -0.1458    2.2843 H   0  0  0  0  0  0  0  0  0  0  0  0
    3.4833   -0.7672    1.5021 N   0  0  0  0  0  0  0  0  0  0  0  0
    4.6864   -1.5327    1.7373 C   0  0  2  0  0  0  0  0  0  0  0  0
    5.6189   -1.3192    0.5523 C   0  0  0  0  0  0  0  0  0  0  0  0
    5.2246   -0.9607   -0.5555 O   0  0  0  0  0  0  0  0  0  0  0  0
    4.3749   -3.0094    1.9246 C   0  0  0  0  0  0  0  0  0  0  0  0
    3.1378   -0.1704    2.2478 H   0  0  0  0  0  0  0  0  0  0  0  0
    5.1478   -1.1260    2.6438 H   0  0  0  0  0  0  0  0  0  0  0  0
    3.9120   -3.4344    1.0265 H   0  0  0  0  0  0  0  0  0  0  0  0
    5.2841   -3.5836    2.1311 H   0  0  0  0  0  0  0  0  0  0  0  0
    3.6806   -3.1585    2.7587 H   0  0  0  0  0  0  0  0  0  0  0  0
    6.9376   -1.6175    0.8655 N   0  0  0  0  0  0  0  0  0  0  0  0
    8.0112   -1.5066   -0.0942 C   0  0  0  0  0  0  0  0  0  0  0  0
    7.1765   -1.8895    1.8146 H   0  0  0  0  0  0  0  0  0  0  0  0
    8.1597   -2.4759   -0.5927 H   0  0  0  0  0  0  0  0  0  0  0  0
    7.7548   -0.7441   -0.8445 H   0  0  0  0  0  0  0  0  0  0  0  0
    8.9370   -1.2150    0.4234 H   0  0  0  0  0  0  0  0  0  0  0  0
  1  3  1  0  0  0  0
  1  7  1  0  0  0  0
  1  2  2  0  0  0  0
 22 23  1  0  0  0  0
 23 25  1  0  0  0  0
 23 24  2  0  0  0  0
 35 36  1  0  0  0  0
 36 44  1  0  0  0  0
 36 37  2  0  0  0  0
  8  9  1  0  0  0  0
  9 17  1  0  0  0  0
  9 10  2  0  0  0  0
 18 19  1  0  0  0  0
 19 34  1  0  0  0  0
 19 20  2  0  0  0  0
 35 38  1  0  0  0  0
  8 11  1  0  0  0  0
 44 45  1  0  0  0  0
 21 22  1  0  0  0  0
 18 21  1  0  0  0  0
 34 35  1  0  0  0  0
  7  8  1  0  0  0  0
 17 18  1  0  0  0  0
  3  4  1  0  0  0  0
  3  5  1  0  0  0  0
  3  6  1  0  0  0  0
 38 41  1  0  0  0  0
 38 42  1  0  0  0  0
 38 43  1  0  0  0  0
 11 14  1  0  0  0  0
 11 15  1  0  0  0  0
 11 16  1  0  0  0  0
 45 47  1  0  0  0  0
 45 48  1  0  0  0  0
 45 49  1  0  0  0  0
 22 30  1  0  0  0  0
 22 31  1  0  0  0  0
 21 28  1  0  0  0  0
 21 29  1  0  0  0  0
 35 40  1  0  0  0  0
  8 13  1  0  0  0  0
 18 27  1  0  0  0  0
 25 32  1  0  0  0  0
 25 33  1  0  0  0  0
 44 46  1  0  0  0  0
  7 12  1  0  0  0  0
 34 39  1  0  0  0  0
 17 26  1  0  0  0  0
M  END
$$$$

  -OEChem-05262214473D

 49 48  0     1  0  0  0  0  0999 V2000
   -1.9833   -0.0509   -3.3423 C   0  0  0  0  0  0  0  0  0  0  0  0
   -1.6199   -1.0613   -2.7518 O   0  0  0  0  0  0  0  0  0  0  0  0
   -3.3243   -0.0235   -3.9975 C   0  0  0  0  0  0  0  0  0  0  0  0
   -3.2886   -0.3689   -5.0432 H   0  0  0  0  0  0  0  0  0  0  0  0
   -4.0503   -0.6845   -3.4973 H   0  0  0  0  0  0  0  0  0  0  0  0
   -3.8104    0.9645   -4.0351 H   0  0  0  0  0  0  0  0  0  0  0  0
   -1.2607    1.1231   -3.4768 N   0  0  0  0  0  0  0  0  0  0  0  0
    0.0536    1.3115   -2.9213 C   0  0  2  0  0  0  0  0  0  0  0  0
    0.0266    0.8315   -1.4761 C   0  0  0  0  0  0  0  0  0  0  0  0
   -1.0065    0.7530   -0.8146 O   0  0  0  0  0  0  0  0  0  0  0  0
    0.4852    2.7674   -3.0025 C   0  0  0  0  0  0  0  0  0  0  0  0
   -1.6809    1.8924   -3.9952 H   0  0  0  0  0  0  0  0  0  0  0  0
    0.7360    0.6822   -3.5030 H   0  0  0  0  0  0  0  0  0  0  0  0
   -0.1867    3.4133   -2.4256 H   0  0  0  0  0  0  0  0  0  0  0  0
    1.4966    2.9042   -2.6056 H   0  0  0  0  0  0  0  0  0  0  0  0
    0.4754    3.1196   -4.0397 H   0  0  0  0  0  0  0  0  0  0  0  0
    1.2978    0.5411   -0.9947 N   0  0  0  0  0  0  0  0  0  0  0  0
    1.5371    0.0807    0.3489 C   0  0  2  0  0  0  0  0  0  0  0  0
    2.7763   -0.8066    0.3083 C   0  0  0  0  0  0  0  0  0  0  0  0
    3.2202   -1.2884   -0.7317 O   0  0  0  0  0  0  0  0  0  0  0  0
    0.3427   -0.6970    0.9159 C   0  0  0  0  0  0  0  0  0  0  0  0
   -0.8986    0.1700    1.1357 C   0  0  0  0  0  0  0  0  0  0  0  0
   -2.0891   -0.6018    1.6739 C   0  0  0  0  0  0  0  0  0  0  0  0
   -2.0972   -1.8167    1.8487 O   0  0  0  0  0  0  0  0  0  0  0  0
   -3.1732    0.2128    1.9213 N   0  0  0  0  0  0  0  0  0  0  0  0
    2.0949    0.6178   -1.6227 H   0  0  0  0  0  0  0  0  0  0  0  0
    1.7544    0.9692    0.9513 H   0  0  0  0  0  0  0  0  0  0  0  0
    0.0798   -1.5086    0.2244 H   0  0  0  0  0  0  0  0  0  0  0  0
    0.6229   -1.1803    1.8603 H   0  0  0  0  0  0  0  0  0  0  0  0
   -1.2049    0.5973    0.1728 H   0  0  0  0  0  0  0  0  0  0  0  0
   -0.6753    1.0069    1.8067 H   0  0  0  0  0  0  0  0  0  0  0  0
   -3.0912    1.2065    1.7338 H   0  0  0  0  0  0  0  0  0  0  0  0
   -4.0506   -0.1458    2.2843 H   0  0  0  0  0  0  0  0  0  0  0  0
    3.2941   -1.0348    1.5757 N   0  0  0  0  0  0  0  0  0  0  0  0
    4.4547   -1.8601    1.8218 C   0  0  2  0  0  0  0  0  0  0  0  0
    5.5538   -1.4242    0.8619 C   0  0  0  0  0  0  0  0  0  0  0  0
    5.3285   -0.8323   -0.1916 O   0  0  0  0  0  0  0  0  0  0  0  0
    4.1321   -3.3357    1.6446 C   0  0  0  0  0  0  0  0  0  0  0  0
    2.8342   -0.6000    2.3701 H   0  0  0  0  0  0  0  0  0  0  0  0
    4.7699   -1.6635    2.8524 H   0  0  0  0  0  0  0  0  0  0  0  0
    3.8144   -3.5520    0.6181 H   0  0  0  0  0  0  0  0  0  0  0  0
    5.0048   -3.9612    1.8592 H   0  0  0  0  0  0  0  0  0  0  0  0
    3.3210   -3.6405    2.3148 H   0  0  0  0  0  0  0  0  0  0  0  0
    6.8127   -1.8119    1.2992 N   0  0  0  0  0  0  0  0  0  0  0  0
    8.0181   -1.5268    0.5565 C   0  0  0  0  0  0  0  0  0  0  0  0
    6.9077   -2.2824    2.1944 H   0  0  0  0  0  0  0  0  0  0  0  0
    8.2492   -2.3731   -0.1072 H   0  0  0  0  0  0  0  0  0  0  0  0
    7.8712   -0.6182   -0.0458 H   0  0  0  0  0  0  0  0  0  0  0  0
    8.8521   -1.3717    1.2567 H   0  0  0  0  0  0  0  0  0  0  0  0
  1  3  1  0  0  0  0
  1  7  1  0  0  0  0
  1  2  2  0  0  0  0
 22 23  1  0  0  0  0
 23 25  1  0  0  0  0
 23 24  2  0  0  0  0
 35 36  1  0  0  0  0
 36 44  1  0  0  0  0
 36 37  2  0  0  0  0
  8  9  1  0  0  0  0
  9 17  1  0  0  0  0
  9 10  2  0  0  0  0
 18 19  1  0  0  0  0
 19 34  1  0  0  0  0
 19 20  2  0  0  0  0
 35 38  1  0  0  0  0
  8 11  1  0  0  0  0
 44 45  1  0  0  0  0
 21 22  1  0  0  0  0
 18 21  1  0  0  0  0
 34 35  1  0  0  0  0
  7  8  1  0  0  0  0
 17 18  1  0  0  0  0
  3  4  1  0  0  0  0
  3  5  1  0  0  0  0
  3  6  1  0  0  0  0
 38 41  1  0  0  0  0
 38 42  1  0  0  0  0
 38 43  1  0  0  0  0
 11 14  1  0  0  0  0
 11 15  1  0  0  0  0
 11 16  1  0  0  0  0
 45 47  1  0  0  0  0
 45 48  1  0  0  0  0
 45 49  1  0  0  0  0
 22 30  1  0  0  0  0
 22 31  1  0  0  0  0
 21 28  1  0  0  0  0
 21 29  1  0  0  0  0
 35 40  1  0  0  0  0
  8 13  1  0  0  0  0
 18 27  1  0  0  0  0
 25 32  1  0  0  0  0
 25 33  1  0  0  0  0
 44 46  1  0  0  0  0
  7 12  1  0  0  0  0
 34 39  1  0  0  0  0
 17 26  1  0  0  0  0
M  END
$$$$

  -OEChem-05262214473D

 49 48  0     1  0  0  0  0  0999 V2000
   -1.9833   -0.0509   -3.3423 C   0  0  0  0  0  0  0  0  0  0  0  0
   -1.6199   -1.0613   -2.7518 O   0  0  0  0  0  0  0  0  0  0  0  0
   -3.3243   -0.0235   -3.9975 C   0  0  0  0  0  0  0  0  0  0  0  0
   -3.2886   -0.3689   -5.0432 H   0  0  0  0  0  0  0  0  0  0  0  0
   -4.0503   -0.6845   -3.4973 H   0  0  0  0  0  0  0  0  0  0  0  0
   -3.8104    0.9645   -4.0351 H   0  0  0  0  0  0  0  0  0  0  0  0
   -1.2607    1.1231   -3.4768 N   0  0  0  0  0  0  0  0  0  0  0  0
    0.0536    1.3115   -2.9213 C   0  0  2  0  0  0  0  0  0  0  0  0
    0.0266    0.8315   -1.4761 C   0  0  0  0  0  0  0  0  0  0  0  0
   -1.0065    0.7530   -0.8146 O   0  0  0  0  0  0  0  0  0  0  0  0
    0.4852    2.7674   -3.0025 C   0  0  0  0  0  0  0  0  0  0  0  0
   -1.6809    1.8924   -3.9952 H   0  0  0  0  0  0  0  0  0  0  0  0
    0.7360    0.6822   -3.5030 H   0  0  0  0  0  0  0  0  0  0  0  0
   -0.1867    3.4133   -2.4256 H   0  0  0  0  0  0  0  0  0  0  0  0
    1.4966    2.9042   -2.6056 H   0  0  0  0  0  0  0  0  0  0  0  0
    0.4754    3.1196   -4.0397 H   0  0  0  0  0  0  0  0  0  0  0  0
    1.2978    0.5411   -0.9947 N   0  0  0  0  0  0  0  0  0  0  0  0
    1.5371    0.0807    0.3489 C   0  0  2  0  0  0  0  0  0  0  0  0
    2.9543   -0.4803    0.3884 C   0  0  0  0  0  0  0  0  0  0  0  0
    3.6795   -0.5360   -0.6025 O   0  0  0  0  0  0  0  0  0  0  0  0
    0.5275   -0.9896    0.7827 C   0  0  0  0  0  0  0  0  0  0  0  0
   -0.9006   -0.4583    0.9208 C   0  0  0  0  0  0  0  0  0  0  0  0
   -1.9055   -1.5203    1.3265 C   0  0  0  0  0  0  0  0  0  0  0  0
   -1.6314   -2.7093    1.4599 O   0  0  0  0  0  0  0  0  0  0  0  0
   -3.1711   -1.0036    1.5041 N   0  0  0  0  0  0  0  0  0  0  0  0
    2.0949    0.6178   -1.6227 H   0  0  0  0  0  0  0  0  0  0  0  0
    1.4844    0.9621    0.9969 H   0  0  0  0  0  0  0  0  0  0  0  0
    0.5244   -1.8026    0.0445 H   0  0  0  0  0  0  0  0  0  0  0  0
    0.8428   -1.4412    1.7318 H   0  0  0  0  0  0  0  0  0  0  0  0
   -1.2261   -0.0662   -0.0508 H   0  0  0  0  0  0  0  0  0  0  0  0
   -0.9402    0.3709    1.6360 H   0  0  0  0  0  0  0  0  0  0  0  0
   -3.3190   -0.0106    1.3573 H   0  0  0  0  0  0  0  0  0  0  0  0
   -3.9603   -1.5808    1.7766 H   0  0  0  0  0  0  0  0  0  0  0  0
    3.2904   -0.9554    1.6485 N   0  0  0  0  0  0  0  0  0  0  0  0
    4.5678   -1.5582    1.9543 C   0  0  2  0  0  0  0  0  0  0  0  0
    5.6603   -0.6446    1.4146 C   0  0  0  0  0  0  0  0  0  0  0  0
    5.4698    0.1684    0.5125 O   0  0  0  0  0  0  0  0  0  0  0  0
    4.6797   -2.9517    1.3556 C   0  0  0  0  0  0  0  0  0  0  0  0
    2.6041   -0.8755    2.3930 H   0  0  0  0  0  0  0  0  0  0  0  0
    4.6401   -1.6093    3.0462 H   0  0  0  0  0  0  0  0  0  0  0  0
    4.6094   -2.9206    0.2622 H   0  0  0  0  0  0  0  0  0  0  0  0
    5.6365   -3.4182    1.6122 H   0  0  0  0  0  0  0  0  0  0  0  0
    3.8756   -3.5990    1.7220 H   0  0  0  0  0  0  0  0  0  0  0  0
    6.8833   -0.8740    2.0292 N   0  0  0  0  0  0  0  0  0  0  0  0
    8.0794   -0.1425    1.6825 C   0  0  0  0  0  0  0  0  0  0  0  0
    6.9450   -1.5544    2.7808 H   0  0  0  0  0  0  0  0  0  0  0  0
    8.6344   -0.6920    0.9079 H   0  0  0  0  0  0  0  0  0  0  0  0
    7.8034    0.8513    1.3001 H   0  0  0  0  0  0  0  0  0  0  0  0
    8.7115   -0.0291    2.5756 H   0  0  0  0  0  0  0  0  0  0  0  0
  1  3  1  0  0  0  0
  1  7  1  0  0  0  0
  1  2  2  0  0  0  0
 22 23  1  0  0  0  0
 23 25  1  0  0  0  0
 23 24  2  0  0  0  0
 35 36  1  0  0  0  0
 36 44  1  0  0  0  0
 36 37  2  0  0  0  0
  8  9  1  0  0  0  0
  9 17  1  0  0  0  0
  9 10  2  0  0  0  0
 18 19  1  0  0  0  0
 19 34  1  0  0  0  0
 19 20  2  0  0  0  0
 35 38  1  0  0  0  0
  8 11  1  0  0  0  0
 44 45  1  0  0  0  0
 21 22  1  0  0  0  0
 18 21  1  0  0  0  0
 34 35  1  0  0  0  0
  7  8  1  0  0  0  0
 17 18  1  0  0  0  0
  3  4  1  0  0  0  0
  3  5  1  0  0  0  0
  3  6  1  0  0  0  0
 38 41  1  0  0  0  0
 38 42  1  0  0  0  0
 38 43  1  0  0  0  0
 11 14  1  0  0  0  0
 11 15  1  0  0  0  0
 11 16  1  0  0  0  0
 45 47  1  0  0  0  0
 45 48  1  0  0  0  0
 45 49  1  0  0  0  0
 22 30  1  0  0  0  0
 22 31  1  0  0  0  0
 21 28  1  0  0  0  0
 21 29  1  0  0  0  0
 35 40  1  0  0  0  0
  8 13  1  0  0  0  0
 18 27  1  0  0  0  0
 25 32  1  0  0  0  0
 25 33  1  0  0  0  0
 44 46  1  0  0  0  0
  7 12  1  0  0  0  0
 34 39  1  0  0  0  0
 17 26  1  0  0  0  0
M  END
$$$$

  -OEChem-05262214473D

 49 48  0     1  0  0  0  0  0999 V2000
   -1.9833   -0.0509   -3.3423 C   0  0  0  0  0  0  0  0  0  0  0  0
   -1.6199   -1.0613   -2.7518 O   0  0  0  0  0  0  0  0  0  0  0  0
   -3.3243   -0.0235   -3.9975 C   0  0  0  0  0  0  0  0  0  0  0  0
   -3.2886   -0.3689   -5.0432 H   0  0  0  0  0  0  0  0  0  0  0  0
   -4.0503   -0.6845   -3.4973 H   0  0  0  0  0  0  0  0  0  0  0  0
   -3.8104    0.9645   -4.0351 H   0  0  0  0  0  0  0  0  0  0  0  0
   -1.2607    1.1231   -3.4768 N   0  0  0  0  0  0  0  0  0  0  0  0
    0.0536    1.3115   -2.9213 C   0  0  2  0  0  0  0  0  0  0  0  0
    0.0266    0.8315   -1.4761 C   0  0  0  0  0  0  0  0  0  0  0  0
   -1.0065    0.7530   -0.8146 O   0  0  0  0  0  0  0  0  0  0  0  0
    0.4852    2.7674   -3.0025 C   0  0  0  0  0  0  0  0  0  0  0  0
   -1.6809    1.8924   -3.9952 H   0  0  0  0  0  0  0  0  0  0  0  0
    0.7360    0.6822   -3.5030 H   0  0  0  0  0  0  0  0  0  0  0  0
   -0.1867    3.4133   -2.4256 H   0  0  0  0  0  0  0  0  0  0  0  0
    1.4966    2.9042   -2.6056 H   0  0  0  0  0  0  0  0  0  0  0  0
    0.4754    3.1196   -4.0397 H   0  0  0  0  0  0  0  0  0  0  0  0
    1.2978    0.5411   -0.9947 N   0  0  0  0  0  0  0  0  0  0  0  0
    1.5371    0.0807    0.3489 C   0  0  2  0  0  0  0  0  0  0  0  0
    2.9543   -0.4803    0.3884 C   0  0  0  0  0  0  0  0  0  0  0  0
    3.7707   -0.2992   -0.5125 O   0  0  0  0  0  0  0  0  0  0  0  0
    0.5275   -0.9896    0.7827 C   0  0  0  0  0  0  0  0  0  0  0  0
   -0.9006   -0.4583    0.9208 C   0  0  0  0  0  0  0  0  0  0  0  0
   -1.9055   -1.5203    1.3265 C   0  0  0  0  0  0  0  0  0  0  0  0
   -1.6314   -2.7093    1.4599 O   0  0  0  0  0  0  0  0  0  0  0  0
   -3.1711   -1.0036    1.5041 N   0  0  0  0  0  0  0  0  0  0  0  0
    2.0949    0.6178   -1.6227 H   0  0  0  0  0  0  0  0  0  0  0  0
    1.4844    0.9621    0.9969 H   0  0  0  0  0  0  0  0  0  0  0  0
    0.5244   -1.8026    0.0445 H   0  0  0  0  0  0  0  0  0  0  0  0
    0.8428   -1.4412    1.7318 H   0  0  0  0  0  0  0  0  0  0  0  0
   -1.2261   -0.0662   -0.0508 H   0  0  0  0  0  0  0  0  0  0  0  0
   -0.9402    0.3709    1.6360 H   0  0  0  0  0  0  0  0  0  0  0  0
   -3.3190   -0.0106    1.3573 H   0  0  0  0  0  0  0  0  0  0  0  0
   -3.9603   -1.5808    1.7766 H   0  0  0  0  0  0  0  0  0  0  0  0
    3.1786   -1.2466    1.5237 N   0  0  0  0  0  0  0  0  0  0  0  0
    4.4323   -1.9117    1.7970 C   0  0  2  0  0  0  0  0  0  0  0  0
    5.5538   -0.9003    1.6001 C   0  0  0  0  0  0  0  0  0  0  0  0
    5.4345    0.1070    0.9057 O   0  0  0  0  0  0  0  0  0  0  0  0
    4.6257   -3.1204    0.8947 C   0  0  0  0  0  0  0  0  0  0  0  0
    2.4238   -1.3450    2.1962 H   0  0  0  0  0  0  0  0  0  0  0  0
    4.4020   -2.2247    2.8464 H   0  0  0  0  0  0  0  0  0  0  0  0
    4.6585   -2.8265   -0.1608 H   0  0  0  0  0  0  0  0  0  0  0  0
    5.5625   -3.6397    1.1224 H   0  0  0  0  0  0  0  0  0  0  0  0
    3.8027   -3.8329    1.0159 H   0  0  0  0  0  0  0  0  0  0  0  0
    6.7174   -1.2771    2.2561 N   0  0  0  0  0  0  0  0  0  0  0  0
    7.9273   -0.4895    2.2119 C   0  0  0  0  0  0  0  0  0  0  0  0
    6.7203   -2.1188    2.8247 H   0  0  0  0  0  0  0  0  0  0  0  0
    8.5629   -0.8390    1.3850 H   0  0  0  0  0  0  0  0  0  0  0  0
    7.6704    0.5685    2.0547 H   0  0  0  0  0  0  0  0  0  0  0  0
    8.4700   -0.5977    3.1625 H   0  0  0  0  0  0  0  0  0  0  0  0
  1  3  1  0  0  0  0
  1  7  1  0  0  0  0
  1  2  2  0  0  0  0
 22 23  1  0  0  0  0
 23 25  1  0  0  0  0
 23 24  2  0  0  0  0
 35 36  1  0  0  0  0
 36 44  1  0  0  0  0
 36 37  2  0  0  0  0
  8  9  1  0  0  0  0
  9 17  1  0  0  0  0
  9 10  2  0  0  0  0
 18 19  1  0  0  0  0
 19 34  1  0  0  0  0
 19 20  2  0  0  0  0
 35 38  1  0  0  0  0
  8 11  1  0  0  0  0
 44 45  1  0  0  0  0
 21 22  1  0  0  0  0
 18 21  1  0  0  0  0
 34 35  1  0  0  0  0
  7  8  1  0  0  0  0
 17 18  1  0  0  0  0
  3  4  1  0  0  0  0
  3  5  1  0  0  0  0
  3  6  1  0  0  0  0
 38 41  1  0  0  0  0
 38 42  1  0  0  0  0
 38 43  1  0  0  0  0
 11 14  1  0  0  0  0
 11 15  1  0  0  0  0
 11 16  1  0  0  0  0
 45 47  1  0  0  0  0
 45 48  1  0  0  0  0
 45 49  1  0  0  0  0
 22 30  1  0  0  0  0
 22 31  1  0  0  0  0
 21 28  1  0  0  0  0
 21 29  1  0  0  0  0
 35 40  1  0  0  0  0
  8 13  1  0  0  0  0
 18 27  1  0  0  0  0
 25 32  1  0  0  0  0
 25 33  1  0  0  0  0
 44 46  1  0  0  0  0
  7 12  1  0  0  0  0
 34 39  1  0  0  0  0
 17 26  1  0  0  0  0
M  END
$$$$

  -OEChem-05262214473D

 49 48  0     1  0  0  0  0  0999 V2000
   -1.9833   -0.0509   -3.3423 C   0  0  0  0  0  0  0  0  0  0  0  0
   -1.6199   -1.0613   -2.7518 O   0  0  0  0  0  0  0  0  0  0  0  0
   -3.3243   -0.0235   -3.9975 C   0  0  0  0  0  0  0  0  0  0  0  0
   -3.2886   -0.3689   -5.0432 H   0  0  0  0  0  0  0  0  0  0  0  0
   -4.0503   -0.6845   -3.4973 H   0  0  0  0  0  0  0  0  0  0  0  0
   -3.8104    0.9645   -4.0351 H   0  0  0  0  0  0  0  0  0  0  0  0
   -1.2607    1.1231   -3.4768 N   0  0  0  0  0  0  0  0  0  0  0  0
    0.0536    1.3115   -2.9213 C   0  0  2  0  0  0  0  0  0  0  0  0
    0.0266    0.8315   -1.4761 C   0  0  0  0  0  0  0  0  0  0  0  0
   -1.0065    0.7530   -0.8146 O   0  0  0  0  0  0  0  0  0  0  0  0
    0.4852    2.7674   -3.0025 C   0  0  0  0  0  0  0  0  0  0  0  0
   -1.6809    1.8924   -3.9952 H   0  0  0  0  0  0  0  0  0  0  0  0
    0.7360    0.6822   -3.5030 H   0  0  0  0  0  0  0  0  0  0  0  0
   -0.1867    3.4133   -2.4256 H   0  0  0  0  0  0  0  0  0  0  0  0
    1.4966    2.9042   -2.6056 H   0  0  0  0  0  0  0  0  0  0  0  0
    0.4754    3.1196   -4.0397 H   0  0  0  0  0  0  0  0  0  0  0  0
    1.2978    0.5411   -0.9947 N   0  0  0  0  0  0  0  0  0  0  0  0
    1.5371    0.0807    0.3489 C   0  0  2  0  0  0  0  0  0  0  0  0
    2.9543   -0.4803    0.3884 C   0  0  0  0  0  0  0  0  0  0  0  0
    3.8486   -0.0916   -0.3598 O   0  0  0  0  0  0  0  0  0  0  0  0
    0.5275   -0.9896    0.7827 C   0  0  0  0  0  0  0  0  0  0  0  0
   -0.9006   -0.4583    0.9208 C   0  0  0  0  0  0  0  0  0  0  0  0
   -1.9055   -1.5203    1.3265 C   0  0  0  0  0  0  0  0  0  0  0  0
   -1.6314   -2.7093    1.4599 O   0  0  0  0  0  0  0  0  0  0  0  0
   -3.1711   -1.0036    1.5041 N   0  0  0  0  0  0  0  0  0  0  0  0
    2.0949    0.6178   -1.6227 H   0  0  0  0  0  0  0  0  0  0  0  0
    1.4844    0.9621    0.9969 H   0  0  0  0  0  0  0  0  0  0  0  0
    0.5244   -1.8026    0.0445 H   0  0  0  0  0  0  0  0  0  0  0  0
    0.8428   -1.4412    1.7318 H   0  0  0  0  0  0  0  0  0  0  0  0
   -1.2261   -0.0662   -0.0508 H   0  0  0  0  0  0  0  0  0  0  0  0
   -0.9402    0.3709    1.6360 H   0  0  0  0  0  0  0  0  0  0  0  0
   -3.3190   -0.0106    1.3573 H   0  0  0  0  0  0  0  0  0  0  0  0
   -3.9603   -1.5808    1.7766 H   0  0  0  0  0  0  0  0  0  0  0  0
    3.0844   -1.4987    1.3225 N   0  0  0  0  0  0  0  0  0  0  0  0
    4.3187   -2.2161    1.5472 C   0  0  2  0  0  0  0  0  0  0  0  0
    5.4351   -1.1927    1.7077 C   0  0  0  0  0  0  0  0  0  0  0  0
    5.3634   -0.0472    1.2674 O   0  0  0  0  0  0  0  0  0  0  0  0
    4.6186   -3.1728    0.4037 C   0  0  0  0  0  0  0  0  0  0  0  0
    2.2714   -1.7524    1.8759 H   0  0  0  0  0  0  0  0  0  0  0  0
    4.1953   -2.7725    2.4827 H   0  0  0  0  0  0  0  0  0  0  0  0
    4.7455   -2.6335   -0.5420 H   0  0  0  0  0  0  0  0  0  0  0  0
    5.5391   -3.7363    0.5889 H   0  0  0  0  0  0  0  0  0  0  0  0
    3.8010   -3.8895    0.2706 H   0  0  0  0  0  0  0  0  0  0  0  0
    6.5383   -1.7221    2.3626 N   0  0  0  0  0  0  0  0  0  0  0  0
    7.7322   -0.9531    2.6253 C   0  0  0  0  0  0  0  0  0  0  0  0
    6.5029   -2.6760    2.7099 H   0  0  0  0  0  0  0  0  0  0  0  0
    8.4494   -1.0963    1.8036 H   0  0  0  0  0  0  0  0  0  0  0  0
    7.4719    0.1129    2.7030 H   0  0  0  0  0  0  0  0  0  0  0  0
    8.1847   -1.2898    3.5697 H   0  0  0  0  0  0  0  0  0  0  0  0
  1  3  1  0  0  0  0
  1  7  1  0  0  0  0
  1  2  2  0  0  0  0
 22 23  1  0  0  0  0
 23 25  1  0  0  0  0
 23 24  2  0  0  0  0
 35 36  1  0  0  0  0
 36 44  1  0  0  0  0
 36 37  2  0  0  0  0
  8  9  1  0  0  0  0
  9 17  1  0  0  0  0
  9 10  2  0  0  0  0
 18 19  1  0  0  0  0
 19 34  1  0  0  0  0
 19 20  2  0  0  0  0
 35 38  1  0  0  0  0
  8 11  1  0  0  0  0
 44 45  1  0  0  0  0
 21 22  1  0  0  0  0
 18 21  1  0  0  0  0
 34 35  1  0  0  0  0
  7  8  1  0  0  0  0
 17 18  1  0  0  0  0
  3  4  1  0  0  0  0
  3  5  1  0  0  0  0
  3  6  1  0  0  0  0
 38 41  1  0  0  0  0
 38 42  1  0  0  0  0
 38 43  1  0  0  0  0
 11 14  1  0  0  0  0
 11 15  1  0  0  0  0
 11 16  1  0  0  0  0
 45 47  1  0  0  0  0
 45 48  1  0  0  0  0
 45 49  1  0  0  0  0
 22 30  1  0  0  0  0
 22 31  1  0  0  0  0
 21 28  1  0  0  0  0
 21 29  1  0  0  0  0
 35 40  1  0  0  0  0
  8 13  1  0  0  0  0
 18 27  1  0  0  0  0
 25 32  1  0  0  0  0
 25 33  1  0  0  0  0
 44 46  1  0  0  0  0
  7 12  1  0  0  0  0
 34 39  1  0  0  0  0
 17 26  1  0  0  0  0
M  END
$$$$

  -OEChem-05262214473D

 49 48  0     1  0  0  0  0  0999 V2000
   -1.9833   -0.0509   -3.3423 C   0  0  0  0  0  0  0  0  0  0  0  0
   -1.6199   -1.0613   -2.7518 O   0  0  0  0  0  0  0  0  0  0  0  0
   -3.3243   -0.0235   -3.9975 C   0  0  0  0  0  0  0  0  0  0  0  0
   -3.2886   -0.3689   -5.0432 H   0  0  0  0  0  0  0  0  0  0  0  0
   -4.0503   -0.6845   -3.4973 H   0  0  0  0  0  0  0  0  0  0  0  0
   -3.8104    0.9645   -4.0351 H   0  0  0  0  0  0  0  0  0  0  0  0
   -1.2607    1.1231   -3.4768 N   0  0  0  0  0  0  0  0  0  0  0  0
    0.0536    1.3115   -2.9213 C   0  0  2  0  0  0  0  0  0  0  0  0
    0.0266    0.8315   -1.4761 C   0  0  0  0  0  0  0  0  0  0  0  0
   -1.0065    0.7530   -0.8146 O   0  0  0  0  0  0  0  0  0  0  0  0
    0.4852    2.7674   -3.0025 C   0  0  0  0  0  0  0  0  0  0  0  0
   -1.6809    1.8924   -3.9952 H   0  0  0  0  0  0  0  0  0  0  0  0
    0.7360    0.6822   -3.5030 H   0  0  0  0  0  0  0  0  0  0  0  0
   -0.1867    3.4133   -2.4256 H   0  0  0  0  0  0  0  0  0  0  0  0
    1.4966    2.9042   -2.6056 H   0  0  0  0  0  0  0  0  0  0  0  0
    0.4754    3.1196   -4.0397 H   0  0  0  0  0  0  0  0  0  0  0  0
    1.2978    0.5411   -0.9947 N   0  0  0  0  0  0  0  0  0  0  0  0
    1.5371    0.0807    0.3489 C   0  0  2  0  0  0  0  0  0  0  0  0
    2.9543   -0.4803    0.3884 C   0  0  0  0  0  0  0  0  0  0  0  0
    3.9080    0.0728   -0.1551 O   0  0  0  0  0  0  0  0  0  0  0  0
    0.5275   -0.9896    0.7827 C   0  0  0  0  0  0  0  0  0  0  0  0
   -0.9006   -0.4583    0.9208 C   0  0  0  0  0  0  0  0  0  0  0  0
   -1.9055   -1.5203    1.3265 C   0  0  0  0  0  0  0  0  0  0  0  0
   -1.6314   -2.7093    1.4599 O   0  0  0  0  0  0  0  0  0  0  0  0
   -3.1711   -1.0036    1.5041 N   0  0  0  0  0  0  0  0  0  0  0  0
    2.0949    0.6178   -1.6227 H   0  0  0  0  0  0  0  0  0  0  0  0
    1.4844    0.9621    0.9969 H   0  0  0  0  0  0  0  0  0  0  0  0
    0.5244   -1.8026    0.0445 H   0  0  0  0  0  0  0  0  0  0  0  0
    0.8428   -1.4412    1.7318 H   0  0  0  0  0  0  0  0  0  0  0  0
   -1.2261   -0.0662   -0.0508 H   0  0  0  0  0  0  0  0  0  0  0  0
   -0.9402    0.3709    1.6360 H   0  0  0  0  0  0  0  0  0  0  0  0
   -3.3190   -0.0106    1.3573 H   0  0  0  0  0  0  0  0  0  0  0  0
   -3.9603   -1.5808    1.7766 H   0  0  0  0  0  0  0  0  0  0  0  0
    3.0143   -1.6943    1.0585 N   0  0  0  0  0  0  0  0  0  0  0  0
    4.2349   -2.4509    1.2218 C   0  0  2  0  0  0  0  0  0  0  0  0
    5.3121   -1.5018    1.7299 C   0  0  0  0  0  0  0  0  0  0  0  0
    5.2612   -0.2836    1.5730 O   0  0  0  0  0  0  0  0  0  0  0  0
    4.6589   -3.1054   -0.0838 C   0  0  0  0  0  0  0  0  0  0  0  0
    2.1575   -2.0698    1.4541 H   0  0  0  0  0  0  0  0  0  0  0  0
    4.0339   -3.2156    1.9799 H   0  0  0  0  0  0  0  0  0  0  0  0
    4.8646   -2.3548   -0.8556 H   0  0  0  0  0  0  0  0  0  0  0  0
    5.5680   -3.7015    0.0482 H   0  0  0  0  0  0  0  0  0  0  0  0
    3.8708   -3.7648   -0.4631 H   0  0  0  0  0  0  0  0  0  0  0  0
    6.3580   -2.1788    2.3413 N   0  0  0  0  0  0  0  0  0  0  0  0
    7.5075   -1.5016    2.8945 C   0  0  0  0  0  0  0  0  0  0  0  0
    6.3076   -3.1881    2.4442 H   0  0  0  0  0  0  0  0  0  0  0  0
    8.3016   -1.4462    2.1353 H   0  0  0  0  0  0  0  0  0  0  0  0
    7.2216   -0.4845    3.2006 H   0  0  0  0  0  0  0  0  0  0  0  0
    7.8750   -2.0581    3.7693 H   0  0  0  0  0  0  0  0  0  0  0  0
  1  3  1  0  0  0  0
  1  7  1  0  0  0  0
  1  2  2  0  0  0  0
 22 23  1  0  0  0  0
 23 25  1  0  0  0  0
 23 24  2  0  0  0  0
 35 36  1  0  0  0  0
 36 44  1  0  0  0  0
 36 37  2  0  0  0  0
  8  9  1  0  0  0  0
  9 17  1  0  0  0  0
  9 10  2  0  0  0  0
 18 19  1  0  0  0  0
 19 34  1  0  0  0  0
 19 20  2  0  0  0  0
 35 38  1  0  0  0  0
  8 11  1  0  0  0  0
 44 45  1  0  0  0  0
 21 22  1  0  0  0  0
 18 21  1  0  0  0  0
 34 35  1  0  0  0  0
  7  8  1  0  0  0  0
 17 18  1  0  0  0  0
  3  4  1  0  0  0  0
  3  5  1  0  0  0  0
  3  6  1  0  0  0  0
 38 41  1  0  0  0  0
 38 42  1  0  0  0  0
 38 43  1  0  0  0  0
 11 14  1  0  0  0  0
 11 15  1  0  0  0  0
 11 16  1  0  0  0  0
 45 47  1  0  0  0  0
 45 48  1  0  0  0  0
 45 49  1  0  0  0  0
 22 30  1  0  0  0  0
 22 31  1  0  0  0  0
 21 28  1  0  0  0  0
 21 29  1  0  0  0  0
 35 40  1  0  0  0  0
  8 13  1  0  0  0  0
 18 27  1  0  0  0  0
 25 32  1  0  0  0  0
 25 33  1  0  0  0  0
 44 46  1  0  0  0  0
  7 12  1  0  0  0  0
 34 39  1  0  0  0  0
 17 26  1  0  0  0  0
M  END
$$$$

  -OEChem-05262214473D

 49 48  0     1  0  0  0  0  0999 V2000
   -1.9833   -0.0509   -3.3423 C   0  0  0  0  0  0  0  0  0  0  0  0
   -1.6199   -1.0613   -2.7518 O   0  0  0  0  0  0  0  0  0  0  0  0
   -3.3243   -0.0235   -3.9975 C   0  0  0  0  0  0  0  0  0  0  0  0
   -3.2886   -0.3689   -5.0432 H   0  0  0  0  0  0  0  0  0  0  0  0
   -4.0503   -0.6845   -3.4973 H   0  0  0  0  0  0  0  0  0  0  0  0
   -3.8104    0.9645   -4.0351 H   0  0  0  0  0  0  0  0  0  0  0  0
   -1.2607    1.1231   -3.4768 N   0  0  0  0  0  0  0  0  0  0  0  0
    0.0536    1.3115   -2.9213 C   0  0  2  0  0  0  0  0  0  0  0  0
    0.0266    0.8315   -1.4761 C   0  0  0  0  0  0  0  0  0  0  0  0
   -1.0065    0.7530   -0.8146 O   0  0  0  0  0  0  0  0  0  0  0  0
    0.4852    2.7674   -3.0025 C   0  0  0  0  0  0  0  0  0  0  0  0
   -1.6809    1.8924   -3.9952 H   0  0  0  0  0  0  0  0  0  0  0  0
    0.7360    0.6822   -3.5030 H   0  0  0  0  0  0  0  0  0  0  0  0
   -0.1867    3.4133   -2.4256 H   0  0  0  0  0  0  0  0  0  0  0  0
    1.4966    2.9042   -2.6056 H   0  0  0  0  0  0  0  0  0  0  0  0
    0.4754    3.1196   -4.0397 H   0  0  0  0  0  0  0  0  0  0  0  0
    1.2978    0.5411   -0.9947 N   0  0  0  0  0  0  0  0  0  0  0  0
    1.5371    0.0807    0.3489 C   0  0  2  0  0  0  0  0  0  0  0  0
    2.9543   -0.4803    0.3884 C   0  0  0  0  0  0  0  0  0  0  0  0
    3.9447    0.1827    0.0879 O   0  0  0  0  0  0  0  0  0  0  0  0
    0.5275   -0.9896    0.7827 C   0  0  0  0  0  0  0  0  0  0  0  0
   -0.9006   -0.4583    0.9208 C   0  0  0  0  0  0  0  0  0  0  0  0
   -1.9055   -1.5203    1.3265 C   0  0  0  0  0  0  0  0  0  0  0  0
   -1.6314   -2.7093    1.4599 O   0  0  0  0  0  0  0  0  0  0  0  0
   -3.1711   -1.0036    1.5041 N   0  0  0  0  0  0  0  0  0  0  0  0
    2.0949    0.6178   -1.6227 H   0  0  0  0  0  0  0  0  0  0  0  0
    1.4844    0.9621    0.9969 H   0  0  0  0  0  0  0  0  0  0  0  0
    0.5244   -1.8026    0.0445 H   0  0  0  0  0  0  0  0  0  0  0  0
    0.8428   -1.4412    1.7318 H   0  0  0  0  0  0  0  0  0  0  0  0
   -1.2261   -0.0662   -0.0508 H   0  0  0  0  0  0  0  0  0  0  0  0
   -0.9402    0.3709    1.6360 H   0  0  0  0  0  0  0  0  0  0  0  0
   -3.3190   -0.0106    1.3573 H   0  0  0  0  0  0  0  0  0  0  0  0
   -3.9603   -1.5808    1.7766 H   0  0  0  0  0  0  0  0  0  0  0  0
    2.9731   -1.8203    0.7499 N   0  0  0  0  0  0  0  0  0  0  0  0
    4.1864   -2.5999    0.8430 C   0  0  2  0  0  0  0  0  0  0  0  0
    5.1933   -1.8065    1.6653 C   0  0  0  0  0  0  0  0  0  0  0  0
    5.1351   -0.5862    1.8015 O   0  0  0  0  0  0  0  0  0  0  0  0
    4.7438   -2.9228   -0.5346 C   0  0  0  0  0  0  0  0  0  0  0  0
    2.0898   -2.2758    0.9594 H   0  0  0  0  0  0  0  0  0  0  0  0
    3.9289   -3.5238    1.3723 H   0  0  0  0  0  0  0  0  0  0  0  0
    5.0076   -2.0094   -1.0800 H   0  0  0  0  0  0  0  0  0  0  0  0
    5.6471   -3.5375   -0.4630 H   0  0  0  0  0  0  0  0  0  0  0  0
    4.0073   -3.4675   -1.1352 H   0  0  0  0  0  0  0  0  0  0  0  0
    6.1891   -2.6160    2.1937 N   0  0  0  0  0  0  0  0  0  0  0  0
    7.2686   -2.0977    3.0012 C   0  0  0  0  0  0  0  0  0  0  0  0
    6.1477   -3.6201    2.0458 H   0  0  0  0  0  0  0  0  0  0  0  0
    8.1296   -1.8650    2.3574 H   0  0  0  0  0  0  0  0  0  0  0  0
    6.9363   -1.1829    3.5138 H   0  0  0  0  0  0  0  0  0  0  0  0
    7.5619   -2.8504    3.7478 H   0  0  0  0  0  0  0  0  0  0  0  0
  1  3  1  0  0  0  0
  1  7  1  0  0  0  0
  1  2  2  0  0  0  0
 22 23  1  0  0  0  0
 23 25  1  0  0  0  0
 23 24  2  0  0  0  0
 35 36  1  0  0  0  0
 36 44  1  0  0  0  0
 36 37  2  0  0  0  0
  8  9  1  0  0  0  0
  9 17  1  0  0  0  0
  9 10  2  0  0  0  0
 18 19  1  0  0  0  0
 19 34  1  0  0  0  0
 19 20  2  0  0  0  0
 35 38  1  0  0  0  0
  8 11  1  0  0  0  0
 44 45  1  0  0  0  0
 21 22  1  0  0  0  0
 18 21  1  0  0  0  0
 34 35  1  0  0  0  0
  7  8  1  0  0  0  0
 17 18  1  0  0  0  0
  3  4  1  0  0  0  0
  3  5  1  0  0  0  0
  3  6  1  0  0  0  0
 38 41  1  0  0  0  0
 38 42  1  0  0  0  0
 38 43  1  0  0  0  0
 11 14  1  0  0  0  0
 11 15  1  0  0  0  0
 11 16  1  0  0  0  0
 45 47  1  0  0  0  0
 45 48  1  0  0  0  0
 45 49  1  0  0  0  0
 22 30  1  0  0  0  0
 22 31  1  0  0  0  0
 21 28  1  0  0  0  0
 21 29  1  0  0  0  0
 35 40  1  0  0  0  0
  8 13  1  0  0  0  0
 18 27  1  0  0  0  0
 25 32  1  0  0  0  0
 25 33  1  0  0  0  0
 44 46  1  0  0  0  0
  7 12  1  0  0  0  0
 34 39  1  0  0  0  0
 17 26  1  0  0  0  0
M  END
$$$$

  -OEChem-05262214473D

 49 48  0     1  0  0  0  0  0999 V2000
   -1.9833   -0.0509   -3.3423 C   0  0  0  0  0  0  0  0  0  0  0  0
   -1.6199   -1.0613   -2.7518 O   0  0  0  0  0  0  0  0  0  0  0  0
   -3.3243   -0.0235   -3.9975 C   0  0  0  0  0  0  0  0  0  0  0  0
   -3.2886   -0.3689   -5.0432 H   0  0  0  0  0  0  0  0  0  0  0  0
   -4.0503   -0.6845   -3.4973 H   0  0  0  0  0  0  0  0  0  0  0  0
   -3.8104    0.9645   -4.0351 H   0  0  0  0  0  0  0  0  0  0  0  0
   -1.2607    1.1231   -3.4768 N   0  0  0  0  0  0  0  0  0  0  0  0
    0.0536    1.3115   -2.9213 C   0  0  2  0  0  0  0  0  0  0  0  0
    0.0266    0.8315   -1.4761 C   0  0  0  0  0  0  0  0  0  0  0  0
   -1.0065    0.7530   -0.8146 O   0  0  0  0  0  0  0  0  0  0  0  0
    0.4852    2.7674   -3.0025 C   0  0  0  0  0  0  0  0  0  0  0  0
   -1.6809    1.8924   -3.9952 H   0  0  0  0  0  0  0  0  0  0  0  0
    0.7360    0.6822   -3.5030 H   0  0  0  0  0  0  0  0  0  0  0  0
   -0.1867    3.4133   -2.4256 H   0  0  0  0  0  0  0  0  0  0  0  0
    1.4966    2.9042   -2.6056 H   0  0  0  0  0  0  0  0  0  0  0  0
    0.4754    3.1196   -4.0397 H   0  0  0  0  0  0  0  0  0  0  0  0
    1.2978    0.5411   -0.9947 N   0  0  0  0  0  0  0  0  0  0  0  0
    1.5371    0.0807    0.3489 C   0  0  2  0  0  0  0  0  0  0  0  0
    2.9543   -0.4803    0.3884 C   0  0  0  0  0  0  0  0  0  0  0  0
    3.9563    0.2307    0.3526 O   0  0  0  0  0  0  0  0  0  0  0  0
    0.5275   -0.9896    0.7827 C   0  0  0  0  0  0  0  0  0  0  0  0
   -0.9006   -0.4583    0.9208 C   0  0  0  0  0  0  0  0  0  0  0  0
   -1.9055   -1.5203    1.3265 C   0  0  0  0  0  0  0  0  0  0  0  0
   -1.6314   -2.7093    1.4599 O   0  0  0  0  0  0  0  0  0  0  0  0
   -3.1711   -1.0036    1.5041 N   0  0  0  0  0  0  0  0  0  0  0  0
    2.0949    0.6178   -1.6227 H   0  0  0  0  0  0  0  0  0  0  0  0
    1.4844    0.9621    0.9969 H   0  0  0  0  0  0  0  0  0  0  0  0
    0.5244   -1.8026    0.0445 H   0  0  0  0  0  0  0  0  0  0  0  0
    0.8428   -1.4412    1.7318 H   0  0  0  0  0  0  0  0  0  0  0  0
   -1.2261   -0.0662   -0.0508 H   0  0  0  0  0  0  0  0  0  0  0  0
   -0.9402    0.3709    1.6360 H   0  0  0  0  0  0  0  0  0  0  0  0
   -3.3190   -0.0106    1.3573 H   0  0  0  0  0  0  0  0  0  0  0  0
   -3.9603   -1.5808    1.7766 H   0  0  0  0  0  0  0  0  0  0  0  0
    2.9635   -1.8679    0.4174 N   0  0  0  0  0  0  0  0  0  0  0  0
    4.1767   -2.6531    0.4367 C   0  0  2  0  0  0  0  0  0  0  0  0
    5.0867   -2.0861    1.5183 C   0  0  0  0  0  0  0  0  0  0  0  0
    4.9935   -0.9343    1.9374 O   0  0  0  0  0  0  0  0  0  0  0  0
    4.8675   -2.6373   -0.9180 C   0  0  0  0  0  0  0  0  0  0  0  0
    2.0728   -2.3561    0.4256 H   0  0  0  0  0  0  0  0  0  0  0  0
    3.8873   -3.6759    0.7012 H   0  0  0  0  0  0  0  0  0  0  0  0
    5.1648   -1.6207   -1.2001 H   0  0  0  0  0  0  0  0  0  0  0  0
    5.7712   -3.2557   -0.9098 H   0  0  0  0  0  0  0  0  0  0  0  0
    4.2011   -3.0177   -1.6998 H   0  0  0  0  0  0  0  0  0  0  0  0
    6.0428   -3.0040    1.9299 N   0  0  0  0  0  0  0  0  0  0  0  0
    7.0316   -2.7008    2.9381 C   0  0  0  0  0  0  0  0  0  0  0  0
    6.0341   -3.9427    1.5418 H   0  0  0  0  0  0  0  0  0  0  0  0
    7.9452   -2.3242    2.4548 H   0  0  0  0  0  0  0  0  0  0  0  0
    6.6357   -1.9348    3.6211 H   0  0  0  0  0  0  0  0  0  0  0  0
    7.2669   -3.6126    3.5066 H   0  0  0  0  0  0  0  0  0  0  0  0
  1  3  1  0  0  0  0
  1  7  1  0  0  0  0
  1  2  2  0  0  0  0
 22 23  1  0  0  0  0
 23 25  1  0  0  0  0
 23 24  2  0  0  0  0
 35 36  1  0  0  0  0
 36 44  1  0  0  0  0
 36 37  2  0  0  0  0
  8  9  1  0  0  0  0
  9 17  1  0  0  0  0
  9 10  2  0  0  0  0
 18 19  1  0  0  0  0
 19 34  1  0  0  0  0
 19 20  2  0  0  0  0
 35 38  1  0  0  0  0
  8 11  1  0  0  0  0
 44 45  1  0  0  0  0
 21 22  1  0  0  0  0
 18 21  1  0  0  0  0
 34 35  1  0  0  0  0
  7  8  1  0  0  0  0
 17 18  1  0  0  0  0
  3  4  1  0  0  0  0
  3  5  1  0  0  0  0
  3  6  1  0  0  0  0
 38 41  1  0  0  0  0
 38 42  1  0  0  0  0
 38 43  1  0  0  0  0
 11 14  1  0  0  0  0
 11 15  1  0  0  0  0
 11 16  1  0  0  0  0
 45 47  1  0  0  0  0
 45 48  1  0  0  0  0
 45 49  1  0  0  0  0
 22 30  1  0  0  0  0
 22 31  1  0  0  0  0
 21 28  1  0  0  0  0
 21 29  1  0  0  0  0
 35 40  1  0  0  0  0
  8 13  1  0  0  0  0
 18 27  1  0  0  0  0
 25 32  1  0  0  0  0
 25 33  1  0  0  0  0
 44 46  1  0  0  0  0
  7 12  1  0  0  0  0
 34 39  1  0  0  0  0
 17 26  1  0  0  0  0
M  END
$$$$

  -OEChem-05262214473D

 49 48  0     1  0  0  0  0  0999 V2000
   -1.9833   -0.0509   -3.3423 C   0  0  0  0  0  0  0  0  0  0  0  0
   -1.6199   -1.0613   -2.7518 O   0  0  0  0  0  0  0  0  0  0  0  0
   -3.3243   -0.0235   -3.9975 C   0  0  0  0  0  0  0  0  0  0  0  0
   -3.2886   -0.3689   -5.0432 H   0  0  0  0  0  0  0  0  0  0  0  0
   -4.0503   -0.6845   -3.4973 H   0  0  0  0  0  0  0  0  0  0  0  0
   -3.8104    0.9645   -4.0351 H   0  0  0  0  0  0  0  0  0  0  0  0
   -1.2607    1.1231   -3.4768 N   0  0  0  0  0  0  0  0  0  0  0  0
    0.0536    1.3115   -2.9213 C   0  0  2  0  0  0  0  0  0  0  0  0
    0.0266    0.8315   -1.4761 C   0  0  0  0  0  0  0  0  0  0  0  0
   -1.0065    0.7530   -0.8146 O   0  0  0  0  0  0  0  0  0  0  0  0
    0.4852    2.7674   -3.0025 C   0  0  0  0  0  0  0  0  0  0  0  0
   -1.6809    1.8924   -3.9952 H   0  0  0  0  0  0  0  0  0  0  0  0
    0.7360    0.6822   -3.5030 H   0  0  0  0  0  0  0  0  0  0  0  0
   -0.1867    3.4133   -2.4256 H   0  0  0  0  0  0  0  0  0  0  0  0
    1.4966    2.9042   -2.6056 H   0  0  0  0  0  0  0  0  0  0  0  0
    0.4754    3.1196   -4.0397 H   0  0  0  0  0  0  0  0  0  0  0  0
    1.2978    0.5411   -0.9947 N   0  0  0  0  0  0  0  0  0  0  0  0
    1.5371    0.0807    0.3489 C   0  0  2  0  0  0  0  0  0  0  0  0
    2.9543   -0.4803    0.3884 C   0  0  0  0  0  0  0  0  0  0  0  0
    3.9420    0.2134    0.6209 O   0  0  0  0  0  0  0  0  0  0  0  0
    0.5275   -0.9896    0.7827 C   0  0  0  0  0  0  0  0  0  0  0  0
   -0.9006   -0.4583    0.9208 C   0  0  0  0  0  0  0  0  0  0  0  0
   -1.9055   -1.5203    1.3265 C   0  0  0  0  0  0  0  0  0  0  0  0
   -1.6314   -2.7093    1.4599 O   0  0  0  0  0  0  0  0  0  0  0  0
   -3.1711   -1.0036    1.5041 N   0  0  0  0  0  0  0  0  0  0  0  0
    2.0949    0.6178   -1.6227 H   0  0  0  0  0  0  0  0  0  0  0  0
    1.4844    0.9621    0.9969 H   0  0  0  0  0  0  0  0  0  0  0  0
    0.5244   -1.8026    0.0445 H   0  0  0  0  0  0  0  0  0  0  0  0
    0.8428   -1.4412    1.7318 H   0  0  0  0  0  0  0  0  0  0  0  0
   -1.2261   -0.0662   -0.0508 H   0  0  0  0  0  0  0  0  0  0  0  0
   -0.9402    0.3709    1.6360 H   0  0  0  0  0  0  0  0  0  0  0  0
   -3.3190   -0.0106    1.3573 H   0  0  0  0  0  0  0  0  0  0  0  0
   -3.9603   -1.5808    1.7766 H   0  0  0  0  0  0  0  0  0  0  0  0
    2.9862   -1.8341    0.0840 N   0  0  0  0  0  0  0  0  0  0  0  0
    4.2064   -2.6067    0.0305 C   0  0  2  0  0  0  0  0  0  0  0  0
    4.9996   -2.3215    1.2989 C   0  0  0  0  0  0  0  0  0  0  0  0
    4.8461   -1.3041    1.9715 O   0  0  0  0  0  0  0  0  0  0  0  0
    5.0216   -2.2685   -1.2080 C   0  0  0  0  0  0  0  0  0  0  0  0
    2.1079   -2.3055   -0.1110 H   0  0  0  0  0  0  0  0  0  0  0  0
    3.9121   -3.6618    0.0125 H   0  0  0  0  0  0  0  0  0  0  0  0
    5.3255   -1.2154   -1.2077 H   0  0  0  0  0  0  0  0  0  0  0  0
    5.9316   -2.8751   -1.2618 H   0  0  0  0  0  0  0  0  0  0  0  0
    4.4391   -2.4461   -2.1185 H   0  0  0  0  0  0  0  0  0  0  0  0
    5.9293   -3.3163    1.5678 N   0  0  0  0  0  0  0  0  0  0  0  0
    6.8127   -3.2697    2.7094 C   0  0  0  0  0  0  0  0  0  0  0  0
    5.9745   -4.1337    0.9666 H   0  0  0  0  0  0  0  0  0  0  0  0
    7.7608   -2.7923    2.4209 H   0  0  0  0  0  0  0  0  0  0  0  0
    6.3401   -2.6889    3.5152 H   0  0  0  0  0  0  0  0  0  0  0  0
    7.0100   -4.2928    3.0622 H   0  0  0  0  0  0  0  0  0  0  0  0
  1  3  1  0  0  0  0
  1  7  1  0  0  0  0
  1  2  2  0  0  0  0
 22 23  1  0  0  0  0
 23 25  1  0  0  0  0
 23 24  2  0  0  0  0
 35 36  1  0  0  0  0
 36 44  1  0  0  0  0
 36 37  2  0  0  0  0
  8  9  1  0  0  0  0
  9 17  1  0  0  0  0
  9 10  2  0  0  0  0
 18 19  1  0  0  0  0
 19 34  1  0  0  0  0
 19 20  2  0  0  0  0
 35 38  1  0  0  0  0
  8 11  1  0  0  0  0
 44 45  1  0  0  0  0
 21 22  1  0  0  0  0
 18 21  1  0  0  0  0
 34 35  1  0  0  0  0
  7  8  1  0  0  0  0
 17 18  1  0  0  0  0
  3  4  1  0  0  0  0
  3  5  1  0  0  0  0
  3  6  1  0  0  0  0
 38 41  1  0  0  0  0
 38 42  1  0  0  0  0
 38 43  1  0  0  0  0
 11 14  1  0  0  0  0
 11 15  1  0  0  0  0
 11 16  1  0  0  0  0
 45 47  1  0  0  0  0
 45 48  1  0  0  0  0
 45 49  1  0  0  0  0
 22 30  1  0  0  0  0
 22 31  1  0  0  0  0
 21 28  1  0  0  0  0
 21 29  1  0  0  0  0
 35 40  1  0  0  0  0
  8 13  1  0  0  0  0
 18 27  1  0  0  0  0
 25 32  1  0  0  0  0
 25 33  1  0  0  0  0
 44 46  1  0  0  0  0
  7 12  1  0  0  0  0
 34 39  1  0  0  0  0
 17 26  1  0  0  0  0
M  END
$$$$

  -OEChem-05262214473D

 49 48  0     1  0  0  0  0  0999 V2000
   -1.9833   -0.0509   -3.3423 C   0  0  0  0  0  0  0  0  0  0  0  0
   -1.6199   -1.0613   -2.7518 O   0  0  0  0  0  0  0  0  0  0  0  0
   -3.3243   -0.0235   -3.9975 C   0  0  0  0  0  0  0  0  0  0  0  0
   -3.2886   -0.3689   -5.0432 H   0  0  0  0  0  0  0  0  0  0  0  0
   -4.0503   -0.6845   -3.4973 H   0  0  0  0  0  0  0  0  0  0  0  0
   -3.8104    0.9645   -4.0351 H   0  0  0  0  0  0  0  0  0  0  0  0
   -1.2607    1.1231   -3.4768 N   0  0  0  0  0  0  0  0  0  0  0  0
    0.0536    1.3115   -2.9213 C   0  0  2  0  0  0  0  0  0  0  0  0
    0.0266    0.8315   -1.4761 C   0  0  0  0  0  0  0  0  0  0  0  0
   -1.0065    0.7530   -0.8146 O   0  0  0  0  0  0  0  0  0  0  0  0
    0.4852    2.7674   -3.0025 C   0  0  0  0  0  0  0  0  0  0  0  0
   -1.6809    1.8924   -3.9952 H   0  0  0  0  0  0  0  0  0  0  0  0
    0.7360    0.6822   -3.5030 H   0  0  0  0  0  0  0  0  0  0  0  0
   -0.1867    3.4133   -2.4256 H   0  0  0  0  0  0  0  0  0  0  0  0
    1.4966    2.9042   -2.6056 H   0  0  0  0  0  0  0  0  0  0  0  0
    0.4754    3.1196   -4.0397 H   0  0  0  0  0  0  0  0  0  0  0  0
    1.2978    0.5411   -0.9947 N   0  0  0  0  0  0  0  0  0  0  0  0
    1.5371    0.0807    0.3489 C   0  0  2  0  0  0  0  0  0  0  0  0
    2.9543   -0.4803    0.3884 C   0  0  0  0  0  0  0  0  0  0  0  0
    3.9027    0.1321    0.8745 O   0  0  0  0  0  0  0  0  0  0  0  0
    0.5275   -0.9896    0.7827 C   0  0  0  0  0  0  0  0  0  0  0  0
   -0.9006   -0.4583    0.9208 C   0  0  0  0  0  0  0  0  0  0  0  0
   -1.9055   -1.5203    1.3265 C   0  0  0  0  0  0  0  0  0  0  0  0
   -1.6314   -2.7093    1.4599 O   0  0  0  0  0  0  0  0  0  0  0  0
   -3.1711   -1.0036    1.5041 N   0  0  0  0  0  0  0  0  0  0  0  0
    2.0949    0.6178   -1.6227 H   0  0  0  0  0  0  0  0  0  0  0  0
    1.4844    0.9621    0.9969 H   0  0  0  0  0  0  0  0  0  0  0  0
    0.5244   -1.8026    0.0445 H   0  0  0  0  0  0  0  0  0  0  0  0
    0.8428   -1.4412    1.7318 H   0  0  0  0  0  0  0  0  0  0  0  0
   -1.2261   -0.0662   -0.0508 H   0  0  0  0  0  0  0  0  0  0  0  0
   -0.9402    0.3709    1.6360 H   0  0  0  0  0  0  0  0  0  0  0  0
   -3.3190   -0.0106    1.3573 H   0  0  0  0  0  0  0  0  0  0  0  0
   -3.9603   -1.5808    1.7766 H   0  0  0  0  0  0  0  0  0  0  0  0
    3.0396   -1.7210   -0.2278 N   0  0  0  0  0  0  0  0  0  0  0  0
    4.2734   -2.4640   -0.3479 C   0  0  2  0  0  0  0  0  0  0  0  0
    4.9380   -2.4967    1.0220 C   0  0  0  0  0  0  0  0  0  0  0  0
    4.7030   -1.6705    1.9014 O   0  0  0  0  0  0  0  0  0  0  0  0
    5.1956   -1.8415   -1.3846 C   0  0  0  0  0  0  0  0  0  0  0  0
    2.1924   -2.1272   -0.6138 H   0  0  0  0  0  0  0  0  0  0  0  0
    4.0016   -3.4822   -0.6470 H   0  0  0  0  0  0  0  0  0  0  0  0
    5.4787   -0.8210   -1.1021 H   0  0  0  0  0  0  0  0  0  0  0  0
    6.1176   -2.4218   -1.4949 H   0  0  0  0  0  0  0  0  0  0  0  0
    4.7050   -1.7916   -2.3627 H   0  0  0  0  0  0  0  0  0  0  0  0
    5.8563   -3.5315    1.1321 N   0  0  0  0  0  0  0  0  0  0  0  0
    6.6269   -3.7658    2.3309 C   0  0  0  0  0  0  0  0  0  0  0  0
    5.9730   -4.1803    0.3593 H   0  0  0  0  0  0  0  0  0  0  0  0
    7.5891   -3.2376    2.2580 H   0  0  0  0  0  0  0  0  0  0  0  0
    6.0698   -3.3938    3.2034 H   0  0  0  0  0  0  0  0  0  0  0  0
    6.8088   -4.8446    2.4448 H   0  0  0  0  0  0  0  0  0  0  0  0
  1  3  1  0  0  0  0
  1  7  1  0  0  0  0
  1  2  2  0  0  0  0
 22 23  1  0  0  0  0
 23 25  1  0  0  0  0
 23 24  2  0  0  0  0
 35 36  1  0  0  0  0
 36 44  1  0  0  0  0
 36 37  2  0  0  0  0
  8  9  1  0  0  0  0
  9 17  1  0  0  0  0
  9 10  2  0  0  0  0
 18 19  1  0  0  0  0
 19 34  1  0  0  0  0
 19 20  2  0  0  0  0
 35 38  1  0  0  0  0
  8 11  1  0  0  0  0
 44 45  1  0  0  0  0
 21 22  1  0  0  0  0
 18 21  1  0  0  0  0
 34 35  1  0  0  0  0
  7  8  1  0  0  0  0
 17 18  1  0  0  0  0
  3  4  1  0  0  0  0
  3  5  1  0  0  0  0
  3  6  1  0  0  0  0
 38 41  1  0  0  0  0
 38 42  1  0  0  0  0
 38 43  1  0  0  0  0
 11 14  1  0  0  0  0
 11 15  1  0  0  0  0
 11 16  1  0  0  0  0
 45 47  1  0  0  0  0
 45 48  1  0  0  0  0
 45 49  1  0  0  0  0
 22 30  1  0  0  0  0
 22 31  1  0  0  0  0
 21 28  1  0  0  0  0
 21 29  1  0  0  0  0
 35 40  1  0  0  0  0
  8 13  1  0  0  0  0
 18 27  1  0  0  0  0
 25 32  1  0  0  0  0
 25 33  1  0  0  0  0
 44 46  1  0  0  0  0
  7 12  1  0  0  0  0
 34 39  1  0  0  0  0
 17 26  1  0  0  0  0
M  END
$$$$

  -OEChem-05262214473D

 49 48  0     1  0  0  0  0  0999 V2000
   -1.9833   -0.0509   -3.3423 C   0  0  0  0  0  0  0  0  0  0  0  0
   -1.6199   -1.0613   -2.7518 O   0  0  0  0  0  0  0  0  0  0  0  0
   -3.3243   -0.0235   -3.9975 C   0  0  0  0  0  0  0  0  0  0  0  0
   -3.2886   -0.3689   -5.0432 H   0  0  0  0  0  0  0  0  0  0  0  0
   -4.0503   -0.6845   -3.4973 H   0  0  0  0  0  0  0  0  0  0  0  0
   -3.8104    0.9645   -4.0351 H   0  0  0  0  0  0  0  0  0  0  0  0
   -1.2607    1.1231   -3.4768 N   0  0  0  0  0  0  0  0  0  0  0  0
    0.0536    1.3115   -2.9213 C   0  0  2  0  0  0  0  0  0  0  0  0
    0.0266    0.8315   -1.4761 C   0  0  0  0  0  0  0  0  0  0  0  0
   -1.0065    0.7530   -0.8146 O   0  0  0  0  0  0  0  0  0  0  0  0
    0.4852    2.7674   -3.0025 C   0  0  0  0  0  0  0  0  0  0  0  0
   -1.6809    1.8924   -3.9952 H   0  0  0  0  0  0  0  0  0  0  0  0
    0.7360    0.6822   -3.5030 H   0  0  0  0  0  0  0  0  0  0  0  0
   -0.1867    3.4133   -2.4256 H   0  0  0  0  0  0  0  0  0  0  0  0
    1.4966    2.9042   -2.6056 H   0  0  0  0  0  0  0  0  0  0  0  0
    0.4754    3.1196   -4.0397 H   0  0  0  0  0  0  0  0  0  0  0  0
    1.2978    0.5411   -0.9947 N   0  0  0  0  0  0  0  0  0  0  0  0
    1.5371    0.0807    0.3489 C   0  0  2  0  0  0  0  0  0  0  0  0
    2.9543   -0.4803    0.3884 C   0  0  0  0  0  0  0  0  0  0  0  0
    3.8412   -0.0078    1.0962 O   0  0  0  0  0  0  0  0  0  0  0  0
    0.5275   -0.9896    0.7827 C   0  0  0  0  0  0  0  0  0  0  0  0
   -0.9006   -0.4583    0.9208 C   0  0  0  0  0  0  0  0  0  0  0  0
   -1.9055   -1.5203    1.3265 C   0  0  0  0  0  0  0  0  0  0  0  0
   -1.6314   -2.7093    1.4599 O   0  0  0  0  0  0  0  0  0  0  0  0
   -3.1711   -1.0036    1.5041 N   0  0  0  0  0  0  0  0  0  0  0  0
    2.0949    0.6178   -1.6227 H   0  0  0  0  0  0  0  0  0  0  0  0
    1.4844    0.9621    0.9969 H   0  0  0  0  0  0  0  0  0  0  0  0
    0.5244   -1.8026    0.0445 H   0  0  0  0  0  0  0  0  0  0  0  0
    0.8428   -1.4412    1.7318 H   0  0  0  0  0  0  0  0  0  0  0  0
   -1.2261   -0.0662   -0.0508 H   0  0  0  0  0  0  0  0  0  0  0  0
   -0.9402    0.3709    1.6360 H   0  0  0  0  0  0  0  0  0  0  0  0
   -3.3190   -0.0106    1.3573 H   0  0  0  0  0  0  0  0  0  0  0  0
   -3.9603   -1.5808    1.7766 H   0  0  0  0  0  0  0  0  0  0  0  0
    3.1202   -1.5365   -0.4967 N   0  0  0  0  0  0  0  0  0  0  0  0
    4.3732   -2.2347   -0.6727 C   0  0  2  0  0  0  0  0  0  0  0  0
    4.9060   -2.5998    0.7066 C   0  0  0  0  0  0  0  0  0  0  0  0
    4.5739   -2.0086    1.7320 O   0  0  0  0  0  0  0  0  0  0  0  0
    5.3776   -1.3854   -1.4360 C   0  0  0  0  0  0  0  0  0  0  0  0
    2.3208   -1.8335   -1.0485 H   0  0  0  0  0  0  0  0  0  0  0  0
    4.1496   -3.1495   -1.2323 H   0  0  0  0  0  0  0  0  0  0  0  0
    5.6140   -0.4644   -0.8907 H   0  0  0  0  0  0  0  0  0  0  0  0
    6.3164   -1.9265   -1.5934 H   0  0  0  0  0  0  0  0  0  0  0  0
    4.9807   -1.0989   -2.4159 H   0  0  0  0  0  0  0  0  0  0  0  0
    5.8286   -3.6351    0.6525 N   0  0  0  0  0  0  0  0  0  0  0  0
    6.4868   -4.1551    1.8282 C   0  0  0  0  0  0  0  0  0  0  0  0
    6.0297   -4.0792   -0.2386 H   0  0  0  0  0  0  0  0  0  0  0  0
    7.4417   -3.6296    1.9771 H   0  0  0  0  0  0  0  0  0  0  0  0
    5.8431   -4.0014    2.7069 H   0  0  0  0  0  0  0  0  0  0  0  0
    6.6769   -5.2305    1.6965 H   0  0  0  0  0  0  0  0  0  0  0  0
  1  3  1  0  0  0  0
  1  7  1  0  0  0  0
  1  2  2  0  0  0  0
 22 23  1  0  0  0  0
 23 25  1  0  0  0  0
 23 24  2  0  0  0  0
 35 36  1  0  0  0  0
 36 44  1  0  0  0  0
 36 37  2  0  0  0  0
  8  9  1  0  0  0  0
  9 17  1  0  0  0  0
  9 10  2  0  0  0  0
 18 19  1  0  0  0  0
 19 34  1  0  0  0  0
 19 20  2  0  0  0  0
 35 38  1  0  0  0  0
  8 11  1  0  0  0  0
 44 45  1  0  0  0  0
 21 22  1  0  0  0  0
 18 21  1  0  0  0  0
 34 35  1  0  0  0  0
  7  8  1  0  0  0  0
 17 18  1  0  0  0  0
  3  4  1  0  0  0  0
  3  5  1  0  0  0  0
  3  6  1  0  0  0  0
 38 41  1  0  0  0  0
 38 42  1  0  0  0  0
 38 43  1  0  0  0  0
 11 14  1  0  0  0  0
 11 15  1  0  0  0  0
 11 16  1  0  0  0  0
 45 47  1  0  0  0  0
 45 48  1  0  0  0  0
 45 49  1  0  0  0  0
 22 30  1  0  0  0  0
 22 31  1  0  0  0  0
 21 28  1  0  0  0  0
 21 29  1  0  0  0  0
 35 40  1  0  0  0  0
  8 13  1  0  0  0  0
 18 27  1  0  0  0  0
 25 32  1  0  0  0  0
 25 33  1  0  0  0  0
 44 46  1  0  0  0  0
  7 12  1  0  0  0  0
 34 39  1  0  0  0  0
 17 26  1  0  0  0  0
M  END
$$$$

  -OEChem-05262214473D

 49 48  0     1  0  0  0  0  0999 V2000
   -1.9833   -0.0509   -3.3423 C   0  0  0  0  0  0  0  0  0  0  0  0
   -1.6199   -1.0613   -2.7518 O   0  0  0  0  0  0  0  0  0  0  0  0
   -3.3243   -0.0235   -3.9975 C   0  0  0  0  0  0  0  0  0  0  0  0
   -3.2886   -0.3689   -5.0432 H   0  0  0  0  0  0  0  0  0  0  0  0
   -4.0503   -0.6845   -3.4973 H   0  0  0  0  0  0  0  0  0  0  0  0
   -3.8104    0.9645   -4.0351 H   0  0  0  0  0  0  0  0  0  0  0  0
   -1.2607    1.1231   -3.4768 N   0  0  0  0  0  0  0  0  0  0  0  0
    0.0536    1.3115   -2.9213 C   0  0  2  0  0  0  0  0  0  0  0  0
    0.0266    0.8315   -1.4761 C   0  0  0  0  0  0  0  0  0  0  0  0
   -1.0065    0.7530   -0.8146 O   0  0  0  0  0  0  0  0  0  0  0  0
    0.4852    2.7674   -3.0025 C   0  0  0  0  0  0  0  0  0  0  0  0
   -1.6809    1.8924   -3.9952 H   0  0  0  0  0  0  0  0  0  0  0  0
    0.7360    0.6822   -3.5030 H   0  0  0  0  0  0  0  0  0  0  0  0
   -0.1867    3.4133   -2.4256 H   0  0  0  0  0  0  0  0  0  0  0  0
    1.4966    2.9042   -2.6056 H   0  0  0  0  0  0  0  0  0  0  0  0
    0.4754    3.1196   -4.0397 H   0  0  0  0  0  0  0  0  0  0  0  0
    1.2978    0.5411   -0.9947 N   0  0  0  0  0  0  0  0  0  0  0  0
    1.5371    0.0807    0.3489 C   0  0  2  0  0  0  0  0  0  0  0  0
    2.9543   -0.4803    0.3884 C   0  0  0  0  0  0  0  0  0  0  0  0
    3.7616   -0.1966    1.2708 O   0  0  0  0  0  0  0  0  0  0  0  0
    0.5275   -0.9896    0.7827 C   0  0  0  0  0  0  0  0  0  0  0  0
   -0.9006   -0.4583    0.9208 C   0  0  0  0  0  0  0  0  0  0  0  0
   -1.9055   -1.5203    1.3265 C   0  0  0  0  0  0  0  0  0  0  0  0
   -1.6314   -2.7093    1.4599 O   0  0  0  0  0  0  0  0  0  0  0  0
   -3.1711   -1.0036    1.5041 N   0  0  0  0  0  0  0  0  0  0  0  0
    2.0949    0.6178   -1.6227 H   0  0  0  0  0  0  0  0  0  0  0  0
    1.4844    0.9621    0.9969 H   0  0  0  0  0  0  0  0  0  0  0  0
    0.5244   -1.8026    0.0445 H   0  0  0  0  0  0  0  0  0  0  0  0
    0.8428   -1.4412    1.7318 H   0  0  0  0  0  0  0  0  0  0  0  0
   -1.2261   -0.0662   -0.0508 H   0  0  0  0  0  0  0  0  0  0  0  0
   -0.9402    0.3709    1.6360 H   0  0  0  0  0  0  0  0  0  0  0  0
   -3.3190   -0.0106    1.3573 H   0  0  0  0  0  0  0  0  0  0  0  0
   -3.9603   -1.5808    1.7766 H   0  0  0  0  0  0  0  0  0  0  0  0
    3.2224   -1.2929   -0.7044 N   0  0  0  0  0  0  0  0  0  0  0  0
    4.4991   -1.9345   -0.9217 C   0  0  2  0  0  0  0  0  0  0  0  0
    4.9058   -2.6236    0.3741 C   0  0  0  0  0  0  0  0  0  0  0  0
    4.4676   -2.2952    1.4746 O   0  0  0  0  0  0  0  0  0  0  0  0
    5.5552   -0.9312   -1.3585 C   0  0  0  0  0  0  0  0  0  0  0  0
    2.4843   -1.4444   -1.3855 H   0  0  0  0  0  0  0  0  0  0  0  0
    4.3461   -2.6864   -1.7036 H   0  0  0  0  0  0  0  0  0  0  0  0
    5.7221   -0.1698   -0.5879 H   0  0  0  0  0  0  0  0  0  0  0  0
    6.5145   -1.4231   -1.5504 H   0  0  0  0  0  0  0  0  0  0  0  0
    5.2474   -0.4152   -2.2744 H   0  0  0  0  0  0  0  0  0  0  0  0
    5.8483   -3.6200    0.1617 N   0  0  0  0  0  0  0  0  0  0  0  0
    6.4020   -4.4111    1.2357 C   0  0  0  0  0  0  0  0  0  0  0  0
    6.1407   -3.8373   -0.7865 H   0  0  0  0  0  0  0  0  0  0  0  0
    7.3287   -3.9417    1.5975 H   0  0  0  0  0  0  0  0  0  0  0  0
    5.6754   -4.4705    2.0595 H   0  0  0  0  0  0  0  0  0  0  0  0
    6.6234   -5.4241    0.8684 H   0  0  0  0  0  0  0  0  0  0  0  0
  1  3  1  0  0  0  0
  1  7  1  0  0  0  0
  1  2  2  0  0  0  0
 22 23  1  0  0  0  0
 23 25  1  0  0  0  0
 23 24  2  0  0  0  0
 35 36  1  0  0  0  0
 36 44  1  0  0  0  0
 36 37  2  0  0  0  0
  8  9  1  0  0  0  0
  9 17  1  0  0  0  0
  9 10  2  0  0  0  0
 18 19  1  0  0  0  0
 19 34  1  0  0  0  0
 19 20  2  0  0  0  0
 35 38  1  0  0  0  0
  8 11  1  0  0  0  0
 44 45  1  0  0  0  0
 21 22  1  0  0  0  0
 18 21  1  0  0  0  0
 34 35  1  0  0  0  0
  7  8  1  0  0  0  0
 17 18  1  0  0  0  0
  3  4  1  0  0  0  0
  3  5  1  0  0  0  0
  3  6  1  0  0  0  0
 38 41  1  0  0  0  0
 38 42  1  0  0  0  0
 38 43  1  0  0  0  0
 11 14  1  0  0  0  0
 11 15  1  0  0  0  0
 11 16  1  0  0  0  0
 45 47  1  0  0  0  0
 45 48  1  0  0  0  0
 45 49  1  0  0  0  0
 22 30  1  0  0  0  0
 22 31  1  0  0  0  0
 21 28  1  0  0  0  0
 21 29  1  0  0  0  0
 35 40  1  0  0  0  0
  8 13  1  0  0  0  0
 18 27  1  0  0  0  0
 25 32  1  0  0  0  0
 25 33  1  0  0  0  0
 44 46  1  0  0  0  0
  7 12  1  0  0  0  0
 34 39  1  0  0  0  0
 17 26  1  0  0  0  0
M  END
$$$$

  -OEChem-05262214473D

 49 48  0     1  0  0  0  0  0999 V2000
   -1.9833   -0.0509   -3.3423 C   0  0  0  0  0  0  0  0  0  0  0  0
   -1.6199   -1.0613   -2.7518 O   0  0  0  0  0  0  0  0  0  0  0  0
   -3.3243   -0.0235   -3.9975 C   0  0  0  0  0  0  0  0  0  0  0  0
   -3.2886   -0.3689   -5.0432 H   0  0  0  0  0  0  0  0  0  0  0  0
   -4.0503   -0.6845   -3.4973 H   0  0  0  0  0  0  0  0  0  0  0  0
   -3.8104    0.9645   -4.0351 H   0  0  0  0  0  0  0  0  0  0  0  0
   -1.2607    1.1231   -3.4768 N   0  0  0  0  0  0  0  0  0  0  0  0
    0.0536    1.3115   -2.9213 C   0  0  2  0  0  0  0  0  0  0  0  0
    0.0266    0.8315   -1.4761 C   0  0  0  0  0  0  0  0  0  0  0  0
   -1.0065    0.7530   -0.8146 O   0  0  0  0  0  0  0  0  0  0  0  0
    0.4852    2.7674   -3.0025 C   0  0  0  0  0  0  0  0  0  0  0  0
   -1.6809    1.8924   -3.9952 H   0  0  0  0  0  0  0  0  0  0  0  0
    0.7360    0.6822   -3.5030 H   0  0  0  0  0  0  0  0  0  0  0  0
   -0.1867    3.4133   -2.4256 H   0  0  0  0  0  0  0  0  0  0  0  0
    1.4966    2.9042   -2.6056 H   0  0  0  0  0  0  0  0  0  0  0  0
    0.4754    3.1196   -4.0397 H   0  0  0  0  0  0  0  0  0  0  0  0
    1.2978    0.5411   -0.9947 N   0  0  0  0  0  0  0  0  0  0  0  0
    1.5371    0.0807    0.3489 C   0  0  2  0  0  0  0  0  0  0  0  0
    2.9543   -0.4803    0.3884 C   0  0  0  0  0  0  0  0  0  0  0  0
    3.6693   -0.4215    1.3865 O   0  0  0  0  0  0  0  0  0  0  0  0
    0.5275   -0.9896    0.7827 C   0  0  0  0  0  0  0  0  0  0  0  0
   -0.9006   -0.4583    0.9208 C   0  0  0  0  0  0  0  0  0  0  0  0
   -1.9055   -1.5203    1.3265 C   0  0  0  0  0  0  0  0  0  0  0  0
   -1.6314   -2.7093    1.4599 O   0  0  0  0  0  0  0  0  0  0  0  0
   -3.1711   -1.0036    1.5041 N   0  0  0  0  0  0  0  0  0  0  0  0
    2.0949    0.6178   -1.6227 H   0  0  0  0  0  0  0  0  0  0  0  0
    1.4844    0.9621    0.9969 H   0  0  0  0  0  0  0  0  0  0  0  0
    0.5244   -1.8026    0.0445 H   0  0  0  0  0  0  0  0  0  0  0  0
    0.8428   -1.4412    1.7318 H   0  0  0  0  0  0  0  0  0  0  0  0
   -1.2261   -0.0662   -0.0508 H   0  0  0  0  0  0  0  0  0  0  0  0
   -0.9402    0.3709    1.6360 H   0  0  0  0  0  0  0  0  0  0  0  0
   -3.3190   -0.0106    1.3573 H   0  0  0  0  0  0  0  0  0  0  0  0
   -3.9603   -1.5808    1.7766 H   0  0  0  0  0  0  0  0  0  0  0  0
    3.3392   -1.0071   -0.8366 N   0  0  0  0  0  0  0  0  0  0  0  0
    4.6423   -1.5836   -1.0781 C   0  0  2  0  0  0  0  0  0  0  0  0
    4.9375   -2.5667    0.0471 C   0  0  0  0  0  0  0  0  0  0  0  0
    4.3914   -2.5109    1.1470 O   0  0  0  0  0  0  0  0  0  0  0  0
    5.7164   -0.5100   -1.1575 C   0  0  0  0  0  0  0  0  0  0  0  0
    2.6717   -0.9863   -1.6018 H   0  0  0  0  0  0  0  0  0  0  0  0
    4.5777   -2.1243   -2.0286 H   0  0  0  0  0  0  0  0  0  0  0  0
    5.7958    0.0425   -0.2141 H   0  0  0  0  0  0  0  0  0  0  0  0
    6.6983   -0.9459   -1.3689 H   0  0  0  0  0  0  0  0  0  0  0  0
    5.4870    0.2130   -1.9478 H   0  0  0  0  0  0  0  0  0  0  0  0
    5.9139   -3.4872   -0.3069 N   0  0  0  0  0  0  0  0  0  0  0  0
    6.3782   -4.5165    0.5937 C   0  0  0  0  0  0  0  0  0  0  0  0
    6.2985   -3.4712   -1.2469 H   0  0  0  0  0  0  0  0  0  0  0  0
    7.2578   -4.1527    1.1449 H   0  0  0  0  0  0  0  0  0  0  0  0
    5.5783   -4.7689    1.3054 H   0  0  0  0  0  0  0  0  0  0  0  0
    6.6518   -5.4122    0.0168 H   0  0  0  0  0  0  0  0  0  0  0  0
  1  3  1  0  0  0  0
  1  7  1  0  0  0  0
  1  2  2  0  0  0  0
 22 23  1  0  0  0  0
 23 25  1  0  0  0  0
 23 24  2  0  0  0  0
 35 36  1  0  0  0  0
 36 44  1  0  0  0  0
 36 37  2  0  0  0  0
  8  9  1  0  0  0  0
  9 17  1  0  0  0  0
  9 10  2  0  0  0  0
 18 19  1  0  0  0  0
 19 34  1  0  0  0  0
 19 20  2  0  0  0  0
 35 38  1  0  0  0  0
  8 11  1  0  0  0  0
 44 45  1  0  0  0  0
 21 22  1  0  0  0  0
 18 21  1  0  0  0  0
 34 35  1  0  0  0  0
  7  8  1  0  0  0  0
 17 18  1  0  0  0  0
  3  4  1  0  0  0  0
  3  5  1  0  0  0  0
  3  6  1  0  0  0  0
 38 41  1  0  0  0  0
 38 42  1  0  0  0  0
 38 43  1  0  0  0  0
 11 14  1  0  0  0  0
 11 15  1  0  0  0  0
 11 16  1  0  0  0  0
 45 47  1  0  0  0  0
 45 48  1  0  0  0  0
 45 49  1  0  0  0  0
 22 30  1  0  0  0  0
 22 31  1  0  0  0  0
 21 28  1  0  0  0  0
 21 29  1  0  0  0  0
 35 40  1  0  0  0  0
  8 13  1  0  0  0  0
 18 27  1  0  0  0  0
 25 32  1  0  0  0  0
 25 33  1  0  0  0  0
 44 46  1  0  0  0  0
  7 12  1  0  0  0  0
 34 39  1  0  0  0  0
 17 26  1  0  0  0  0
M  END
$$$$

  -OEChem-05262214473D

 49 48  0     1  0  0  0  0  0999 V2000
   -1.9833   -0.0509   -3.3423 C   0  0  0  0  0  0  0  0  0  0  0  0
   -1.6199   -1.0613   -2.7518 O   0  0  0  0  0  0  0  0  0  0  0  0
   -3.3243   -0.0235   -3.9975 C   0  0  0  0  0  0  0  0  0  0  0  0
   -3.2886   -0.3689   -5.0432 H   0  0  0  0  0  0  0  0  0  0  0  0
   -4.0503   -0.6845   -3.4973 H   0  0  0  0  0  0  0  0  0  0  0  0
   -3.8104    0.9645   -4.0351 H   0  0  0  0  0  0  0  0  0  0  0  0
   -1.2607    1.1231   -3.4768 N   0  0  0  0  0  0  0  0  0  0  0  0
    0.0536    1.3115   -2.9213 C   0  0  2  0  0  0  0  0  0  0  0  0
    0.0266    0.8315   -1.4761 C   0  0  0  0  0  0  0  0  0  0  0  0
   -1.0065    0.7530   -0.8146 O   0  0  0  0  0  0  0  0  0  0  0  0
    0.4852    2.7674   -3.0025 C   0  0  0  0  0  0  0  0  0  0  0  0
   -1.6809    1.8924   -3.9952 H   0  0  0  0  0  0  0  0  0  0  0  0
    0.7360    0.6822   -3.5030 H   0  0  0  0  0  0  0  0  0  0  0  0
   -0.1867    3.4133   -2.4256 H   0  0  0  0  0  0  0  0  0  0  0  0
    1.4966    2.9042   -2.6056 H   0  0  0  0  0  0  0  0  0  0  0  0
    0.4754    3.1196   -4.0397 H   0  0  0  0  0  0  0  0  0  0  0  0
    1.2978    0.5411   -0.9947 N   0  0  0  0  0  0  0  0  0  0  0  0
    1.5371    0.0807    0.3489 C   0  0  2  0  0  0  0  0  0  0  0  0
    2.9543   -0.4803    0.3884 C   0  0  0  0  0  0  0  0  0  0  0  0
    3.5707   -0.6672    1.4353 O   0  0  0  0  0  0  0  0  0  0  0  0
    0.5275   -0.9896    0.7827 C   0  0  0  0  0  0  0  0  0  0  0  0
   -0.9006   -0.4583    0.9208 C   0  0  0  0  0  0  0  0  0  0  0  0
   -1.9055   -1.5203    1.3265 C   0  0  0  0  0  0  0  0  0  0  0  0
   -1.6314   -2.7093    1.4599 O   0  0  0  0  0  0  0  0  0  0  0  0
   -3.1711   -1.0036    1.5041 N   0  0  0  0  0  0  0  0  0  0  0  0
    2.0949    0.6178   -1.6227 H   0  0  0  0  0  0  0  0  0  0  0  0
    1.4844    0.9621    0.9969 H   0  0  0  0  0  0  0  0  0  0  0  0
    0.5244   -1.8026    0.0445 H   0  0  0  0  0  0  0  0  0  0  0  0
    0.8428   -1.4412    1.7318 H   0  0  0  0  0  0  0  0  0  0  0  0
   -1.2261   -0.0662   -0.0508 H   0  0  0  0  0  0  0  0  0  0  0  0
   -0.9402    0.3709    1.6360 H   0  0  0  0  0  0  0  0  0  0  0  0
   -3.3190   -0.0106    1.3573 H   0  0  0  0  0  0  0  0  0  0  0  0
   -3.9603   -1.5808    1.7766 H   0  0  0  0  0  0  0  0  0  0  0  0
    3.4628   -0.6984   -0.8845 N   0  0  0  0  0  0  0  0  0  0  0  0
    4.7932   -1.2062   -1.1311 C   0  0  2  0  0  0  0  0  0  0  0  0
    4.9988   -2.4328   -0.2520 C   0  0  0  0  0  0  0  0  0  0  0  0
    4.3504   -2.6409    0.7714 O   0  0  0  0  0  0  0  0  0  0  0  0
    5.8501   -0.1503   -0.8467 C   0  0  0  0  0  0  0  0  0  0  0  0
    2.8702   -0.4906   -1.6828 H   0  0  0  0  0  0  0  0  0  0  0  0
    4.8286   -1.5017   -2.1853 H   0  0  0  0  0  0  0  0  0  0  0  0
    5.8299    0.1582    0.2049 H   0  0  0  0  0  0  0  0  0  0  0  0
    6.8554   -0.5274   -1.0612 H   0  0  0  0  0  0  0  0  0  0  0  0
    5.6831    0.7428   -1.4584 H   0  0  0  0  0  0  0  0  0  0  0  0
    6.0211   -3.2458   -0.7213 N   0  0  0  0  0  0  0  0  0  0  0  0
    6.4170   -4.4640   -0.0541 C   0  0  0  0  0  0  0  0  0  0  0  0
    6.4923   -3.0057   -1.5885 H   0  0  0  0  0  0  0  0  0  0  0  0
    7.2339   -4.2480    0.6503 H   0  0  0  0  0  0  0  0  0  0  0  0
    5.5583   -4.8764    0.4959 H   0  0  0  0  0  0  0  0  0  0  0  0
    6.7603   -5.1957   -0.8002 H   0  0  0  0  0  0  0  0  0  0  0  0
  1  3  1  0  0  0  0
  1  7  1  0  0  0  0
  1  2  2  0  0  0  0
 22 23  1  0  0  0  0
 23 25  1  0  0  0  0
 23 24  2  0  0  0  0
 35 36  1  0  0  0  0
 36 44  1  0  0  0  0
 36 37  2  0  0  0  0
  8  9  1  0  0  0  0
  9 17  1  0  0  0  0
  9 10  2  0  0  0  0
 18 19  1  0  0  0  0
 19 34  1  0  0  0  0
 19 20  2  0  0  0  0
 35 38  1  0  0  0  0
  8 11  1  0  0  0  0
 44 45  1  0  0  0  0
 21 22  1  0  0  0  0
 18 21  1  0  0  0  0
 34 35  1  0  0  0  0
  7  8  1  0  0  0  0
 17 18  1  0  0  0  0
  3  4  1  0  0  0  0
  3  5  1  0  0  0  0
  3  6  1  0  0  0  0
 38 41  1  0  0  0  0
 38 42  1  0  0  0  0
 38 43  1  0  0  0  0
 11 14  1  0  0  0  0
 11 15  1  0  0  0  0
 11 16  1  0  0  0  0
 45 47  1  0  0  0  0
 45 48  1  0  0  0  0
 45 49  1  0  0  0  0
 22 30  1  0  0  0  0
 22 31  1  0  0  0  0
 21 28  1  0  0  0  0
 21 29  1  0  0  0  0
 35 40  1  0  0  0  0
  8 13  1  0  0  0  0
 18 27  1  0  0  0  0
 25 32  1  0  0  0  0
 25 33  1  0  0  0  0
 44 46  1  0  0  0  0
  7 12  1  0  0  0  0
 34 39  1  0  0  0  0
 17 26  1  0  0  0  0
M  END
$$$$

  -OEChem-05262214473D

 49 48  0     1  0  0  0  0  0999 V2000
   -1.9833   -0.0509   -3.3423 C   0  0  0  0  0  0  0  0  0  0  0  0
   -1.6199   -1.0613   -2.7518 O   0  0  0  0  0  0  0  0  0  0  0  0
   -3.3243   -0.0235   -3.9975 C   0  0  0  0  0  0  0  0  0  0  0  0
   -3.2886   -0.3689   -5.0432 H   0  0  0  0  0  0  0  0  0  0  0  0
   -4.0503   -0.6845   -3.4973 H   0  0  0  0  0  0  0  0  0  0  0  0
   -3.8104    0.9645   -4.0351 H   0  0  0  0  0  0  0  0  0  0  0  0
   -1.2607    1.1231   -3.4768 N   0  0  0  0  0  0  0  0  0  0  0  0
    0.0536    1.3115   -2.9213 C   0  0  2  0  0  0  0  0  0  0  0  0
    0.0266    0.8315   -1.4761 C   0  0  0  0  0  0  0  0  0  0  0  0
   -1.0065    0.7530   -0.8146 O   0  0  0  0  0  0  0  0  0  0  0  0
    0.4852    2.7674   -3.0025 C   0  0  0  0  0  0  0  0  0  0  0  0
   -1.6809    1.8924   -3.9952 H   0  0  0  0  0  0  0  0  0  0  0  0
    0.7360    0.6822   -3.5030 H   0  0  0  0  0  0  0  0  0  0  0  0
   -0.1867    3.4133   -2.4256 H   0  0  0  0  0  0  0  0  0  0  0  0
    1.4966    2.9042   -2.6056 H   0  0  0  0  0  0  0  0  0  0  0  0
    0.4754    3.1196   -4.0397 H   0  0  0  0  0  0  0  0  0  0  0  0
    1.2978    0.5411   -0.9947 N   0  0  0  0  0  0  0  0  0  0  0  0
    1.5371    0.0807    0.3489 C   0  0  2  0  0  0  0  0  0  0  0  0
    2.9543   -0.4803    0.3884 C   0  0  0  0  0  0  0  0  0  0  0  0
    3.4724   -0.9169    1.4140 O   0  0  0  0  0  0  0  0  0  0  0  0
    0.5275   -0.9896    0.7827 C   0  0  0  0  0  0  0  0  0  0  0  0
   -0.9006   -0.4583    0.9208 C   0  0  0  0  0  0  0  0  0  0  0  0
   -1.9055   -1.5203    1.3265 C   0  0  0  0  0  0  0  0  0  0  0  0
   -1.6314   -2.7093    1.4599 O   0  0  0  0  0  0  0  0  0  0  0  0
   -3.1711   -1.0036    1.5041 N   0  0  0  0  0  0  0  0  0  0  0  0
    2.0949    0.6178   -1.6227 H   0  0  0  0  0  0  0  0  0  0  0  0
    1.4844    0.9621    0.9969 H   0  0  0  0  0  0  0  0  0  0  0  0
    0.5244   -1.8026    0.0445 H   0  0  0  0  0  0  0  0  0  0  0  0
    0.8428   -1.4412    1.7318 H   0  0  0  0  0  0  0  0  0  0  0  0
   -1.2261   -0.0662   -0.0508 H   0  0  0  0  0  0  0  0  0  0  0  0
   -0.9402    0.3709    1.6360 H   0  0  0  0  0  0  0  0  0  0  0  0
   -3.3190   -0.0106    1.3573 H   0  0  0  0  0  0  0  0  0  0  0  0
   -3.9603   -1.5808    1.7766 H   0  0  0  0  0  0  0  0  0  0  0  0
    3.5846   -0.3878   -0.8447 N   0  0  0  0  0  0  0  0  0  0  0  0
    4.9415   -0.8279   -1.0771 C   0  0  2  0  0  0  0  0  0  0  0  0
    5.0856   -2.2311   -0.5029 C   0  0  0  0  0  0  0  0  0  0  0  0
    4.3474   -2.6764    0.3734 O   0  0  0  0  0  0  0  0  0  0  0  0
    5.9472    0.1231   -0.4472 C   0  0  0  0  0  0  0  0  0  0  0  0
    3.0663    0.0091   -1.6228 H   0  0  0  0  0  0  0  0  0  0  0  0
    5.0816   -0.8609   -2.1630 H   0  0  0  0  0  0  0  0  0  0  0  0
    5.8222    0.1694    0.6408 H   0  0  0  0  0  0  0  0  0  0  0  0
    6.9751   -0.1961   -0.6485 H   0  0  0  0  0  0  0  0  0  0  0  0
    5.8223    1.1382   -0.8395 H   0  0  0  0  0  0  0  0  0  0  0  0
    6.1624   -2.9121   -1.0533 N   0  0  0  0  0  0  0  0  0  0  0  0
    6.5159   -4.2571   -0.6634 C   0  0  0  0  0  0  0  0  0  0  0  0
    6.7089   -2.4725   -1.7880 H   0  0  0  0  0  0  0  0  0  0  0  0
    7.2585   -4.2212    0.1473 H   0  0  0  0  0  0  0  0  0  0  0  0
    5.6168   -4.7857   -0.3138 H   0  0  0  0  0  0  0  0  0  0  0  0
    6.9415   -4.7892   -1.5270 H   0  0  0  0  0  0  0  0  0  0  0  0
  1  3  1  0  0  0  0
  1  7  1  0  0  0  0
  1  2  2  0  0  0  0
 22 23  1  0  0  0  0
 23 25  1  0  0  0  0
 23 24  2  0  0  0  0
 35 36  1  0  0  0  0
 36 44  1  0  0  0  0
 36 37  2  0  0  0  0
  8  9  1  0  0  0  0
  9 17  1  0  0  0  0
  9 10  2  0  0  0  0
 18 19  1  0  0  0  0
 19 34  1  0  0  0  0
 19 20  2  0  0  0  0
 35 38  1  0  0  0  0
  8 11  1  0  0  0  0
 44 45  1  0  0  0  0
 21 22  1  0  0  0  0
 18 21  1  0  0  0  0
 34 35  1  0  0  0  0
  7  8  1  0  0  0  0
 17 18  1  0  0  0  0
  3  4  1  0  0  0  0
  3  5  1  0  0  0  0
  3  6  1  0  0  0  0
 38 41  1  0  0  0  0
 38 42  1  0  0  0  0
 38 43  1  0  0  0  0
 11 14  1  0  0  0  0
 11 15  1  0  0  0  0
 11 16  1  0  0  0  0
 45 47  1  0  0  0  0
 45 48  1  0  0  0  0
 45 49  1  0  0  0  0
 22 30  1  0  0  0  0
 22 31  1  0  0  0  0
 21 28  1  0  0  0  0
 21 29  1  0  0  0  0
 35 40  1  0  0  0  0
  8 13  1  0  0  0  0
 18 27  1  0  0  0  0
 25 32  1  0  0  0  0
 25 33  1  0  0  0  0
 44 46  1  0  0  0  0
  7 12  1  0  0  0  0
 34 39  1  0  0  0  0
 17 26  1  0  0  0  0
M  END
$$$$

  -OEChem-05262214473D

 49 48  0     1  0  0  0  0  0999 V2000
   -1.9833   -0.0509   -3.3423 C   0  0  0  0  0  0  0  0  0  0  0  0
   -1.6199   -1.0613   -2.7518 O   0  0  0  0  0  0  0  0  0  0  0  0
   -3.3243   -0.0235   -3.9975 C   0  0  0  0  0  0  0  0  0  0  0  0
   -3.2886   -0.3689   -5.0432 H   0  0  0  0  0  0  0  0  0  0  0  0
   -4.0503   -0.6845   -3.4973 H   0  0  0  0  0  0  0  0  0  0  0  0
   -3.8104    0.9645   -4.0351 H   0  0  0  0  0  0  0  0  0  0  0  0
   -1.2607    1.1231   -3.4768 N   0  0  0  0  0  0  0  0  0  0  0  0
    0.0536    1.3115   -2.9213 C   0  0  2  0  0  0  0  0  0  0  0  0
    0.0266    0.8315   -1.4761 C   0  0  0  0  0  0  0  0  0  0  0  0
   -1.0065    0.7530   -0.8146 O   0  0  0  0  0  0  0  0  0  0  0  0
    0.4852    2.7674   -3.0025 C   0  0  0  0  0  0  0  0  0  0  0  0
   -1.6809    1.8924   -3.9952 H   0  0  0  0  0  0  0  0  0  0  0  0
    0.7360    0.6822   -3.5030 H   0  0  0  0  0  0  0  0  0  0  0  0
   -0.1867    3.4133   -2.4256 H   0  0  0  0  0  0  0  0  0  0  0  0
    1.4966    2.9042   -2.6056 H   0  0  0  0  0  0  0  0  0  0  0  0
    0.4754    3.1196   -4.0397 H   0  0  0  0  0  0  0  0  0  0  0  0
    1.2978    0.5411   -0.9947 N   0  0  0  0  0  0  0  0  0  0  0  0
    1.5371    0.0807    0.3489 C   0  0  2  0  0  0  0  0  0  0  0  0
    2.9543   -0.4803    0.3884 C   0  0  0  0  0  0  0  0  0  0  0  0
    3.3812   -1.1537    1.3240 O   0  0  0  0  0  0  0  0  0  0  0  0
    0.5275   -0.9896    0.7827 C   0  0  0  0  0  0  0  0  0  0  0  0
   -0.9006   -0.4583    0.9208 C   0  0  0  0  0  0  0  0  0  0  0  0
   -1.9055   -1.5203    1.3265 C   0  0  0  0  0  0  0  0  0  0  0  0
   -1.6314   -2.7093    1.4599 O   0  0  0  0  0  0  0  0  0  0  0  0
   -3.1711   -1.0036    1.5041 N   0  0  0  0  0  0  0  0  0  0  0  0
    2.0949    0.6178   -1.6227 H   0  0  0  0  0  0  0  0  0  0  0  0
    1.4844    0.9621    0.9969 H   0  0  0  0  0  0  0  0  0  0  0  0
    0.5244   -1.8026    0.0445 H   0  0  0  0  0  0  0  0  0  0  0  0
    0.8428   -1.4412    1.7318 H   0  0  0  0  0  0  0  0  0  0  0  0
   -1.2261   -0.0662   -0.0508 H   0  0  0  0  0  0  0  0  0  0  0  0
   -0.9402    0.3709    1.6360 H   0  0  0  0  0  0  0  0  0  0  0  0
   -3.3190   -0.0106    1.3573 H   0  0  0  0  0  0  0  0  0  0  0  0
   -3.9603   -1.5808    1.7766 H   0  0  0  0  0  0  0  0  0  0  0  0
    3.6964   -0.0966   -0.7199 N   0  0  0  0  0  0  0  0  0  0  0  0
    5.0770   -0.4745   -0.9198 C   0  0  2  0  0  0  0  0  0  0  0  0
    5.1921   -1.9754   -0.6884 C   0  0  0  0  0  0  0  0  0  0  0  0
    4.3827   -2.6150   -0.0199 O   0  0  0  0  0  0  0  0  0  0  0  0
    6.0011    0.2919    0.0137 C   0  0  0  0  0  0  0  0  0  0  0  0
    3.2467    0.4786   -1.4259 H   0  0  0  0  0  0  0  0  0  0  0  0
    5.3196   -0.2456   -1.9632 H   0  0  0  0  0  0  0  0  0  0  0  0
    5.7731    0.0752    1.0638 H   0  0  0  0  0  0  0  0  0  0  0  0
    7.0491    0.0254   -0.1586 H   0  0  0  0  0  0  0  0  0  0  0  0
    5.8953    1.3721   -0.1333 H   0  0  0  0  0  0  0  0  0  0  0  0
    6.3283   -2.5091   -1.2803 N   0  0  0  0  0  0  0  0  0  0  0  0
    6.6680   -3.9101   -1.1928 C   0  0  0  0  0  0  0  0  0  0  0  0
    6.9336   -1.9081   -1.8319 H   0  0  0  0  0  0  0  0  0  0  0  0
    7.3300   -4.0742   -0.3297 H   0  0  0  0  0  0  0  0  0  0  0  0
    5.7498   -4.5029   -1.0684 H   0  0  0  0  0  0  0  0  0  0  0  0
    7.1829   -4.2206   -2.1139 H   0  0  0  0  0  0  0  0  0  0  0  0
  1  3  1  0  0  0  0
  1  7  1  0  0  0  0
  1  2  2  0  0  0  0
 22 23  1  0  0  0  0
 23 25  1  0  0  0  0
 23 24  2  0  0  0  0
 35 36  1  0  0  0  0
 36 44  1  0  0  0  0
 36 37  2  0  0  0  0
  8  9  1  0  0  0  0
  9 17  1  0  0  0  0
  9 10  2  0  0  0  0
 18 19  1  0  0  0  0
 19 34  1  0  0  0  0
 19 20  2  0  0  0  0
 35 38  1  0  0  0  0
  8 11  1  0  0  0  0
 44 45  1  0  0  0  0
 21 22  1  0  0  0  0
 18 21  1  0  0  0  0
 34 35  1  0  0  0  0
  7  8  1  0  0  0  0
 17 18  1  0  0  0  0
  3  4  1  0  0  0  0
  3  5  1  0  0  0  0
  3  6  1  0  0  0  0
 38 41  1  0  0  0  0
 38 42  1  0  0  0  0
 38 43  1  0  0  0  0
 11 14  1  0  0  0  0
 11 15  1  0  0  0  0
 11 16  1  0  0  0  0
 45 47  1  0  0  0  0
 45 48  1  0  0  0  0
 45 49  1  0  0  0  0
 22 30  1  0  0  0  0
 22 31  1  0  0  0  0
 21 28  1  0  0  0  0
 21 29  1  0  0  0  0
 35 40  1  0  0  0  0
  8 13  1  0  0  0  0
 18 27  1  0  0  0  0
 25 32  1  0  0  0  0
 25 33  1  0  0  0  0
 44 46  1  0  0  0  0
  7 12  1  0  0  0  0
 34 39  1  0  0  0  0
 17 26  1  0  0  0  0
M  END
$$$$

  -OEChem-05262214473D

 49 48  0     1  0  0  0  0  0999 V2000
   -1.9833   -0.0509   -3.3423 C   0  0  0  0  0  0  0  0  0  0  0  0
   -1.6199   -1.0613   -2.7518 O   0  0  0  0  0  0  0  0  0  0  0  0
   -3.3243   -0.0235   -3.9975 C   0  0  0  0  0  0  0  0  0  0  0  0
   -3.2886   -0.3689   -5.0432 H   0  0  0  0  0  0  0  0  0  0  0  0
   -4.0503   -0.6845   -3.4973 H   0  0  0  0  0  0  0  0  0  0  0  0
   -3.8104    0.9645   -4.0351 H   0  0  0  0  0  0  0  0  0  0  0  0
   -1.2607    1.1231   -3.4768 N   0  0  0  0  0  0  0  0  0  0  0  0
    0.0536    1.3115   -2.9213 C   0  0  2  0  0  0  0  0  0  0  0  0
    0.0266    0.8315   -1.4761 C   0  0  0  0  0  0  0  0  0  0  0  0
   -1.0065    0.7530   -0.8146 O   0  0  0  0  0  0  0  0  0  0  0  0
    0.4852    2.7674   -3.0025 C   0  0  0  0  0  0  0  0  0  0  0  0
   -1.6809    1.8924   -3.9952 H   0  0  0  0  0  0  0  0  0  0  0  0
    0.7360    0.6822   -3.5030 H   0  0  0  0  0  0  0  0  0  0  0  0
   -0.1867    3.4133   -2.4256 H   0  0  0  0  0  0  0  0  0  0  0  0
    1.4966    2.9042   -2.6056 H   0  0  0  0  0  0  0  0  0  0  0  0
    0.4754    3.1196   -4.0397 H   0  0  0  0  0  0  0  0  0  0  0  0
    1.2978    0.5411   -0.9947 N   0  0  0  0  0  0  0  0  0  0  0  0
    1.5371    0.0807    0.3489 C   0  0  2  0  0  0  0  0  0  0  0  0
    2.9543   -0.4803    0.3884 C   0  0  0  0  0  0  0  0  0  0  0  0
    3.3033   -1.3613    1.1714 O   0  0  0  0  0  0  0  0  0  0  0  0
    0.5275   -0.9896    0.7827 C   0  0  0  0  0  0  0  0  0  0  0  0
   -0.9006   -0.4583    0.9208 C   0  0  0  0  0  0  0  0  0  0  0  0
   -1.9055   -1.5203    1.3265 C   0  0  0  0  0  0  0  0  0  0  0  0
   -1.6314   -2.7093    1.4599 O   0  0  0  0  0  0  0  0  0  0  0  0
   -3.1711   -1.0036    1.5041 N   0  0  0  0  0  0  0  0  0  0  0  0
    2.0949    0.6178   -1.6227 H   0  0  0  0  0  0  0  0  0  0  0  0
    1.4844    0.9621    0.9969 H   0  0  0  0  0  0  0  0  0  0  0  0
    0.5244   -1.8026    0.0445 H   0  0  0  0  0  0  0  0  0  0  0  0
    0.8428   -1.4412    1.7318 H   0  0  0  0  0  0  0  0  0  0  0  0
   -1.2261   -0.0662   -0.0508 H   0  0  0  0  0  0  0  0  0  0  0  0
   -0.9402    0.3709    1.6360 H   0  0  0  0  0  0  0  0  0  0  0  0
   -3.3190   -0.0106    1.3573 H   0  0  0  0  0  0  0  0  0  0  0  0
   -3.9603   -1.5808    1.7766 H   0  0  0  0  0  0  0  0  0  0  0  0
    3.7906    0.1554   -0.5187 N   0  0  0  0  0  0  0  0  0  0  0  0
    5.1906   -0.1700   -0.6699 C   0  0  2  0  0  0  0  0  0  0  0  0
    5.3108   -1.6830   -0.7959 C   0  0  0  0  0  0  0  0  0  0  0  0
    4.4538   -2.4608   -0.3816 O   0  0  0  0  0  0  0  0  0  0  0  0
    6.0082    0.3443    0.5047 C   0  0  0  0  0  0  0  0  0  0  0  0
    3.3990    0.8860   -1.1057 H   0  0  0  0  0  0  0  0  0  0  0  0
    5.5264    0.3023   -1.5995 H   0  0  0  0  0  0  0  0  0  0  0  0
    5.6861   -0.1177    1.4450 H   0  0  0  0  0  0  0  0  0  0  0  0
    7.0725    0.1220    0.3748 H   0  0  0  0  0  0  0  0  0  0  0  0
    5.8969    1.4287    0.6120 H   0  0  0  0  0  0  0  0  0  0  0  0
    6.5074   -2.0640   -1.3867 N   0  0  0  0  0  0  0  0  0  0  0  0
    6.8631   -3.4465   -1.6062 C   0  0  0  0  0  0  0  0  0  0  0  0
    7.1510   -1.3509   -1.7170 H   0  0  0  0  0  0  0  0  0  0  0  0
    7.4435   -3.8170   -0.7484 H   0  0  0  0  0  0  0  0  0  0  0  0
    5.9483   -4.0472   -1.7167 H   0  0  0  0  0  0  0  0  0  0  0  0
    7.4683   -3.5285   -2.5211 H   0  0  0  0  0  0  0  0  0  0  0  0
  1  3  1  0  0  0  0
  1  7  1  0  0  0  0
  1  2  2  0  0  0  0
 22 23  1  0  0  0  0
 23 25  1  0  0  0  0
 23 24  2  0  0  0  0
 35 36  1  0  0  0  0
 36 44  1  0  0  0  0
 36 37  2  0  0  0  0
  8  9  1  0  0  0  0
  9 17  1  0  0  0  0
  9 10  2  0  0  0  0
 18 19  1  0  0  0  0
 19 34  1  0  0  0  0
 19 20  2  0  0  0  0
 35 38  1  0  0  0  0
  8 11  1  0  0  0  0
 44 45  1  0  0  0  0
 21 22  1  0  0  0  0
 18 21  1  0  0  0  0
 34 35  1  0  0  0  0
  7  8  1  0  0  0  0
 17 18  1  0  0  0  0
  3  4  1  0  0  0  0
  3  5  1  0  0  0  0
  3  6  1  0  0  0  0
 38 41  1  0  0  0  0
 38 42  1  0  0  0  0
 38 43  1  0  0  0  0
 11 14  1  0  0  0  0
 11 15  1  0  0  0  0
 11 16  1  0  0  0  0
 45 47  1  0  0  0  0
 45 48  1  0  0  0  0
 45 49  1  0  0  0  0
 22 30  1  0  0  0  0
 22 31  1  0  0  0  0
 21 28  1  0  0  0  0
 21 29  1  0  0  0  0
 35 40  1  0  0  0  0
  8 13  1  0  0  0  0
 18 27  1  0  0  0  0
 25 32  1  0  0  0  0
 25 33  1  0  0  0  0
 44 46  1  0  0  0  0
  7 12  1  0  0  0  0
 34 39  1  0  0  0  0
 17 26  1  0  0  0  0
M  END
$$$$

  -OEChem-05262214473D

 49 48  0     1  0  0  0  0  0999 V2000
   -1.9833   -0.0509   -3.3423 C   0  0  0  0  0  0  0  0  0  0  0  0
   -1.6199   -1.0613   -2.7518 O   0  0  0  0  0  0  0  0  0  0  0  0
   -3.3243   -0.0235   -3.9975 C   0  0  0  0  0  0  0  0  0  0  0  0
   -3.2886   -0.3689   -5.0432 H   0  0  0  0  0  0  0  0  0  0  0  0
   -4.0503   -0.6845   -3.4973 H   0  0  0  0  0  0  0  0  0  0  0  0
   -3.8104    0.9645   -4.0351 H   0  0  0  0  0  0  0  0  0  0  0  0
   -1.2607    1.1231   -3.4768 N   0  0  0  0  0  0  0  0  0  0  0  0
    0.0536    1.3115   -2.9213 C   0  0  2  0  0  0  0  0  0  0  0  0
    0.0266    0.8315   -1.4761 C   0  0  0  0  0  0  0  0  0  0  0  0
   -1.0065    0.7530   -0.8146 O   0  0  0  0  0  0  0  0  0  0  0  0
    0.4852    2.7674   -3.0025 C   0  0  0  0  0  0  0  0  0  0  0  0
   -1.6809    1.8924   -3.9952 H   0  0  0  0  0  0  0  0  0  0  0  0
    0.7360    0.6822   -3.5030 H   0  0  0  0  0  0  0  0  0  0  0  0
   -0.1867    3.4133   -2.4256 H   0  0  0  0  0  0  0  0  0  0  0  0
    1.4966    2.9042   -2.6056 H   0  0  0  0  0  0  0  0  0  0  0  0
    0.4754    3.1196   -4.0397 H   0  0  0  0  0  0  0  0  0  0  0  0
    1.2978    0.5411   -0.9947 N   0  0  0  0  0  0  0  0  0  0  0  0
    1.5371    0.0807    0.3489 C   0  0  2  0  0  0  0  0  0  0  0  0
    2.9543   -0.4803    0.3884 C   0  0  0  0  0  0  0  0  0  0  0  0
    3.2439   -1.5257    0.9666 O   0  0  0  0  0  0  0  0  0  0  0  0
    0.5275   -0.9896    0.7827 C   0  0  0  0  0  0  0  0  0  0  0  0
   -0.9006   -0.4583    0.9208 C   0  0  0  0  0  0  0  0  0  0  0  0
   -1.9055   -1.5203    1.3265 C   0  0  0  0  0  0  0  0  0  0  0  0
   -1.6314   -2.7093    1.4599 O   0  0  0  0  0  0  0  0  0  0  0  0
   -3.1711   -1.0036    1.5041 N   0  0  0  0  0  0  0  0  0  0  0  0
    2.0949    0.6178   -1.6227 H   0  0  0  0  0  0  0  0  0  0  0  0
    1.4844    0.9621    0.9969 H   0  0  0  0  0  0  0  0  0  0  0  0
    0.5244   -1.8026    0.0445 H   0  0  0  0  0  0  0  0  0  0  0  0
    0.8428   -1.4412    1.7318 H   0  0  0  0  0  0  0  0  0  0  0  0
   -1.2261   -0.0662   -0.0508 H   0  0  0  0  0  0  0  0  0  0  0  0
   -0.9402    0.3709    1.6360 H   0  0  0  0  0  0  0  0  0  0  0  0
   -3.3190   -0.0106    1.3573 H   0  0  0  0  0  0  0  0  0  0  0  0
   -3.9603   -1.5808    1.7766 H   0  0  0  0  0  0  0  0  0  0  0  0
    3.8607    0.3510   -0.2547 N   0  0  0  0  0  0  0  0  0  0  0  0
    5.2744    0.0648   -0.3445 C   0  0  2  0  0  0  0  0  0  0  0  0
    5.4338   -1.3739   -0.8182 C   0  0  0  0  0  0  0  0  0  0  0  0
    4.5560   -2.2244   -0.6871 O   0  0  0  0  0  0  0  0  0  0  0  0
    5.9679    0.2769    0.9922 C   0  0  0  0  0  0  0  0  0  0  0  0
    3.5129    1.2034   -0.6839 H   0  0  0  0  0  0  0  0  0  0  0  0
    5.6878    0.7454   -1.0967 H   0  0  0  0  0  0  0  0  0  0  0  0
    5.5670   -0.3965    1.7585 H   0  0  0  0  0  0  0  0  0  0  0  0
    7.0436    0.0872    0.9156 H   0  0  0  0  0  0  0  0  0  0  0  0
    5.8271    1.3040    1.3456 H   0  0  0  0  0  0  0  0  0  0  0  0
    6.6877   -1.6073   -1.3654 N   0  0  0  0  0  0  0  0  0  0  0  0
    7.0878   -2.8980   -1.8754 C   0  0  0  0  0  0  0  0  0  0  0  0
    7.3463   -0.8388   -1.4514 H   0  0  0  0  0  0  0  0  0  0  0  0
    7.5913   -3.4671   -1.0801 H   0  0  0  0  0  0  0  0  0  0  0  0
    6.1986   -3.4499   -2.2143 H   0  0  0  0  0  0  0  0  0  0  0  0
    7.7780   -2.7602   -2.7207 H   0  0  0  0  0  0  0  0  0  0  0  0
  1  3  1  0  0  0  0
  1  7  1  0  0  0  0
  1  2  2  0  0  0  0
 22 23  1  0  0  0  0
 23 25  1  0  0  0  0
 23 24  2  0  0  0  0
 35 36  1  0  0  0  0
 36 44  1  0  0  0  0
 36 37  2  0  0  0  0
  8  9  1  0  0  0  0
  9 17  1  0  0  0  0
  9 10  2  0  0  0  0
 18 19  1  0  0  0  0
 19 34  1  0  0  0  0
 19 20  2  0  0  0  0
 35 38  1  0  0  0  0
  8 11  1  0  0  0  0
 44 45  1  0  0  0  0
 21 22  1  0  0  0  0
 18 21  1  0  0  0  0
 34 35  1  0  0  0  0
  7  8  1  0  0  0  0
 17 18  1  0  0  0  0
  3  4  1  0  0  0  0
  3  5  1  0  0  0  0
  3  6  1  0  0  0  0
 38 41  1  0  0  0  0
 38 42  1  0  0  0  0
 38 43  1  0  0  0  0
 11 14  1  0  0  0  0
 11 15  1  0  0  0  0
 11 16  1  0  0  0  0
 45 47  1  0  0  0  0
 45 48  1  0  0  0  0
 45 49  1  0  0  0  0
 22 30  1  0  0  0  0
 22 31  1  0  0  0  0
 21 28  1  0  0  0  0
 21 29  1  0  0  0  0
 35 40  1  0  0  0  0
  8 13  1  0  0  0  0
 18 27  1  0  0  0  0
 25 32  1  0  0  0  0
 25 33  1  0  0  0  0
 44 46  1  0  0  0  0
  7 12  1  0  0  0  0
 34 39  1  0  0  0  0
 17 26  1  0  0  0  0
M  END
$$$$

  -OEChem-05262214473D

 49 48  0     1  0  0  0  0  0999 V2000
   -1.9833   -0.0509   -3.3423 C   0  0  0  0  0  0  0  0  0  0  0  0
   -1.6199   -1.0613   -2.7518 O   0  0  0  0  0  0  0  0  0  0  0  0
   -3.3243   -0.0235   -3.9975 C   0  0  0  0  0  0  0  0  0  0  0  0
   -3.2886   -0.3689   -5.0432 H   0  0  0  0  0  0  0  0  0  0  0  0
   -4.0503   -0.6845   -3.4973 H   0  0  0  0  0  0  0  0  0  0  0  0
   -3.8104    0.9645   -4.0351 H   0  0  0  0  0  0  0  0  0  0  0  0
   -1.2607    1.1231   -3.4768 N   0  0  0  0  0  0  0  0  0  0  0  0
    0.0536    1.3115   -2.9213 C   0  0  2  0  0  0  0  0  0  0  0  0
    0.0266    0.8315   -1.4761 C   0  0  0  0  0  0  0  0  0  0  0  0
   -1.0065    0.7530   -0.8146 O   0  0  0  0  0  0  0  0  0  0  0  0
    0.4852    2.7674   -3.0025 C   0  0  0  0  0  0  0  0  0  0  0  0
   -1.6809    1.8924   -3.9952 H   0  0  0  0  0  0  0  0  0  0  0  0
    0.7360    0.6822   -3.5030 H   0  0  0  0  0  0  0  0  0  0  0  0
   -0.1867    3.4133   -2.4256 H   0  0  0  0  0  0  0  0  0  0  0  0
    1.4966    2.9042   -2.6056 H   0  0  0  0  0  0  0  0  0  0  0  0
    0.4754    3.1196   -4.0397 H   0  0  0  0  0  0  0  0  0  0  0  0
    1.2978    0.5411   -0.9947 N   0  0  0  0  0  0  0  0  0  0  0  0
    1.5371    0.0807    0.3489 C   0  0  2  0  0  0  0  0  0  0  0  0
    2.9543   -0.4803    0.3884 C   0  0  0  0  0  0  0  0  0  0  0  0
    3.2072   -1.6356    0.7236 O   0  0  0  0  0  0  0  0  0  0  0  0
    0.5275   -0.9896    0.7827 C   0  0  0  0  0  0  0  0  0  0  0  0
   -0.9006   -0.4583    0.9208 C   0  0  0  0  0  0  0  0  0  0  0  0
   -1.9055   -1.5203    1.3265 C   0  0  0  0  0  0  0  0  0  0  0  0
   -1.6314   -2.7093    1.4599 O   0  0  0  0  0  0  0  0  0  0  0  0
   -3.1711   -1.0036    1.5041 N   0  0  0  0  0  0  0  0  0  0  0  0
    2.0949    0.6178   -1.6227 H   0  0  0  0  0  0  0  0  0  0  0  0
    1.4844    0.9621    0.9969 H   0  0  0  0  0  0  0  0  0  0  0  0
    0.5244   -1.8026    0.0445 H   0  0  0  0  0  0  0  0  0  0  0  0
    0.8428   -1.4412    1.7318 H   0  0  0  0  0  0  0  0  0  0  0  0
   -1.2261   -0.0662   -0.0508 H   0  0  0  0  0  0  0  0  0  0  0  0
   -0.9402    0.3709    1.6360 H   0  0  0  0  0  0  0  0  0  0  0  0
   -3.3190   -0.0106    1.3573 H   0  0  0  0  0  0  0  0  0  0  0  0
   -3.9603   -1.5808    1.7766 H   0  0  0  0  0  0  0  0  0  0  0  0
    3.9019    0.4770    0.0540 N   0  0  0  0  0  0  0  0  0  0  0  0
    5.3229    0.2138    0.0343 C   0  0  2  0  0  0  0  0  0  0  0  0
    5.5526   -1.0692   -0.7536 C   0  0  0  0  0  0  0  0  0  0  0  0
    4.6821   -1.9218   -0.9157 O   0  0  0  0  0  0  0  0  0  0  0  0
    5.8830    0.0942    1.4430 C   0  0  0  0  0  0  0  0  0  0  0  0
    3.5807    1.4094   -0.1892 H   0  0  0  0  0  0  0  0  0  0  0  0
    5.7928    1.0536   -0.4891 H   0  0  0  0  0  0  0  0  0  0  0  0
    5.4240   -0.7419    1.9830 H   0  0  0  0  0  0  0  0  0  0  0  0
    6.9645   -0.0767    1.4268 H   0  0  0  0  0  0  0  0  0  0  0  0
    5.6906    1.0067    2.0177 H   0  0  0  0  0  0  0  0  0  0  0  0
    6.8566   -1.1701   -1.2179 N   0  0  0  0  0  0  0  0  0  0  0  0
    7.3267   -2.3018   -1.9821 C   0  0  0  0  0  0  0  0  0  0  0  0
    7.5062   -0.4068   -1.0530 H   0  0  0  0  0  0  0  0  0  0  0  0
    7.7633   -3.0482   -1.3022 H   0  0  0  0  0  0  0  0  0  0  0  0
    6.4838   -2.7515   -2.5275 H   0  0  0  0  0  0  0  0  0  0  0  0
    8.0911   -1.9679   -2.6992 H   0  0  0  0  0  0  0  0  0  0  0  0
  1  3  1  0  0  0  0
  1  7  1  0  0  0  0
  1  2  2  0  0  0  0
 22 23  1  0  0  0  0
 23 25  1  0  0  0  0
 23 24  2  0  0  0  0
 35 36  1  0  0  0  0
 36 44  1  0  0  0  0
 36 37  2  0  0  0  0
  8  9  1  0  0  0  0
  9 17  1  0  0  0  0
  9 10  2  0  0  0  0
 18 19  1  0  0  0  0
 19 34  1  0  0  0  0
 19 20  2  0  0  0  0
 35 38  1  0  0  0  0
  8 11  1  0  0  0  0
 44 45  1  0  0  0  0
 21 22  1  0  0  0  0
 18 21  1  0  0  0  0
 34 35  1  0  0  0  0
  7  8  1  0  0  0  0
 17 18  1  0  0  0  0
  3  4  1  0  0  0  0
  3  5  1  0  0  0  0
  3  6  1  0  0  0  0
 38 41  1  0  0  0  0
 38 42  1  0  0  0  0
 38 43  1  0  0  0  0
 11 14  1  0  0  0  0
 11 15  1  0  0  0  0
 11 16  1  0  0  0  0
 45 47  1  0  0  0  0
 45 48  1  0  0  0  0
 45 49  1  0  0  0  0
 22 30  1  0  0  0  0
 22 31  1  0  0  0  0
 21 28  1  0  0  0  0
 21 29  1  0  0  0  0
 35 40  1  0  0  0  0
  8 13  1  0  0  0  0
 18 27  1  0  0  0  0
 25 32  1  0  0  0  0
 25 33  1  0  0  0  0
 44 46  1  0  0  0  0
  7 12  1  0  0  0  0
 34 39  1  0  0  0  0
 17 26  1  0  0  0  0
M  END
$$$$

  -OEChem-05262214473D

 49 48  0     1  0  0  0  0  0999 V2000
   -1.9833   -0.0509   -3.3423 C   0  0  0  0  0  0  0  0  0  0  0  0
   -1.6199   -1.0613   -2.7518 O   0  0  0  0  0  0  0  0  0  0  0  0
   -3.3243   -0.0235   -3.9975 C   0  0  0  0  0  0  0  0  0  0  0  0
   -3.2886   -0.3689   -5.0432 H   0  0  0  0  0  0  0  0  0  0  0  0
   -4.0503   -0.6845   -3.4973 H   0  0  0  0  0  0  0  0  0  0  0  0
   -3.8104    0.9645   -4.0351 H   0  0  0  0  0  0  0  0  0  0  0  0
   -1.2607    1.1231   -3.4768 N   0  0  0  0  0  0  0  0  0  0  0  0
    0.0536    1.3115   -2.9213 C   0  0  2  0  0  0  0  0  0  0  0  0
    0.0266    0.8315   -1.4761 C   0  0  0  0  0  0  0  0  0  0  0  0
   -1.0065    0.7530   -0.8146 O   0  0  0  0  0  0  0  0  0  0  0  0
    0.4852    2.7674   -3.0025 C   0  0  0  0  0  0  0  0  0  0  0  0
   -1.6809    1.8924   -3.9952 H   0  0  0  0  0  0  0  0  0  0  0  0
    0.7360    0.6822   -3.5030 H   0  0  0  0  0  0  0  0  0  0  0  0
   -0.1867    3.4133   -2.4256 H   0  0  0  0  0  0  0  0  0  0  0  0
    1.4966    2.9042   -2.6056 H   0  0  0  0  0  0  0  0  0  0  0  0
    0.4754    3.1196   -4.0397 H   0  0  0  0  0  0  0  0  0  0  0  0
    1.2978    0.5411   -0.9947 N   0  0  0  0  0  0  0  0  0  0  0  0
    1.5371    0.0807    0.3489 C   0  0  2  0  0  0  0  0  0  0  0  0
    2.9543   -0.4803    0.3884 C   0  0  0  0  0  0  0  0  0  0  0  0
    3.1956   -1.6835    0.4589 O   0  0  0  0  0  0  0  0  0  0  0  0
    0.5275   -0.9896    0.7827 C   0  0  0  0  0  0  0  0  0  0  0  0
   -0.9006   -0.4583    0.9208 C   0  0  0  0  0  0  0  0  0  0  0  0
   -1.9055   -1.5203    1.3265 C   0  0  0  0  0  0  0  0  0  0  0  0
   -1.6314   -2.7093    1.4599 O   0  0  0  0  0  0  0  0  0  0  0  0
   -3.1711   -1.0036    1.5041 N   0  0  0  0  0  0  0  0  0  0  0  0
    2.0949    0.6178   -1.6227 H   0  0  0  0  0  0  0  0  0  0  0  0
    1.4844    0.9621    0.9969 H   0  0  0  0  0  0  0  0  0  0  0  0
    0.5244   -1.8026    0.0445 H   0  0  0  0  0  0  0  0  0  0  0  0
    0.8428   -1.4412    1.7318 H   0  0  0  0  0  0  0  0  0  0  0  0
   -1.2261   -0.0662   -0.0508 H   0  0  0  0  0  0  0  0  0  0  0  0
   -0.9402    0.3709    1.6360 H   0  0  0  0  0  0  0  0  0  0  0  0
   -3.3190   -0.0106    1.3573 H   0  0  0  0  0  0  0  0  0  0  0  0
   -3.9603   -1.5808    1.7766 H   0  0  0  0  0  0  0  0  0  0  0  0
    3.9115    0.5247    0.3864 N   0  0  0  0  0  0  0  0  0  0  0  0
    5.3326    0.2669    0.4406 C   0  0  2  0  0  0  0  0  0  0  0  0
    5.6592   -0.7896   -0.6066 C   0  0  0  0  0  0  0  0  0  0  0  0
    4.8237   -1.5738   -1.0516 O   0  0  0  0  0  0  0  0  0  0  0  0
    5.7593   -0.1912    1.8265 C   0  0  0  0  0  0  0  0  0  0  0  0
    3.5976    1.4897    0.3447 H   0  0  0  0  0  0  0  0  0  0  0  0
    5.8344    1.2057    0.1819 H   0  0  0  0  0  0  0  0  0  0  0  0
    5.2668   -1.1305    2.1031 H   0  0  0  0  0  0  0  0  0  0  0  0
    6.8404   -0.3586    1.8736 H   0  0  0  0  0  0  0  0  0  0  0  0
    5.4968    0.5569    2.5823 H   0  0  0  0  0  0  0  0  0  0  0  0
    7.0029   -0.7821   -0.9540 N   0  0  0  0  0  0  0  0  0  0  0  0
    7.5637   -1.6988   -1.9190 C   0  0  0  0  0  0  0  0  0  0  0  0
    7.6198   -0.0842   -0.5490 H   0  0  0  0  0  0  0  0  0  0  0  0
    7.9478   -2.5891   -1.3996 H   0  0  0  0  0  0  0  0  0  0  0  0
    6.7845   -1.9996   -2.6347 H   0  0  0  0  0  0  0  0  0  0  0  0
    8.3861   -1.2057   -2.4580 H   0  0  0  0  0  0  0  0  0  0  0  0
  1  3  1  0  0  0  0
  1  7  1  0  0  0  0
  1  2  2  0  0  0  0
 22 23  1  0  0  0  0
 23 25  1  0  0  0  0
 23 24  2  0  0  0  0
 35 36  1  0  0  0  0
 36 44  1  0  0  0  0
 36 37  2  0  0  0  0
  8  9  1  0  0  0  0
  9 17  1  0  0  0  0
  9 10  2  0  0  0  0
 18 19  1  0  0  0  0
 19 34  1  0  0  0  0
 19 20  2  0  0  0  0
 35 38  1  0  0  0  0
  8 11  1  0  0  0  0
 44 45  1  0  0  0  0
 21 22  1  0  0  0  0
 18 21  1  0  0  0  0
 34 35  1  0  0  0  0
  7  8  1  0  0  0  0
 17 18  1  0  0  0  0
  3  4  1  0  0  0  0
  3  5  1  0  0  0  0
  3  6  1  0  0  0  0
 38 41  1  0  0  0  0
 38 42  1  0  0  0  0
 38 43  1  0  0  0  0
 11 14  1  0  0  0  0
 11 15  1  0  0  0  0
 11 16  1  0  0  0  0
 45 47  1  0  0  0  0
 45 48  1  0  0  0  0
 45 49  1  0  0  0  0
 22 30  1  0  0  0  0
 22 31  1  0  0  0  0
 21 28  1  0  0  0  0
 21 29  1  0  0  0  0
 35 40  1  0  0  0  0
  8 13  1  0  0  0  0
 18 27  1  0  0  0  0
 25 32  1  0  0  0  0
 25 33  1  0  0  0  0
 44 46  1  0  0  0  0
  7 12  1  0  0  0  0
 34 39  1  0  0  0  0
 17 26  1  0  0  0  0
M  END
$$$$

  -OEChem-05262214473D

 49 48  0     1  0  0  0  0  0999 V2000
   -1.9833   -0.0509   -3.3423 C   0  0  0  0  0  0  0  0  0  0  0  0
   -1.6199   -1.0613   -2.7518 O   0  0  0  0  0  0  0  0  0  0  0  0
   -3.3243   -0.0235   -3.9975 C   0  0  0  0  0  0  0  0  0  0  0  0
   -3.2886   -0.3689   -5.0432 H   0  0  0  0  0  0  0  0  0  0  0  0
   -4.0503   -0.6845   -3.4973 H   0  0  0  0  0  0  0  0  0  0  0  0
   -3.8104    0.9645   -4.0351 H   0  0  0  0  0  0  0  0  0  0  0  0
   -1.2607    1.1231   -3.4768 N   0  0  0  0  0  0  0  0  0  0  0  0
    0.0536    1.3115   -2.9213 C   0  0  2  0  0  0  0  0  0  0  0  0
    0.0266    0.8315   -1.4761 C   0  0  0  0  0  0  0  0  0  0  0  0
   -1.0065    0.7530   -0.8146 O   0  0  0  0  0  0  0  0  0  0  0  0
    0.4852    2.7674   -3.0025 C   0  0  0  0  0  0  0  0  0  0  0  0
   -1.6809    1.8924   -3.9952 H   0  0  0  0  0  0  0  0  0  0  0  0
    0.7360    0.6822   -3.5030 H   0  0  0  0  0  0  0  0  0  0  0  0
   -0.1867    3.4133   -2.4256 H   0  0  0  0  0  0  0  0  0  0  0  0
    1.4966    2.9042   -2.6056 H   0  0  0  0  0  0  0  0  0  0  0  0
    0.4754    3.1196   -4.0397 H   0  0  0  0  0  0  0  0  0  0  0  0
    1.2978    0.5411   -0.9947 N   0  0  0  0  0  0  0  0  0  0  0  0
    1.5371    0.0807    0.3489 C   0  0  2  0  0  0  0  0  0  0  0  0
    2.9543   -0.4803    0.3884 C   0  0  0  0  0  0  0  0  0  0  0  0
    3.2099   -1.6663    0.1907 O   0  0  0  0  0  0  0  0  0  0  0  0
    0.5275   -0.9896    0.7827 C   0  0  0  0  0  0  0  0  0  0  0  0
   -0.9006   -0.4583    0.9208 C   0  0  0  0  0  0  0  0  0  0  0  0
   -1.9055   -1.5203    1.3265 C   0  0  0  0  0  0  0  0  0  0  0  0
   -1.6314   -2.7093    1.4599 O   0  0  0  0  0  0  0  0  0  0  0  0
   -3.1711   -1.0036    1.5041 N   0  0  0  0  0  0  0  0  0  0  0  0
    2.0949    0.6178   -1.6227 H   0  0  0  0  0  0  0  0  0  0  0  0
    1.4844    0.9621    0.9969 H   0  0  0  0  0  0  0  0  0  0  0  0
    0.5244   -1.8026    0.0445 H   0  0  0  0  0  0  0  0  0  0  0  0
    0.8428   -1.4412    1.7318 H   0  0  0  0  0  0  0  0  0  0  0  0
   -1.2261   -0.0662   -0.0508 H   0  0  0  0  0  0  0  0  0  0  0  0
   -0.9402    0.3709    1.6360 H   0  0  0  0  0  0  0  0  0  0  0  0
   -3.3190   -0.0106    1.3573 H   0  0  0  0  0  0  0  0  0  0  0  0
   -3.9603   -1.5808    1.7766 H   0  0  0  0  0  0  0  0  0  0  0  0
    3.8888    0.4908    0.7198 N   0  0  0  0  0  0  0  0  0  0  0  0
    5.3029    0.2206    0.8468 C   0  0  2  0  0  0  0  0  0  0  0  0
    5.7463   -0.5542   -0.3872 C   0  0  0  0  0  0  0  0  0  0  0  0
    4.9711   -1.2039   -1.0857 O   0  0  0  0  0  0  0  0  0  0  0  0
    5.6053   -0.5600    2.1164 C   0  0  0  0  0  0  0  0  0  0  0  0
    3.5626    1.4391    0.8812 H   0  0  0  0  0  0  0  0  0  0  0  0
    5.8095    1.1916    0.8707 H   0  0  0  0  0  0  0  0  0  0  0  0
    5.1061   -1.5359    2.1106 H   0  0  0  0  0  0  0  0  0  0  0  0
    6.6800   -0.7392    2.2256 H   0  0  0  0  0  0  0  0  0  0  0  0
    5.2588   -0.0147    3.0010 H   0  0  0  0  0  0  0  0  0  0  0  0
    7.1164   -0.4699   -0.5919 N   0  0  0  0  0  0  0  0  0  0  0  0
    7.7826   -1.1298   -1.6904 C   0  0  0  0  0  0  0  0  0  0  0  0
    7.6794    0.1068    0.0263 H   0  0  0  0  0  0  0  0  0  0  0  0
    8.1321   -2.1210   -1.3657 H   0  0  0  0  0  0  0  0  0  0  0  0
    7.0801   -1.2455   -2.5289 H   0  0  0  0  0  0  0  0  0  0  0  0
    8.6430   -0.5255   -2.0136 H   0  0  0  0  0  0  0  0  0  0  0  0
  1  3  1  0  0  0  0
  1  7  1  0  0  0  0
  1  2  2  0  0  0  0
 22 23  1  0  0  0  0
 23 25  1  0  0  0  0
 23 24  2  0  0  0  0
 35 36  1  0  0  0  0
 36 44  1  0  0  0  0
 36 37  2  0  0  0  0
  8  9  1  0  0  0  0
  9 17  1  0  0  0  0
  9 10  2  0  0  0  0
 18 19  1  0  0  0  0
 19 34  1  0  0  0  0
 19 20  2  0  0  0  0
 35 38  1  0  0  0  0
  8 11  1  0  0  0  0
 44 45  1  0  0  0  0
 21 22  1  0  0  0  0
 18 21  1  0  0  0  0
 34 35  1  0  0  0  0
  7  8  1  0  0  0  0
 17 18  1  0  0  0  0
  3  4  1  0  0  0  0
  3  5  1  0  0  0  0
  3  6  1  0  0  0  0
 38 41  1  0  0  0  0
 38 42  1  0  0  0  0
 38 43  1  0  0  0  0
 11 14  1  0  0  0  0
 11 15  1  0  0  0  0
 11 16  1  0  0  0  0
 45 47  1  0  0  0  0
 45 48  1  0  0  0  0
 45 49  1  0  0  0  0
 22 30  1  0  0  0  0
 22 31  1  0  0  0  0
 21 28  1  0  0  0  0
 21 29  1  0  0  0  0
 35 40  1  0  0  0  0
  8 13  1  0  0  0  0
 18 27  1  0  0  0  0
 25 32  1  0  0  0  0
 25 33  1  0  0  0  0
 44 46  1  0  0  0  0
  7 12  1  0  0  0  0
 34 39  1  0  0  0  0
 17 26  1  0  0  0  0
M  END
$$$$

  -OEChem-05262214473D

 49 48  0     1  0  0  0  0  0999 V2000
   -1.9833   -0.0509   -3.3423 C   0  0  0  0  0  0  0  0  0  0  0  0
   -1.6199   -1.0613   -2.7518 O   0  0  0  0  0  0  0  0  0  0  0  0
   -3.3243   -0.0235   -3.9975 C   0  0  0  0  0  0  0  0  0  0  0  0
   -3.2886   -0.3689   -5.0432 H   0  0  0  0  0  0  0  0  0  0  0  0
   -4.0503   -0.6845   -3.4973 H   0  0  0  0  0  0  0  0  0  0  0  0
   -3.8104    0.9645   -4.0351 H   0  0  0  0  0  0  0  0  0  0  0  0
   -1.2607    1.1231   -3.4768 N   0  0  0  0  0  0  0  0  0  0  0  0
    0.0536    1.3115   -2.9213 C   0  0  2  0  0  0  0  0  0  0  0  0
    0.0266    0.8315   -1.4761 C   0  0  0  0  0  0  0  0  0  0  0  0
   -1.0065    0.7530   -0.8146 O   0  0  0  0  0  0  0  0  0  0  0  0
    0.4852    2.7674   -3.0025 C   0  0  0  0  0  0  0  0  0  0  0  0
   -1.6809    1.8924   -3.9952 H   0  0  0  0  0  0  0  0  0  0  0  0
    0.7360    0.6822   -3.5030 H   0  0  0  0  0  0  0  0  0  0  0  0
   -0.1867    3.4133   -2.4256 H   0  0  0  0  0  0  0  0  0  0  0  0
    1.4966    2.9042   -2.6056 H   0  0  0  0  0  0  0  0  0  0  0  0
    0.4754    3.1196   -4.0397 H   0  0  0  0  0  0  0  0  0  0  0  0
    1.2978    0.5411   -0.9947 N   0  0  0  0  0  0  0  0  0  0  0  0
    1.5371    0.0807    0.3489 C   0  0  2  0  0  0  0  0  0  0  0  0
    2.9543   -0.4803    0.3884 C   0  0  0  0  0  0  0  0  0  0  0  0
    3.2491   -1.5850   -0.0630 O   0  0  0  0  0  0  0  0  0  0  0  0
    0.5275   -0.9896    0.7827 C   0  0  0  0  0  0  0  0  0  0  0  0
   -0.9006   -0.4583    0.9208 C   0  0  0  0  0  0  0  0  0  0  0  0
   -1.9055   -1.5203    1.3265 C   0  0  0  0  0  0  0  0  0  0  0  0
   -1.6314   -2.7093    1.4599 O   0  0  0  0  0  0  0  0  0  0  0  0
   -3.1711   -1.0036    1.5041 N   0  0  0  0  0  0  0  0  0  0  0  0
    2.0949    0.6178   -1.6227 H   0  0  0  0  0  0  0  0  0  0  0  0
    1.4844    0.9621    0.9969 H   0  0  0  0  0  0  0  0  0  0  0  0
    0.5244   -1.8026    0.0445 H   0  0  0  0  0  0  0  0  0  0  0  0
    0.8428   -1.4412    1.7318 H   0  0  0  0  0  0  0  0  0  0  0  0
   -1.2261   -0.0662   -0.0508 H   0  0  0  0  0  0  0  0  0  0  0  0
   -0.9402    0.3709    1.6360 H   0  0  0  0  0  0  0  0  0  0  0  0
   -3.3190   -0.0106    1.3573 H   0  0  0  0  0  0  0  0  0  0  0  0
   -3.9603   -1.5808    1.7766 H   0  0  0  0  0  0  0  0  0  0  0  0
    3.8354    0.3778    1.0316 N   0  0  0  0  0  0  0  0  0  0  0  0
    5.2359    0.0779    1.2252 C   0  0  2  0  0  0  0  0  0  0  0  0
    5.8079   -0.3790   -0.1103 C   0  0  0  0  0  0  0  0  0  0  0  0
    5.1142   -0.8375   -1.0156 O   0  0  0  0  0  0  0  0  0  0  0  0
    5.4313   -0.9870    2.2931 C   0  0  0  0  0  0  0  0  0  0  0  0
    3.4780    1.2608    1.3840 H   0  0  0  0  0  0  0  0  0  0  0  0
    5.7201    1.0120    1.5302 H   0  0  0  0  0  0  0  0  0  0  0  0
    4.9529   -1.9303    2.0051 H   0  0  0  0  0  0  0  0  0  0  0  0
    6.4940   -1.1925    2.4587 H   0  0  0  0  0  0  0  0  0  0  0  0
    4.9929   -0.6692    3.2452 H   0  0  0  0  0  0  0  0  0  0  0  0
    7.1894   -0.2546   -0.1562 N   0  0  0  0  0  0  0  0  0  0  0  0
    7.9684   -0.6338   -1.3118 C   0  0  0  0  0  0  0  0  0  0  0  0
    7.6809    0.1534    0.6335 H   0  0  0  0  0  0  0  0  0  0  0  0
    8.3039   -1.6757   -1.2027 H   0  0  0  0  0  0  0  0  0  0  0  0
    7.3504   -0.5406   -2.2171 H   0  0  0  0  0  0  0  0  0  0  0  0
    8.8442    0.0263   -1.3962 H   0  0  0  0  0  0  0  0  0  0  0  0
  1  3  1  0  0  0  0
  1  7  1  0  0  0  0
  1  2  2  0  0  0  0
 22 23  1  0  0  0  0
 23 25  1  0  0  0  0
 23 24  2  0  0  0  0
 35 36  1  0  0  0  0
 36 44  1  0  0  0  0
 36 37  2  0  0  0  0
  8  9  1  0  0  0  0
  9 17  1  0  0  0  0
  9 10  2  0  0  0  0
 18 19  1  0  0  0  0
 19 34  1  0  0  0  0
 19 20  2  0  0  0  0
 35 38  1  0  0  0  0
  8 11  1  0  0  0  0
 44 45  1  0  0  0  0
 21 22  1  0  0  0  0
 18 21  1  0  0  0  0
 34 35  1  0  0  0  0
  7  8  1  0  0  0  0
 17 18  1  0  0  0  0
  3  4  1  0  0  0  0
  3  5  1  0  0  0  0
  3  6  1  0  0  0  0
 38 41  1  0  0  0  0
 38 42  1  0  0  0  0
 38 43  1  0  0  0  0
 11 14  1  0  0  0  0
 11 15  1  0  0  0  0
 11 16  1  0  0  0  0
 45 47  1  0  0  0  0
 45 48  1  0  0  0  0
 45 49  1  0  0  0  0
 22 30  1  0  0  0  0
 22 31  1  0  0  0  0
 21 28  1  0  0  0  0
 21 29  1  0  0  0  0
 35 40  1  0  0  0  0
  8 13  1  0  0  0  0
 18 27  1  0  0  0  0
 25 32  1  0  0  0  0
 25 33  1  0  0  0  0
 44 46  1  0  0  0  0
  7 12  1  0  0  0  0
 34 39  1  0  0  0  0
 17 26  1  0  0  0  0
M  END
$$$$

  -OEChem-05262214473D

 49 48  0     1  0  0  0  0  0999 V2000
   -1.9833   -0.0509   -3.3423 C   0  0  0  0  0  0  0  0  0  0  0  0
   -1.6199   -1.0613   -2.7518 O   0  0  0  0  0  0  0  0  0  0  0  0
   -3.3243   -0.0235   -3.9975 C   0  0  0  0  0  0  0  0  0  0  0  0
   -3.2886   -0.3689   -5.0432 H   0  0  0  0  0  0  0  0  0  0  0  0
   -4.0503   -0.6845   -3.4973 H   0  0  0  0  0  0  0  0  0  0  0  0
   -3.8104    0.9645   -4.0351 H   0  0  0  0  0  0  0  0  0  0  0  0
   -1.2607    1.1231   -3.4768 N   0  0  0  0  0  0  0  0  0  0  0  0
    0.0536    1.3115   -2.9213 C   0  0  2  0  0  0  0  0  0  0  0  0
    0.0266    0.8315   -1.4761 C   0  0  0  0  0  0  0  0  0  0  0  0
   -1.0065    0.7530   -0.8146 O   0  0  0  0  0  0  0  0  0  0  0  0
    0.4852    2.7674   -3.0025 C   0  0  0  0  0  0  0  0  0  0  0  0
   -1.6809    1.8924   -3.9952 H   0  0  0  0  0  0  0  0  0  0  0  0
    0.7360    0.6822   -3.5030 H   0  0  0  0  0  0  0  0  0  0  0  0
   -0.1867    3.4133   -2.4256 H   0  0  0  0  0  0  0  0  0  0  0  0
    1.4966    2.9042   -2.6056 H   0  0  0  0  0  0  0  0  0  0  0  0
    0.4754    3.1196   -4.0397 H   0  0  0  0  0  0  0  0  0  0  0  0
    1.2978    0.5411   -0.9947 N   0  0  0  0  0  0  0  0  0  0  0  0
    1.5371    0.0807    0.3489 C   0  0  2  0  0  0  0  0  0  0  0  0
    2.9543   -0.4803    0.3884 C   0  0  0  0  0  0  0  0  0  0  0  0
    3.3107   -1.4451   -0.2847 O   0  0  0  0  0  0  0  0  0  0  0  0
    0.5275   -0.9896    0.7827 C   0  0  0  0  0  0  0  0  0  0  0  0
   -0.9006   -0.4583    0.9208 C   0  0  0  0  0  0  0  0  0  0  0  0
   -1.9055   -1.5203    1.3265 C   0  0  0  0  0  0  0  0  0  0  0  0
   -1.6314   -2.7093    1.4599 O   0  0  0  0  0  0  0  0  0  0  0  0
   -3.1711   -1.0036    1.5041 N   0  0  0  0  0  0  0  0  0  0  0  0
    2.0949    0.6178   -1.6227 H   0  0  0  0  0  0  0  0  0  0  0  0
    1.4844    0.9621    0.9969 H   0  0  0  0  0  0  0  0  0  0  0  0
    0.5244   -1.8026    0.0445 H   0  0  0  0  0  0  0  0  0  0  0  0
    0.8428   -1.4412    1.7318 H   0  0  0  0  0  0  0  0  0  0  0  0
   -1.2261   -0.0662   -0.0508 H   0  0  0  0  0  0  0  0  0  0  0  0
   -0.9402    0.3709    1.6360 H   0  0  0  0  0  0  0  0  0  0  0  0
   -3.3190   -0.0106    1.3573 H   0  0  0  0  0  0  0  0  0  0  0  0
   -3.9603   -1.5808    1.7766 H   0  0  0  0  0  0  0  0  0  0  0  0
    3.7548    0.1932    1.3005 N   0  0  0  0  0  0  0  0  0  0  0  0
    5.1360   -0.1514    1.5500 C   0  0  2  0  0  0  0  0  0  0  0  0
    5.8399   -0.2759    0.2051 C   0  0  0  0  0  0  0  0  0  0  0  0
    5.2433   -0.4994   -0.8461 O   0  0  0  0  0  0  0  0  0  0  0  0
    5.2493   -1.4432    2.3444 C   0  0  0  0  0  0  0  0  0  0  0  0
    3.3496    0.9671    1.8187 H   0  0  0  0  0  0  0  0  0  0  0  0
    5.5721    0.6793    2.1155 H   0  0  0  0  0  0  0  0  0  0  0  0
    4.8176   -2.2869    1.7937 H   0  0  0  0  0  0  0  0  0  0  0  0
    6.2952   -1.6878    2.5571 H   0  0  0  0  0  0  0  0  0  0  0  0
    4.7172   -1.3619    3.2984 H   0  0  0  0  0  0  0  0  0  0  0  0
    7.2171   -0.1510    0.3234 N   0  0  0  0  0  0  0  0  0  0  0  0
    8.1085   -0.2445   -0.8092 C   0  0  0  0  0  0  0  0  0  0  0  0
    7.6242    0.0523    1.2315 H   0  0  0  0  0  0  0  0  0  0  0  0
    8.4512   -1.2837   -0.9219 H   0  0  0  0  0  0  0  0  0  0  0  0
    7.5771    0.0671   -1.7205 H   0  0  0  0  0  0  0  0  0  0  0  0
    8.9761    0.4122   -0.6480 H   0  0  0  0  0  0  0  0  0  0  0  0
  1  3  1  0  0  0  0
  1  7  1  0  0  0  0
  1  2  2  0  0  0  0
 22 23  1  0  0  0  0
 23 25  1  0  0  0  0
 23 24  2  0  0  0  0
 35 36  1  0  0  0  0
 36 44  1  0  0  0  0
 36 37  2  0  0  0  0
  8  9  1  0  0  0  0
  9 17  1  0  0  0  0
  9 10  2  0  0  0  0
 18 19  1  0  0  0  0
 19 34  1  0  0  0  0
 19 20  2  0  0  0  0
 35 38  1  0  0  0  0
  8 11  1  0  0  0  0
 44 45  1  0  0  0  0
 21 22  1  0  0  0  0
 18 21  1  0  0  0  0
 34 35  1  0  0  0  0
  7  8  1  0  0  0  0
 17 18  1  0  0  0  0
  3  4  1  0  0  0  0
  3  5  1  0  0  0  0
  3  6  1  0  0  0  0
 38 41  1  0  0  0  0
 38 42  1  0  0  0  0
 38 43  1  0  0  0  0
 11 14  1  0  0  0  0
 11 15  1  0  0  0  0
 11 16  1  0  0  0  0
 45 47  1  0  0  0  0
 45 48  1  0  0  0  0
 45 49  1  0  0  0  0
 22 30  1  0  0  0  0
 22 31  1  0  0  0  0
 21 28  1  0  0  0  0
 21 29  1  0  0  0  0
 35 40  1  0  0  0  0
  8 13  1  0  0  0  0
 18 27  1  0  0  0  0
 25 32  1  0  0  0  0
 25 33  1  0  0  0  0
 44 46  1  0  0  0  0
  7 12  1  0  0  0  0
 34 39  1  0  0  0  0
 17 26  1  0  0  0  0
M  END
$$$$

  -OEChem-05262214473D

 49 48  0     1  0  0  0  0  0999 V2000
   -1.9833   -0.0509   -3.3423 C   0  0  0  0  0  0  0  0  0  0  0  0
   -1.6199   -1.0613   -2.7518 O   0  0  0  0  0  0  0  0  0  0  0  0
   -3.3243   -0.0235   -3.9975 C   0  0  0  0  0  0  0  0  0  0  0  0
   -3.2886   -0.3689   -5.0432 H   0  0  0  0  0  0  0  0  0  0  0  0
   -4.0503   -0.6845   -3.4973 H   0  0  0  0  0  0  0  0  0  0  0  0
   -3.8104    0.9645   -4.0351 H   0  0  0  0  0  0  0  0  0  0  0  0
   -1.2607    1.1231   -3.4768 N   0  0  0  0  0  0  0  0  0  0  0  0
    0.0536    1.3115   -2.9213 C   0  0  2  0  0  0  0  0  0  0  0  0
    0.0266    0.8315   -1.4761 C   0  0  0  0  0  0  0  0  0  0  0  0
   -1.0065    0.7530   -0.8146 O   0  0  0  0  0  0  0  0  0  0  0  0
    0.4852    2.7674   -3.0025 C   0  0  0  0  0  0  0  0  0  0  0  0
   -1.6809    1.8924   -3.9952 H   0  0  0  0  0  0  0  0  0  0  0  0
    0.7360    0.6822   -3.5030 H   0  0  0  0  0  0  0  0  0  0  0  0
   -0.1867    3.4133   -2.4256 H   0  0  0  0  0  0  0  0  0  0  0  0
    1.4966    2.9042   -2.6056 H   0  0  0  0  0  0  0  0  0  0  0  0
    0.4754    3.1196   -4.0397 H   0  0  0  0  0  0  0  0  0  0  0  0
    1.2978    0.5411   -0.9947 N   0  0  0  0  0  0  0  0  0  0  0  0
    1.5371    0.0807    0.3489 C   0  0  2  0  0  0  0  0  0  0  0  0
    2.9543   -0.4803    0.3884 C   0  0  0  0  0  0  0  0  0  0  0  0
    3.3903   -1.2563   -0.4593 O   0  0  0  0  0  0  0  0  0  0  0  0
    0.5275   -0.9896    0.7827 C   0  0  0  0  0  0  0  0  0  0  0  0
   -0.9006   -0.4583    0.9208 C   0  0  0  0  0  0  0  0  0  0  0  0
   -1.9055   -1.5203    1.3265 C   0  0  0  0  0  0  0  0  0  0  0  0
   -1.6314   -2.7093    1.4599 O   0  0  0  0  0  0  0  0  0  0  0  0
   -3.1711   -1.0036    1.5041 N   0  0  0  0  0  0  0  0  0  0  0  0
    2.0949    0.6178   -1.6227 H   0  0  0  0  0  0  0  0  0  0  0  0
    1.4844    0.9621    0.9969 H   0  0  0  0  0  0  0  0  0  0  0  0
    0.5244   -1.8026    0.0445 H   0  0  0  0  0  0  0  0  0  0  0  0
    0.8428   -1.4412    1.7318 H   0  0  0  0  0  0  0  0  0  0  0  0
   -1.2261   -0.0662   -0.0508 H   0  0  0  0  0  0  0  0  0  0  0  0
   -0.9402    0.3709    1.6360 H   0  0  0  0  0  0  0  0  0  0  0  0
   -3.3190   -0.0106    1.3573 H   0  0  0  0  0  0  0  0  0  0  0  0
   -3.9603   -1.5808    1.7766 H   0  0  0  0  0  0  0  0  0  0  0  0
    3.6526   -0.0503    1.5082 N   0  0  0  0  0  0  0  0  0  0  0  0
    5.0102   -0.4517    1.7990 C   0  0  2  0  0  0  0  0  0  0  0  0
    5.8401   -0.2521    0.5377 C   0  0  0  0  0  0  0  0  0  0  0  0
    5.3496   -0.2128   -0.5888 O   0  0  0  0  0  0  0  0  0  0  0  0
    5.0716   -1.8973    2.2669 C   0  0  0  0  0  0  0  0  0  0  0  0
    3.1861    0.5780    2.1557 H   0  0  0  0  0  0  0  0  0  0  0  0
    5.3756    0.2162    2.5867 H   0  0  0  0  0  0  0  0  0  0  0  0
    4.7095   -2.5814    1.4908 H   0  0  0  0  0  0  0  0  0  0  0  0
    6.0971   -2.1911    2.5141 H   0  0  0  0  0  0  0  0  0  0  0  0
    4.4505   -2.0456    3.1569 H   0  0  0  0  0  0  0  0  0  0  0  0
    7.1974   -0.1661    0.8142 N   0  0  0  0  0  0  0  0  0  0  0  0
    8.1933    0.0115   -0.2166 C   0  0  0  0  0  0  0  0  0  0  0  0
    7.5132   -0.1896    1.7793 H   0  0  0  0  0  0  0  0  0  0  0  0
    8.5642   -0.9715   -0.5422 H   0  0  0  0  0  0  0  0  0  0  0  0
    7.7448    0.5361   -1.0732 H   0  0  0  0  0  0  0  0  0  0  0  0
    9.0296    0.6058    0.1802 H   0  0  0  0  0  0  0  0  0  0  0  0
  1  3  1  0  0  0  0
  1  7  1  0  0  0  0
  1  2  2  0  0  0  0
 22 23  1  0  0  0  0
 23 25  1  0  0  0  0
 23 24  2  0  0  0  0
 35 36  1  0  0  0  0
 36 44  1  0  0  0  0
 36 37  2  0  0  0  0
  8  9  1  0  0  0  0
  9 17  1  0  0  0  0
  9 10  2  0  0  0  0
 18 19  1  0  0  0  0
 19 34  1  0  0  0  0
 19 20  2  0  0  0  0
 35 38  1  0  0  0  0
  8 11  1  0  0  0  0
 44 45  1  0  0  0  0
 21 22  1  0  0  0  0
 18 21  1  0  0  0  0
 34 35  1  0  0  0  0
  7  8  1  0  0  0  0
 17 18  1  0  0  0  0
  3  4  1  0  0  0  0
  3  5  1  0  0  0  0
  3  6  1  0  0  0  0
 38 41  1  0  0  0  0
 38 42  1  0  0  0  0
 38 43  1  0  0  0  0
 11 14  1  0  0  0  0
 11 15  1  0  0  0  0
 11 16  1  0  0  0  0
 45 47  1  0  0  0  0
 45 48  1  0  0  0  0
 45 49  1  0  0  0  0
 22 30  1  0  0  0  0
 22 31  1  0  0  0  0
 21 28  1  0  0  0  0
 21 29  1  0  0  0  0
 35 40  1  0  0  0  0
  8 13  1  0  0  0  0
 18 27  1  0  0  0  0
 25 32  1  0  0  0  0
 25 33  1  0  0  0  0
 44 46  1  0  0  0  0
  7 12  1  0  0  0  0
 34 39  1  0  0  0  0
 17 26  1  0  0  0  0
M  END
$$$$

  -OEChem-05262214473D

 49 48  0     1  0  0  0  0  0999 V2000
   -1.9833   -0.0509   -3.3423 C   0  0  0  0  0  0  0  0  0  0  0  0
   -1.6199   -1.0613   -2.7518 O   0  0  0  0  0  0  0  0  0  0  0  0
   -3.3243   -0.0235   -3.9975 C   0  0  0  0  0  0  0  0  0  0  0  0
   -3.2886   -0.3689   -5.0432 H   0  0  0  0  0  0  0  0  0  0  0  0
   -4.0503   -0.6845   -3.4973 H   0  0  0  0  0  0  0  0  0  0  0  0
   -3.8104    0.9645   -4.0351 H   0  0  0  0  0  0  0  0  0  0  0  0
   -1.2607    1.1231   -3.4768 N   0  0  0  0  0  0  0  0  0  0  0  0
    0.0536    1.3115   -2.9213 C   0  0  2  0  0  0  0  0  0  0  0  0
    0.0266    0.8315   -1.4761 C   0  0  0  0  0  0  0  0  0  0  0  0
   -1.0065    0.7530   -0.8146 O   0  0  0  0  0  0  0  0  0  0  0  0
    0.4852    2.7674   -3.0025 C   0  0  0  0  0  0  0  0  0  0  0  0
   -1.6809    1.8924   -3.9952 H   0  0  0  0  0  0  0  0  0  0  0  0
    0.7360    0.6822   -3.5030 H   0  0  0  0  0  0  0  0  0  0  0  0
   -0.1867    3.4133   -2.4256 H   0  0  0  0  0  0  0  0  0  0  0  0
    1.4966    2.9042   -2.6056 H   0  0  0  0  0  0  0  0  0  0  0  0
    0.4754    3.1196   -4.0397 H   0  0  0  0  0  0  0  0  0  0  0  0
    1.2978    0.5411   -0.9947 N   0  0  0  0  0  0  0  0  0  0  0  0
    1.5371    0.0807    0.3489 C   0  0  2  0  0  0  0  0  0  0  0  0
    2.9543   -0.4803    0.3884 C   0  0  0  0  0  0  0  0  0  0  0  0
    3.4826   -1.0314   -0.5750 O   0  0  0  0  0  0  0  0  0  0  0  0
    0.5275   -0.9896    0.7827 C   0  0  0  0  0  0  0  0  0  0  0  0
   -0.9006   -0.4583    0.9208 C   0  0  0  0  0  0  0  0  0  0  0  0
   -1.9055   -1.5203    1.3265 C   0  0  0  0  0  0  0  0  0  0  0  0
   -1.6314   -2.7093    1.4599 O   0  0  0  0  0  0  0  0  0  0  0  0
   -3.1711   -1.0036    1.5041 N   0  0  0  0  0  0  0  0  0  0  0  0
    2.0949    0.6178   -1.6227 H   0  0  0  0  0  0  0  0  0  0  0  0
    1.4844    0.9621    0.9969 H   0  0  0  0  0  0  0  0  0  0  0  0
    0.5244   -1.8026    0.0445 H   0  0  0  0  0  0  0  0  0  0  0  0
    0.8428   -1.4412    1.7318 H   0  0  0  0  0  0  0  0  0  0  0  0
   -1.2261   -0.0662   -0.0508 H   0  0  0  0  0  0  0  0  0  0  0  0
   -0.9402    0.3709    1.6360 H   0  0  0  0  0  0  0  0  0  0  0  0
   -3.3190   -0.0106    1.3573 H   0  0  0  0  0  0  0  0  0  0  0  0
   -3.9603   -1.5808    1.7766 H   0  0  0  0  0  0  0  0  0  0  0  0
    3.5358   -0.3362    1.6404 N   0  0  0  0  0  0  0  0  0  0  0  0
    4.8670   -0.8025    1.9553 C   0  0  2  0  0  0  0  0  0  0  0  0
    5.8084   -0.3090    0.8646 C   0  0  0  0  0  0  0  0  0  0  0  0
    5.4258    0.0029   -0.2611 O   0  0  0  0  0  0  0  0  0  0  0  0
    4.9105   -2.3186    2.0659 C   0  0  0  0  0  0  0  0  0  0  0  0
    2.9988    0.1199    2.3720 H   0  0  0  0  0  0  0  0  0  0  0  0
    5.1440   -0.3459    2.9118 H   0  0  0  0  0  0  0  0  0  0  0  0
    4.6358   -2.7938    1.1171 H   0  0  0  0  0  0  0  0  0  0  0  0
    5.9133   -2.6683    2.3326 H   0  0  0  0  0  0  0  0  0  0  0  0
    4.2109   -2.6738    2.8303 H   0  0  0  0  0  0  0  0  0  0  0  0
    7.1318   -0.2989    1.2827 N   0  0  0  0  0  0  0  0  0  0  0  0
    8.2171    0.1169    0.4254 C   0  0  0  0  0  0  0  0  0  0  0  0
    7.3554   -0.5557    2.2397 H   0  0  0  0  0  0  0  0  0  0  0  0
    8.6351   -0.7606   -0.0897 H   0  0  0  0  0  0  0  0  0  0  0  0
    7.8419    0.8345   -0.3191 H   0  0  0  0  0  0  0  0  0  0  0  0
    9.0012    0.5939    1.0318 H   0  0  0  0  0  0  0  0  0  0  0  0
  1  3  1  0  0  0  0
  1  7  1  0  0  0  0
  1  2  2  0  0  0  0
 22 23  1  0  0  0  0
 23 25  1  0  0  0  0
 23 24  2  0  0  0  0
 35 36  1  0  0  0  0
 36 44  1  0  0  0  0
 36 37  2  0  0  0  0
  8  9  1  0  0  0  0
  9 17  1  0  0  0  0
  9 10  2  0  0  0  0
 18 19  1  0  0  0  0
 19 34  1  0  0  0  0
 19 20  2  0  0  0  0
 35 38  1  0  0  0  0
  8 11  1  0  0  0  0
 44 45  1  0  0  0  0
 21 22  1  0  0  0  0
 18 21  1  0  0  0  0
 34 35  1  0  0  0  0
  7  8  1  0  0  0  0
 17 18  1  0  0  0  0
  3  4  1  0  0  0  0
  3  5  1  0  0  0  0
  3  6  1  0  0  0  0
 38 41  1  0  0  0  0
 38 42  1  0  0  0  0
 38 43  1  0  0  0  0
 11 14  1  0  0  0  0
 11 15  1  0  0  0  0
 11 16  1  0  0  0  0
 45 47  1  0  0  0  0
 45 48  1  0  0  0  0
 45 49  1  0  0  0  0
 22 30  1  0  0  0  0
 22 31  1  0  0  0  0
 21 28  1  0  0  0  0
 21 29  1  0  0  0  0
 35 40  1  0  0  0  0
  8 13  1  0  0  0  0
 18 27  1  0  0  0  0
 25 32  1  0  0  0  0
 25 33  1  0  0  0  0
 44 46  1  0  0  0  0
  7 12  1  0  0  0  0
 34 39  1  0  0  0  0
 17 26  1  0  0  0  0
M  END
$$$$

  -OEChem-05262214473D

 49 48  0     1  0  0  0  0  0999 V2000
   -1.9833   -0.0509   -3.3423 C   0  0  0  0  0  0  0  0  0  0  0  0
   -1.6199   -1.0613   -2.7518 O   0  0  0  0  0  0  0  0  0  0  0  0
   -3.3243   -0.0235   -3.9975 C   0  0  0  0  0  0  0  0  0  0  0  0
   -3.2886   -0.3689   -5.0432 H   0  0  0  0  0  0  0  0  0  0  0  0
   -4.0503   -0.6845   -3.4973 H   0  0  0  0  0  0  0  0  0  0  0  0
   -3.8104    0.9645   -4.0351 H   0  0  0  0  0  0  0  0  0  0  0  0
   -1.2607    1.1231   -3.4768 N   0  0  0  0  0  0  0  0  0  0  0  0
    0.0536    1.3115   -2.9213 C   0  0  2  0  0  0  0  0  0  0  0  0
    0.0266    0.8315   -1.4761 C   0  0  0  0  0  0  0  0  0  0  0  0
   -1.0065    0.7530   -0.8146 O   0  0  0  0  0  0  0  0  0  0  0  0
    0.4852    2.7674   -3.0025 C   0  0  0  0  0  0  0  0  0  0  0  0
   -1.6809    1.8924   -3.9952 H   0  0  0  0  0  0  0  0  0  0  0  0
    0.7360    0.6822   -3.5030 H   0  0  0  0  0  0  0  0  0  0  0  0
   -0.1867    3.4133   -2.4256 H   0  0  0  0  0  0  0  0  0  0  0  0
    1.4966    2.9042   -2.6056 H   0  0  0  0  0  0  0  0  0  0  0  0
    0.4754    3.1196   -4.0397 H   0  0  0  0  0  0  0  0  0  0  0  0
    1.2978    0.5411   -0.9947 N   0  0  0  0  0  0  0  0  0  0  0  0
    1.5371    0.0807    0.3489 C   0  0  2  0  0  0  0  0  0  0  0  0
    2.9543   -0.4803    0.3884 C   0  0  0  0  0  0  0  0  0  0  0  0
    3.5812   -0.7857   -0.6238 O   0  0  0  0  0  0  0  0  0  0  0  0
    0.5275   -0.9896    0.7827 C   0  0  0  0  0  0  0  0  0  0  0  0
   -0.9006   -0.4583    0.9208 C   0  0  0  0  0  0  0  0  0  0  0  0
   -1.9055   -1.5203    1.3265 C   0  0  0  0  0  0  0  0  0  0  0  0
   -1.6314   -2.7093    1.4599 O   0  0  0  0  0  0  0  0  0  0  0  0
   -3.1711   -1.0036    1.5041 N   0  0  0  0  0  0  0  0  0  0  0  0
    2.0949    0.6178   -1.6227 H   0  0  0  0  0  0  0  0  0  0  0  0
    1.4844    0.9621    0.9969 H   0  0  0  0  0  0  0  0  0  0  0  0
    0.5244   -1.8026    0.0445 H   0  0  0  0  0  0  0  0  0  0  0  0
    0.8428   -1.4412    1.7318 H   0  0  0  0  0  0  0  0  0  0  0  0
   -1.2261   -0.0662   -0.0508 H   0  0  0  0  0  0  0  0  0  0  0  0
   -0.9402    0.3709    1.6360 H   0  0  0  0  0  0  0  0  0  0  0  0
   -3.3190   -0.0106    1.3573 H   0  0  0  0  0  0  0  0  0  0  0  0
   -3.9603   -1.5808    1.7766 H   0  0  0  0  0  0  0  0  0  0  0  0
    3.4122   -0.6449    1.6883 N   0  0  0  0  0  0  0  0  0  0  0  0
    4.7161   -1.1799    2.0083 C   0  0  2  0  0  0  0  0  0  0  0  0
    5.7471   -0.4429    1.1637 C   0  0  0  0  0  0  0  0  0  0  0  0
    5.4668    0.1329    0.1145 O   0  0  0  0  0  0  0  0  0  0  0  0
    4.7768   -2.6782    1.7551 C   0  0  0  0  0  0  0  0  0  0  0  0
    2.8003   -0.3758    2.4530 H   0  0  0  0  0  0  0  0  0  0  0  0
    4.8931   -0.9685    3.0685 H   0  0  0  0  0  0  0  0  0  0  0  0
    4.6017   -2.9095    0.6981 H   0  0  0  0  0  0  0  0  0  0  0  0
    5.7562   -3.0869    2.0250 H   0  0  0  0  0  0  0  0  0  0  0  0
    4.0148   -3.2036    2.3409 H   0  0  0  0  0  0  0  0  0  0  0  0
    7.0246   -0.5404    1.6972 N   0  0  0  0  0  0  0  0  0  0  0  0
    8.1783    0.0644    1.0731 C   0  0  0  0  0  0  0  0  0  0  0  0
    7.1616   -1.0212    2.5813 H   0  0  0  0  0  0  0  0  0  0  0  0
    8.6590   -0.6653    0.4050 H   0  0  0  0  0  0  0  0  0  0  0  0
    7.8619    0.9421    0.4904 H   0  0  0  0  0  0  0  0  0  0  0  0
    8.8927    0.3774    1.8488 H   0  0  0  0  0  0  0  0  0  0  0  0
  1  3  1  0  0  0  0
  1  7  1  0  0  0  0
  1  2  2  0  0  0  0
 22 23  1  0  0  0  0
 23 25  1  0  0  0  0
 23 24  2  0  0  0  0
 35 36  1  0  0  0  0
 36 44  1  0  0  0  0
 36 37  2  0  0  0  0
  8  9  1  0  0  0  0
  9 17  1  0  0  0  0
  9 10  2  0  0  0  0
 18 19  1  0  0  0  0
 19 34  1  0  0  0  0
 19 20  2  0  0  0  0
 35 38  1  0  0  0  0
  8 11  1  0  0  0  0
 44 45  1  0  0  0  0
 21 22  1  0  0  0  0
 18 21  1  0  0  0  0
 34 35  1  0  0  0  0
  7  8  1  0  0  0  0
 17 18  1  0  0  0  0
  3  4  1  0  0  0  0
  3  5  1  0  0  0  0
  3  6  1  0  0  0  0
 38 41  1  0  0  0  0
 38 42  1  0  0  0  0
 38 43  1  0  0  0  0
 11 14  1  0  0  0  0
 11 15  1  0  0  0  0
 11 16  1  0  0  0  0
 45 47  1  0  0  0  0
 45 48  1  0  0  0  0
 45 49  1  0  0  0  0
 22 30  1  0  0  0  0
 22 31  1  0  0  0  0
 21 28  1  0  0  0  0
 21 29  1  0  0  0  0
 35 40  1  0  0  0  0
  8 13  1  0  0  0  0
 18 27  1  0  0  0  0
 25 32  1  0  0  0  0
 25 33  1  0  0  0  0
 44 46  1  0  0  0  0
  7 12  1  0  0  0  0
 34 39  1  0  0  0  0
 17 26  1  0  0  0  0
M  END
$$$$
