
  -OEChem-04042216043D

 33 33  0     1  0  0  0  0  0999 V2000
   -3.8697   -4.0620    1.3149 H   0  0  0  0  0  0  0  0  0  0  0  0
   -3.8010   -3.1536    0.7099 C   0  0  0  0  0  0  0  0  0  0  0  0
   -4.5928   -2.4656    1.0165 H   0  0  0  0  0  0  0  0  0  0  0  0
   -3.9447   -3.4184   -0.3405 H   0  0  0  0  0  0  0  0  0  0  0  0
   -2.4448   -2.4999    0.8983 C   0  0  0  0  0  0  0  0  0  0  0  0
   -1.6252   -2.9962    1.6548 O   0  0  0  0  0  0  0  0  0  0  0  0
   -2.1467   -1.3364    0.2215 N   0  0  0  0  0  0  0  0  0  0  0  0
   -2.8961   -0.8980   -0.3134 H   0  0  0  0  0  0  0  0  0  0  0  0
   -0.9236   -0.5435    0.4199 C   0  0  1  0  0  0  0  0  0  0  0  0
   -0.4007   -0.8243    1.3396 H   0  0  0  0  0  0  0  0  0  0  0  0
   -0.0358   -0.8243   -0.8123 C   0  0  0  0  0  0  0  0  0  0  0  0
    0.1362   -1.9053   -0.8528 H   0  0  0  0  0  0  0  0  0  0  0  0
   -0.6051   -0.5521   -1.7078 H   0  0  0  0  0  0  0  0  0  0  0  0
    1.3227   -0.1489   -0.9100 C   0  0  0  0  0  0  0  0  0  0  0  0
    2.0959   -0.4277   -2.0489 C   0  0  0  0  0  0  0  0  0  0  0  0
    1.6872   -1.0556   -2.8356 H   0  0  0  0  0  0  0  0  0  0  0  0
    3.3821    0.1024   -2.2001 C   0  0  0  0  0  0  0  0  0  0  0  0
    3.9466   -0.1162   -3.0997 H   0  0  0  0  0  0  0  0  0  0  0  0
    3.9315    0.9006   -1.1977 C   0  0  0  0  0  0  0  0  0  0  0  0
    5.1847    1.4243   -1.3316 O   0  0  0  0  0  0  0  0  0  0  0  0
    5.5618    1.1662   -2.1868 H   0  0  0  0  0  0  0  0  0  0  0  0
    3.1977    1.1483   -0.0413 C   0  0  0  0  0  0  0  0  0  0  0  0
    3.6429    1.7487    0.7453 H   0  0  0  0  0  0  0  0  0  0  0  0
    1.9113    0.6185    0.1121 C   0  0  0  0  0  0  0  0  0  0  0  0
    1.4069    0.8001    1.0500 H   0  0  0  0  0  0  0  0  0  0  0  0
   -1.3601    0.9386    0.5031 C   0  0  0  0  0  0  0  0  0  0  0  0
   -2.2068    1.3622   -0.2776 O   0  0  0  0  0  0  0  0  0  0  0  0
   -0.8617    1.7933    1.4707 N   0  0  0  0  0  0  0  0  0  0  0  0
   -0.2424    1.4003    2.1731 H   0  0  0  0  0  0  0  0  0  0  0  0
   -1.2816    3.1830    1.6042 C   0  0  0  0  0  0  0  0  0  0  0  0
   -2.3605    3.2425    1.7822 H   0  0  0  0  0  0  0  0  0  0  0  0
   -0.7660    3.6554    2.4457 H   0  0  0  0  0  0  0  0  0  0  0  0
   -1.0423    3.7435    0.6943 H   0  0  0  0  0  0  0  0  0  0  0  0
  1  2  1  0  0  0  0
  2  3  1  0  0  0  0
  2  4  1  0  0  0  0
  2  5  1  0  0  0  0
  5  6  2  0  0  0  0
  5  7  1  0  0  0  0
  7  8  1  0  0  0  0
  7  9  1  0  0  0  0
  9 10  1  0  0  0  0
  9 11  1  0  0  0  0
  9 26  1  0  0  0  0
 11 12  1  0  0  0  0
 11 13  1  0  0  0  0
 11 14  1  0  0  0  0
 14 15  2  0  0  0  0
 14 24  1  0  0  0  0
 15 16  1  0  0  0  0
 15 17  1  0  0  0  0
 17 18  1  0  0  0  0
 17 19  2  0  0  0  0
 19 20  1  0  0  0  0
 19 22  1  0  0  0  0
 20 21  1  0  0  0  0
 22 23  1  0  0  0  0
 22 24  2  0  0  0  0
 24 25  1  0  0  0  0
 26 27  2  0  0  0  0
 26 28  1  0  0  0  0
 28 29  1  0  0  0  0
 28 30  1  0  0  0  0
 30 31  1  0  0  0  0
 30 32  1  0  0  0  0
 30 33  1  0  0  0  0
M  END
$$$$

  -OEChem-04042216043D

 33 33  0     1  0  0  0  0  0999 V2000
   -3.9080   -4.0589    1.3903 H   0  0  0  0  0  0  0  0  0  0  0  0
   -3.8454   -3.1595    0.7714 C   0  0  0  0  0  0  0  0  0  0  0  0
   -4.6193   -2.4573    1.0912 H   0  0  0  0  0  0  0  0  0  0  0  0
   -4.0218   -3.4355   -0.2710 H   0  0  0  0  0  0  0  0  0  0  0  0
   -2.4764   -2.5216    0.9126 C   0  0  0  0  0  0  0  0  0  0  0  0
   -1.6393   -3.0257    1.6446 O   0  0  0  0  0  0  0  0  0  0  0  0
   -2.1849   -1.3670    0.2173 N   0  0  0  0  0  0  0  0  0  0  0  0
   -2.9451   -0.9233   -0.2967 H   0  0  0  0  0  0  0  0  0  0  0  0
   -0.9504   -0.5848    0.3783 C   0  0  1  0  0  0  0  0  0  0  0  0
   -0.4277   -0.8720    1.2954 H   0  0  0  0  0  0  0  0  0  0  0  0
   -0.0648   -0.8672   -0.8511 C   0  0  0  0  0  0  0  0  0  0  0  0
    0.1216   -1.9454   -0.8949 H   0  0  0  0  0  0  0  0  0  0  0  0
   -0.6319   -0.5966   -1.7487 H   0  0  0  0  0  0  0  0  0  0  0  0
    1.2807   -0.1634   -0.9056 C   0  0  0  0  0  0  0  0  0  0  0  0
    1.9600   -0.1353   -2.1342 C   0  0  0  0  0  0  0  0  0  0  0  0
    1.4927   -0.5585   -3.0190 H   0  0  0  0  0  0  0  0  0  0  0  0
    3.2300    0.4429   -2.2436 C   0  0  0  0  0  0  0  0  0  0  0  0
    3.7235    0.4662   -3.2091 H   0  0  0  0  0  0  0  0  0  0  0  0
    3.8550    0.9776   -1.1169 C   0  0  0  0  0  0  0  0  0  0  0  0
    5.0945    1.5417   -1.2076 O   0  0  0  0  0  0  0  0  0  0  0  0
    5.4140    1.4974   -2.1220 H   0  0  0  0  0  0  0  0  0  0  0  0
    3.2135    0.9164    0.1169 C   0  0  0  0  0  0  0  0  0  0  0  0
    3.7193    1.3112    0.9919 H   0  0  0  0  0  0  0  0  0  0  0  0
    1.9446    0.3384    0.2298 C   0  0  0  0  0  0  0  0  0  0  0  0
    1.5057    0.2720    1.2174 H   0  0  0  0  0  0  0  0  0  0  0  0
   -1.3286    0.9108    0.4625 C   0  0  0  0  0  0  0  0  0  0  0  0
   -2.1940    1.3572   -0.2841 O   0  0  0  0  0  0  0  0  0  0  0  0
   -0.7664    1.7447    1.4124 N   0  0  0  0  0  0  0  0  0  0  0  0
   -0.0766    1.3474    2.0420 H   0  0  0  0  0  0  0  0  0  0  0  0
   -1.0862    3.1624    1.5246 C   0  0  0  0  0  0  0  0  0  0  0  0
   -2.1594    3.3022    1.6922 H   0  0  0  0  0  0  0  0  0  0  0  0
   -0.5451    3.6064    2.3658 H   0  0  0  0  0  0  0  0  0  0  0  0
   -0.7992    3.6919    0.6100 H   0  0  0  0  0  0  0  0  0  0  0  0
  1  2  1  0  0  0  0
  2  3  1  0  0  0  0
  2  4  1  0  0  0  0
  2  5  1  0  0  0  0
  5  6  2  0  0  0  0
  5  7  1  0  0  0  0
  7  8  1  0  0  0  0
  7  9  1  0  0  0  0
  9 10  1  0  0  0  0
  9 11  1  0  0  0  0
  9 26  1  0  0  0  0
 11 12  1  0  0  0  0
 11 13  1  0  0  0  0
 11 14  1  0  0  0  0
 14 15  2  0  0  0  0
 14 24  1  0  0  0  0
 15 16  1  0  0  0  0
 15 17  1  0  0  0  0
 17 18  1  0  0  0  0
 17 19  2  0  0  0  0
 19 20  1  0  0  0  0
 19 22  1  0  0  0  0
 20 21  1  0  0  0  0
 22 23  1  0  0  0  0
 22 24  2  0  0  0  0
 24 25  1  0  0  0  0
 26 27  2  0  0  0  0
 26 28  1  0  0  0  0
 28 29  1  0  0  0  0
 28 30  1  0  0  0  0
 30 31  1  0  0  0  0
 30 32  1  0  0  0  0
 30 33  1  0  0  0  0
M  END
$$$$

  -OEChem-04042216043D

 33 33  0     1  0  0  0  0  0999 V2000
   -3.9384   -4.0471    1.4545 H   0  0  0  0  0  0  0  0  0  0  0  0
   -3.8787   -3.1552    0.8244 C   0  0  0  0  0  0  0  0  0  0  0  0
   -4.6318   -2.4372    1.1581 H   0  0  0  0  0  0  0  0  0  0  0  0
   -4.0887   -3.4394   -0.2096 H   0  0  0  0  0  0  0  0  0  0  0  0
   -2.4962   -2.5377    0.9206 C   0  0  0  0  0  0  0  0  0  0  0  0
   -1.6442   -3.0534    1.6271 O   0  0  0  0  0  0  0  0  0  0  0  0
   -2.2093   -1.3892    0.2131 N   0  0  0  0  0  0  0  0  0  0  0  0
   -2.9802   -0.9346   -0.2750 H   0  0  0  0  0  0  0  0  0  0  0  0
   -0.9642   -0.6185    0.3424 C   0  0  1  0  0  0  0  0  0  0  0  0
   -0.4419   -0.9087    1.2580 H   0  0  0  0  0  0  0  0  0  0  0  0
   -0.0832   -0.9103   -0.8854 C   0  0  0  0  0  0  0  0  0  0  0  0
    0.1129   -1.9868   -0.9254 H   0  0  0  0  0  0  0  0  0  0  0  0
   -0.6477   -0.6466   -1.7863 H   0  0  0  0  0  0  0  0  0  0  0  0
    1.2510   -0.1866   -0.9038 C   0  0  0  0  0  0  0  0  0  0  0  0
    1.8206    0.1513   -2.1416 C   0  0  0  0  0  0  0  0  0  0  0  0
    1.2821   -0.0587   -3.0615 H   0  0  0  0  0  0  0  0  0  0  0  0
    3.0721    0.7746   -2.2099 C   0  0  0  0  0  0  0  0  0  0  0  0
    3.4816    1.0425   -3.1777 H   0  0  0  0  0  0  0  0  0  0  0  0
    3.7856    1.0444   -1.0418 C   0  0  0  0  0  0  0  0  0  0  0  0
    5.0068    1.6516   -1.0945 O   0  0  0  0  0  0  0  0  0  0  0  0
    5.2485    1.8323   -2.0161 H   0  0  0  0  0  0  0  0  0  0  0  0
    3.2521    0.6739    0.1896 C   0  0  0  0  0  0  0  0  0  0  0  0
    3.8259    0.8643    1.0907 H   0  0  0  0  0  0  0  0  0  0  0  0
    2.0024    0.0499    0.2628 C   0  0  0  0  0  0  0  0  0  0  0  0
    1.6432   -0.2606    1.2376 H   0  0  0  0  0  0  0  0  0  0  0  0
   -1.2966    0.8861    0.4294 C   0  0  0  0  0  0  0  0  0  0  0  0
   -2.1808    1.3511   -0.2827 O   0  0  0  0  0  0  0  0  0  0  0  0
   -0.6828    1.6999    1.3640 N   0  0  0  0  0  0  0  0  0  0  0  0
    0.0776    1.3001    1.9050 H   0  0  0  0  0  0  0  0  0  0  0  0
   -0.9314    3.1329    1.4594 C   0  0  0  0  0  0  0  0  0  0  0  0
   -1.9943    3.3278    1.6371 H   0  0  0  0  0  0  0  0  0  0  0  0
   -0.3598    3.5611    2.2885 H   0  0  0  0  0  0  0  0  0  0  0  0
   -0.6302    3.6353    0.5341 H   0  0  0  0  0  0  0  0  0  0  0  0
  1  2  1  0  0  0  0
  2  3  1  0  0  0  0
  2  4  1  0  0  0  0
  2  5  1  0  0  0  0
  5  6  2  0  0  0  0
  5  7  1  0  0  0  0
  7  8  1  0  0  0  0
  7  9  1  0  0  0  0
  9 10  1  0  0  0  0
  9 11  1  0  0  0  0
  9 26  1  0  0  0  0
 11 12  1  0  0  0  0
 11 13  1  0  0  0  0
 11 14  1  0  0  0  0
 14 15  2  0  0  0  0
 14 24  1  0  0  0  0
 15 16  1  0  0  0  0
 15 17  1  0  0  0  0
 17 18  1  0  0  0  0
 17 19  2  0  0  0  0
 19 20  1  0  0  0  0
 19 22  1  0  0  0  0
 20 21  1  0  0  0  0
 22 23  1  0  0  0  0
 22 24  2  0  0  0  0
 24 25  1  0  0  0  0
 26 27  2  0  0  0  0
 26 28  1  0  0  0  0
 28 29  1  0  0  0  0
 28 30  1  0  0  0  0
 30 31  1  0  0  0  0
 30 32  1  0  0  0  0
 30 33  1  0  0  0  0
M  END
$$$$

  -OEChem-04042216043D

 33 33  0     1  0  0  0  0  0999 V2000
   -3.9438   -4.0382    1.5107 H   0  0  0  0  0  0  0  0  0  0  0  0
   -3.8893   -3.1557    0.8671 C   0  0  0  0  0  0  0  0  0  0  0  0
   -4.6351   -2.4301    1.2008 H   0  0  0  0  0  0  0  0  0  0  0  0
   -4.1147   -3.4539   -0.1597 H   0  0  0  0  0  0  0  0  0  0  0  0
   -2.5024   -2.5437    0.9355 C   0  0  0  0  0  0  0  0  0  0  0  0
   -1.6383   -3.0652    1.6228 O   0  0  0  0  0  0  0  0  0  0  0  0
   -2.2214   -1.4006    0.2166 N   0  0  0  0  0  0  0  0  0  0  0  0
   -2.9989   -0.9414   -0.2559 H   0  0  0  0  0  0  0  0  0  0  0  0
   -0.9659   -0.6421    0.3132 C   0  0  1  0  0  0  0  0  0  0  0  0
   -0.4309   -0.9309    1.2221 H   0  0  0  0  0  0  0  0  0  0  0  0
   -0.1020   -0.9450   -0.9219 C   0  0  0  0  0  0  0  0  0  0  0  0
    0.0981   -2.0207   -0.9610 H   0  0  0  0  0  0  0  0  0  0  0  0
   -0.6679   -0.6835   -1.8224 H   0  0  0  0  0  0  0  0  0  0  0  0
    1.2219   -0.2075   -0.9144 C   0  0  0  0  0  0  0  0  0  0  0  0
    1.6710    0.4322   -2.0802 C   0  0  0  0  0  0  0  0  0  0  0  0
    1.0513    0.4358   -2.9726 H   0  0  0  0  0  0  0  0  0  0  0  0
    2.9080    1.0875   -2.1031 C   0  0  0  0  0  0  0  0  0  0  0  0
    3.2273    1.5903   -3.0095 H   0  0  0  0  0  0  0  0  0  0  0  0
    3.7221    1.0896   -0.9694 C   0  0  0  0  0  0  0  0  0  0  0  0
    4.9299    1.7249   -0.9793 O   0  0  0  0  0  0  0  0  0  0  0  0
    5.0890    2.1233   -1.8489 H   0  0  0  0  0  0  0  0  0  0  0  0
    3.3028    0.4243    0.1800 C   0  0  0  0  0  0  0  0  0  0  0  0
    3.9536    0.4109    1.0484 H   0  0  0  0  0  0  0  0  0  0  0  0
    2.0679   -0.2318    0.2086 C   0  0  0  0  0  0  0  0  0  0  0  0
    1.7859   -0.7724    1.1070 H   0  0  0  0  0  0  0  0  0  0  0  0
   -1.2648    0.8686    0.4028 C   0  0  0  0  0  0  0  0  0  0  0  0
   -2.1588    1.3500   -0.2859 O   0  0  0  0  0  0  0  0  0  0  0  0
   -0.6078    1.6676    1.3205 N   0  0  0  0  0  0  0  0  0  0  0  0
    0.1870    1.2587    1.8033 H   0  0  0  0  0  0  0  0  0  0  0  0
   -0.8058    3.1091    1.4032 C   0  0  0  0  0  0  0  0  0  0  0  0
   -1.8608    3.3431    1.5810 H   0  0  0  0  0  0  0  0  0  0  0  0
   -0.2182    3.5237    2.2278 H   0  0  0  0  0  0  0  0  0  0  0  0
   -0.4889    3.5921    0.4729 H   0  0  0  0  0  0  0  0  0  0  0  0
  1  2  1  0  0  0  0
  2  3  1  0  0  0  0
  2  4  1  0  0  0  0
  2  5  1  0  0  0  0
  5  6  2  0  0  0  0
  5  7  1  0  0  0  0
  7  8  1  0  0  0  0
  7  9  1  0  0  0  0
  9 10  1  0  0  0  0
  9 11  1  0  0  0  0
  9 26  1  0  0  0  0
 11 12  1  0  0  0  0
 11 13  1  0  0  0  0
 11 14  1  0  0  0  0
 14 15  2  0  0  0  0
 14 24  1  0  0  0  0
 15 16  1  0  0  0  0
 15 17  1  0  0  0  0
 17 18  1  0  0  0  0
 17 19  2  0  0  0  0
 19 20  1  0  0  0  0
 19 22  1  0  0  0  0
 20 21  1  0  0  0  0
 22 23  1  0  0  0  0
 22 24  2  0  0  0  0
 24 25  1  0  0  0  0
 26 27  2  0  0  0  0
 26 28  1  0  0  0  0
 28 29  1  0  0  0  0
 28 30  1  0  0  0  0
 30 31  1  0  0  0  0
 30 32  1  0  0  0  0
 30 33  1  0  0  0  0
M  END
$$$$

  -OEChem-04042216043D

 33 33  0     1  0  0  0  0  0999 V2000
   -3.9444   -4.0203    1.5423 H   0  0  0  0  0  0  0  0  0  0  0  0
   -3.8912   -3.1412    0.8940 C   0  0  0  0  0  0  0  0  0  0  0  0
   -4.6199   -2.4039    1.2398 H   0  0  0  0  0  0  0  0  0  0  0  0
   -4.1417   -3.4399   -0.1268 H   0  0  0  0  0  0  0  0  0  0  0  0
   -2.4956   -2.5479    0.9319 C   0  0  0  0  0  0  0  0  0  0  0  0
   -1.6222   -3.0821    1.5975 O   0  0  0  0  0  0  0  0  0  0  0  0
   -2.2180   -1.4068    0.2089 N   0  0  0  0  0  0  0  0  0  0  0  0
   -3.0009   -0.9384   -0.2452 H   0  0  0  0  0  0  0  0  0  0  0  0
   -0.9552   -0.6590    0.2854 C   0  0  1  0  0  0  0  0  0  0  0  0
   -0.4057   -0.9498    1.1857 H   0  0  0  0  0  0  0  0  0  0  0  0
   -0.1074   -0.9754   -0.9554 C   0  0  0  0  0  0  0  0  0  0  0  0
    0.0894   -2.0519   -0.9929 H   0  0  0  0  0  0  0  0  0  0  0  0
   -0.6730   -0.7139   -1.8560 H   0  0  0  0  0  0  0  0  0  0  0  0
    1.2105   -0.2339   -0.9332 C   0  0  0  0  0  0  0  0  0  0  0  0
    1.5359    0.6672   -1.9579 C   0  0  0  0  0  0  0  0  0  0  0  0
    0.8309    0.8542   -2.7634 H   0  0  0  0  0  0  0  0  0  0  0  0
    2.7612    1.3443   -1.9444 C   0  0  0  0  0  0  0  0  0  0  0  0
    2.9906    2.0447   -2.7400 H   0  0  0  0  0  0  0  0  0  0  0  0
    3.6774    1.1178   -0.9153 C   0  0  0  0  0  0  0  0  0  0  0  0
    4.8747    1.7723   -0.8930 O   0  0  0  0  0  0  0  0  0  0  0  0
    4.9583    2.3395   -1.6750 H   0  0  0  0  0  0  0  0  0  0  0  0
    3.3689    0.2086    0.0947 C   0  0  0  0  0  0  0  0  0  0  0  0
    4.0932    0.0287    0.8826 H   0  0  0  0  0  0  0  0  0  0  0  0
    2.1467   -0.4718    0.0857 C   0  0  0  0  0  0  0  0  0  0  0  0
    1.9333   -1.1930    0.8700 H   0  0  0  0  0  0  0  0  0  0  0  0
   -1.2352    0.8544    0.3811 C   0  0  0  0  0  0  0  0  0  0  0  0
   -2.1317    1.3486   -0.2952 O   0  0  0  0  0  0  0  0  0  0  0  0
   -0.5524    1.6422    1.2894 N   0  0  0  0  0  0  0  0  0  0  0  0
    0.2439    1.2200    1.7589 H   0  0  0  0  0  0  0  0  0  0  0  0
   -0.7345    3.0847    1.3850 C   0  0  0  0  0  0  0  0  0  0  0  0
   -1.7827    3.3272    1.5895 H   0  0  0  0  0  0  0  0  0  0  0  0
   -0.1236    3.4889    2.1977 H   0  0  0  0  0  0  0  0  0  0  0  0
   -0.4356    3.5704    0.4503 H   0  0  0  0  0  0  0  0  0  0  0  0
  1  2  1  0  0  0  0
  2  3  1  0  0  0  0
  2  4  1  0  0  0  0
  2  5  1  0  0  0  0
  5  6  2  0  0  0  0
  5  7  1  0  0  0  0
  7  8  1  0  0  0  0
  7  9  1  0  0  0  0
  9 10  1  0  0  0  0
  9 11  1  0  0  0  0
  9 26  1  0  0  0  0
 11 12  1  0  0  0  0
 11 13  1  0  0  0  0
 11 14  1  0  0  0  0
 14 15  2  0  0  0  0
 14 24  1  0  0  0  0
 15 16  1  0  0  0  0
 15 17  1  0  0  0  0
 17 18  1  0  0  0  0
 17 19  2  0  0  0  0
 19 20  1  0  0  0  0
 19 22  1  0  0  0  0
 20 21  1  0  0  0  0
 22 23  1  0  0  0  0
 22 24  2  0  0  0  0
 24 25  1  0  0  0  0
 26 27  2  0  0  0  0
 26 28  1  0  0  0  0
 28 29  1  0  0  0  0
 28 30  1  0  0  0  0
 30 31  1  0  0  0  0
 30 32  1  0  0  0  0
 30 33  1  0  0  0  0
M  END
$$$$

  -OEChem-04042216043D

 33 33  0     1  0  0  0  0  0999 V2000
   -3.9444   -4.0123    1.5523 H   0  0  0  0  0  0  0  0  0  0  0  0
   -3.8911   -3.1338    0.9032 C   0  0  0  0  0  0  0  0  0  0  0  0
   -4.6111   -2.3915    1.2560 H   0  0  0  0  0  0  0  0  0  0  0  0
   -4.1538   -3.4311   -0.1149 H   0  0  0  0  0  0  0  0  0  0  0  0
   -2.4908   -2.5501    0.9263 C   0  0  0  0  0  0  0  0  0  0  0  0
   -1.6136   -3.0923    1.5802 O   0  0  0  0  0  0  0  0  0  0  0  0
   -2.2135   -1.4082    0.2045 N   0  0  0  0  0  0  0  0  0  0  0  0
   -2.9977   -0.9345   -0.2420 H   0  0  0  0  0  0  0  0  0  0  0  0
   -0.9453   -0.6684    0.2716 C   0  0  1  0  0  0  0  0  0  0  0  0
   -0.3842   -0.9639    1.1640 H   0  0  0  0  0  0  0  0  0  0  0  0
   -0.1106   -0.9912   -0.9757 C   0  0  0  0  0  0  0  0  0  0  0  0
    0.0779   -2.0691   -1.0180 H   0  0  0  0  0  0  0  0  0  0  0  0
   -0.6751   -0.7224   -1.8749 H   0  0  0  0  0  0  0  0  0  0  0  0
    1.2064   -0.2524   -0.9493 C   0  0  0  0  0  0  0  0  0  0  0  0
    1.4159    0.8655   -1.7704 C   0  0  0  0  0  0  0  0  0  0  0  0
    0.6249    1.2111   -2.4310 H   0  0  0  0  0  0  0  0  0  0  0  0
    2.6353    1.5518   -1.7329 C   0  0  0  0  0  0  0  0  0  0  0  0
    2.7773    2.4179   -2.3701 H   0  0  0  0  0  0  0  0  0  0  0  0
    3.6557    1.1243   -0.8806 C   0  0  0  0  0  0  0  0  0  0  0  0
    4.8479    1.7871   -0.8361 O   0  0  0  0  0  0  0  0  0  0  0  0
    4.8510    2.5098   -1.4827 H   0  0  0  0  0  0  0  0  0  0  0  0
    3.4549    0.0093   -0.0684 C   0  0  0  0  0  0  0  0  0  0  0  0
    4.2557   -0.3197    0.5860 H   0  0  0  0  0  0  0  0  0  0  0  0
    2.2383   -0.6806   -0.1014 C   0  0  0  0  0  0  0  0  0  0  0  0
    2.0981   -1.5525    0.5322 H   0  0  0  0  0  0  0  0  0  0  0  0
   -1.2178    0.8459    0.3751 C   0  0  0  0  0  0  0  0  0  0  0  0
   -2.1065    1.3497   -0.3046 O   0  0  0  0  0  0  0  0  0  0  0  0
   -0.5239    1.6285    1.2794 N   0  0  0  0  0  0  0  0  0  0  0  0
    0.2668    1.1978    1.7515 H   0  0  0  0  0  0  0  0  0  0  0  0
   -0.6949    3.0723    1.3765 C   0  0  0  0  0  0  0  0  0  0  0  0
   -1.7389    3.3222    1.5924 H   0  0  0  0  0  0  0  0  0  0  0  0
   -0.0723    3.4733    2.1819 H   0  0  0  0  0  0  0  0  0  0  0  0
   -0.4031    3.5553    0.4382 H   0  0  0  0  0  0  0  0  0  0  0  0
  1  2  1  0  0  0  0
  2  3  1  0  0  0  0
  2  4  1  0  0  0  0
  2  5  1  0  0  0  0
  5  6  2  0  0  0  0
  5  7  1  0  0  0  0
  7  8  1  0  0  0  0
  7  9  1  0  0  0  0
  9 10  1  0  0  0  0
  9 11  1  0  0  0  0
  9 26  1  0  0  0  0
 11 12  1  0  0  0  0
 11 13  1  0  0  0  0
 11 14  1  0  0  0  0
 14 15  2  0  0  0  0
 14 24  1  0  0  0  0
 15 16  1  0  0  0  0
 15 17  1  0  0  0  0
 17 18  1  0  0  0  0
 17 19  2  0  0  0  0
 19 20  1  0  0  0  0
 19 22  1  0  0  0  0
 20 21  1  0  0  0  0
 22 23  1  0  0  0  0
 22 24  2  0  0  0  0
 24 25  1  0  0  0  0
 26 27  2  0  0  0  0
 26 28  1  0  0  0  0
 28 29  1  0  0  0  0
 28 30  1  0  0  0  0
 30 31  1  0  0  0  0
 30 32  1  0  0  0  0
 30 33  1  0  0  0  0
M  END
$$$$

  -OEChem-04042216043D

 33 33  0     1  0  0  0  0  0999 V2000
   -3.9417   -4.0177    1.5256 H   0  0  0  0  0  0  0  0  0  0  0  0
   -3.8877   -3.1349    0.8825 C   0  0  0  0  0  0  0  0  0  0  0  0
   -4.6129   -2.3976    1.2350 H   0  0  0  0  0  0  0  0  0  0  0  0
   -4.1422   -3.4268   -0.1392 H   0  0  0  0  0  0  0  0  0  0  0  0
   -2.4902   -2.5455    0.9190 C   0  0  0  0  0  0  0  0  0  0  0  0
   -1.6155   -3.0873    1.5765 O   0  0  0  0  0  0  0  0  0  0  0  0
   -2.2128   -1.3985    0.2053 N   0  0  0  0  0  0  0  0  0  0  0  0
   -2.9950   -0.9275   -0.2470 H   0  0  0  0  0  0  0  0  0  0  0  0
   -0.9451   -0.6579    0.2764 C   0  0  1  0  0  0  0  0  0  0  0  0
   -0.3837   -0.9562    1.1679 H   0  0  0  0  0  0  0  0  0  0  0  0
   -0.1096   -0.9942   -0.9682 C   0  0  0  0  0  0  0  0  0  0  0  0
    0.0659   -2.0744   -1.0052 H   0  0  0  0  0  0  0  0  0  0  0  0
   -0.6711   -0.7252   -1.8693 H   0  0  0  0  0  0  0  0  0  0  0  0
    1.2138   -0.2656   -0.9612 C   0  0  0  0  0  0  0  0  0  0  0  0
    1.3372    1.0036   -1.5476 C   0  0  0  0  0  0  0  0  0  0  0  0
    0.4786    1.4657   -2.0286 H   0  0  0  0  0  0  0  0  0  0  0  0
    2.5587    1.6856   -1.5105 C   0  0  0  0  0  0  0  0  0  0  0  0
    2.6348    2.6658   -1.9685 H   0  0  0  0  0  0  0  0  0  0  0  0
    3.6663    1.1070   -0.8872 C   0  0  0  0  0  0  0  0  0  0  0  0
    4.8620    1.7636   -0.8448 O   0  0  0  0  0  0  0  0  0  0  0  0
    4.7986    2.6017   -1.3284 H   0  0  0  0  0  0  0  0  0  0  0  0
    3.5487   -0.1523   -0.3016 C   0  0  0  0  0  0  0  0  0  0  0  0
    4.4150   -0.5945    0.1797 H   0  0  0  0  0  0  0  0  0  0  0  0
    2.3301   -0.8389   -0.3358 C   0  0  0  0  0  0  0  0  0  0  0  0
    2.2538   -1.8190    0.1273 H   0  0  0  0  0  0  0  0  0  0  0  0
   -1.2205    0.8544    0.3900 C   0  0  0  0  0  0  0  0  0  0  0  0
   -2.0967    1.3661   -0.2995 O   0  0  0  0  0  0  0  0  0  0  0  0
   -0.5277    1.6319    1.2995 N   0  0  0  0  0  0  0  0  0  0  0  0
    0.2495    1.1938    1.7869 H   0  0  0  0  0  0  0  0  0  0  0  0
   -0.7015    3.0742    1.4114 C   0  0  0  0  0  0  0  0  0  0  0  0
   -1.7476    3.3204    1.6225 H   0  0  0  0  0  0  0  0  0  0  0  0
   -0.0854    3.4667    2.2261 H   0  0  0  0  0  0  0  0  0  0  0  0
   -0.4034    3.5680    0.4806 H   0  0  0  0  0  0  0  0  0  0  0  0
  1  2  1  0  0  0  0
  2  3  1  0  0  0  0
  2  4  1  0  0  0  0
  2  5  1  0  0  0  0
  5  6  2  0  0  0  0
  5  7  1  0  0  0  0
  7  8  1  0  0  0  0
  7  9  1  0  0  0  0
  9 10  1  0  0  0  0
  9 11  1  0  0  0  0
  9 26  1  0  0  0  0
 11 12  1  0  0  0  0
 11 13  1  0  0  0  0
 11 14  1  0  0  0  0
 14 15  2  0  0  0  0
 14 24  1  0  0  0  0
 15 16  1  0  0  0  0
 15 17  1  0  0  0  0
 17 18  1  0  0  0  0
 17 19  2  0  0  0  0
 19 20  1  0  0  0  0
 19 22  1  0  0  0  0
 20 21  1  0  0  0  0
 22 23  1  0  0  0  0
 22 24  2  0  0  0  0
 24 25  1  0  0  0  0
 26 27  2  0  0  0  0
 26 28  1  0  0  0  0
 28 29  1  0  0  0  0
 28 30  1  0  0  0  0
 30 31  1  0  0  0  0
 30 32  1  0  0  0  0
 30 33  1  0  0  0  0
M  END
$$$$

  -OEChem-04042216043D

 33 33  0     1  0  0  0  0  0999 V2000
   -3.9175   -4.0346    1.4899 H   0  0  0  0  0  0  0  0  0  0  0  0
   -3.8698   -3.1447    0.8561 C   0  0  0  0  0  0  0  0  0  0  0  0
   -4.6080   -2.4208    1.2093 H   0  0  0  0  0  0  0  0  0  0  0  0
   -4.1109   -3.4297   -0.1707 H   0  0  0  0  0  0  0  0  0  0  0  0
   -2.4810   -2.5369    0.9116 C   0  0  0  0  0  0  0  0  0  0  0  0
   -1.6060   -3.0717    1.5742 O   0  0  0  0  0  0  0  0  0  0  0  0
   -2.2123   -1.3797    0.2112 N   0  0  0  0  0  0  0  0  0  0  0  0
   -2.9951   -0.9166   -0.2485 H   0  0  0  0  0  0  0  0  0  0  0  0
   -0.9515   -0.6285    0.2936 C   0  0  1  0  0  0  0  0  0  0  0  0
   -0.3932   -0.9245    1.1879 H   0  0  0  0  0  0  0  0  0  0  0  0
   -0.1044   -0.9772   -0.9444 C   0  0  0  0  0  0  0  0  0  0  0  0
    0.0584   -2.0599   -0.9688 H   0  0  0  0  0  0  0  0  0  0  0  0
   -0.6656   -0.7151   -1.8476 H   0  0  0  0  0  0  0  0  0  0  0  0
    1.2300   -0.2632   -0.9775 C   0  0  0  0  0  0  0  0  0  0  0  0
    1.3239    1.0994   -1.3074 C   0  0  0  0  0  0  0  0  0  0  0  0
    0.4348    1.6553   -1.5945 H   0  0  0  0  0  0  0  0  0  0  0  0
    2.5602    1.7542   -1.2830 C   0  0  0  0  0  0  0  0  0  0  0  0
    2.6096    2.8058   -1.5438 H   0  0  0  0  0  0  0  0  0  0  0  0
    3.7164    1.0573   -0.9275 C   0  0  0  0  0  0  0  0  0  0  0  0
    4.9273    1.6864   -0.8999 O   0  0  0  0  0  0  0  0  0  0  0  0
    4.8321    2.6049   -1.1957 H   0  0  0  0  0  0  0  0  0  0  0  0
    3.6319   -0.2936   -0.5971 C   0  0  0  0  0  0  0  0  0  0  0  0
    4.5349   -0.8283   -0.3213 H   0  0  0  0  0  0  0  0  0  0  0  0
    2.3980   -0.9530   -0.6187 C   0  0  0  0  0  0  0  0  0  0  0  0
    2.3521   -2.0047   -0.3489 H   0  0  0  0  0  0  0  0  0  0  0  0
   -1.2536    0.8763    0.4228 C   0  0  0  0  0  0  0  0  0  0  0  0
   -2.1273    1.3852   -0.2715 O   0  0  0  0  0  0  0  0  0  0  0  0
   -0.5765    1.6541    1.3439 N   0  0  0  0  0  0  0  0  0  0  0  0
    0.1908    1.2162    1.8473 H   0  0  0  0  0  0  0  0  0  0  0  0
   -0.7785    3.0908    1.4797 C   0  0  0  0  0  0  0  0  0  0  0  0
   -1.8315    3.3127    1.6830 H   0  0  0  0  0  0  0  0  0  0  0  0
   -0.1790    3.4801    2.3082 H   0  0  0  0  0  0  0  0  0  0  0  0
   -0.4800    3.6073    0.5616 H   0  0  0  0  0  0  0  0  0  0  0  0
  1  2  1  0  0  0  0
  2  3  1  0  0  0  0
  2  4  1  0  0  0  0
  2  5  1  0  0  0  0
  5  6  2  0  0  0  0
  5  7  1  0  0  0  0
  7  8  1  0  0  0  0
  7  9  1  0  0  0  0
  9 10  1  0  0  0  0
  9 11  1  0  0  0  0
  9 26  1  0  0  0  0
 11 12  1  0  0  0  0
 11 13  1  0  0  0  0
 11 14  1  0  0  0  0
 14 15  2  0  0  0  0
 14 24  1  0  0  0  0
 15 16  1  0  0  0  0
 15 17  1  0  0  0  0
 17 18  1  0  0  0  0
 17 19  2  0  0  0  0
 19 20  1  0  0  0  0
 19 22  1  0  0  0  0
 20 21  1  0  0  0  0
 22 23  1  0  0  0  0
 22 24  2  0  0  0  0
 24 25  1  0  0  0  0
 26 27  2  0  0  0  0
 26 28  1  0  0  0  0
 28 29  1  0  0  0  0
 28 30  1  0  0  0  0
 30 31  1  0  0  0  0
 30 32  1  0  0  0  0
 30 33  1  0  0  0  0
M  END
$$$$

  -OEChem-04042216043D

 33 33  0     1  0  0  0  0  0999 V2000
   -3.8718   -4.0631    1.4314 H   0  0  0  0  0  0  0  0  0  0  0  0
   -3.8369   -3.1566    0.8210 C   0  0  0  0  0  0  0  0  0  0  0  0
   -4.5909   -2.4560    1.1877 H   0  0  0  0  0  0  0  0  0  0  0  0
   -4.0669   -3.4199   -0.2142 H   0  0  0  0  0  0  0  0  0  0  0  0
   -2.4596   -2.5250    0.9013 C   0  0  0  0  0  0  0  0  0  0  0  0
   -1.5855   -3.0496    1.5731 O   0  0  0  0  0  0  0  0  0  0  0  0
   -2.2007   -1.3564    0.2158 N   0  0  0  0  0  0  0  0  0  0  0  0
   -2.9833   -0.9054   -0.2563 H   0  0  0  0  0  0  0  0  0  0  0  0
   -0.9550   -0.5820    0.3240 C   0  0  1  0  0  0  0  0  0  0  0  0
   -0.4062   -0.8685    1.2272 H   0  0  0  0  0  0  0  0  0  0  0  0
   -0.0857   -0.9392   -0.9014 C   0  0  0  0  0  0  0  0  0  0  0  0
    0.0661   -2.0237   -0.9062 H   0  0  0  0  0  0  0  0  0  0  0  0
   -0.6468   -0.6918   -1.8087 H   0  0  0  0  0  0  0  0  0  0  0  0
    1.2620   -0.2427   -0.9861 C   0  0  0  0  0  0  0  0  0  0  0  0
    1.3952    1.1560   -1.0567 C   0  0  0  0  0  0  0  0  0  0  0  0
    0.5213    1.7947   -1.1405 H   0  0  0  0  0  0  0  0  0  0  0  0
    2.6596    1.7560   -1.0710 C   0  0  0  0  0  0  0  0  0  0  0  0
    2.7348    2.8360   -1.1369 H   0  0  0  0  0  0  0  0  0  0  0  0
    3.8109    0.9703   -1.0106 C   0  0  0  0  0  0  0  0  0  0  0  0
    5.0487    1.5450   -1.0252 O   0  0  0  0  0  0  0  0  0  0  0  0
    4.9679    2.5074   -1.1101 H   0  0  0  0  0  0  0  0  0  0  0  0
    3.6931   -0.4148   -0.9373 C   0  0  0  0  0  0  0  0  0  0  0  0
    4.5924   -1.0204   -0.8895 H   0  0  0  0  0  0  0  0  0  0  0  0
    2.4313   -1.0188   -0.9226 C   0  0  0  0  0  0  0  0  0  0  0  0
    2.3688   -2.1014   -0.8536 H   0  0  0  0  0  0  0  0  0  0  0  0
   -1.3066    0.9111    0.4607 C   0  0  0  0  0  0  0  0  0  0  0  0
   -2.1824    1.4017   -0.2435 O   0  0  0  0  0  0  0  0  0  0  0  0
   -0.6696    1.7014    1.4002 N   0  0  0  0  0  0  0  0  0  0  0  0
    0.0697    1.2709    1.9498 H   0  0  0  0  0  0  0  0  0  0  0  0
   -0.9572    3.1178    1.5888 C   0  0  0  0  0  0  0  0  0  0  0  0
   -2.0187    3.2675    1.8133 H   0  0  0  0  0  0  0  0  0  0  0  0
   -0.3701    3.5145    2.4226 H   0  0  0  0  0  0  0  0  0  0  0  0
   -0.7044    3.6838    0.6861 H   0  0  0  0  0  0  0  0  0  0  0  0
  1  2  1  0  0  0  0
  2  3  1  0  0  0  0
  2  4  1  0  0  0  0
  2  5  1  0  0  0  0
  5  6  2  0  0  0  0
  5  7  1  0  0  0  0
  7  8  1  0  0  0  0
  7  9  1  0  0  0  0
  9 10  1  0  0  0  0
  9 11  1  0  0  0  0
  9 26  1  0  0  0  0
 11 12  1  0  0  0  0
 11 13  1  0  0  0  0
 11 14  1  0  0  0  0
 14 15  2  0  0  0  0
 14 24  1  0  0  0  0
 15 16  1  0  0  0  0
 15 17  1  0  0  0  0
 17 18  1  0  0  0  0
 17 19  2  0  0  0  0
 19 20  1  0  0  0  0
 19 22  1  0  0  0  0
 20 21  1  0  0  0  0
 22 23  1  0  0  0  0
 22 24  2  0  0  0  0
 24 25  1  0  0  0  0
 26 27  2  0  0  0  0
 26 28  1  0  0  0  0
 28 29  1  0  0  0  0
 28 30  1  0  0  0  0
 30 31  1  0  0  0  0
 30 32  1  0  0  0  0
 30 33  1  0  0  0  0
M  END
$$$$

  -OEChem-04042216043D

 33 33  0     1  0  0  0  0  0999 V2000
   -3.8279   -4.0936    1.3604 H   0  0  0  0  0  0  0  0  0  0  0  0
   -3.7963   -3.1778    0.7636 C   0  0  0  0  0  0  0  0  0  0  0  0
   -4.5783   -2.5005    1.1154 H   0  0  0  0  0  0  0  0  0  0  0  0
   -3.9867   -3.4321   -0.2818 H   0  0  0  0  0  0  0  0  0  0  0  0
   -2.4387   -2.5138    0.8959 C   0  0  0  0  0  0  0  0  0  0  0  0
   -1.5773   -3.0184    1.5985 O   0  0  0  0  0  0  0  0  0  0  0  0
   -2.1843   -1.3357    0.2256 N   0  0  0  0  0  0  0  0  0  0  0  0
   -2.9603   -0.9011   -0.2726 H   0  0  0  0  0  0  0  0  0  0  0  0
   -0.9579   -0.5364    0.3732 C   0  0  1  0  0  0  0  0  0  0  0  0
   -0.4229   -0.8135    1.2874 H   0  0  0  0  0  0  0  0  0  0  0  0
   -0.0637   -0.8892   -0.8396 C   0  0  0  0  0  0  0  0  0  0  0  0
    0.0844   -1.9742   -0.8278 H   0  0  0  0  0  0  0  0  0  0  0  0
   -0.6242   -0.6539   -1.7506 H   0  0  0  0  0  0  0  0  0  0  0  0
    1.2959   -0.2112   -0.9661 C   0  0  0  0  0  0  0  0  0  0  0  0
    1.5195    1.1658   -0.7731 C   0  0  0  0  0  0  0  0  0  0  0  0
    0.7020    1.8589   -0.6227 H   0  0  0  0  0  0  0  0  0  0  0  0
    2.8097    1.7043   -0.8443 C   0  0  0  0  0  0  0  0  0  0  0  0
    2.9482    2.7713   -0.7074 H   0  0  0  0  0  0  0  0  0  0  0  0
    3.9036    0.8797   -1.1035 C   0  0  0  0  0  0  0  0  0  0  0  0
    5.1651    1.3961   -1.1762 O   0  0  0  0  0  0  0  0  0  0  0  0
    5.1390    2.3574   -1.0528 H   0  0  0  0  0  0  0  0  0  0  0  0
    3.7014   -0.4830   -1.2962 C   0  0  0  0  0  0  0  0  0  0  0  0
    4.5553   -1.1213   -1.4983 H   0  0  0  0  0  0  0  0  0  0  0  0
    2.4132   -1.0244   -1.2276 C   0  0  0  0  0  0  0  0  0  0  0  0
    2.2906   -2.0941   -1.3723 H   0  0  0  0  0  0  0  0  0  0  0  0
   -1.3661    0.9419    0.5078 C   0  0  0  0  0  0  0  0  0  0  0  0
   -2.2303    1.4114   -0.2243 O   0  0  0  0  0  0  0  0  0  0  0  0
   -0.7838    1.7448    1.4725 N   0  0  0  0  0  0  0  0  0  0  0  0
   -0.0827    1.3207    2.0748 H   0  0  0  0  0  0  0  0  0  0  0  0
   -1.1398    3.1431    1.6770 C   0  0  0  0  0  0  0  0  0  0  0  0
   -2.2083    3.2383    1.8972 H   0  0  0  0  0  0  0  0  0  0  0  0
   -0.5759    3.5574    2.5182 H   0  0  0  0  0  0  0  0  0  0  0  0
   -0.9100    3.7309    0.7823 H   0  0  0  0  0  0  0  0  0  0  0  0
  1  2  1  0  0  0  0
  2  3  1  0  0  0  0
  2  4  1  0  0  0  0
  2  5  1  0  0  0  0
  5  6  2  0  0  0  0
  5  7  1  0  0  0  0
  7  8  1  0  0  0  0
  7  9  1  0  0  0  0
  9 10  1  0  0  0  0
  9 11  1  0  0  0  0
  9 26  1  0  0  0  0
 11 12  1  0  0  0  0
 11 13  1  0  0  0  0
 11 14  1  0  0  0  0
 14 15  2  0  0  0  0
 14 24  1  0  0  0  0
 15 16  1  0  0  0  0
 15 17  1  0  0  0  0
 17 18  1  0  0  0  0
 17 19  2  0  0  0  0
 19 20  1  0  0  0  0
 19 22  1  0  0  0  0
 20 21  1  0  0  0  0
 22 23  1  0  0  0  0
 22 24  2  0  0  0  0
 24 25  1  0  0  0  0
 26 27  2  0  0  0  0
 26 28  1  0  0  0  0
 28 29  1  0  0  0  0
 28 30  1  0  0  0  0
 30 31  1  0  0  0  0
 30 32  1  0  0  0  0
 30 33  1  0  0  0  0
M  END
$$$$

  -OEChem-04042216043D

 33 33  0     1  0  0  0  0  0999 V2000
   -3.7985   -4.1101    1.2667 H   0  0  0  0  0  0  0  0  0  0  0  0
   -3.7584   -3.1839    0.6864 C   0  0  0  0  0  0  0  0  0  0  0  0
   -4.5712   -2.5293    1.0102 H   0  0  0  0  0  0  0  0  0  0  0  0
   -3.8929   -3.4251   -0.3709 H   0  0  0  0  0  0  0  0  0  0  0  0
   -2.4236   -2.4937    0.8944 C   0  0  0  0  0  0  0  0  0  0  0  0
   -1.5947   -2.9801    1.6470 O   0  0  0  0  0  0  0  0  0  0  0  0
   -2.1516   -1.3135    0.2351 N   0  0  0  0  0  0  0  0  0  0  0  0
   -2.9057   -0.8900   -0.3049 H   0  0  0  0  0  0  0  0  0  0  0  0
   -0.9426   -0.5000    0.4409 C   0  0  1  0  0  0  0  0  0  0  0  0
   -0.4306   -0.7693    1.3704 H   0  0  0  0  0  0  0  0  0  0  0  0
   -0.0259   -0.8443   -0.7601 C   0  0  0  0  0  0  0  0  0  0  0  0
    0.1202   -1.9299   -0.7400 H   0  0  0  0  0  0  0  0  0  0  0  0
   -0.5798   -0.6123   -1.6762 H   0  0  0  0  0  0  0  0  0  0  0  0
    1.3466   -0.1943   -0.9065 C   0  0  0  0  0  0  0  0  0  0  0  0
    1.7006    1.0909   -0.4531 C   0  0  0  0  0  0  0  0  0  0  0  0
    0.9816    1.7648   -0.0159 H   0  0  0  0  0  0  0  0  0  0  0  0
    3.0056    1.5765   -0.6039 C   0  0  0  0  0  0  0  0  0  0  0  0
    3.2456    2.5743   -0.2533 H   0  0  0  0  0  0  0  0  0  0  0  0
    3.9852    0.7911   -1.2092 C   0  0  0  0  0  0  0  0  0  0  0  0
    5.2595    1.2563   -1.3621 O   0  0  0  0  0  0  0  0  0  0  0  0
    5.3287    2.1583   -1.0137 H   0  0  0  0  0  0  0  0  0  0  0  0
    3.6534   -0.4789   -1.6673 C   0  0  0  0  0  0  0  0  0  0  0  0
    4.4176   -1.0872   -2.1398 H   0  0  0  0  0  0  0  0  0  0  0  0
    2.3508   -0.9658   -1.5192 C   0  0  0  0  0  0  0  0  0  0  0  0
    2.1254   -1.9640   -1.8839 H   0  0  0  0  0  0  0  0  0  0  0  0
   -1.4032    0.9677    0.5502 C   0  0  0  0  0  0  0  0  0  0  0  0
   -2.2436    1.4072   -0.2272 O   0  0  0  0  0  0  0  0  0  0  0  0
   -0.9012    1.7956    1.5394 N   0  0  0  0  0  0  0  0  0  0  0  0
   -0.2649    1.3827    2.2166 H   0  0  0  0  0  0  0  0  0  0  0  0
   -1.3428    3.1714    1.7333 C   0  0  0  0  0  0  0  0  0  0  0  0
   -2.4191    3.2041    1.9322 H   0  0  0  0  0  0  0  0  0  0  0  0
   -0.8202    3.6200    2.5835 H   0  0  0  0  0  0  0  0  0  0  0  0
   -1.1304    3.7708    0.8418 H   0  0  0  0  0  0  0  0  0  0  0  0
  1  2  1  0  0  0  0
  2  3  1  0  0  0  0
  2  4  1  0  0  0  0
  2  5  1  0  0  0  0
  5  6  2  0  0  0  0
  5  7  1  0  0  0  0
  7  8  1  0  0  0  0
  7  9  1  0  0  0  0
  9 10  1  0  0  0  0
  9 11  1  0  0  0  0
  9 26  1  0  0  0  0
 11 12  1  0  0  0  0
 11 13  1  0  0  0  0
 11 14  1  0  0  0  0
 14 15  2  0  0  0  0
 14 24  1  0  0  0  0
 15 16  1  0  0  0  0
 15 17  1  0  0  0  0
 17 18  1  0  0  0  0
 17 19  2  0  0  0  0
 19 20  1  0  0  0  0
 19 22  1  0  0  0  0
 20 21  1  0  0  0  0
 22 23  1  0  0  0  0
 22 24  2  0  0  0  0
 24 25  1  0  0  0  0
 26 27  2  0  0  0  0
 26 28  1  0  0  0  0
 28 29  1  0  0  0  0
 28 30  1  0  0  0  0
 30 31  1  0  0  0  0
 30 32  1  0  0  0  0
 30 33  1  0  0  0  0
M  END
$$$$

  -OEChem-04042216043D

 33 33  0     1  0  0  0  0  0999 V2000
   -3.8748   -4.0699    1.2188 H   0  0  0  0  0  0  0  0  0  0  0  0
   -3.7887   -3.1551    0.6255 C   0  0  0  0  0  0  0  0  0  0  0  0
   -4.6021   -2.4791    0.9003 H   0  0  0  0  0  0  0  0  0  0  0  0
   -3.8792   -3.4121   -0.4326 H   0  0  0  0  0  0  0  0  0  0  0  0
   -2.4508   -2.4875    0.8831 C   0  0  0  0  0  0  0  0  0  0  0  0
   -1.6624   -2.9810    1.6737 O   0  0  0  0  0  0  0  0  0  0  0  0
   -2.1327   -1.3156    0.2299 N   0  0  0  0  0  0  0  0  0  0  0  0
   -2.8570   -0.8814   -0.3415 H   0  0  0  0  0  0  0  0  0  0  0  0
   -0.9199   -0.5210    0.4812 C   0  0  1  0  0  0  0  0  0  0  0  0
   -0.4307   -0.7985    1.4203 H   0  0  0  0  0  0  0  0  0  0  0  0
    0.0061   -0.8464   -0.7167 C   0  0  0  0  0  0  0  0  0  0  0  0
    0.1454   -1.9332   -0.7204 H   0  0  0  0  0  0  0  0  0  0  0  0
   -0.5369   -0.5880   -1.6326 H   0  0  0  0  0  0  0  0  0  0  0  0
    1.3897   -0.2207   -0.8380 C   0  0  0  0  0  0  0  0  0  0  0  0
    1.8631    0.8880   -0.1126 C   0  0  0  0  0  0  0  0  0  0  0  0
    1.2605    1.3905    0.6249 H   0  0  0  0  0  0  0  0  0  0  0  0
    3.1560    1.3856   -0.3182 C   0  0  0  0  0  0  0  0  0  0  0  0
    3.4946    2.2416    0.2549 H   0  0  0  0  0  0  0  0  0  0  0  0
    4.0018    0.7875   -1.2512 C   0  0  0  0  0  0  0  0  0  0  0  0
    5.2642    1.2640   -1.4571 O   0  0  0  0  0  0  0  0  0  0  0  0
    5.4269    2.0322   -0.8888 H   0  0  0  0  0  0  0  0  0  0  0  0
    3.5493   -0.3079   -1.9787 C   0  0  0  0  0  0  0  0  0  0  0  0
    4.2093   -0.7708   -2.7051 H   0  0  0  0  0  0  0  0  0  0  0  0
    2.2582   -0.8050   -1.7764 C   0  0  0  0  0  0  0  0  0  0  0  0
    1.9293   -1.6597   -2.3609 H   0  0  0  0  0  0  0  0  0  0  0  0
   -1.3830    0.9517    0.5613 C   0  0  0  0  0  0  0  0  0  0  0  0
   -2.1905    1.3811   -0.2563 O   0  0  0  0  0  0  0  0  0  0  0  0
   -0.9312    1.7975    1.5595 N   0  0  0  0  0  0  0  0  0  0  0  0
   -0.3582    1.3892    2.2929 H   0  0  0  0  0  0  0  0  0  0  0  0
   -1.3909    3.1729    1.7114 C   0  0  0  0  0  0  0  0  0  0  0  0
   -2.4716    3.1996    1.8860 H   0  0  0  0  0  0  0  0  0  0  0  0
   -0.8914    3.6469    2.5616 H   0  0  0  0  0  0  0  0  0  0  0  0
   -1.1647    3.7535    0.8108 H   0  0  0  0  0  0  0  0  0  0  0  0
  1  2  1  0  0  0  0
  2  3  1  0  0  0  0
  2  4  1  0  0  0  0
  2  5  1  0  0  0  0
  5  6  2  0  0  0  0
  5  7  1  0  0  0  0
  7  8  1  0  0  0  0
  7  9  1  0  0  0  0
  9 10  1  0  0  0  0
  9 11  1  0  0  0  0
  9 26  1  0  0  0  0
 11 12  1  0  0  0  0
 11 13  1  0  0  0  0
 11 14  1  0  0  0  0
 14 15  2  0  0  0  0
 14 24  1  0  0  0  0
 15 16  1  0  0  0  0
 15 17  1  0  0  0  0
 17 18  1  0  0  0  0
 17 19  2  0  0  0  0
 19 20  1  0  0  0  0
 19 22  1  0  0  0  0
 20 21  1  0  0  0  0
 22 23  1  0  0  0  0
 22 24  2  0  0  0  0
 24 25  1  0  0  0  0
 26 27  2  0  0  0  0
 26 28  1  0  0  0  0
 28 29  1  0  0  0  0
 28 30  1  0  0  0  0
 30 31  1  0  0  0  0
 30 32  1  0  0  0  0
 30 33  1  0  0  0  0
M  END
$$$$

  -OEChem-04042216043D

 33 33  0     1  0  0  0  0  0999 V2000
   -3.9679   -4.0246    1.2635 H   0  0  0  0  0  0  0  0  0  0  0  0
   -3.8584   -3.1213    0.6569 C   0  0  0  0  0  0  0  0  0  0  0  0
   -4.6487   -2.4169    0.9277 H   0  0  0  0  0  0  0  0  0  0  0  0
   -3.9640   -3.3900   -0.3969 H   0  0  0  0  0  0  0  0  0  0  0  0
   -2.4992   -2.4918    0.8966 C   0  0  0  0  0  0  0  0  0  0  0  0
   -1.7209   -2.9992    1.6886 O   0  0  0  0  0  0  0  0  0  0  0  0
   -2.1503   -1.3391    0.2254 N   0  0  0  0  0  0  0  0  0  0  0  0
   -2.8671   -0.8882   -0.3427 H   0  0  0  0  0  0  0  0  0  0  0  0
   -0.9128   -0.5786    0.4580 C   0  0  1  0  0  0  0  0  0  0  0  0
   -0.4224   -0.8671    1.3931 H   0  0  0  0  0  0  0  0  0  0  0  0
   -0.0023   -0.8972   -0.7497 C   0  0  0  0  0  0  0  0  0  0  0  0
    0.1329   -1.9838   -0.7792 H   0  0  0  0  0  0  0  0  0  0  0  0
   -0.5430   -0.6132   -1.6593 H   0  0  0  0  0  0  0  0  0  0  0  0
    1.3821   -0.2728   -0.8322 C   0  0  0  0  0  0  0  0  0  0  0  0
    1.9368    0.5974    0.1236 C   0  0  0  0  0  0  0  0  0  0  0  0
    1.4195    0.8314    1.0418 H   0  0  0  0  0  0  0  0  0  0  0  0
    3.2067    1.1571   -0.0650 C   0  0  0  0  0  0  0  0  0  0  0  0
    3.6147    1.8206    0.6893 H   0  0  0  0  0  0  0  0  0  0  0  0
    3.9445    0.8594   -1.2105 C   0  0  0  0  0  0  0  0  0  0  0  0
    5.1830    1.3997   -1.4032 O   0  0  0  0  0  0  0  0  0  0  0  0
    5.4151    1.9743   -0.6578 H   0  0  0  0  0  0  0  0  0  0  0  0
    3.4100   -0.0018   -2.1634 C   0  0  0  0  0  0  0  0  0  0  0  0
    3.9868   -0.2312   -3.0536 H   0  0  0  0  0  0  0  0  0  0  0  0
    2.1417   -0.5610   -1.9779 C   0  0  0  0  0  0  0  0  0  0  0  0
    1.7423   -1.2233   -2.7407 H   0  0  0  0  0  0  0  0  0  0  0  0
   -1.3200    0.9126    0.5226 C   0  0  0  0  0  0  0  0  0  0  0  0
   -2.1252    1.3555   -0.2904 O   0  0  0  0  0  0  0  0  0  0  0  0
   -0.8325    1.7589    1.5028 N   0  0  0  0  0  0  0  0  0  0  0  0
   -0.2743    1.3443    2.2429 H   0  0  0  0  0  0  0  0  0  0  0  0
   -1.2346    3.1551    1.6254 C   0  0  0  0  0  0  0  0  0  0  0  0
   -2.3111    3.2298    1.8120 H   0  0  0  0  0  0  0  0  0  0  0  0
   -0.7051    3.6296    2.4570 H   0  0  0  0  0  0  0  0  0  0  0  0
   -0.9970    3.7038    0.7077 H   0  0  0  0  0  0  0  0  0  0  0  0
  1  2  1  0  0  0  0
  2  3  1  0  0  0  0
  2  4  1  0  0  0  0
  2  5  1  0  0  0  0
  5  6  2  0  0  0  0
  5  7  1  0  0  0  0
  7  8  1  0  0  0  0
  7  9  1  0  0  0  0
  9 10  1  0  0  0  0
  9 11  1  0  0  0  0
  9 26  1  0  0  0  0
 11 12  1  0  0  0  0
 11 13  1  0  0  0  0
 11 14  1  0  0  0  0
 14 15  2  0  0  0  0
 14 24  1  0  0  0  0
 15 16  1  0  0  0  0
 15 17  1  0  0  0  0
 17 18  1  0  0  0  0
 17 19  2  0  0  0  0
 19 20  1  0  0  0  0
 19 22  1  0  0  0  0
 20 21  1  0  0  0  0
 22 23  1  0  0  0  0
 22 24  2  0  0  0  0
 24 25  1  0  0  0  0
 26 27  2  0  0  0  0
 26 28  1  0  0  0  0
 28 29  1  0  0  0  0
 28 30  1  0  0  0  0
 30 31  1  0  0  0  0
 30 32  1  0  0  0  0
 30 33  1  0  0  0  0
M  END
$$$$

  -OEChem-04042216043D

 33 33  0     1  0  0  0  0  0999 V2000
   -3.9951   -4.0166    1.3541 H   0  0  0  0  0  0  0  0  0  0  0  0
   -3.8973   -3.1212    0.7340 C   0  0  0  0  0  0  0  0  0  0  0  0
   -4.6662   -2.4028    1.0284 H   0  0  0  0  0  0  0  0  0  0  0  0
   -4.0490   -3.3988   -0.3119 H   0  0  0  0  0  0  0  0  0  0  0  0
   -2.5205   -2.5100    0.9132 C   0  0  0  0  0  0  0  0  0  0  0  0
   -1.7187   -3.0244    1.6770 O   0  0  0  0  0  0  0  0  0  0  0  0
   -2.1814   -1.3670    0.2200 N   0  0  0  0  0  0  0  0  0  0  0  0
   -2.9142   -0.9086   -0.3208 H   0  0  0  0  0  0  0  0  0  0  0  0
   -0.9278   -0.6205    0.4039 C   0  0  1  0  0  0  0  0  0  0  0  0
   -0.4249   -0.9166    1.3295 H   0  0  0  0  0  0  0  0  0  0  0  0
   -0.0362   -0.9383   -0.8139 C   0  0  0  0  0  0  0  0  0  0  0  0
    0.1112   -2.0226   -0.8498 H   0  0  0  0  0  0  0  0  0  0  0  0
   -0.5858   -0.6545   -1.7183 H   0  0  0  0  0  0  0  0  0  0  0  0
    1.3370   -0.2888   -0.8707 C   0  0  0  0  0  0  0  0  0  0  0  0
    1.9663    0.3227    0.2297 C   0  0  0  0  0  0  0  0  0  0  0  0
    1.5118    0.3138    1.2122 H   0  0  0  0  0  0  0  0  0  0  0  0
    3.2219    0.9271    0.0924 C   0  0  0  0  0  0  0  0  0  0  0  0
    3.6904    1.3869    0.9554 H   0  0  0  0  0  0  0  0  0  0  0  0
    3.8693    0.9311   -1.1435 C   0  0  0  0  0  0  0  0  0  0  0  0
    5.0941    1.5162   -1.2890 O   0  0  0  0  0  0  0  0  0  0  0  0
    5.3869    1.8919   -0.4448 H   0  0  0  0  0  0  0  0  0  0  0  0
    3.2591    0.3271   -2.2388 C   0  0  0  0  0  0  0  0  0  0  0  0
    3.7680    0.3333   -3.1973 H   0  0  0  0  0  0  0  0  0  0  0  0
    2.0047   -0.2775   -2.1058 C   0  0  0  0  0  0  0  0  0  0  0  0
    1.5458   -0.7383   -2.9759 H   0  0  0  0  0  0  0  0  0  0  0  0
   -1.2776    0.8832    0.4737 C   0  0  0  0  0  0  0  0  0  0  0  0
   -2.1105    1.3466   -0.2987 O   0  0  0  0  0  0  0  0  0  0  0  0
   -0.7202    1.7112    1.4317 N   0  0  0  0  0  0  0  0  0  0  0  0
   -0.0962    1.2917    2.1134 H   0  0  0  0  0  0  0  0  0  0  0  0
   -1.0327    3.1306    1.5424 C   0  0  0  0  0  0  0  0  0  0  0  0
   -2.1057    3.2762    1.7062 H   0  0  0  0  0  0  0  0  0  0  0  0
   -0.4915    3.5727    2.3843 H   0  0  0  0  0  0  0  0  0  0  0  0
   -0.7403    3.6577    0.6281 H   0  0  0  0  0  0  0  0  0  0  0  0
  1  2  1  0  0  0  0
  2  3  1  0  0  0  0
  2  4  1  0  0  0  0
  2  5  1  0  0  0  0
  5  6  2  0  0  0  0
  5  7  1  0  0  0  0
  7  8  1  0  0  0  0
  7  9  1  0  0  0  0
  9 10  1  0  0  0  0
  9 11  1  0  0  0  0
  9 26  1  0  0  0  0
 11 12  1  0  0  0  0
 11 13  1  0  0  0  0
 11 14  1  0  0  0  0
 14 15  2  0  0  0  0
 14 24  1  0  0  0  0
 15 16  1  0  0  0  0
 15 17  1  0  0  0  0
 17 18  1  0  0  0  0
 17 19  2  0  0  0  0
 19 20  1  0  0  0  0
 19 22  1  0  0  0  0
 20 21  1  0  0  0  0
 22 23  1  0  0  0  0
 22 24  2  0  0  0  0
 24 25  1  0  0  0  0
 26 27  2  0  0  0  0
 26 28  1  0  0  0  0
 28 29  1  0  0  0  0
 28 30  1  0  0  0  0
 30 31  1  0  0  0  0
 30 32  1  0  0  0  0
 30 33  1  0  0  0  0
M  END
$$$$

  -OEChem-04042216043D

 33 33  0     1  0  0  0  0  0999 V2000
   -4.0146   -4.0070    1.4411 H   0  0  0  0  0  0  0  0  0  0  0  0
   -3.9243   -3.1198    0.8082 C   0  0  0  0  0  0  0  0  0  0  0  0
   -4.6683   -2.3845    1.1242 H   0  0  0  0  0  0  0  0  0  0  0  0
   -4.1207   -3.4052   -0.2282 H   0  0  0  0  0  0  0  0  0  0  0  0
   -2.5312   -2.5315    0.9278 C   0  0  0  0  0  0  0  0  0  0  0  0
   -1.7049   -3.0597    1.6553 O   0  0  0  0  0  0  0  0  0  0  0  0
   -2.2052   -1.3954    0.2175 N   0  0  0  0  0  0  0  0  0  0  0  0
   -2.9559   -0.9260   -0.2878 H   0  0  0  0  0  0  0  0  0  0  0  0
   -0.9396   -0.6601    0.3540 C   0  0  1  0  0  0  0  0  0  0  0  0
   -0.4277   -0.9610    1.2722 H   0  0  0  0  0  0  0  0  0  0  0  0
   -0.0652   -0.9790   -0.8728 C   0  0  0  0  0  0  0  0  0  0  0  0
    0.0941   -2.0614   -0.9130 H   0  0  0  0  0  0  0  0  0  0  0  0
   -0.6233   -0.6981   -1.7727 H   0  0  0  0  0  0  0  0  0  0  0  0
    1.2954   -0.3039   -0.9044 C   0  0  0  0  0  0  0  0  0  0  0  0
    2.0158    0.0273    0.2591 C   0  0  0  0  0  0  0  0  0  0  0  0
    1.6445   -0.2400    1.2420 H   0  0  0  0  0  0  0  0  0  0  0  0
    3.2519    0.6794    0.1734 C   0  0  0  0  0  0  0  0  0  0  0  0
    3.7952    0.9176    1.0815 H   0  0  0  0  0  0  0  0  0  0  0  0
    3.7859    1.0125   -1.0719 C   0  0  0  0  0  0  0  0  0  0  0  0
    4.9909    1.6464   -1.1672 O   0  0  0  0  0  0  0  0  0  0  0  0
    5.3706    1.7767   -0.2848 H   0  0  0  0  0  0  0  0  0  0  0  0
    3.0825    0.6895   -2.2290 C   0  0  0  0  0  0  0  0  0  0  0  0
    3.5028    0.9517   -3.1944 H   0  0  0  0  0  0  0  0  0  0  0  0
    1.8480    0.0366   -2.1489 C   0  0  0  0  0  0  0  0  0  0  0  0
    1.3155   -0.1996   -3.0659 H   0  0  0  0  0  0  0  0  0  0  0  0
   -1.2407    0.8521    0.4301 C   0  0  0  0  0  0  0  0  0  0  0  0
   -2.1073    1.3317   -0.2937 O   0  0  0  0  0  0  0  0  0  0  0  0
   -0.6208    1.6615    1.3646 N   0  0  0  0  0  0  0  0  0  0  0  0
    0.1100    1.2476    1.9341 H   0  0  0  0  0  0  0  0  0  0  0  0
   -0.8503    3.0983    1.4510 C   0  0  0  0  0  0  0  0  0  0  0  0
   -1.9109    3.3085    1.6256 H   0  0  0  0  0  0  0  0  0  0  0  0
   -0.2742    3.5243    2.2779 H   0  0  0  0  0  0  0  0  0  0  0  0
   -0.5413    3.5900    0.5226 H   0  0  0  0  0  0  0  0  0  0  0  0
  1  2  1  0  0  0  0
  2  3  1  0  0  0  0
  2  4  1  0  0  0  0
  2  5  1  0  0  0  0
  5  6  2  0  0  0  0
  5  7  1  0  0  0  0
  7  8  1  0  0  0  0
  7  9  1  0  0  0  0
  9 10  1  0  0  0  0
  9 11  1  0  0  0  0
  9 26  1  0  0  0  0
 11 12  1  0  0  0  0
 11 13  1  0  0  0  0
 11 14  1  0  0  0  0
 14 15  2  0  0  0  0
 14 24  1  0  0  0  0
 15 16  1  0  0  0  0
 15 17  1  0  0  0  0
 17 18  1  0  0  0  0
 17 19  2  0  0  0  0
 19 20  1  0  0  0  0
 19 22  1  0  0  0  0
 20 21  1  0  0  0  0
 22 23  1  0  0  0  0
 22 24  2  0  0  0  0
 24 25  1  0  0  0  0
 26 27  2  0  0  0  0
 26 28  1  0  0  0  0
 28 29  1  0  0  0  0
 28 30  1  0  0  0  0
 30 31  1  0  0  0  0
 30 32  1  0  0  0  0
 30 33  1  0  0  0  0
M  END
$$$$

  -OEChem-04042216043D

 33 33  0     1  0  0  0  0  0999 V2000
   -3.9980   -3.9933    1.5224 H   0  0  0  0  0  0  0  0  0  0  0  0
   -3.9221   -3.1143    0.8761 C   0  0  0  0  0  0  0  0  0  0  0  0
   -4.6459   -2.3671    1.2107 H   0  0  0  0  0  0  0  0  0  0  0  0
   -4.1598   -3.4084   -0.1490 H   0  0  0  0  0  0  0  0  0  0  0  0
   -2.5196   -2.5398    0.9371 C   0  0  0  0  0  0  0  0  0  0  0  0
   -1.6686   -3.0765    1.6294 O   0  0  0  0  0  0  0  0  0  0  0  0
   -2.2119   -1.4078    0.2122 N   0  0  0  0  0  0  0  0  0  0  0  0
   -2.9785   -0.9315   -0.2617 H   0  0  0  0  0  0  0  0  0  0  0  0
   -0.9383   -0.6803    0.3047 C   0  0  1  0  0  0  0  0  0  0  0  0
   -0.4075   -0.9780    1.2129 H   0  0  0  0  0  0  0  0  0  0  0  0
   -0.0884   -1.0077   -0.9346 C   0  0  0  0  0  0  0  0  0  0  0  0
    0.0804   -2.0887   -0.9720 H   0  0  0  0  0  0  0  0  0  0  0  0
   -0.6552   -0.7349   -1.8313 H   0  0  0  0  0  0  0  0  0  0  0  0
    1.2593   -0.3120   -0.9501 C   0  0  0  0  0  0  0  0  0  0  0  0
    2.0821   -0.2649    0.1899 C   0  0  0  0  0  0  0  0  0  0  0  0
    1.7950   -0.7805    1.1009 H   0  0  0  0  0  0  0  0  0  0  0  0
    3.3036    0.4180    0.1598 C   0  0  0  0  0  0  0  0  0  0  0  0
    3.9286    0.4337    1.0458 H   0  0  0  0  0  0  0  0  0  0  0  0
    3.7174    1.0657   -1.0052 C   0  0  0  0  0  0  0  0  0  0  0  0
    4.9081    1.7318   -1.0472 O   0  0  0  0  0  0  0  0  0  0  0  0
    5.3809    1.6242   -0.2078 H   0  0  0  0  0  0  0  0  0  0  0  0
    2.9075    1.0280   -2.1376 C   0  0  0  0  0  0  0  0  0  0  0  0
    3.2347    1.5353   -3.0394 H   0  0  0  0  0  0  0  0  0  0  0  0
    1.6862    0.3459   -2.1139 C   0  0  0  0  0  0  0  0  0  0  0  0
    1.0678    0.3377   -3.0071 H   0  0  0  0  0  0  0  0  0  0  0  0
   -1.2110    0.8359    0.3869 C   0  0  0  0  0  0  0  0  0  0  0  0
   -2.1047    1.3269   -0.2953 O   0  0  0  0  0  0  0  0  0  0  0  0
   -0.5417    1.6299    1.3000 N   0  0  0  0  0  0  0  0  0  0  0  0
    0.2430    1.2123    1.7906 H   0  0  0  0  0  0  0  0  0  0  0  0
   -0.7344    3.0719    1.3874 C   0  0  0  0  0  0  0  0  0  0  0  0
   -1.7842    3.3075    1.5917 H   0  0  0  0  0  0  0  0  0  0  0  0
   -0.1255    3.4864    2.1964 H   0  0  0  0  0  0  0  0  0  0  0  0
   -0.4407    3.5538    0.4490 H   0  0  0  0  0  0  0  0  0  0  0  0
  1  2  1  0  0  0  0
  2  3  1  0  0  0  0
  2  4  1  0  0  0  0
  2  5  1  0  0  0  0
  5  6  2  0  0  0  0
  5  7  1  0  0  0  0
  7  8  1  0  0  0  0
  7  9  1  0  0  0  0
  9 10  1  0  0  0  0
  9 11  1  0  0  0  0
  9 26  1  0  0  0  0
 11 12  1  0  0  0  0
 11 13  1  0  0  0  0
 11 14  1  0  0  0  0
 14 15  2  0  0  0  0
 14 24  1  0  0  0  0
 15 16  1  0  0  0  0
 15 17  1  0  0  0  0
 17 18  1  0  0  0  0
 17 19  2  0  0  0  0
 19 20  1  0  0  0  0
 19 22  1  0  0  0  0
 20 21  1  0  0  0  0
 22 23  1  0  0  0  0
 22 24  2  0  0  0  0
 24 25  1  0  0  0  0
 26 27  2  0  0  0  0
 26 28  1  0  0  0  0
 28 29  1  0  0  0  0
 28 30  1  0  0  0  0
 30 31  1  0  0  0  0
 30 32  1  0  0  0  0
 30 33  1  0  0  0  0
M  END
$$$$

  -OEChem-04042216043D

 33 33  0     1  0  0  0  0  0999 V2000
   -3.9672   -3.9886    1.5787 H   0  0  0  0  0  0  0  0  0  0  0  0
   -3.9070   -3.1130    0.9264 C   0  0  0  0  0  0  0  0  0  0  0  0
   -4.6136   -2.3595    1.2824 H   0  0  0  0  0  0  0  0  0  0  0  0
   -4.1820   -3.4099   -0.0886 H   0  0  0  0  0  0  0  0  0  0  0  0
   -2.4988   -2.5483    0.9372 C   0  0  0  0  0  0  0  0  0  0  0  0
   -1.6264   -3.0924    1.5965 O   0  0  0  0  0  0  0  0  0  0  0  0
   -2.2102   -1.4159    0.2051 N   0  0  0  0  0  0  0  0  0  0  0  0
   -2.9903   -0.9351   -0.2412 H   0  0  0  0  0  0  0  0  0  0  0  0
   -0.9331   -0.6906    0.2622 C   0  0  1  0  0  0  0  0  0  0  0  0
   -0.3777   -0.9862    1.1572 H   0  0  0  0  0  0  0  0  0  0  0  0
   -0.1066   -1.0233   -0.9893 C   0  0  0  0  0  0  0  0  0  0  0  0
    0.0707   -2.1032   -1.0265 H   0  0  0  0  0  0  0  0  0  0  0  0
   -0.6799   -0.7550   -1.8832 H   0  0  0  0  0  0  0  0  0  0  0  0
    1.2264   -0.3076   -0.9917 C   0  0  0  0  0  0  0  0  0  0  0  0
    2.1574   -0.5232    0.0375 C   0  0  0  0  0  0  0  0  0  0  0  0
    1.9463   -1.2466    0.8204 H   0  0  0  0  0  0  0  0  0  0  0  0
    3.3712    0.1742    0.0550 C   0  0  0  0  0  0  0  0  0  0  0  0
    4.0824   -0.0113    0.8527 H   0  0  0  0  0  0  0  0  0  0  0  0
    3.6643    1.0977   -0.9505 C   0  0  0  0  0  0  0  0  0  0  0  0
    4.8446    1.7833   -0.9441 O   0  0  0  0  0  0  0  0  0  0  0  0
    5.4030    1.4811   -0.2114 H   0  0  0  0  0  0  0  0  0  0  0  0
    2.7418    1.3214   -1.9706 C   0  0  0  0  0  0  0  0  0  0  0  0
    2.9753    2.0434   -2.7464 H   0  0  0  0  0  0  0  0  0  0  0  0
    1.5279    0.6259   -1.9943 C   0  0  0  0  0  0  0  0  0  0  0  0
    0.8167    0.8227   -2.7919 H   0  0  0  0  0  0  0  0  0  0  0  0
   -1.1920    0.8271    0.3538 C   0  0  0  0  0  0  0  0  0  0  0  0
   -2.0989    1.3275   -0.3037 O   0  0  0  0  0  0  0  0  0  0  0  0
   -0.4880    1.6105    1.2496 N   0  0  0  0  0  0  0  0  0  0  0  0
    0.3164    1.1847    1.7009 H   0  0  0  0  0  0  0  0  0  0  0  0
   -0.6573    3.0549    1.3433 C   0  0  0  0  0  0  0  0  0  0  0  0
   -1.6974    3.3051    1.5774 H   0  0  0  0  0  0  0  0  0  0  0  0
   -0.0198    3.4592    2.1352 H   0  0  0  0  0  0  0  0  0  0  0  0
   -0.3833    3.5339    0.3976 H   0  0  0  0  0  0  0  0  0  0  0  0
  1  2  1  0  0  0  0
  2  3  1  0  0  0  0
  2  4  1  0  0  0  0
  2  5  1  0  0  0  0
  5  6  2  0  0  0  0
  5  7  1  0  0  0  0
  7  8  1  0  0  0  0
  7  9  1  0  0  0  0
  9 10  1  0  0  0  0
  9 11  1  0  0  0  0
  9 26  1  0  0  0  0
 11 12  1  0  0  0  0
 11 13  1  0  0  0  0
 11 14  1  0  0  0  0
 14 15  2  0  0  0  0
 14 24  1  0  0  0  0
 15 16  1  0  0  0  0
 15 17  1  0  0  0  0
 17 18  1  0  0  0  0
 17 19  2  0  0  0  0
 19 20  1  0  0  0  0
 19 22  1  0  0  0  0
 20 21  1  0  0  0  0
 22 23  1  0  0  0  0
 22 24  2  0  0  0  0
 24 25  1  0  0  0  0
 26 27  2  0  0  0  0
 26 28  1  0  0  0  0
 28 29  1  0  0  0  0
 28 30  1  0  0  0  0
 30 31  1  0  0  0  0
 30 32  1  0  0  0  0
 30 33  1  0  0  0  0
M  END
$$$$

  -OEChem-04042216043D

 33 33  0     1  0  0  0  0  0999 V2000
   -3.9391   -3.9962    1.5902 H   0  0  0  0  0  0  0  0  0  0  0  0
   -3.8888   -3.1192    0.9388 C   0  0  0  0  0  0  0  0  0  0  0  0
   -4.5912   -2.3670    1.3063 H   0  0  0  0  0  0  0  0  0  0  0  0
   -4.1779   -3.4142   -0.0729 H   0  0  0  0  0  0  0  0  0  0  0  0
   -2.4814   -2.5530    0.9309 C   0  0  0  0  0  0  0  0  0  0  0  0
   -1.5970   -3.1021    1.5696 O   0  0  0  0  0  0  0  0  0  0  0  0
   -2.2069   -1.4157    0.2012 N   0  0  0  0  0  0  0  0  0  0  0  0
   -2.9954   -0.9337   -0.2288 H   0  0  0  0  0  0  0  0  0  0  0  0
   -0.9318   -0.6864    0.2449 C   0  0  1  0  0  0  0  0  0  0  0  0
   -0.3599   -0.9827    1.1303 H   0  0  0  0  0  0  0  0  0  0  0  0
   -0.1175   -1.0197   -1.0131 C   0  0  0  0  0  0  0  0  0  0  0  0
    0.0612   -2.0992   -1.0544 H   0  0  0  0  0  0  0  0  0  0  0  0
   -0.6927   -0.7490   -1.9049 H   0  0  0  0  0  0  0  0  0  0  0  0
    1.2062   -0.2916   -1.0098 C   0  0  0  0  0  0  0  0  0  0  0  0
    2.2464   -0.7242   -0.1739 C   0  0  0  0  0  0  0  0  0  0  0  0
    2.1112   -1.6051    0.4484 H   0  0  0  0  0  0  0  0  0  0  0  0
    3.4623   -0.0313   -0.1394 C   0  0  0  0  0  0  0  0  0  0  0  0
    4.2584   -0.3823    0.5084 H   0  0  0  0  0  0  0  0  0  0  0  0
    3.6466    1.1023   -0.9344 C   0  0  0  0  0  0  0  0  0  0  0  0
    4.8276    1.7861   -0.9076 O   0  0  0  0  0  0  0  0  0  0  0  0
    5.4643    1.3304   -0.3355 H   0  0  0  0  0  0  0  0  0  0  0  0
    2.6135    1.5403   -1.7613 C   0  0  0  0  0  0  0  0  0  0  0  0
    2.7630    2.4246   -2.3724 H   0  0  0  0  0  0  0  0  0  0  0  0
    1.3973    0.8498   -1.8024 C   0  0  0  0  0  0  0  0  0  0  0  0
    0.5976    1.2107   -2.4439 H   0  0  0  0  0  0  0  0  0  0  0  0
   -1.1937    0.8297    0.3485 C   0  0  0  0  0  0  0  0  0  0  0  0
   -2.1015    1.3338   -0.3050 O   0  0  0  0  0  0  0  0  0  0  0  0
   -0.4795    1.6098    1.2389 N   0  0  0  0  0  0  0  0  0  0  0  0
    0.3287    1.1808    1.6808 H   0  0  0  0  0  0  0  0  0  0  0  0
   -0.6414    3.0550    1.3337 C   0  0  0  0  0  0  0  0  0  0  0  0
   -1.6793    3.3101    1.5727 H   0  0  0  0  0  0  0  0  0  0  0  0
    0.0016    3.4563    2.1228 H   0  0  0  0  0  0  0  0  0  0  0  0
   -0.3694    3.5331    0.3868 H   0  0  0  0  0  0  0  0  0  0  0  0
  1  2  1  0  0  0  0
  2  3  1  0  0  0  0
  2  4  1  0  0  0  0
  2  5  1  0  0  0  0
  5  6  2  0  0  0  0
  5  7  1  0  0  0  0
  7  8  1  0  0  0  0
  7  9  1  0  0  0  0
  9 10  1  0  0  0  0
  9 11  1  0  0  0  0
  9 26  1  0  0  0  0
 11 12  1  0  0  0  0
 11 13  1  0  0  0  0
 11 14  1  0  0  0  0
 14 15  2  0  0  0  0
 14 24  1  0  0  0  0
 15 16  1  0  0  0  0
 15 17  1  0  0  0  0
 17 18  1  0  0  0  0
 17 19  2  0  0  0  0
 19 20  1  0  0  0  0
 19 22  1  0  0  0  0
 20 21  1  0  0  0  0
 22 23  1  0  0  0  0
 22 24  2  0  0  0  0
 24 25  1  0  0  0  0
 26 27  2  0  0  0  0
 26 28  1  0  0  0  0
 28 29  1  0  0  0  0
 28 30  1  0  0  0  0
 30 31  1  0  0  0  0
 30 32  1  0  0  0  0
 30 33  1  0  0  0  0
M  END
$$$$

  -OEChem-04042216043D

 33 33  0     1  0  0  0  0  0999 V2000
   -3.9236   -4.0177    1.5537 H   0  0  0  0  0  0  0  0  0  0  0  0
   -3.8781   -3.1345    0.9103 C   0  0  0  0  0  0  0  0  0  0  0  0
   -4.5935   -2.3943    1.2770 H   0  0  0  0  0  0  0  0  0  0  0  0
   -4.1535   -3.4246   -0.1066 H   0  0  0  0  0  0  0  0  0  0  0  0
   -2.4778   -2.5508    0.9210 C   0  0  0  0  0  0  0  0  0  0  0  0
   -1.5927   -3.0968    1.5613 O   0  0  0  0  0  0  0  0  0  0  0  0
   -2.2094   -1.4039    0.2040 N   0  0  0  0  0  0  0  0  0  0  0  0
   -2.9979   -0.9289   -0.2335 H   0  0  0  0  0  0  0  0  0  0  0  0
   -0.9404   -0.6648    0.2599 C   0  0  1  0  0  0  0  0  0  0  0  0
   -0.3691   -0.9624    1.1451 H   0  0  0  0  0  0  0  0  0  0  0  0
   -0.1172   -0.9978   -0.9936 C   0  0  0  0  0  0  0  0  0  0  0  0
    0.0578   -2.0781   -1.0348 H   0  0  0  0  0  0  0  0  0  0  0  0
   -0.6870   -0.7264   -1.8887 H   0  0  0  0  0  0  0  0  0  0  0  0
    1.2059   -0.2681   -0.9962 C   0  0  0  0  0  0  0  0  0  0  0  0
    2.3357   -0.8587   -0.4118 C   0  0  0  0  0  0  0  0  0  0  0  0
    2.2611   -1.8449    0.0391 H   0  0  0  0  0  0  0  0  0  0  0  0
    3.5626   -0.1846   -0.4025 C   0  0  0  0  0  0  0  0  0  0  0  0
    4.4259   -0.6562    0.0543 H   0  0  0  0  0  0  0  0  0  0  0  0
    3.6714    1.0831   -0.9786 C   0  0  0  0  0  0  0  0  0  0  0  0
    4.8623    1.7500   -0.9731 O   0  0  0  0  0  0  0  0  0  0  0  0
    5.5524    1.1962   -0.5766 H   0  0  0  0  0  0  0  0  0  0  0  0
    2.5534    1.6720   -1.5663 C   0  0  0  0  0  0  0  0  0  0  0  0
    2.6466    2.6560   -2.0142 H   0  0  0  0  0  0  0  0  0  0  0  0
    1.3257    1.0018   -1.5819 C   0  0  0  0  0  0  0  0  0  0  0  0
    0.4628    1.4755   -2.0433 H   0  0  0  0  0  0  0  0  0  0  0  0
   -1.2187    0.8469    0.3777 C   0  0  0  0  0  0  0  0  0  0  0  0
   -2.1165    1.3522   -0.2885 O   0  0  0  0  0  0  0  0  0  0  0  0
   -0.5170    1.6260    1.2790 N   0  0  0  0  0  0  0  0  0  0  0  0
    0.2827    1.1960    1.7358 H   0  0  0  0  0  0  0  0  0  0  0  0
   -0.6871    3.0697    1.3818 C   0  0  0  0  0  0  0  0  0  0  0  0
   -1.7304    3.3190    1.6025 H   0  0  0  0  0  0  0  0  0  0  0  0
   -0.0614    3.4670    2.1866 H   0  0  0  0  0  0  0  0  0  0  0  0
   -0.3984    3.5561    0.4442 H   0  0  0  0  0  0  0  0  0  0  0  0
  1  2  1  0  0  0  0
  2  3  1  0  0  0  0
  2  4  1  0  0  0  0
  2  5  1  0  0  0  0
  5  6  2  0  0  0  0
  5  7  1  0  0  0  0
  7  8  1  0  0  0  0
  7  9  1  0  0  0  0
  9 10  1  0  0  0  0
  9 11  1  0  0  0  0
  9 26  1  0  0  0  0
 11 12  1  0  0  0  0
 11 13  1  0  0  0  0
 11 14  1  0  0  0  0
 14 15  2  0  0  0  0
 14 24  1  0  0  0  0
 15 16  1  0  0  0  0
 15 17  1  0  0  0  0
 17 18  1  0  0  0  0
 17 19  2  0  0  0  0
 19 20  1  0  0  0  0
 19 22  1  0  0  0  0
 20 21  1  0  0  0  0
 22 23  1  0  0  0  0
 22 24  2  0  0  0  0
 24 25  1  0  0  0  0
 26 27  2  0  0  0  0
 26 28  1  0  0  0  0
 28 29  1  0  0  0  0
 28 30  1  0  0  0  0
 30 31  1  0  0  0  0
 30 32  1  0  0  0  0
 30 33  1  0  0  0  0
M  END
$$$$

  -OEChem-04042216043D

 33 33  0     1  0  0  0  0  0999 V2000
   -3.9154   -4.0435    1.4932 H   0  0  0  0  0  0  0  0  0  0  0  0
   -3.8688   -3.1525    0.8608 C   0  0  0  0  0  0  0  0  0  0  0  0
   -4.6037   -2.4276    1.2191 H   0  0  0  0  0  0  0  0  0  0  0  0
   -4.1161   -3.4354   -0.1652 H   0  0  0  0  0  0  0  0  0  0  0  0
   -2.4782   -2.5475    0.9094 C   0  0  0  0  0  0  0  0  0  0  0  0
   -1.5980   -3.0893    1.5598 O   0  0  0  0  0  0  0  0  0  0  0  0
   -2.2119   -1.3880    0.2117 N   0  0  0  0  0  0  0  0  0  0  0  0
   -2.9974   -0.9212   -0.2396 H   0  0  0  0  0  0  0  0  0  0  0  0
   -0.9523   -0.6343    0.2950 C   0  0  1  0  0  0  0  0  0  0  0  0
   -0.3916   -0.9324    1.1871 H   0  0  0  0  0  0  0  0  0  0  0  0
   -0.1065   -0.9683   -0.9464 C   0  0  0  0  0  0  0  0  0  0  0  0
    0.0610   -2.0499   -0.9823 H   0  0  0  0  0  0  0  0  0  0  0  0
   -0.6687   -0.6985   -1.8467 H   0  0  0  0  0  0  0  0  0  0  0  0
    1.2224   -0.2436   -0.9633 C   0  0  0  0  0  0  0  0  0  0  0  0
    2.4026   -0.9409   -0.6635 C   0  0  0  0  0  0  0  0  0  0  0  0
    2.3580   -1.9910   -0.3878 H   0  0  0  0  0  0  0  0  0  0  0  0
    3.6425   -0.2921   -0.7037 C   0  0  0  0  0  0  0  0  0  0  0  0
    4.5416   -0.8461   -0.4566 H   0  0  0  0  0  0  0  0  0  0  0  0
    3.7186    1.0554   -1.0616 C   0  0  0  0  0  0  0  0  0  0  0  0
    4.9219    1.6985   -1.1012 O   0  0  0  0  0  0  0  0  0  0  0  0
    5.6372    1.0797   -0.8877 H   0  0  0  0  0  0  0  0  0  0  0  0
    2.5547    1.7470   -1.3907 C   0  0  0  0  0  0  0  0  0  0  0  0
    2.6228    2.7900   -1.6832 H   0  0  0  0  0  0  0  0  0  0  0  0
    1.3136    1.1027   -1.3542 C   0  0  0  0  0  0  0  0  0  0  0  0
    0.4208    1.6563   -1.6344 H   0  0  0  0  0  0  0  0  0  0  0  0
   -1.2574    0.8703    0.4279 C   0  0  0  0  0  0  0  0  0  0  0  0
   -2.1404    1.3746   -0.2581 O   0  0  0  0  0  0  0  0  0  0  0  0
   -0.5817    1.6485    1.3497 N   0  0  0  0  0  0  0  0  0  0  0  0
    0.2046    1.2187    1.8296 H   0  0  0  0  0  0  0  0  0  0  0  0
   -0.7723    3.0885    1.4700 C   0  0  0  0  0  0  0  0  0  0  0  0
   -1.8245    3.3232    1.6631 H   0  0  0  0  0  0  0  0  0  0  0  0
   -0.1758    3.4803    2.2996 H   0  0  0  0  0  0  0  0  0  0  0  0
   -0.4612    3.5930    0.5494 H   0  0  0  0  0  0  0  0  0  0  0  0
  1  2  1  0  0  0  0
  2  3  1  0  0  0  0
  2  4  1  0  0  0  0
  2  5  1  0  0  0  0
  5  6  2  0  0  0  0
  5  7  1  0  0  0  0
  7  8  1  0  0  0  0
  7  9  1  0  0  0  0
  9 10  1  0  0  0  0
  9 11  1  0  0  0  0
  9 26  1  0  0  0  0
 11 12  1  0  0  0  0
 11 13  1  0  0  0  0
 11 14  1  0  0  0  0
 14 15  2  0  0  0  0
 14 24  1  0  0  0  0
 15 16  1  0  0  0  0
 15 17  1  0  0  0  0
 17 18  1  0  0  0  0
 17 19  2  0  0  0  0
 19 20  1  0  0  0  0
 19 22  1  0  0  0  0
 20 21  1  0  0  0  0
 22 23  1  0  0  0  0
 22 24  2  0  0  0  0
 24 25  1  0  0  0  0
 26 27  2  0  0  0  0
 26 28  1  0  0  0  0
 28 29  1  0  0  0  0
 28 30  1  0  0  0  0
 30 31  1  0  0  0  0
 30 32  1  0  0  0  0
 30 33  1  0  0  0  0
M  END
$$$$

  -OEChem-04042216043D

 33 33  0     1  0  0  0  0  0999 V2000
   -3.8967   -4.0659    1.4254 H   0  0  0  0  0  0  0  0  0  0  0  0
   -3.8527   -3.1647    0.8073 C   0  0  0  0  0  0  0  0  0  0  0  0
   -4.6052   -2.4569    1.1635 H   0  0  0  0  0  0  0  0  0  0  0  0
   -4.0773   -3.4352   -0.2272 H   0  0  0  0  0  0  0  0  0  0  0  0
   -2.4725   -2.5403    0.8905 C   0  0  0  0  0  0  0  0  0  0  0  0
   -1.5982   -3.0764    1.5530 O   0  0  0  0  0  0  0  0  0  0  0  0
   -2.2095   -1.3679    0.2136 N   0  0  0  0  0  0  0  0  0  0  0  0
   -2.9928   -0.9060   -0.2468 H   0  0  0  0  0  0  0  0  0  0  0  0
   -0.9623   -0.5981    0.3318 C   0  0  1  0  0  0  0  0  0  0  0  0
   -0.4198   -0.8936    1.2357 H   0  0  0  0  0  0  0  0  0  0  0  0
   -0.0827   -0.9371   -0.8891 C   0  0  0  0  0  0  0  0  0  0  0  0
    0.0787   -2.0202   -0.9061 H   0  0  0  0  0  0  0  0  0  0  0  0
   -0.6319   -0.6799   -1.8010 H   0  0  0  0  0  0  0  0  0  0  0  0
    1.2565   -0.2238   -0.9263 C   0  0  0  0  0  0  0  0  0  0  0  0
    2.4384   -0.9826   -0.9246 C   0  0  0  0  0  0  0  0  0  0  0  0
    2.3911   -2.0641   -0.8318 H   0  0  0  0  0  0  0  0  0  0  0  0
    3.6896   -0.3626   -1.0215 C   0  0  0  0  0  0  0  0  0  0  0  0
    4.5881   -0.9697   -0.9955 H   0  0  0  0  0  0  0  0  0  0  0  0
    3.7770    1.0234   -1.1567 C   0  0  0  0  0  0  0  0  0  0  0  0
    4.9914    1.6388   -1.2532 O   0  0  0  0  0  0  0  0  0  0  0  0
    5.7011    0.9784   -1.2323 H   0  0  0  0  0  0  0  0  0  0  0  0
    2.6111    1.7821   -1.2145 C   0  0  0  0  0  0  0  0  0  0  0  0
    2.6850    2.8562   -1.3501 H   0  0  0  0  0  0  0  0  0  0  0  0
    1.3590    1.1659   -1.1202 C   0  0  0  0  0  0  0  0  0  0  0  0
    0.4715    1.7834   -1.2215 H   0  0  0  0  0  0  0  0  0  0  0  0
   -1.3023    0.8966    0.4784 C   0  0  0  0  0  0  0  0  0  0  0  0
   -2.1803    1.3947   -0.2181 O   0  0  0  0  0  0  0  0  0  0  0  0
   -0.6608    1.6736    1.4254 N   0  0  0  0  0  0  0  0  0  0  0  0
    0.1050    1.2443    1.9382 H   0  0  0  0  0  0  0  0  0  0  0  0
   -0.8958    3.1035    1.5810 C   0  0  0  0  0  0  0  0  0  0  0  0
   -1.9585    3.3018    1.7551 H   0  0  0  0  0  0  0  0  0  0  0  0
   -0.3303    3.4883    2.4351 H   0  0  0  0  0  0  0  0  0  0  0  0
   -0.5785    3.6429    0.6825 H   0  0  0  0  0  0  0  0  0  0  0  0
  1  2  1  0  0  0  0
  2  3  1  0  0  0  0
  2  4  1  0  0  0  0
  2  5  1  0  0  0  0
  5  6  2  0  0  0  0
  5  7  1  0  0  0  0
  7  8  1  0  0  0  0
  7  9  1  0  0  0  0
  9 10  1  0  0  0  0
  9 11  1  0  0  0  0
  9 26  1  0  0  0  0
 11 12  1  0  0  0  0
 11 13  1  0  0  0  0
 11 14  1  0  0  0  0
 14 15  2  0  0  0  0
 14 24  1  0  0  0  0
 15 16  1  0  0  0  0
 15 17  1  0  0  0  0
 17 18  1  0  0  0  0
 17 19  2  0  0  0  0
 19 20  1  0  0  0  0
 19 22  1  0  0  0  0
 20 21  1  0  0  0  0
 22 23  1  0  0  0  0
 22 24  2  0  0  0  0
 24 25  1  0  0  0  0
 26 27  2  0  0  0  0
 26 28  1  0  0  0  0
 28 29  1  0  0  0  0
 28 30  1  0  0  0  0
 30 31  1  0  0  0  0
 30 32  1  0  0  0  0
 30 33  1  0  0  0  0
M  END
$$$$

  -OEChem-04042216043D

 33 33  0     1  0  0  0  0  0999 V2000
   -3.8653   -4.0916    1.3365 H   0  0  0  0  0  0  0  0  0  0  0  0
   -3.8218   -3.1736    0.7438 C   0  0  0  0  0  0  0  0  0  0  0  0
   -4.5951   -2.4880    1.0987 H   0  0  0  0  0  0  0  0  0  0  0  0
   -4.0155   -3.4203   -0.3029 H   0  0  0  0  0  0  0  0  0  0  0  0
   -2.4557   -2.5278    0.8791 C   0  0  0  0  0  0  0  0  0  0  0  0
   -1.5966   -3.0533    1.5693 O   0  0  0  0  0  0  0  0  0  0  0  0
   -2.1892   -1.3458    0.2205 N   0  0  0  0  0  0  0  0  0  0  0  0
   -2.9628   -0.8944   -0.2663 H   0  0  0  0  0  0  0  0  0  0  0  0
   -0.9576   -0.5580    0.3816 C   0  0  1  0  0  0  0  0  0  0  0  0
   -0.4332   -0.8482    1.2979 H   0  0  0  0  0  0  0  0  0  0  0  0
   -0.0495   -0.8977   -0.8225 C   0  0  0  0  0  0  0  0  0  0  0  0
    0.1035   -1.9821   -0.8241 H   0  0  0  0  0  0  0  0  0  0  0  0
   -0.5922   -0.6498   -1.7408 H   0  0  0  0  0  0  0  0  0  0  0  0
    1.3050   -0.2068   -0.8936 C   0  0  0  0  0  0  0  0  0  0  0  0
    2.4320   -0.9864   -1.2092 C   0  0  0  0  0  0  0  0  0  0  0  0
    2.3357   -2.0633   -1.3157 H   0  0  0  0  0  0  0  0  0  0  0  0
    3.6956   -0.4055   -1.3668 C   0  0  0  0  0  0  0  0  0  0  0  0
    4.5500   -1.0379   -1.5823 H   0  0  0  0  0  0  0  0  0  0  0  0
    3.8499    0.9756   -1.2547 C   0  0  0  0  0  0  0  0  0  0  0  0
    5.0758    1.5560   -1.4075 O   0  0  0  0  0  0  0  0  0  0  0  0
    5.7433    0.8778   -1.5939 H   0  0  0  0  0  0  0  0  0  0  0  0
    2.7339    1.7699   -1.0115 C   0  0  0  0  0  0  0  0  0  0  0  0
    2.8533    2.8474   -0.9658 H   0  0  0  0  0  0  0  0  0  0  0  0
    1.4697    1.1916   -0.8553 C   0  0  0  0  0  0  0  0  0  0  0  0
    0.6283    1.8646   -0.7439 H   0  0  0  0  0  0  0  0  0  0  0  0
   -1.3471    0.9242    0.5282 C   0  0  0  0  0  0  0  0  0  0  0  0
   -2.2109    1.4058   -0.1968 O   0  0  0  0  0  0  0  0  0  0  0  0
   -0.7596    1.7124    1.5014 N   0  0  0  0  0  0  0  0  0  0  0  0
   -0.0322    1.2890    2.0719 H   0  0  0  0  0  0  0  0  0  0  0  0
   -1.0755    3.1225    1.6920 C   0  0  0  0  0  0  0  0  0  0  0  0
   -2.1456    3.2536    1.8841 H   0  0  0  0  0  0  0  0  0  0  0  0
   -0.5209    3.5216    2.5468 H   0  0  0  0  0  0  0  0  0  0  0  0
   -0.8032    3.6993    0.8019 H   0  0  0  0  0  0  0  0  0  0  0  0
  1  2  1  0  0  0  0
  2  3  1  0  0  0  0
  2  4  1  0  0  0  0
  2  5  1  0  0  0  0
  5  6  2  0  0  0  0
  5  7  1  0  0  0  0
  7  8  1  0  0  0  0
  7  9  1  0  0  0  0
  9 10  1  0  0  0  0
  9 11  1  0  0  0  0
  9 26  1  0  0  0  0
 11 12  1  0  0  0  0
 11 13  1  0  0  0  0
 11 14  1  0  0  0  0
 14 15  2  0  0  0  0
 14 24  1  0  0  0  0
 15 16  1  0  0  0  0
 15 17  1  0  0  0  0
 17 18  1  0  0  0  0
 17 19  2  0  0  0  0
 19 20  1  0  0  0  0
 19 22  1  0  0  0  0
 20 21  1  0  0  0  0
 22 23  1  0  0  0  0
 22 24  2  0  0  0  0
 24 25  1  0  0  0  0
 26 27  2  0  0  0  0
 26 28  1  0  0  0  0
 28 29  1  0  0  0  0
 28 30  1  0  0  0  0
 30 31  1  0  0  0  0
 30 32  1  0  0  0  0
 30 33  1  0  0  0  0
M  END
$$$$

  -OEChem-04042216043D

 33 33  0     1  0  0  0  0  0999 V2000
   -3.8231   -4.1090    1.2512 H   0  0  0  0  0  0  0  0  0  0  0  0
   -3.7733   -3.1823    0.6726 C   0  0  0  0  0  0  0  0  0  0  0  0
   -4.5737   -2.5165    1.0044 H   0  0  0  0  0  0  0  0  0  0  0  0
   -3.9199   -3.4185   -0.3841 H   0  0  0  0  0  0  0  0  0  0  0  0
   -2.4265   -2.5123    0.8707 C   0  0  0  0  0  0  0  0  0  0  0  0
   -1.5894   -3.0232    1.5977 O   0  0  0  0  0  0  0  0  0  0  0  0
   -2.1528   -1.3235    0.2278 N   0  0  0  0  0  0  0  0  0  0  0  0
   -2.9131   -0.8832   -0.2897 H   0  0  0  0  0  0  0  0  0  0  0  0
   -0.9410   -0.5159    0.4396 C   0  0  1  0  0  0  0  0  0  0  0  0
   -0.4339   -0.7986    1.3680 H   0  0  0  0  0  0  0  0  0  0  0  0
   -0.0158   -0.8483   -0.7573 C   0  0  0  0  0  0  0  0  0  0  0  0
    0.1335   -1.9335   -0.7478 H   0  0  0  0  0  0  0  0  0  0  0  0
   -0.5610   -0.6069   -1.6759 H   0  0  0  0  0  0  0  0  0  0  0  0
    1.3539   -0.1884   -0.8746 C   0  0  0  0  0  0  0  0  0  0  0  0
    2.3657   -0.9281   -1.5138 C   0  0  0  0  0  0  0  0  0  0  0  0
    2.1680   -1.9447   -1.8417 H   0  0  0  0  0  0  0  0  0  0  0  0
    3.6409   -0.3915   -1.7247 C   0  0  0  0  0  0  0  0  0  0  0  0
    4.4038   -0.9988   -2.1994 H   0  0  0  0  0  0  0  0  0  0  0  0
    3.9228    0.9151   -1.3319 C   0  0  0  0  0  0  0  0  0  0  0  0
    5.1612    1.4528   -1.5324 O   0  0  0  0  0  0  0  0  0  0  0  0
    5.7415    0.8009   -1.9548 H   0  0  0  0  0  0  0  0  0  0  0  0
    2.9197    1.6833   -0.7503 C   0  0  0  0  0  0  0  0  0  0  0  0
    3.1346    2.7117   -0.4784 H   0  0  0  0  0  0  0  0  0  0  0  0
    1.6438    1.1485   -0.5390 C   0  0  0  0  0  0  0  0  0  0  0  0
    0.8988    1.8234   -0.1468 H   0  0  0  0  0  0  0  0  0  0  0  0
   -1.3897    0.9527    0.5723 C   0  0  0  0  0  0  0  0  0  0  0  0
   -2.2379    1.4061   -0.1884 O   0  0  0  0  0  0  0  0  0  0  0  0
   -0.8754    1.7617    1.5704 N   0  0  0  0  0  0  0  0  0  0  0  0
   -0.1992    1.3502    2.2085 H   0  0  0  0  0  0  0  0  0  0  0  0
   -1.2782    3.1489    1.7652 C   0  0  0  0  0  0  0  0  0  0  0  0
   -2.3551    3.2134    1.9537 H   0  0  0  0  0  0  0  0  0  0  0  0
   -0.7511    3.5784    2.6224 H   0  0  0  0  0  0  0  0  0  0  0  0
   -1.0389    3.7444    0.8779 H   0  0  0  0  0  0  0  0  0  0  0  0
  1  2  1  0  0  0  0
  2  3  1  0  0  0  0
  2  4  1  0  0  0  0
  2  5  1  0  0  0  0
  5  6  2  0  0  0  0
  5  7  1  0  0  0  0
  7  8  1  0  0  0  0
  7  9  1  0  0  0  0
  9 10  1  0  0  0  0
  9 11  1  0  0  0  0
  9 26  1  0  0  0  0
 11 12  1  0  0  0  0
 11 13  1  0  0  0  0
 11 14  1  0  0  0  0
 14 15  2  0  0  0  0
 14 24  1  0  0  0  0
 15 16  1  0  0  0  0
 15 17  1  0  0  0  0
 17 18  1  0  0  0  0
 17 19  2  0  0  0  0
 19 20  1  0  0  0  0
 19 22  1  0  0  0  0
 20 21  1  0  0  0  0
 22 23  1  0  0  0  0
 22 24  2  0  0  0  0
 24 25  1  0  0  0  0
 26 27  2  0  0  0  0
 26 28  1  0  0  0  0
 28 29  1  0  0  0  0
 28 30  1  0  0  0  0
 30 31  1  0  0  0  0
 30 32  1  0  0  0  0
 30 33  1  0  0  0  0
M  END
$$$$

  -OEChem-04042216043D

 33 33  0     1  0  0  0  0  0999 V2000
   -3.8108   -4.0952    1.2439 H   0  0  0  0  0  0  0  0  0  0  0  0
   -3.7516   -3.1762    0.6537 C   0  0  0  0  0  0  0  0  0  0  0  0
   -4.5628   -2.5099    0.9570 H   0  0  0  0  0  0  0  0  0  0  0  0
   -3.8716   -3.4279   -0.4028 H   0  0  0  0  0  0  0  0  0  0  0  0
   -2.4132   -2.4969    0.8756 C   0  0  0  0  0  0  0  0  0  0  0  0
   -1.5950   -2.9921    1.6342 O   0  0  0  0  0  0  0  0  0  0  0  0
   -2.1262   -1.3154    0.2251 N   0  0  0  0  0  0  0  0  0  0  0  0
   -2.8727   -0.8819   -0.3180 H   0  0  0  0  0  0  0  0  0  0  0  0
   -0.9195   -0.5055    0.4589 C   0  0  1  0  0  0  0  0  0  0  0  0
   -0.4068   -0.7827    1.3855 H   0  0  0  0  0  0  0  0  0  0  0  0
   -0.0120   -0.8033   -0.7600 C   0  0  0  0  0  0  0  0  0  0  0  0
    0.1443   -1.8875   -0.7765 H   0  0  0  0  0  0  0  0  0  0  0  0
   -0.5757   -0.5448   -1.6632 H   0  0  0  0  0  0  0  0  0  0  0  0
    1.3591   -0.1532   -0.8981 C   0  0  0  0  0  0  0  0  0  0  0  0
    2.2280   -0.7209   -1.8465 C   0  0  0  0  0  0  0  0  0  0  0  0
    1.8963   -1.5667   -2.4420 H   0  0  0  0  0  0  0  0  0  0  0  0
    3.5181   -0.2175   -2.0478 C   0  0  0  0  0  0  0  0  0  0  0  0
    4.1606   -0.6765   -2.7912 H   0  0  0  0  0  0  0  0  0  0  0  0
    3.9700    0.8656   -1.2963 C   0  0  0  0  0  0  0  0  0  0  0  0
    5.2259    1.3679   -1.4798 O   0  0  0  0  0  0  0  0  0  0  0  0
    5.6857    0.8678   -2.1717 H   0  0  0  0  0  0  0  0  0  0  0  0
    3.1284    1.4357   -0.3465 C   0  0  0  0  0  0  0  0  0  0  0  0
    3.4878    2.2767    0.2375 H   0  0  0  0  0  0  0  0  0  0  0  0
    1.8381    0.9332   -0.1435 C   0  0  0  0  0  0  0  0  0  0  0  0
    1.2461    1.4149    0.6158 H   0  0  0  0  0  0  0  0  0  0  0  0
   -1.4033    0.9597    0.5603 C   0  0  0  0  0  0  0  0  0  0  0  0
   -2.2352    1.3819   -0.2367 O   0  0  0  0  0  0  0  0  0  0  0  0
   -0.9454    1.8053    1.5556 N   0  0  0  0  0  0  0  0  0  0  0  0
   -0.3301    1.4091    2.2609 H   0  0  0  0  0  0  0  0  0  0  0  0
   -1.3968    3.1832    1.7086 C   0  0  0  0  0  0  0  0  0  0  0  0
   -2.4808    3.2182    1.8597 H   0  0  0  0  0  0  0  0  0  0  0  0
   -0.9122    3.6459    2.5737 H   0  0  0  0  0  0  0  0  0  0  0  0
   -1.1457    3.7684    0.8178 H   0  0  0  0  0  0  0  0  0  0  0  0
  1  2  1  0  0  0  0
  2  3  1  0  0  0  0
  2  4  1  0  0  0  0
  2  5  1  0  0  0  0
  5  6  2  0  0  0  0
  5  7  1  0  0  0  0
  7  8  1  0  0  0  0
  7  9  1  0  0  0  0
  9 10  1  0  0  0  0
  9 11  1  0  0  0  0
  9 26  1  0  0  0  0
 11 12  1  0  0  0  0
 11 13  1  0  0  0  0
 11 14  1  0  0  0  0
 14 15  2  0  0  0  0
 14 24  1  0  0  0  0
 15 16  1  0  0  0  0
 15 17  1  0  0  0  0
 17 18  1  0  0  0  0
 17 19  2  0  0  0  0
 19 20  1  0  0  0  0
 19 22  1  0  0  0  0
 20 21  1  0  0  0  0
 22 23  1  0  0  0  0
 22 24  2  0  0  0  0
 24 25  1  0  0  0  0
 26 27  2  0  0  0  0
 26 28  1  0  0  0  0
 28 29  1  0  0  0  0
 28 30  1  0  0  0  0
 30 31  1  0  0  0  0
 30 32  1  0  0  0  0
 30 33  1  0  0  0  0
M  END
$$$$

  -OEChem-04042216043D

 33 33  0     1  0  0  0  0  0999 V2000
   -3.9333   -4.0510    1.3611 H   0  0  0  0  0  0  0  0  0  0  0  0
   -3.8567   -3.1529    0.7417 C   0  0  0  0  0  0  0  0  0  0  0  0
   -4.6426   -2.4533    1.0367 H   0  0  0  0  0  0  0  0  0  0  0  0
   -4.0017   -3.4331   -0.3045 H   0  0  0  0  0  0  0  0  0  0  0  0
   -2.4949   -2.5082    0.9205 C   0  0  0  0  0  0  0  0  0  0  0  0
   -1.6836   -2.9991    1.6892 O   0  0  0  0  0  0  0  0  0  0  0  0
   -2.1829   -1.3634    0.2175 N   0  0  0  0  0  0  0  0  0  0  0  0
   -2.9254   -0.9340   -0.3329 H   0  0  0  0  0  0  0  0  0  0  0  0
   -0.9492   -0.5812    0.3907 C   0  0  1  0  0  0  0  0  0  0  0  0
   -0.4551   -0.8676    1.3235 H   0  0  0  0  0  0  0  0  0  0  0  0
   -0.0332   -0.8865   -0.8123 C   0  0  0  0  0  0  0  0  0  0  0  0
   -0.0515   -1.9692   -0.9783 H   0  0  0  0  0  0  0  0  0  0  0  0
   -0.4603   -0.4154   -1.7044 H   0  0  0  0  0  0  0  0  0  0  0  0
    1.4289   -0.4835   -0.7036 C   0  0  0  0  0  0  0  0  0  0  0  0
    2.2575   -0.7615   -1.8027 C   0  0  0  0  0  0  0  0  0  0  0  0
    1.8361   -1.2220   -2.6918 H   0  0  0  0  0  0  0  0  0  0  0  0
    3.6211   -0.4480   -1.7786 C   0  0  0  0  0  0  0  0  0  0  0  0
    4.2333   -0.6663   -2.6467 H   0  0  0  0  0  0  0  0  0  0  0  0
    4.1845    0.1371   -0.6450 C   0  0  0  0  0  0  0  0  0  0  0  0
    5.5134    0.4459   -0.6063 O   0  0  0  0  0  0  0  0  0  0  0  0
    5.9386    0.1879   -1.4386 H   0  0  0  0  0  0  0  0  0  0  0  0
    3.3825    0.3966    0.4626 C   0  0  0  0  0  0  0  0  0  0  0  0
    3.8338    0.8373    1.3456 H   0  0  0  0  0  0  0  0  0  0  0  0
    2.0187    0.0835    0.4425 C   0  0  0  0  0  0  0  0  0  0  0  0
    1.4488    0.2791    1.3406 H   0  0  0  0  0  0  0  0  0  0  0  0
   -1.3046    0.9202    0.4494 C   0  0  0  0  0  0  0  0  0  0  0  0
   -2.1410    1.3722   -0.3256 O   0  0  0  0  0  0  0  0  0  0  0  0
   -0.7467    1.7579    1.3982 N   0  0  0  0  0  0  0  0  0  0  0  0
   -0.1097    1.3487    2.0744 H   0  0  0  0  0  0  0  0  0  0  0  0
   -1.0686    3.1754    1.5050 C   0  0  0  0  0  0  0  0  0  0  0  0
   -2.1409    3.3140    1.6790 H   0  0  0  0  0  0  0  0  0  0  0  0
   -0.5222    3.6248    2.3397 H   0  0  0  0  0  0  0  0  0  0  0  0
   -0.7890    3.7010    0.5859 H   0  0  0  0  0  0  0  0  0  0  0  0
  1  2  1  0  0  0  0
  2  3  1  0  0  0  0
  2  4  1  0  0  0  0
  2  5  1  0  0  0  0
  5  6  2  0  0  0  0
  5  7  1  0  0  0  0
  7  8  1  0  0  0  0
  7  9  1  0  0  0  0
  9 10  1  0  0  0  0
  9 11  1  0  0  0  0
  9 26  1  0  0  0  0
 11 12  1  0  0  0  0
 11 13  1  0  0  0  0
 11 14  1  0  0  0  0
 14 15  2  0  0  0  0
 14 24  1  0  0  0  0
 15 16  1  0  0  0  0
 15 17  1  0  0  0  0
 17 18  1  0  0  0  0
 17 19  2  0  0  0  0
 19 20  1  0  0  0  0
 19 22  1  0  0  0  0
 20 21  1  0  0  0  0
 22 23  1  0  0  0  0
 22 24  2  0  0  0  0
 24 25  1  0  0  0  0
 26 27  2  0  0  0  0
 26 28  1  0  0  0  0
 28 29  1  0  0  0  0
 28 30  1  0  0  0  0
 30 31  1  0  0  0  0
 30 32  1  0  0  0  0
 30 33  1  0  0  0  0
M  END
$$$$

  -OEChem-04042216043D

 33 33  0     1  0  0  0  0  0999 V2000
   -3.9649   -4.0556    1.3947 H   0  0  0  0  0  0  0  0  0  0  0  0
   -3.8928   -3.1600    0.7710 C   0  0  0  0  0  0  0  0  0  0  0  0
   -4.6648   -2.4516    1.0813 H   0  0  0  0  0  0  0  0  0  0  0  0
   -4.0637   -3.4421   -0.2708 H   0  0  0  0  0  0  0  0  0  0  0  0
   -2.5212   -2.5283    0.9177 C   0  0  0  0  0  0  0  0  0  0  0  0
   -1.6947   -3.0310    1.6625 O   0  0  0  0  0  0  0  0  0  0  0  0
   -2.2166   -1.3842    0.2096 N   0  0  0  0  0  0  0  0  0  0  0  0
   -2.9708   -0.9461   -0.3177 H   0  0  0  0  0  0  0  0  0  0  0  0
   -0.9778   -0.6064    0.3623 C   0  0  1  0  0  0  0  0  0  0  0  0
   -0.4967   -0.8996    1.2978 H   0  0  0  0  0  0  0  0  0  0  0  0
   -0.0544   -0.9118   -0.8323 C   0  0  0  0  0  0  0  0  0  0  0  0
   -0.0583   -1.9948   -0.9957 H   0  0  0  0  0  0  0  0  0  0  0  0
   -0.4794   -0.4478   -1.7291 H   0  0  0  0  0  0  0  0  0  0  0  0
    1.3999   -0.4894   -0.6931 C   0  0  0  0  0  0  0  0  0  0  0  0
    2.1800   -0.4528   -1.8601 C   0  0  0  0  0  0  0  0  0  0  0  0
    1.7274   -0.6910   -2.8185 H   0  0  0  0  0  0  0  0  0  0  0  0
    3.5341   -0.1023   -1.8138 C   0  0  0  0  0  0  0  0  0  0  0  0
    4.1079   -0.0701   -2.7334 H   0  0  0  0  0  0  0  0  0  0  0  0
    4.1376    0.1996   -0.5933 C   0  0  0  0  0  0  0  0  0  0  0  0
    5.4575    0.5418   -0.5328 O   0  0  0  0  0  0  0  0  0  0  0  0
    5.8482    0.5176   -1.4199 H   0  0  0  0  0  0  0  0  0  0  0  0
    3.3860    0.1383    0.5766 C   0  0  0  0  0  0  0  0  0  0  0  0
    3.8695    0.3560    1.5235 H   0  0  0  0  0  0  0  0  0  0  0  0
    2.0319   -0.2118    0.5357 C   0  0  0  0  0  0  0  0  0  0  0  0
    1.5063   -0.2743    1.4805 H   0  0  0  0  0  0  0  0  0  0  0  0
   -1.2885    0.9020    0.4304 C   0  0  0  0  0  0  0  0  0  0  0  0
   -2.1439    1.3755   -0.3099 O   0  0  0  0  0  0  0  0  0  0  0  0
   -0.6840    1.7139    1.3727 N   0  0  0  0  0  0  0  0  0  0  0  0
    0.0353    1.3010    1.9581 H   0  0  0  0  0  0  0  0  0  0  0  0
   -0.9324    3.1470    1.4708 C   0  0  0  0  0  0  0  0  0  0  0  0
   -1.9967    3.3419    1.6403 H   0  0  0  0  0  0  0  0  0  0  0  0
   -0.3675    3.5725    2.3058 H   0  0  0  0  0  0  0  0  0  0  0  0
   -0.6233    3.6525    0.5499 H   0  0  0  0  0  0  0  0  0  0  0  0
  1  2  1  0  0  0  0
  2  3  1  0  0  0  0
  2  4  1  0  0  0  0
  2  5  1  0  0  0  0
  5  6  2  0  0  0  0
  5  7  1  0  0  0  0
  7  8  1  0  0  0  0
  7  9  1  0  0  0  0
  9 10  1  0  0  0  0
  9 11  1  0  0  0  0
  9 26  1  0  0  0  0
 11 12  1  0  0  0  0
 11 13  1  0  0  0  0
 11 14  1  0  0  0  0
 14 15  2  0  0  0  0
 14 24  1  0  0  0  0
 15 16  1  0  0  0  0
 15 17  1  0  0  0  0
 17 18  1  0  0  0  0
 17 19  2  0  0  0  0
 19 20  1  0  0  0  0
 19 22  1  0  0  0  0
 20 21  1  0  0  0  0
 22 23  1  0  0  0  0
 22 24  2  0  0  0  0
 24 25  1  0  0  0  0
 26 27  2  0  0  0  0
 26 28  1  0  0  0  0
 28 29  1  0  0  0  0
 28 30  1  0  0  0  0
 30 31  1  0  0  0  0
 30 32  1  0  0  0  0
 30 33  1  0  0  0  0
M  END
$$$$

  -OEChem-04042216043D

 33 33  0     1  0  0  0  0  0999 V2000
   -3.9652   -4.0510    1.4517 H   0  0  0  0  0  0  0  0  0  0  0  0
   -3.9051   -3.1624    0.8170 C   0  0  0  0  0  0  0  0  0  0  0  0
   -4.6669   -2.4481    1.1383 H   0  0  0  0  0  0  0  0  0  0  0  0
   -4.1018   -3.4545   -0.2172 H   0  0  0  0  0  0  0  0  0  0  0  0
   -2.5277   -2.5356    0.9247 C   0  0  0  0  0  0  0  0  0  0  0  0
   -1.6819   -3.0436    1.6442 O   0  0  0  0  0  0  0  0  0  0  0  0
   -2.2365   -1.3931    0.2076 N   0  0  0  0  0  0  0  0  0  0  0  0
   -3.0027   -0.9487   -0.2963 H   0  0  0  0  0  0  0  0  0  0  0  0
   -0.9905   -0.6220    0.3324 C   0  0  1  0  0  0  0  0  0  0  0  0
   -0.5046   -0.9105    1.2658 H   0  0  0  0  0  0  0  0  0  0  0  0
   -0.0763   -0.9293   -0.8675 C   0  0  0  0  0  0  0  0  0  0  0  0
   -0.0725   -2.0119   -1.0319 H   0  0  0  0  0  0  0  0  0  0  0  0
   -0.5046   -0.4663   -1.7633 H   0  0  0  0  0  0  0  0  0  0  0  0
    1.3692   -0.4911   -0.7017 C   0  0  0  0  0  0  0  0  0  0  0  0
    2.0911   -0.1246   -1.8491 C   0  0  0  0  0  0  0  0  0  0  0  0
    1.6003   -0.1171   -2.8184 H   0  0  0  0  0  0  0  0  0  0  0  0
    3.4370    0.2506   -1.7641 C   0  0  0  0  0  0  0  0  0  0  0  0
    3.9650    0.5474   -2.6637 H   0  0  0  0  0  0  0  0  0  0  0  0
    4.0919    0.2376   -0.5326 C   0  0  0  0  0  0  0  0  0  0  0  0
    5.4039    0.6006   -0.4356 O   0  0  0  0  0  0  0  0  0  0  0  0
    5.7512    0.8312   -1.3111 H   0  0  0  0  0  0  0  0  0  0  0  0
    3.4017   -0.1665    0.6067 C   0  0  0  0  0  0  0  0  0  0  0  0
    3.9266   -0.2006    1.5560 H   0  0  0  0  0  0  0  0  0  0  0  0
    2.0564   -0.5419    0.5274 C   0  0  0  0  0  0  0  0  0  0  0  0
    1.5789   -0.8922    1.4357 H   0  0  0  0  0  0  0  0  0  0  0  0
   -1.2729    0.8904    0.4082 C   0  0  0  0  0  0  0  0  0  0  0  0
   -2.1453    1.3792   -0.3018 O   0  0  0  0  0  0  0  0  0  0  0  0
   -0.6278    1.6838    1.3388 N   0  0  0  0  0  0  0  0  0  0  0  0
    0.1383    1.2634    1.8572 H   0  0  0  0  0  0  0  0  0  0  0  0
   -0.8290    3.1242    1.4324 C   0  0  0  0  0  0  0  0  0  0  0  0
   -1.8850    3.3536    1.6097 H   0  0  0  0  0  0  0  0  0  0  0  0
   -0.2442    3.5346    2.2612 H   0  0  0  0  0  0  0  0  0  0  0  0
   -0.5117    3.6154    0.5066 H   0  0  0  0  0  0  0  0  0  0  0  0
  1  2  1  0  0  0  0
  2  3  1  0  0  0  0
  2  4  1  0  0  0  0
  2  5  1  0  0  0  0
  5  6  2  0  0  0  0
  5  7  1  0  0  0  0
  7  8  1  0  0  0  0
  7  9  1  0  0  0  0
  9 10  1  0  0  0  0
  9 11  1  0  0  0  0
  9 26  1  0  0  0  0
 11 12  1  0  0  0  0
 11 13  1  0  0  0  0
 11 14  1  0  0  0  0
 14 15  2  0  0  0  0
 14 24  1  0  0  0  0
 15 16  1  0  0  0  0
 15 17  1  0  0  0  0
 17 18  1  0  0  0  0
 17 19  2  0  0  0  0
 19 20  1  0  0  0  0
 19 22  1  0  0  0  0
 20 21  1  0  0  0  0
 22 23  1  0  0  0  0
 22 24  2  0  0  0  0
 24 25  1  0  0  0  0
 26 27  2  0  0  0  0
 26 28  1  0  0  0  0
 28 29  1  0  0  0  0
 28 30  1  0  0  0  0
 30 31  1  0  0  0  0
 30 32  1  0  0  0  0
 30 33  1  0  0  0  0
M  END
$$$$

  -OEChem-04042216043D

 33 33  0     1  0  0  0  0  0999 V2000
   -3.9592   -4.0385    1.5018 H   0  0  0  0  0  0  0  0  0  0  0  0
   -3.9020   -3.1570    0.8570 C   0  0  0  0  0  0  0  0  0  0  0  0
   -4.6512   -2.4321    1.1843 H   0  0  0  0  0  0  0  0  0  0  0  0
   -4.1199   -3.4576   -0.1707 H   0  0  0  0  0  0  0  0  0  0  0  0
   -2.5175   -2.5413    0.9335 C   0  0  0  0  0  0  0  0  0  0  0  0
   -1.6586   -3.0554    1.6329 O   0  0  0  0  0  0  0  0  0  0  0  0
   -2.2351   -1.4008    0.2104 N   0  0  0  0  0  0  0  0  0  0  0  0
   -3.0089   -0.9524   -0.2779 H   0  0  0  0  0  0  0  0  0  0  0  0
   -0.9821   -0.6383    0.3076 C   0  0  1  0  0  0  0  0  0  0  0  0
   -0.4724   -0.9253    1.2301 H   0  0  0  0  0  0  0  0  0  0  0  0
   -0.0947   -0.9516   -0.9089 C   0  0  0  0  0  0  0  0  0  0  0  0
   -0.0892   -2.0342   -1.0727 H   0  0  0  0  0  0  0  0  0  0  0  0
   -0.5299   -0.4897   -1.8016 H   0  0  0  0  0  0  0  0  0  0  0  0
    1.3415   -0.5043   -0.7246 C   0  0  0  0  0  0  0  0  0  0  0  0
    1.9931    0.1733   -1.7671 C   0  0  0  0  0  0  0  0  0  0  0  0
    1.4559    0.4117   -2.6810 H   0  0  0  0  0  0  0  0  0  0  0  0
    3.3304    0.5661   -1.6384 C   0  0  0  0  0  0  0  0  0  0  0  0
    3.8077    1.1045   -2.4500 H   0  0  0  0  0  0  0  0  0  0  0  0
    4.0418    0.2631   -0.4766 C   0  0  0  0  0  0  0  0  0  0  0  0
    5.3458    0.6414   -0.3388 O   0  0  0  0  0  0  0  0  0  0  0  0
    5.6455    1.1003   -1.1387 H   0  0  0  0  0  0  0  0  0  0  0  0
    3.4173   -0.4455    0.5470 C   0  0  0  0  0  0  0  0  0  0  0  0
    3.9854   -0.6994    1.4362 H   0  0  0  0  0  0  0  0  0  0  0  0
    2.0810   -0.8404    0.4238 C   0  0  0  0  0  0  0  0  0  0  0  0
    1.6371   -1.4268    1.2232 H   0  0  0  0  0  0  0  0  0  0  0  0
   -1.2472    0.8764    0.3901 C   0  0  0  0  0  0  0  0  0  0  0  0
   -2.1237    1.3773   -0.3062 O   0  0  0  0  0  0  0  0  0  0  0  0
   -0.5713    1.6588    1.3078 N   0  0  0  0  0  0  0  0  0  0  0  0
    0.2012    1.2253    1.8062 H   0  0  0  0  0  0  0  0  0  0  0  0
   -0.7473    3.1019    1.4089 C   0  0  0  0  0  0  0  0  0  0  0  0
   -1.7969    3.3490    1.5993 H   0  0  0  0  0  0  0  0  0  0  0  0
   -0.1462    3.4984    2.2327 H   0  0  0  0  0  0  0  0  0  0  0  0
   -0.4321    3.5914    0.4817 H   0  0  0  0  0  0  0  0  0  0  0  0
  1  2  1  0  0  0  0
  2  3  1  0  0  0  0
  2  4  1  0  0  0  0
  2  5  1  0  0  0  0
  5  6  2  0  0  0  0
  5  7  1  0  0  0  0
  7  8  1  0  0  0  0
  7  9  1  0  0  0  0
  9 10  1  0  0  0  0
  9 11  1  0  0  0  0
  9 26  1  0  0  0  0
 11 12  1  0  0  0  0
 11 13  1  0  0  0  0
 11 14  1  0  0  0  0
 14 15  2  0  0  0  0
 14 24  1  0  0  0  0
 15 16  1  0  0  0  0
 15 17  1  0  0  0  0
 17 18  1  0  0  0  0
 17 19  2  0  0  0  0
 19 20  1  0  0  0  0
 19 22  1  0  0  0  0
 20 21  1  0  0  0  0
 22 23  1  0  0  0  0
 22 24  2  0  0  0  0
 24 25  1  0  0  0  0
 26 27  2  0  0  0  0
 26 28  1  0  0  0  0
 28 29  1  0  0  0  0
 28 30  1  0  0  0  0
 30 31  1  0  0  0  0
 30 32  1  0  0  0  0
 30 33  1  0  0  0  0
M  END
$$$$

  -OEChem-04042216043D

 33 33  0     1  0  0  0  0  0999 V2000
   -3.9472   -4.0272    1.5342 H   0  0  0  0  0  0  0  0  0  0  0  0
   -3.8958   -3.1481    0.8856 C   0  0  0  0  0  0  0  0  0  0  0  0
   -4.6284   -2.4137    1.2295 H   0  0  0  0  0  0  0  0  0  0  0  0
   -4.1423   -3.4485   -0.1357 H   0  0  0  0  0  0  0  0  0  0  0  0
   -2.5028   -2.5486    0.9264 C   0  0  0  0  0  0  0  0  0  0  0  0
   -1.6288   -3.0786    1.5946 O   0  0  0  0  0  0  0  0  0  0  0  0
   -2.2291   -1.4062    0.2034 N   0  0  0  0  0  0  0  0  0  0  0  0
   -3.0122   -0.9461   -0.2584 H   0  0  0  0  0  0  0  0  0  0  0  0
   -0.9688   -0.6534    0.2784 C   0  0  1  0  0  0  0  0  0  0  0  0
   -0.4350   -0.9477    1.1867 H   0  0  0  0  0  0  0  0  0  0  0  0
   -0.1063   -0.9737   -0.9515 C   0  0  0  0  0  0  0  0  0  0  0  0
   -0.1053   -2.0558   -1.1195 H   0  0  0  0  0  0  0  0  0  0  0  0
   -0.5431   -0.5065   -1.8407 H   0  0  0  0  0  0  0  0  0  0  0  0
    1.3236   -0.5239   -0.7532 C   0  0  0  0  0  0  0  0  0  0  0  0
    1.8953    0.4185   -1.6213 C   0  0  0  0  0  0  0  0  0  0  0  0
    1.3039    0.8486   -2.4250 H   0  0  0  0  0  0  0  0  0  0  0  0
    3.2250    0.8234   -1.4537 C   0  0  0  0  0  0  0  0  0  0  0  0
    3.6466    1.5601   -2.1290 H   0  0  0  0  0  0  0  0  0  0  0  0
    4.0002    0.2808   -0.4270 C   0  0  0  0  0  0  0  0  0  0  0  0
    5.2982    0.6668   -0.2558 O   0  0  0  0  0  0  0  0  0  0  0  0
    5.5504    1.3029   -0.9428 H   0  0  0  0  0  0  0  0  0  0  0  0
    3.4450   -0.6708    0.4260 C   0  0  0  0  0  0  0  0  0  0  0  0
    4.0588   -1.0973    1.2128 H   0  0  0  0  0  0  0  0  0  0  0  0
    2.1173   -1.0803    0.2628 C   0  0  0  0  0  0  0  0  0  0  0  0
    1.7097   -1.8402    0.9249 H   0  0  0  0  0  0  0  0  0  0  0  0
   -1.2206    0.8628    0.3749 C   0  0  0  0  0  0  0  0  0  0  0  0
   -2.1049    1.3753   -0.3028 O   0  0  0  0  0  0  0  0  0  0  0  0
   -0.5199    1.6354    1.2824 N   0  0  0  0  0  0  0  0  0  0  0  0
    0.2557    1.1919    1.7678 H   0  0  0  0  0  0  0  0  0  0  0  0
   -0.6901    3.0776    1.4032 C   0  0  0  0  0  0  0  0  0  0  0  0
   -1.7335    3.3243    1.6267 H   0  0  0  0  0  0  0  0  0  0  0  0
   -0.0643    3.4642    2.2133 H   0  0  0  0  0  0  0  0  0  0  0  0
   -0.4011    3.5762    0.4722 H   0  0  0  0  0  0  0  0  0  0  0  0
  1  2  1  0  0  0  0
  2  3  1  0  0  0  0
  2  4  1  0  0  0  0
  2  5  1  0  0  0  0
  5  6  2  0  0  0  0
  5  7  1  0  0  0  0
  7  8  1  0  0  0  0
  7  9  1  0  0  0  0
  9 10  1  0  0  0  0
  9 11  1  0  0  0  0
  9 26  1  0  0  0  0
 11 12  1  0  0  0  0
 11 13  1  0  0  0  0
 11 14  1  0  0  0  0
 14 15  2  0  0  0  0
 14 24  1  0  0  0  0
 15 16  1  0  0  0  0
 15 17  1  0  0  0  0
 17 18  1  0  0  0  0
 17 19  2  0  0  0  0
 19 20  1  0  0  0  0
 19 22  1  0  0  0  0
 20 21  1  0  0  0  0
 22 23  1  0  0  0  0
 22 24  2  0  0  0  0
 24 25  1  0  0  0  0
 26 27  2  0  0  0  0
 26 28  1  0  0  0  0
 28 29  1  0  0  0  0
 28 30  1  0  0  0  0
 30 31  1  0  0  0  0
 30 32  1  0  0  0  0
 30 33  1  0  0  0  0
M  END
$$$$

  -OEChem-04042216043D

 33 33  0     1  0  0  0  0  0999 V2000
   -3.9464   -4.0152    1.5501 H   0  0  0  0  0  0  0  0  0  0  0  0
   -3.8971   -3.1358    0.9020 C   0  0  0  0  0  0  0  0  0  0  0  0
   -4.6122   -2.3924    1.2625 H   0  0  0  0  0  0  0  0  0  0  0  0
   -4.1704   -3.4309   -0.1138 H   0  0  0  0  0  0  0  0  0  0  0  0
   -2.4954   -2.5550    0.9136 C   0  0  0  0  0  0  0  0  0  0  0  0
   -1.6132   -3.1015    1.5574 O   0  0  0  0  0  0  0  0  0  0  0  0
   -2.2237   -1.4099    0.1941 N   0  0  0  0  0  0  0  0  0  0  0  0
   -3.0108   -0.9389   -0.2498 H   0  0  0  0  0  0  0  0  0  0  0  0
   -0.9566   -0.6671    0.2546 C   0  0  1  0  0  0  0  0  0  0  0  0
   -0.4055   -0.9715    1.1504 H   0  0  0  0  0  0  0  0  0  0  0  0
   -0.1125   -0.9913   -0.9849 C   0  0  0  0  0  0  0  0  0  0  0  0
   -0.1215   -2.0724   -1.1592 H   0  0  0  0  0  0  0  0  0  0  0  0
   -0.5467   -0.5149   -1.8703 H   0  0  0  0  0  0  0  0  0  0  0  0
    1.3150   -0.5450   -0.7805 C   0  0  0  0  0  0  0  0  0  0  0  0
    1.7983    0.6056   -1.4207 C   0  0  0  0  0  0  0  0  0  0  0  0
    1.1444    1.1832   -2.0687 H   0  0  0  0  0  0  0  0  0  0  0  0
    3.1191    1.0240   -1.2214 C   0  0  0  0  0  0  0  0  0  0  0  0
    3.4750    1.9185   -1.7210 H   0  0  0  0  0  0  0  0  0  0  0  0
    3.9682    0.2947   -0.3859 C   0  0  0  0  0  0  0  0  0  0  0  0
    5.2572    0.6952   -0.1840 O   0  0  0  0  0  0  0  0  0  0  0  0
    5.4492    1.4806   -0.7192 H   0  0  0  0  0  0  0  0  0  0  0  0
    3.4945   -0.8536    0.2468 C   0  0  0  0  0  0  0  0  0  0  0  0
    4.1621   -1.4174    0.8905 H   0  0  0  0  0  0  0  0  0  0  0  0
    2.1753   -1.2769    0.0515 C   0  0  0  0  0  0  0  0  0  0  0  0
    1.8198   -2.1766    0.5482 H   0  0  0  0  0  0  0  0  0  0  0  0
   -1.1979    0.8496    0.3649 C   0  0  0  0  0  0  0  0  0  0  0  0
   -2.0796    1.3751   -0.3061 O   0  0  0  0  0  0  0  0  0  0  0  0
   -0.4792    1.6119    1.2667 N   0  0  0  0  0  0  0  0  0  0  0  0
    0.2893    1.1554    1.7516 H   0  0  0  0  0  0  0  0  0  0  0  0
   -0.6396    3.0540    1.4013 C   0  0  0  0  0  0  0  0  0  0  0  0
   -1.6749    3.3022    1.6577 H   0  0  0  0  0  0  0  0  0  0  0  0
    0.0120    3.4343    2.1938 H   0  0  0  0  0  0  0  0  0  0  0  0
   -0.3776    3.5574    0.4649 H   0  0  0  0  0  0  0  0  0  0  0  0
  1  2  1  0  0  0  0
  2  3  1  0  0  0  0
  2  4  1  0  0  0  0
  2  5  1  0  0  0  0
  5  6  2  0  0  0  0
  5  7  1  0  0  0  0
  7  8  1  0  0  0  0
  7  9  1  0  0  0  0
  9 10  1  0  0  0  0
  9 11  1  0  0  0  0
  9 26  1  0  0  0  0
 11 12  1  0  0  0  0
 11 13  1  0  0  0  0
 11 14  1  0  0  0  0
 14 15  2  0  0  0  0
 14 24  1  0  0  0  0
 15 16  1  0  0  0  0
 15 17  1  0  0  0  0
 17 18  1  0  0  0  0
 17 19  2  0  0  0  0
 19 20  1  0  0  0  0
 19 22  1  0  0  0  0
 20 21  1  0  0  0  0
 22 23  1  0  0  0  0
 22 24  2  0  0  0  0
 24 25  1  0  0  0  0
 26 27  2  0  0  0  0
 26 28  1  0  0  0  0
 28 29  1  0  0  0  0
 28 30  1  0  0  0  0
 30 31  1  0  0  0  0
 30 32  1  0  0  0  0
 30 33  1  0  0  0  0
M  END
$$$$

  -OEChem-04042216043D

 33 33  0     1  0  0  0  0  0999 V2000
   -3.9428   -4.0200    1.5234 H   0  0  0  0  0  0  0  0  0  0  0  0
   -3.8904   -3.1378    0.8792 C   0  0  0  0  0  0  0  0  0  0  0  0
   -4.6167   -2.4012    1.2316 H   0  0  0  0  0  0  0  0  0  0  0  0
   -4.1458   -3.4314   -0.1419 H   0  0  0  0  0  0  0  0  0  0  0  0
   -2.4933   -2.5472    0.9136 C   0  0  0  0  0  0  0  0  0  0  0  0
   -1.6157   -3.0926    1.5641 O   0  0  0  0  0  0  0  0  0  0  0  0
   -2.2195   -1.3991    0.1999 N   0  0  0  0  0  0  0  0  0  0  0  0
   -3.0038   -0.9314   -0.2521 H   0  0  0  0  0  0  0  0  0  0  0  0
   -0.9516   -0.6575    0.2606 C   0  0  1  0  0  0  0  0  0  0  0  0
   -0.3953   -0.9655    1.1525 H   0  0  0  0  0  0  0  0  0  0  0  0
   -0.1140   -0.9952   -0.9810 C   0  0  0  0  0  0  0  0  0  0  0  0
   -0.1379   -2.0765   -1.1531 H   0  0  0  0  0  0  0  0  0  0  0  0
   -0.5471   -0.5164   -1.8657 H   0  0  0  0  0  0  0  0  0  0  0  0
    1.3192   -0.5584   -0.7955 C   0  0  0  0  0  0  0  0  0  0  0  0
    1.7297    0.7264   -1.1827 C   0  0  0  0  0  0  0  0  0  0  0  0
    1.0186    1.4092   -1.6410 H   0  0  0  0  0  0  0  0  0  0  0  0
    3.0527    1.1376   -0.9831 C   0  0  0  0  0  0  0  0  0  0  0  0
    3.3538    2.1324   -1.2929 H   0  0  0  0  0  0  0  0  0  0  0  0
    3.9745    0.2721   -0.3899 C   0  0  0  0  0  0  0  0  0  0  0  0
    5.2669    0.6630   -0.1903 O   0  0  0  0  0  0  0  0  0  0  0  0
    5.4069    1.5505   -0.5547 H   0  0  0  0  0  0  0  0  0  0  0  0
    3.5695   -1.0023    0.0036 C   0  0  0  0  0  0  0  0  0  0  0  0
    4.2913   -1.6677    0.4664 H   0  0  0  0  0  0  0  0  0  0  0  0
    2.2490   -1.4200   -0.1962 C   0  0  0  0  0  0  0  0  0  0  0  0
    1.9463   -2.4149    0.1202 H   0  0  0  0  0  0  0  0  0  0  0  0
   -1.1967    0.8581    0.3781 C   0  0  0  0  0  0  0  0  0  0  0  0
   -2.0708    1.3874   -0.2996 O   0  0  0  0  0  0  0  0  0  0  0  0
   -0.4791    1.6195    1.2817 N   0  0  0  0  0  0  0  0  0  0  0  0
    0.2767    1.1588    1.7826 H   0  0  0  0  0  0  0  0  0  0  0  0
   -0.6499    3.0589    1.4309 C   0  0  0  0  0  0  0  0  0  0  0  0
   -1.6903    3.2991    1.6744 H   0  0  0  0  0  0  0  0  0  0  0  0
   -0.0129    3.4327    2.2382 H   0  0  0  0  0  0  0  0  0  0  0  0
   -0.3760    3.5743    0.5046 H   0  0  0  0  0  0  0  0  0  0  0  0
  1  2  1  0  0  0  0
  2  3  1  0  0  0  0
  2  4  1  0  0  0  0
  2  5  1  0  0  0  0
  5  6  2  0  0  0  0
  5  7  1  0  0  0  0
  7  8  1  0  0  0  0
  7  9  1  0  0  0  0
  9 10  1  0  0  0  0
  9 11  1  0  0  0  0
  9 26  1  0  0  0  0
 11 12  1  0  0  0  0
 11 13  1  0  0  0  0
 11 14  1  0  0  0  0
 14 15  2  0  0  0  0
 14 24  1  0  0  0  0
 15 16  1  0  0  0  0
 15 17  1  0  0  0  0
 17 18  1  0  0  0  0
 17 19  2  0  0  0  0
 19 20  1  0  0  0  0
 19 22  1  0  0  0  0
 20 21  1  0  0  0  0
 22 23  1  0  0  0  0
 22 24  2  0  0  0  0
 24 25  1  0  0  0  0
 26 27  2  0  0  0  0
 26 28  1  0  0  0  0
 28 29  1  0  0  0  0
 28 30  1  0  0  0  0
 30 31  1  0  0  0  0
 30 32  1  0  0  0  0
 30 33  1  0  0  0  0
M  END
$$$$

  -OEChem-04042216043D

 33 33  0     1  0  0  0  0  0999 V2000
   -3.9275   -4.0245    1.4963 H   0  0  0  0  0  0  0  0  0  0  0  0
   -3.8773   -3.1366    0.8600 C   0  0  0  0  0  0  0  0  0  0  0  0
   -4.6119   -2.4088    1.2131 H   0  0  0  0  0  0  0  0  0  0  0  0
   -4.1220   -3.4239   -0.1655 H   0  0  0  0  0  0  0  0  0  0  0  0
   -2.4854   -2.5350    0.9115 C   0  0  0  0  0  0  0  0  0  0  0  0
   -1.6122   -3.0727    1.5740 O   0  0  0  0  0  0  0  0  0  0  0  0
   -2.2124   -1.3827    0.2043 N   0  0  0  0  0  0  0  0  0  0  0  0
   -2.9935   -0.9223   -0.2606 H   0  0  0  0  0  0  0  0  0  0  0  0
   -0.9484   -0.6347    0.2764 C   0  0  1  0  0  0  0  0  0  0  0  0
   -0.3936   -0.9389    1.1704 H   0  0  0  0  0  0  0  0  0  0  0  0
   -0.1053   -0.9860   -0.9620 C   0  0  0  0  0  0  0  0  0  0  0  0
   -0.1446   -2.0680   -1.1269 H   0  0  0  0  0  0  0  0  0  0  0  0
   -0.5371   -0.5092   -1.8483 H   0  0  0  0  0  0  0  0  0  0  0  0
    1.3386   -0.5616   -0.8096 C   0  0  0  0  0  0  0  0  0  0  0  0
    1.7142    0.7869   -0.9229 C   0  0  0  0  0  0  0  0  0  0  0  0
    0.9734    1.5410   -1.1747 H   0  0  0  0  0  0  0  0  0  0  0  0
    3.0455    1.1735   -0.7318 C   0  0  0  0  0  0  0  0  0  0  0  0
    3.3159    2.2191   -0.8309 H   0  0  0  0  0  0  0  0  0  0  0  0
    4.0153    0.2190   -0.4198 C   0  0  0  0  0  0  0  0  0  0  0  0
    5.3164    0.5855   -0.2309 O   0  0  0  0  0  0  0  0  0  0  0  0
    5.4198    1.5373   -0.3833 H   0  0  0  0  0  0  0  0  0  0  0  0
    3.6494   -1.1201   -0.2990 C   0  0  0  0  0  0  0  0  0  0  0  0
    4.4083   -1.8558   -0.0531 H   0  0  0  0  0  0  0  0  0  0  0  0
    2.3196   -1.5120   -0.4893 C   0  0  0  0  0  0  0  0  0  0  0  0
    2.0520   -2.5595   -0.3791 H   0  0  0  0  0  0  0  0  0  0  0  0
   -1.2204    0.8759    0.3981 C   0  0  0  0  0  0  0  0  0  0  0  0
   -2.0872    1.3980   -0.2939 O   0  0  0  0  0  0  0  0  0  0  0  0
   -0.5228    1.6452    1.3111 N   0  0  0  0  0  0  0  0  0  0  0  0
    0.2124    1.1866    1.8436 H   0  0  0  0  0  0  0  0  0  0  0  0
   -0.7276    3.0784    1.4767 C   0  0  0  0  0  0  0  0  0  0  0  0
   -1.7739    3.2909    1.7203 H   0  0  0  0  0  0  0  0  0  0  0  0
   -0.1011    3.4580    2.2895 H   0  0  0  0  0  0  0  0  0  0  0  0
   -0.4642    3.6109    0.5570 H   0  0  0  0  0  0  0  0  0  0  0  0
  1  2  1  0  0  0  0
  2  3  1  0  0  0  0
  2  4  1  0  0  0  0
  2  5  1  0  0  0  0
  5  6  2  0  0  0  0
  5  7  1  0  0  0  0
  7  8  1  0  0  0  0
  7  9  1  0  0  0  0
  9 10  1  0  0  0  0
  9 11  1  0  0  0  0
  9 26  1  0  0  0  0
 11 12  1  0  0  0  0
 11 13  1  0  0  0  0
 11 14  1  0  0  0  0
 14 15  2  0  0  0  0
 14 24  1  0  0  0  0
 15 16  1  0  0  0  0
 15 17  1  0  0  0  0
 17 18  1  0  0  0  0
 17 19  2  0  0  0  0
 19 20  1  0  0  0  0
 19 22  1  0  0  0  0
 20 21  1  0  0  0  0
 22 23  1  0  0  0  0
 22 24  2  0  0  0  0
 24 25  1  0  0  0  0
 26 27  2  0  0  0  0
 26 28  1  0  0  0  0
 28 29  1  0  0  0  0
 28 30  1  0  0  0  0
 30 31  1  0  0  0  0
 30 32  1  0  0  0  0
 30 33  1  0  0  0  0
M  END
$$$$

  -OEChem-04042216043D

 33 33  0     1  0  0  0  0  0999 V2000
   -3.8916   -4.0431    1.4439 H   0  0  0  0  0  0  0  0  0  0  0  0
   -3.8464   -3.1444    0.8225 C   0  0  0  0  0  0  0  0  0  0  0  0
   -4.6012   -2.4361    1.1728 H   0  0  0  0  0  0  0  0  0  0  0  0
   -4.0665   -3.4198   -0.2117 H   0  0  0  0  0  0  0  0  0  0  0  0
   -2.4674   -2.5179    0.9096 C   0  0  0  0  0  0  0  0  0  0  0  0
   -1.6039   -3.0385    1.5977 O   0  0  0  0  0  0  0  0  0  0  0  0
   -2.1960   -1.3601    0.2105 N   0  0  0  0  0  0  0  0  0  0  0  0
   -2.9708   -0.9158   -0.2801 H   0  0  0  0  0  0  0  0  0  0  0  0
   -0.9453   -0.5920    0.3130 C   0  0  1  0  0  0  0  0  0  0  0  0
   -0.4012   -0.8835    1.2174 H   0  0  0  0  0  0  0  0  0  0  0  0
   -0.0830   -0.9562   -0.9137 C   0  0  0  0  0  0  0  0  0  0  0  0
   -0.1341   -2.0399   -1.0633 H   0  0  0  0  0  0  0  0  0  0  0  0
   -0.5165   -0.4905   -1.8050 H   0  0  0  0  0  0  0  0  0  0  0  0
    1.3743   -0.5463   -0.8081 C   0  0  0  0  0  0  0  0  0  0  0  0
    1.7711    0.7933   -0.6505 C   0  0  0  0  0  0  0  0  0  0  0  0
    1.0421    1.5961   -0.6873 H   0  0  0  0  0  0  0  0  0  0  0  0
    3.1220    1.1262   -0.4958 C   0  0  0  0  0  0  0  0  0  0  0  0
    3.4057    2.1678   -0.3907 H   0  0  0  0  0  0  0  0  0  0  0  0
    4.0953    0.1263   -0.4868 C   0  0  0  0  0  0  0  0  0  0  0  0
    5.4153    0.4396   -0.3375 O   0  0  0  0  0  0  0  0  0  0  0  0
    5.5249    1.4010   -0.2798 H   0  0  0  0  0  0  0  0  0  0  0  0
    3.7138   -1.2044   -0.6343 C   0  0  0  0  0  0  0  0  0  0  0  0
    4.4744   -1.9782   -0.6223 H   0  0  0  0  0  0  0  0  0  0  0  0
    2.3654   -1.5414   -0.7914 C   0  0  0  0  0  0  0  0  0  0  0  0
    2.0937   -2.5885   -0.8907 H   0  0  0  0  0  0  0  0  0  0  0  0
   -1.2689    0.9092    0.4293 C   0  0  0  0  0  0  0  0  0  0  0  0
   -2.1291    1.4074   -0.2878 O   0  0  0  0  0  0  0  0  0  0  0  0
   -0.6198    1.6993    1.3609 N   0  0  0  0  0  0  0  0  0  0  0  0
    0.0782    1.2514    1.9494 H   0  0  0  0  0  0  0  0  0  0  0  0
   -0.8962    3.1184    1.5455 C   0  0  0  0  0  0  0  0  0  0  0  0
   -1.9522    3.2746    1.7903 H   0  0  0  0  0  0  0  0  0  0  0  0
   -0.2893    3.5178    2.3639 H   0  0  0  0  0  0  0  0  0  0  0  0
   -0.6587    3.6768    0.6340 H   0  0  0  0  0  0  0  0  0  0  0  0
  1  2  1  0  0  0  0
  2  3  1  0  0  0  0
  2  4  1  0  0  0  0
  2  5  1  0  0  0  0
  5  6  2  0  0  0  0
  5  7  1  0  0  0  0
  7  8  1  0  0  0  0
  7  9  1  0  0  0  0
  9 10  1  0  0  0  0
  9 11  1  0  0  0  0
  9 26  1  0  0  0  0
 11 12  1  0  0  0  0
 11 13  1  0  0  0  0
 11 14  1  0  0  0  0
 14 15  2  0  0  0  0
 14 24  1  0  0  0  0
 15 16  1  0  0  0  0
 15 17  1  0  0  0  0
 17 18  1  0  0  0  0
 17 19  2  0  0  0  0
 19 20  1  0  0  0  0
 19 22  1  0  0  0  0
 20 21  1  0  0  0  0
 22 23  1  0  0  0  0
 22 24  2  0  0  0  0
 24 25  1  0  0  0  0
 26 27  2  0  0  0  0
 26 28  1  0  0  0  0
 28 29  1  0  0  0  0
 28 30  1  0  0  0  0
 30 31  1  0  0  0  0
 30 32  1  0  0  0  0
 30 33  1  0  0  0  0
M  END
$$$$

  -OEChem-04042216043D

 33 33  0     1  0  0  0  0  0999 V2000
   -3.8718   -4.0540    1.3707 H   0  0  0  0  0  0  0  0  0  0  0  0
   -3.8172   -3.1468    0.7626 C   0  0  0  0  0  0  0  0  0  0  0  0
   -4.5999   -2.4570    1.0874 H   0  0  0  0  0  0  0  0  0  0  0  0
   -3.9873   -3.4137   -0.2833 H   0  0  0  0  0  0  0  0  0  0  0  0
   -2.4561   -2.4947    0.9163 C   0  0  0  0  0  0  0  0  0  0  0  0
   -1.6206   -2.9917    1.6545 O   0  0  0  0  0  0  0  0  0  0  0  0
   -2.1701   -1.3369    0.2236 N   0  0  0  0  0  0  0  0  0  0  0  0
   -2.9274   -0.9068   -0.3058 H   0  0  0  0  0  0  0  0  0  0  0  0
   -0.9352   -0.5510    0.3749 C   0  0  1  0  0  0  0  0  0  0  0  0
   -0.4128   -0.8265    1.2968 H   0  0  0  0  0  0  0  0  0  0  0  0
   -0.0453   -0.9210   -0.8352 C   0  0  0  0  0  0  0  0  0  0  0  0
   -0.1044   -2.0064   -0.9700 H   0  0  0  0  0  0  0  0  0  0  0  0
   -0.4738   -0.4652   -1.7341 H   0  0  0  0  0  0  0  0  0  0  0  0
    1.4247   -0.5335   -0.7650 C   0  0  0  0  0  0  0  0  0  0  0  0
    1.8822    0.7262   -0.3382 C   0  0  0  0  0  0  0  0  0  0  0  0
    1.1935    1.5300   -0.1185 H   0  0  0  0  0  0  0  0  0  0  0  0
    3.2519    1.0029   -0.2501 C   0  0  0  0  0  0  0  0  0  0  0  0
    3.5769    1.9880    0.0661 H   0  0  0  0  0  0  0  0  0  0  0  0
    4.1903    0.0249   -0.5793 C   0  0  0  0  0  0  0  0  0  0  0  0
    5.5281    0.2849   -0.4998 O   0  0  0  0  0  0  0  0  0  0  0  0
    5.6736    1.2023   -0.2223 H   0  0  0  0  0  0  0  0  0  0  0  0
    3.7535   -1.2276   -0.9997 C   0  0  0  0  0  0  0  0  0  0  0  0
    4.4867   -1.9863   -1.2537 H   0  0  0  0  0  0  0  0  0  0  0  0
    2.3859   -1.5063   -1.0918 C   0  0  0  0  0  0  0  0  0  0  0  0
    2.0767   -2.4963   -1.4147 H   0  0  0  0  0  0  0  0  0  0  0  0
   -1.3182    0.9391    0.4665 C   0  0  0  0  0  0  0  0  0  0  0  0
   -2.1598    1.4023   -0.2951 O   0  0  0  0  0  0  0  0  0  0  0  0
   -0.7437    1.7605    1.4201 N   0  0  0  0  0  0  0  0  0  0  0  0
   -0.1038    1.3303    2.0829 H   0  0  0  0  0  0  0  0  0  0  0  0
   -1.1045    3.1620    1.5937 C   0  0  0  0  0  0  0  0  0  0  0  0
   -2.1722    3.2584    1.8164 H   0  0  0  0  0  0  0  0  0  0  0  0
   -0.5380    3.5985    2.4219 H   0  0  0  0  0  0  0  0  0  0  0  0
   -0.8809    3.7298    0.6844 H   0  0  0  0  0  0  0  0  0  0  0  0
  1  2  1  0  0  0  0
  2  3  1  0  0  0  0
  2  4  1  0  0  0  0
  2  5  1  0  0  0  0
  5  6  2  0  0  0  0
  5  7  1  0  0  0  0
  7  8  1  0  0  0  0
  7  9  1  0  0  0  0
  9 10  1  0  0  0  0
  9 11  1  0  0  0  0
  9 26  1  0  0  0  0
 11 12  1  0  0  0  0
 11 13  1  0  0  0  0
 11 14  1  0  0  0  0
 14 15  2  0  0  0  0
 14 24  1  0  0  0  0
 15 16  1  0  0  0  0
 15 17  1  0  0  0  0
 17 18  1  0  0  0  0
 17 19  2  0  0  0  0
 19 20  1  0  0  0  0
 19 22  1  0  0  0  0
 20 21  1  0  0  0  0
 22 23  1  0  0  0  0
 22 24  2  0  0  0  0
 24 25  1  0  0  0  0
 26 27  2  0  0  0  0
 26 28  1  0  0  0  0
 28 29  1  0  0  0  0
 28 30  1  0  0  0  0
 30 31  1  0  0  0  0
 30 32  1  0  0  0  0
 30 33  1  0  0  0  0
M  END
$$$$

  -OEChem-04042216043D

 33 33  0     1  0  0  0  0  0999 V2000
   -3.8969   -4.0495    1.3081 H   0  0  0  0  0  0  0  0  0  0  0  0
   -3.8186   -3.1418    0.7032 C   0  0  0  0  0  0  0  0  0  0  0  0
   -4.6219   -2.4580    0.9879 H   0  0  0  0  0  0  0  0  0  0  0  0
   -3.9328   -3.4098   -0.3500 H   0  0  0  0  0  0  0  0  0  0  0  0
   -2.4720   -2.4794    0.9256 C   0  0  0  0  0  0  0  0  0  0  0  0
   -1.6784   -2.9592    1.7192 O   0  0  0  0  0  0  0  0  0  0  0  0
   -2.1519   -1.3297    0.2346 N   0  0  0  0  0  0  0  0  0  0  0  0
   -2.8795   -0.9077   -0.3414 H   0  0  0  0  0  0  0  0  0  0  0  0
   -0.9239   -0.5440    0.4363 C   0  0  1  0  0  0  0  0  0  0  0  0
   -0.4284   -0.8123    1.3749 H   0  0  0  0  0  0  0  0  0  0  0  0
   -0.0077   -0.9041   -0.7584 C   0  0  0  0  0  0  0  0  0  0  0  0
   -0.0673   -1.9896   -0.8946 H   0  0  0  0  0  0  0  0  0  0  0  0
   -0.4239   -0.4461   -1.6621 H   0  0  0  0  0  0  0  0  0  0  0  0
    1.4697   -0.5418   -0.6880 C   0  0  0  0  0  0  0  0  0  0  0  0
    1.9957    0.5587    0.0123 C   0  0  0  0  0  0  0  0  0  0  0  0
    1.3615    1.2534    0.5386 H   0  0  0  0  0  0  0  0  0  0  0  0
    3.3729    0.8124    0.0270 C   0  0  0  0  0  0  0  0  0  0  0  0
    3.7509    1.6722    0.5690 H   0  0  0  0  0  0  0  0  0  0  0  0
    4.2518   -0.0277   -0.6561 C   0  0  0  0  0  0  0  0  0  0  0  0
    5.5954    0.2135   -0.6517 O   0  0  0  0  0  0  0  0  0  0  0  0
    5.7877    1.0197   -0.1488 H   0  0  0  0  0  0  0  0  0  0  0  0
    3.7480   -1.1201   -1.3542 C   0  0  0  0  0  0  0  0  0  0  0  0
    4.4347   -1.7709   -1.8857 H   0  0  0  0  0  0  0  0  0  0  0  0
    2.3727   -1.3747   -1.3720 C   0  0  0  0  0  0  0  0  0  0  0  0
    2.0088   -2.2349   -1.9268 H   0  0  0  0  0  0  0  0  0  0  0  0
   -1.3368    0.9433    0.4902 C   0  0  0  0  0  0  0  0  0  0  0  0
   -2.1449    1.3800   -0.3224 O   0  0  0  0  0  0  0  0  0  0  0  0
   -0.8315    1.7957    1.4558 N   0  0  0  0  0  0  0  0  0  0  0  0
   -0.2529    1.3845    2.1833 H   0  0  0  0  0  0  0  0  0  0  0  0
   -1.2331    3.1917    1.5819 C   0  0  0  0  0  0  0  0  0  0  0  0
   -2.3135    3.2677    1.7442 H   0  0  0  0  0  0  0  0  0  0  0  0
   -0.7228    3.6568    2.4308 H   0  0  0  0  0  0  0  0  0  0  0  0
   -0.9726    3.7478    0.6752 H   0  0  0  0  0  0  0  0  0  0  0  0
  1  2  1  0  0  0  0
  2  3  1  0  0  0  0
  2  4  1  0  0  0  0
  2  5  1  0  0  0  0
  5  6  2  0  0  0  0
  5  7  1  0  0  0  0
  7  8  1  0  0  0  0
  7  9  1  0  0  0  0
  9 10  1  0  0  0  0
  9 11  1  0  0  0  0
  9 26  1  0  0  0  0
 11 12  1  0  0  0  0
 11 13  1  0  0  0  0
 11 14  1  0  0  0  0
 14 15  2  0  0  0  0
 14 24  1  0  0  0  0
 15 16  1  0  0  0  0
 15 17  1  0  0  0  0
 17 18  1  0  0  0  0
 17 19  2  0  0  0  0
 19 20  1  0  0  0  0
 19 22  1  0  0  0  0
 20 21  1  0  0  0  0
 22 23  1  0  0  0  0
 22 24  2  0  0  0  0
 24 25  1  0  0  0  0
 26 27  2  0  0  0  0
 26 28  1  0  0  0  0
 28 29  1  0  0  0  0
 28 30  1  0  0  0  0
 30 31  1  0  0  0  0
 30 32  1  0  0  0  0
 30 33  1  0  0  0  0
M  END
$$$$

  -OEChem-04042216043D

 33 33  0     1  0  0  0  0  0999 V2000
   -3.9687   -4.0211    1.3009 H   0  0  0  0  0  0  0  0  0  0  0  0
   -3.8626   -3.1221    0.6875 C   0  0  0  0  0  0  0  0  0  0  0  0
   -4.6587   -2.4208    0.9489 H   0  0  0  0  0  0  0  0  0  0  0  0
   -3.9622   -3.4000   -0.3645 H   0  0  0  0  0  0  0  0  0  0  0  0
   -2.5085   -2.4815    0.9269 C   0  0  0  0  0  0  0  0  0  0  0  0
   -1.7360   -2.9676    1.7376 O   0  0  0  0  0  0  0  0  0  0  0  0
   -2.1594   -1.3430    0.2319 N   0  0  0  0  0  0  0  0  0  0  0  0
   -2.8717   -0.9136   -0.3576 H   0  0  0  0  0  0  0  0  0  0  0  0
   -0.9221   -0.5759    0.4438 C   0  0  1  0  0  0  0  0  0  0  0  0
   -0.4397   -0.8527    1.3868 H   0  0  0  0  0  0  0  0  0  0  0  0
    0.0001   -0.9213   -0.7474 C   0  0  0  0  0  0  0  0  0  0  0  0
   -0.0552   -2.0049   -0.8990 H   0  0  0  0  0  0  0  0  0  0  0  0
   -0.4059   -0.4500   -1.6489 H   0  0  0  0  0  0  0  0  0  0  0  0
    1.4766   -0.5697   -0.6538 C   0  0  0  0  0  0  0  0  0  0  0  0
    2.0394    0.3071    0.2914 C   0  0  0  0  0  0  0  0  0  0  0  0
    1.4403    0.7771    1.0558 H   0  0  0  0  0  0  0  0  0  0  0  0
    3.4112    0.5888    0.2823 C   0  0  0  0  0  0  0  0  0  0  0  0
    3.8218    1.2658    1.0231 H   0  0  0  0  0  0  0  0  0  0  0  0
    4.2445    0.0034   -0.6707 C   0  0  0  0  0  0  0  0  0  0  0  0
    5.5824    0.2731   -0.6891 O   0  0  0  0  0  0  0  0  0  0  0  0
    5.8064    0.8977    0.0176 H   0  0  0  0  0  0  0  0  0  0  0  0
    3.7022   -0.8652   -1.6124 C   0  0  0  0  0  0  0  0  0  0  0  0
    4.3536   -1.3186   -2.3525 H   0  0  0  0  0  0  0  0  0  0  0  0
    2.3325   -1.1482   -1.6059 C   0  0  0  0  0  0  0  0  0  0  0  0
    1.9322   -1.8257   -2.3550 H   0  0  0  0  0  0  0  0  0  0  0  0
   -1.3055    0.9212    0.4809 C   0  0  0  0  0  0  0  0  0  0  0  0
   -2.1042    1.3610   -0.3396 O   0  0  0  0  0  0  0  0  0  0  0  0
   -0.7992    1.7771    1.4429 N   0  0  0  0  0  0  0  0  0  0  0  0
   -0.2497    1.3651    2.1913 H   0  0  0  0  0  0  0  0  0  0  0  0
   -1.1831    3.1799    1.5466 C   0  0  0  0  0  0  0  0  0  0  0  0
   -2.2634    3.2729    1.6999 H   0  0  0  0  0  0  0  0  0  0  0  0
   -0.6724    3.6497    2.3926 H   0  0  0  0  0  0  0  0  0  0  0  0
   -0.9086    3.7200    0.6343 H   0  0  0  0  0  0  0  0  0  0  0  0
  1  2  1  0  0  0  0
  2  3  1  0  0  0  0
  2  4  1  0  0  0  0
  2  5  1  0  0  0  0
  5  6  2  0  0  0  0
  5  7  1  0  0  0  0
  7  8  1  0  0  0  0
  7  9  1  0  0  0  0
  9 10  1  0  0  0  0
  9 11  1  0  0  0  0
  9 26  1  0  0  0  0
 11 12  1  0  0  0  0
 11 13  1  0  0  0  0
 11 14  1  0  0  0  0
 14 15  2  0  0  0  0
 14 24  1  0  0  0  0
 15 16  1  0  0  0  0
 15 17  1  0  0  0  0
 17 18  1  0  0  0  0
 17 19  2  0  0  0  0
 19 20  1  0  0  0  0
 19 22  1  0  0  0  0
 20 21  1  0  0  0  0
 22 23  1  0  0  0  0
 22 24  2  0  0  0  0
 24 25  1  0  0  0  0
 26 27  2  0  0  0  0
 26 28  1  0  0  0  0
 28 29  1  0  0  0  0
 28 30  1  0  0  0  0
 30 31  1  0  0  0  0
 30 32  1  0  0  0  0
 30 33  1  0  0  0  0
M  END
$$$$

  -OEChem-04042216043D

 33 33  0     1  0  0  0  0  0999 V2000
   -4.0052   -4.0180    1.3371 H   0  0  0  0  0  0  0  0  0  0  0  0
   -3.9018   -3.1231    0.7170 C   0  0  0  0  0  0  0  0  0  0  0  0
   -4.6868   -2.4131    0.9883 H   0  0  0  0  0  0  0  0  0  0  0  0
   -4.0220   -3.4057   -0.3318 H   0  0  0  0  0  0  0  0  0  0  0  0
   -2.5380   -2.4939    0.9307 C   0  0  0  0  0  0  0  0  0  0  0  0
   -1.7581   -2.9842    1.7319 O   0  0  0  0  0  0  0  0  0  0  0  0
   -2.1887   -1.3621    0.2243 N   0  0  0  0  0  0  0  0  0  0  0  0
   -2.9068   -0.9272   -0.3538 H   0  0  0  0  0  0  0  0  0  0  0  0
   -0.9398   -0.6079    0.4109 C   0  0  1  0  0  0  0  0  0  0  0  0
   -0.4606   -0.8972    1.3507 H   0  0  0  0  0  0  0  0  0  0  0  0
   -0.0207   -0.9466   -0.7813 C   0  0  0  0  0  0  0  0  0  0  0  0
   -0.0665   -2.0294   -0.9396 H   0  0  0  0  0  0  0  0  0  0  0  0
   -0.4281   -0.4720   -1.6807 H   0  0  0  0  0  0  0  0  0  0  0  0
    1.4511   -0.5842   -0.6666 C   0  0  0  0  0  0  0  0  0  0  0  0
    2.0388    0.0375    0.4518 C   0  0  0  0  0  0  0  0  0  0  0  0
    1.4645    0.2678    1.3390 H   0  0  0  0  0  0  0  0  0  0  0  0
    3.4029    0.3552    0.4593 C   0  0  0  0  0  0  0  0  0  0  0  0
    3.8359    0.8286    1.3336 H   0  0  0  0  0  0  0  0  0  0  0  0
    4.2010    0.0617   -0.6469 C   0  0  0  0  0  0  0  0  0  0  0  0
    5.5316    0.3667   -0.6498 O   0  0  0  0  0  0  0  0  0  0  0  0
    5.7823    0.7745    0.1932 H   0  0  0  0  0  0  0  0  0  0  0  0
    3.6316   -0.5509   -1.7588 C   0  0  0  0  0  0  0  0  0  0  0  0
    4.2565   -0.7760   -2.6170 H   0  0  0  0  0  0  0  0  0  0  0  0
    2.2703   -0.8707   -1.7701 C   0  0  0  0  0  0  0  0  0  0  0  0
    1.8467   -1.3449   -2.6509 H   0  0  0  0  0  0  0  0  0  0  0  0
   -1.2687    0.9005    0.4525 C   0  0  0  0  0  0  0  0  0  0  0  0
   -2.0828    1.3622   -0.3402 O   0  0  0  0  0  0  0  0  0  0  0  0
   -0.7113    1.7365    1.4035 N   0  0  0  0  0  0  0  0  0  0  0  0
   -0.1263    1.3135    2.1171 H   0  0  0  0  0  0  0  0  0  0  0  0
   -1.0419    3.1521    1.5141 C   0  0  0  0  0  0  0  0  0  0  0  0
   -2.1153    3.2835    1.6875 H   0  0  0  0  0  0  0  0  0  0  0  0
   -0.4990    3.6034    2.3499 H   0  0  0  0  0  0  0  0  0  0  0  0
   -0.7648    3.6819    0.5966 H   0  0  0  0  0  0  0  0  0  0  0  0
  1  2  1  0  0  0  0
  2  3  1  0  0  0  0
  2  4  1  0  0  0  0
  2  5  1  0  0  0  0
  5  6  2  0  0  0  0
  5  7  1  0  0  0  0
  7  8  1  0  0  0  0
  7  9  1  0  0  0  0
  9 10  1  0  0  0  0
  9 11  1  0  0  0  0
  9 26  1  0  0  0  0
 11 12  1  0  0  0  0
 11 13  1  0  0  0  0
 11 14  1  0  0  0  0
 14 15  2  0  0  0  0
 14 24  1  0  0  0  0
 15 16  1  0  0  0  0
 15 17  1  0  0  0  0
 17 18  1  0  0  0  0
 17 19  2  0  0  0  0
 19 20  1  0  0  0  0
 19 22  1  0  0  0  0
 20 21  1  0  0  0  0
 22 23  1  0  0  0  0
 22 24  2  0  0  0  0
 24 25  1  0  0  0  0
 26 27  2  0  0  0  0
 26 28  1  0  0  0  0
 28 29  1  0  0  0  0
 28 30  1  0  0  0  0
 30 31  1  0  0  0  0
 30 32  1  0  0  0  0
 30 33  1  0  0  0  0
M  END
$$$$

  -OEChem-04042216043D

 33 33  0     1  0  0  0  0  0999 V2000
   -4.0348   -4.0203    1.3857 H   0  0  0  0  0  0  0  0  0  0  0  0
   -3.9384   -3.1292    0.7591 C   0  0  0  0  0  0  0  0  0  0  0  0
   -4.7035   -2.4067    1.0539 H   0  0  0  0  0  0  0  0  0  0  0  0
   -4.0974   -3.4130   -0.2840 H   0  0  0  0  0  0  0  0  0  0  0  0
   -2.5589   -2.5204    0.9251 C   0  0  0  0  0  0  0  0  0  0  0  0
   -1.7549   -3.0298    1.6899 O   0  0  0  0  0  0  0  0  0  0  0  0
   -2.2218   -1.3877    0.2138 N   0  0  0  0  0  0  0  0  0  0  0  0
   -2.9582   -0.9392   -0.3297 H   0  0  0  0  0  0  0  0  0  0  0  0
   -0.9652   -0.6400    0.3712 C   0  0  1  0  0  0  0  0  0  0  0  0
   -0.4927   -0.9399    1.3095 H   0  0  0  0  0  0  0  0  0  0  0  0
   -0.0467   -0.9726   -0.8204 C   0  0  0  0  0  0  0  0  0  0  0  0
   -0.0794   -2.0552   -0.9819 H   0  0  0  0  0  0  0  0  0  0  0  0
   -0.4583   -0.4993   -1.7186 H   0  0  0  0  0  0  0  0  0  0  0  0
    1.4193   -0.5910   -0.6850 C   0  0  0  0  0  0  0  0  0  0  0  0
    2.0447   -0.2486    0.5309 C   0  0  0  0  0  0  0  0  0  0  0  0
    1.5127   -0.2760    1.4737 H   0  0  0  0  0  0  0  0  0  0  0  0
    3.3973    0.1124    0.5626 C   0  0  0  0  0  0  0  0  0  0  0  0
    3.8604    0.3655    1.5099 H   0  0  0  0  0  0  0  0  0  0  0  0
    4.1473    0.1392   -0.6132 C   0  0  0  0  0  0  0  0  0  0  0  0
    5.4675    0.4848   -0.5901 O   0  0  0  0  0  0  0  0  0  0  0  0
    5.7532    0.6492    0.3215 H   0  0  0  0  0  0  0  0  0  0  0  0
    3.5416   -0.1968   -1.8202 C   0  0  0  0  0  0  0  0  0  0  0  0
    4.1296   -0.1756   -2.7320 H   0  0  0  0  0  0  0  0  0  0  0  0
    2.1911   -0.5588   -1.8572 C   0  0  0  0  0  0  0  0  0  0  0  0
    1.7399   -0.8145   -2.8117 H   0  0  0  0  0  0  0  0  0  0  0  0
   -1.2487    0.8747    0.4294 C   0  0  0  0  0  0  0  0  0  0  0  0
   -2.0928    1.3593   -0.3167 O   0  0  0  0  0  0  0  0  0  0  0  0
   -0.6371    1.6820    1.3712 N   0  0  0  0  0  0  0  0  0  0  0  0
    0.0560    1.2576    1.9790 H   0  0  0  0  0  0  0  0  0  0  0  0
   -0.8823    3.1150    1.4750 C   0  0  0  0  0  0  0  0  0  0  0  0
   -1.9442    3.3105    1.6577 H   0  0  0  0  0  0  0  0  0  0  0  0
   -0.3064    3.5384    2.3034 H   0  0  0  0  0  0  0  0  0  0  0  0
   -0.5842    3.6214    0.5509 H   0  0  0  0  0  0  0  0  0  0  0  0
  1  2  1  0  0  0  0
  2  3  1  0  0  0  0
  2  4  1  0  0  0  0
  2  5  1  0  0  0  0
  5  6  2  0  0  0  0
  5  7  1  0  0  0  0
  7  8  1  0  0  0  0
  7  9  1  0  0  0  0
  9 10  1  0  0  0  0
  9 11  1  0  0  0  0
  9 26  1  0  0  0  0
 11 12  1  0  0  0  0
 11 13  1  0  0  0  0
 11 14  1  0  0  0  0
 14 15  2  0  0  0  0
 14 24  1  0  0  0  0
 15 16  1  0  0  0  0
 15 17  1  0  0  0  0
 17 18  1  0  0  0  0
 17 19  2  0  0  0  0
 19 20  1  0  0  0  0
 19 22  1  0  0  0  0
 20 21  1  0  0  0  0
 22 23  1  0  0  0  0
 22 24  2  0  0  0  0
 24 25  1  0  0  0  0
 26 27  2  0  0  0  0
 26 28  1  0  0  0  0
 28 29  1  0  0  0  0
 28 30  1  0  0  0  0
 30 31  1  0  0  0  0
 30 32  1  0  0  0  0
 30 33  1  0  0  0  0
M  END
$$$$

  -OEChem-04042216043D

 33 33  0     1  0  0  0  0  0999 V2000
   -4.0466   -4.0176    1.4319 H   0  0  0  0  0  0  0  0  0  0  0  0
   -3.9560   -3.1308    0.7983 C   0  0  0  0  0  0  0  0  0  0  0  0
   -4.7087   -2.4005    1.1049 H   0  0  0  0  0  0  0  0  0  0  0  0
   -4.1396   -3.4189   -0.2395 H   0  0  0  0  0  0  0  0  0  0  0  0
   -2.5682   -2.5325    0.9313 C   0  0  0  0  0  0  0  0  0  0  0  0
   -1.7475   -3.0521    1.6713 O   0  0  0  0  0  0  0  0  0  0  0  0
   -2.2398   -1.4012    0.2136 N   0  0  0  0  0  0  0  0  0  0  0  0
   -2.9855   -0.9462   -0.3111 H   0  0  0  0  0  0  0  0  0  0  0  0
   -0.9745   -0.6634    0.3422 C   0  0  1  0  0  0  0  0  0  0  0  0
   -0.4958   -0.9638    1.2758 H   0  0  0  0  0  0  0  0  0  0  0  0
   -0.0733   -1.0003   -0.8600 C   0  0  0  0  0  0  0  0  0  0  0  0
   -0.1044   -2.0831   -1.0198 H   0  0  0  0  0  0  0  0  0  0  0  0
   -0.4954   -0.5294   -1.7546 H   0  0  0  0  0  0  0  0  0  0  0  0
    1.3897   -0.6115   -0.7159 C   0  0  0  0  0  0  0  0  0  0  0  0
    2.0694   -0.5685    0.5179 C   0  0  0  0  0  0  0  0  0  0  0  0
    1.5901   -0.8756    1.4407 H   0  0  0  0  0  0  0  0  0  0  0  0
    3.4081   -0.1631    0.5822 C   0  0  0  0  0  0  0  0  0  0  0  0
    3.9157   -0.1472    1.5406 H   0  0  0  0  0  0  0  0  0  0  0  0
    4.0882    0.2078   -0.5781 C   0  0  0  0  0  0  0  0  0  0  0  0
    5.3938    0.6025   -0.5256 O   0  0  0  0  0  0  0  0  0  0  0  0
    5.7237    0.5459    0.3843 H   0  0  0  0  0  0  0  0  0  0  0  0
    3.4275    0.1691   -1.8024 C   0  0  0  0  0  0  0  0  0  0  0  0
    3.9618    0.4591   -2.7011 H   0  0  0  0  0  0  0  0  0  0  0  0
    2.0911   -0.2369   -1.8733 C   0  0  0  0  0  0  0  0  0  0  0  0
    1.5966   -0.2533   -2.8405 H   0  0  0  0  0  0  0  0  0  0  0  0
   -1.2225    0.8554    0.4107 C   0  0  0  0  0  0  0  0  0  0  0  0
   -2.0789    1.3612   -0.3065 O   0  0  0  0  0  0  0  0  0  0  0  0
   -0.5652    1.6382    1.3417 N   0  0  0  0  0  0  0  0  0  0  0  0
    0.1758    1.2001    1.8805 H   0  0  0  0  0  0  0  0  0  0  0  0
   -0.7423    3.0816    1.4364 C   0  0  0  0  0  0  0  0  0  0  0  0
   -1.7965    3.3296    1.5994 H   0  0  0  0  0  0  0  0  0  0  0  0
   -0.1621    3.4792    2.2746 H   0  0  0  0  0  0  0  0  0  0  0  0
   -0.4035    3.5695    0.5165 H   0  0  0  0  0  0  0  0  0  0  0  0
  1  2  1  0  0  0  0
  2  3  1  0  0  0  0
  2  4  1  0  0  0  0
  2  5  1  0  0  0  0
  5  6  2  0  0  0  0
  5  7  1  0  0  0  0
  7  8  1  0  0  0  0
  7  9  1  0  0  0  0
  9 10  1  0  0  0  0
  9 11  1  0  0  0  0
  9 26  1  0  0  0  0
 11 12  1  0  0  0  0
 11 13  1  0  0  0  0
 11 14  1  0  0  0  0
 14 15  2  0  0  0  0
 14 24  1  0  0  0  0
 15 16  1  0  0  0  0
 15 17  1  0  0  0  0
 17 18  1  0  0  0  0
 17 19  2  0  0  0  0
 19 20  1  0  0  0  0
 19 22  1  0  0  0  0
 20 21  1  0  0  0  0
 22 23  1  0  0  0  0
 22 24  2  0  0  0  0
 24 25  1  0  0  0  0
 26 27  2  0  0  0  0
 26 28  1  0  0  0  0
 28 29  1  0  0  0  0
 28 30  1  0  0  0  0
 30 31  1  0  0  0  0
 30 32  1  0  0  0  0
 30 33  1  0  0  0  0
M  END
$$$$

  -OEChem-04042216043D

 33 33  0     1  0  0  0  0  0999 V2000
   -4.0133   -3.9993    1.5200 H   0  0  0  0  0  0  0  0  0  0  0  0
   -3.9407   -3.1209    0.8729 C   0  0  0  0  0  0  0  0  0  0  0  0
   -4.6649   -2.3751    1.2093 H   0  0  0  0  0  0  0  0  0  0  0  0
   -4.1814   -3.4166   -0.1509 H   0  0  0  0  0  0  0  0  0  0  0  0
   -2.5386   -2.5445    0.9294 C   0  0  0  0  0  0  0  0  0  0  0  0
   -1.6850   -3.0810    1.6189 O   0  0  0  0  0  0  0  0  0  0  0  0
   -2.2350   -1.4109    0.2041 N   0  0  0  0  0  0  0  0  0  0  0  0
   -3.0024   -0.9399   -0.2732 H   0  0  0  0  0  0  0  0  0  0  0  0
   -0.9622   -0.6809    0.2917 C   0  0  1  0  0  0  0  0  0  0  0  0
   -0.4525   -0.9811    1.2095 H   0  0  0  0  0  0  0  0  0  0  0  0
   -0.0954   -1.0128   -0.9355 C   0  0  0  0  0  0  0  0  0  0  0  0
   -0.1224   -2.0943   -1.1035 H   0  0  0  0  0  0  0  0  0  0  0  0
   -0.5309   -0.5369   -1.8208 H   0  0  0  0  0  0  0  0  0  0  0  0
    1.3587   -0.6096   -0.7795 C   0  0  0  0  0  0  0  0  0  0  0  0
    2.0882   -0.8738    0.3945 C   0  0  0  0  0  0  0  0  0  0  0  0
    1.6458   -1.4397    1.2089 H   0  0  0  0  0  0  0  0  0  0  0  0
    3.4151   -0.4468    0.5210 C   0  0  0  0  0  0  0  0  0  0  0  0
    3.9626   -0.6707    1.4301 H   0  0  0  0  0  0  0  0  0  0  0  0
    4.0308    0.2511   -0.5187 C   0  0  0  0  0  0  0  0  0  0  0  0
    5.3256    0.6679   -0.4065 O   0  0  0  0  0  0  0  0  0  0  0  0
    5.7043    0.3575    0.4302 H   0  0  0  0  0  0  0  0  0  0  0  0
    3.3167    0.5200   -1.6836 C   0  0  0  0  0  0  0  0  0  0  0  0
    3.8019    1.0629   -2.4882 H   0  0  0  0  0  0  0  0  0  0  0  0
    1.9904    0.0951   -1.8160 C   0  0  0  0  0  0  0  0  0  0  0  0
    1.4521    0.3235   -2.7316 H   0  0  0  0  0  0  0  0  0  0  0  0
   -1.1968    0.8387    0.3775 C   0  0  0  0  0  0  0  0  0  0  0  0
   -2.0820    1.3532   -0.2975 O   0  0  0  0  0  0  0  0  0  0  0  0
   -0.4996    1.6090    1.2894 N   0  0  0  0  0  0  0  0  0  0  0  0
    0.2763    1.1664    1.7735 H   0  0  0  0  0  0  0  0  0  0  0  0
   -0.6635    3.0529    1.4007 C   0  0  0  0  0  0  0  0  0  0  0  0
   -1.7050    3.3048    1.6271 H   0  0  0  0  0  0  0  0  0  0  0  0
   -0.0326    3.4436    2.2046 H   0  0  0  0  0  0  0  0  0  0  0  0
   -0.3773    3.5435    0.4645 H   0  0  0  0  0  0  0  0  0  0  0  0
  1  2  1  0  0  0  0
  2  3  1  0  0  0  0
  2  4  1  0  0  0  0
  2  5  1  0  0  0  0
  5  6  2  0  0  0  0
  5  7  1  0  0  0  0
  7  8  1  0  0  0  0
  7  9  1  0  0  0  0
  9 10  1  0  0  0  0
  9 11  1  0  0  0  0
  9 26  1  0  0  0  0
 11 12  1  0  0  0  0
 11 13  1  0  0  0  0
 11 14  1  0  0  0  0
 14 15  2  0  0  0  0
 14 24  1  0  0  0  0
 15 16  1  0  0  0  0
 15 17  1  0  0  0  0
 17 18  1  0  0  0  0
 17 19  2  0  0  0  0
 19 20  1  0  0  0  0
 19 22  1  0  0  0  0
 20 21  1  0  0  0  0
 22 23  1  0  0  0  0
 22 24  2  0  0  0  0
 24 25  1  0  0  0  0
 26 27  2  0  0  0  0
 26 28  1  0  0  0  0
 28 29  1  0  0  0  0
 28 30  1  0  0  0  0
 30 31  1  0  0  0  0
 30 32  1  0  0  0  0
 30 33  1  0  0  0  0
M  END
$$$$

  -OEChem-04042216043D

 33 33  0     1  0  0  0  0  0999 V2000
   -3.9653   -4.0043    1.5712 H   0  0  0  0  0  0  0  0  0  0  0  0
   -3.9119   -3.1249    0.9233 C   0  0  0  0  0  0  0  0  0  0  0  0
   -4.6185   -2.3756    1.2884 H   0  0  0  0  0  0  0  0  0  0  0  0
   -4.1930   -3.4173   -0.0913 H   0  0  0  0  0  0  0  0  0  0  0  0
   -2.5054   -2.5557    0.9272 C   0  0  0  0  0  0  0  0  0  0  0  0
   -1.6258   -3.1039    1.5737 O   0  0  0  0  0  0  0  0  0  0  0  0
   -2.2265   -1.4174    0.1997 N   0  0  0  0  0  0  0  0  0  0  0  0
   -3.0115   -0.9397   -0.2408 H   0  0  0  0  0  0  0  0  0  0  0  0
   -0.9510   -0.6882    0.2487 C   0  0  1  0  0  0  0  0  0  0  0  0
   -0.4055   -0.9923    1.1463 H   0  0  0  0  0  0  0  0  0  0  0  0
   -0.1172   -1.0167   -0.9993 C   0  0  0  0  0  0  0  0  0  0  0  0
   -0.1390   -2.0978   -1.1711 H   0  0  0  0  0  0  0  0  0  0  0  0
   -0.5629   -0.5388   -1.8783 H   0  0  0  0  0  0  0  0  0  0  0  0
    1.3254   -0.5935   -0.8308 C   0  0  0  0  0  0  0  0  0  0  0  0
    2.1172   -1.1266    0.1999 C   0  0  0  0  0  0  0  0  0  0  0  0
    1.7120   -1.8903    0.8592 H   0  0  0  0  0  0  0  0  0  0  0  0
    3.4373   -0.6960    0.3768 C   0  0  0  0  0  0  0  0  0  0  0  0
    4.0357   -1.1256    1.1728 H   0  0  0  0  0  0  0  0  0  0  0  0
    3.9779    0.2756   -0.4679 C   0  0  0  0  0  0  0  0  0  0  0  0
    5.2639    0.7031   -0.3042 O   0  0  0  0  0  0  0  0  0  0  0  0
    5.6946    0.2007    0.4046 H   0  0  0  0  0  0  0  0  0  0  0  0
    3.1956    0.8138   -1.4878 C   0  0  0  0  0  0  0  0  0  0  0  0
    3.6224    1.5701   -2.1386 H   0  0  0  0  0  0  0  0  0  0  0  0
    1.8763    0.3853   -1.6713 C   0  0  0  0  0  0  0  0  0  0  0  0
    1.2801    0.8240   -2.4667 H   0  0  0  0  0  0  0  0  0  0  0  0
   -1.1786    0.8313    0.3526 C   0  0  0  0  0  0  0  0  0  0  0  0
   -2.0820    1.3543   -0.2911 O   0  0  0  0  0  0  0  0  0  0  0  0
   -0.4472    1.5915    1.2459 N   0  0  0  0  0  0  0  0  0  0  0  0
    0.3495    1.1428    1.6898 H   0  0  0  0  0  0  0  0  0  0  0  0
   -0.5993    3.0352    1.3740 C   0  0  0  0  0  0  0  0  0  0  0  0
   -1.6306    3.2902    1.6392 H   0  0  0  0  0  0  0  0  0  0  0  0
    0.0616    3.4168    2.1579 H   0  0  0  0  0  0  0  0  0  0  0  0
   -0.3441    3.5318    0.4322 H   0  0  0  0  0  0  0  0  0  0  0  0
  1  2  1  0  0  0  0
  2  3  1  0  0  0  0
  2  4  1  0  0  0  0
  2  5  1  0  0  0  0
  5  6  2  0  0  0  0
  5  7  1  0  0  0  0
  7  8  1  0  0  0  0
  7  9  1  0  0  0  0
  9 10  1  0  0  0  0
  9 11  1  0  0  0  0
  9 26  1  0  0  0  0
 11 12  1  0  0  0  0
 11 13  1  0  0  0  0
 11 14  1  0  0  0  0
 14 15  2  0  0  0  0
 14 24  1  0  0  0  0
 15 16  1  0  0  0  0
 15 17  1  0  0  0  0
 17 18  1  0  0  0  0
 17 19  2  0  0  0  0
 19 20  1  0  0  0  0
 19 22  1  0  0  0  0
 20 21  1  0  0  0  0
 22 23  1  0  0  0  0
 22 24  2  0  0  0  0
 24 25  1  0  0  0  0
 26 27  2  0  0  0  0
 26 28  1  0  0  0  0
 28 29  1  0  0  0  0
 28 30  1  0  0  0  0
 30 31  1  0  0  0  0
 30 32  1  0  0  0  0
 30 33  1  0  0  0  0
M  END
$$$$

  -OEChem-04042216043D

 33 33  0     1  0  0  0  0  0999 V2000
   -3.9301   -4.0111    1.5811 H   0  0  0  0  0  0  0  0  0  0  0  0
   -3.8871   -3.1329    0.9309 C   0  0  0  0  0  0  0  0  0  0  0  0
   -4.5924   -2.3853    1.3020 H   0  0  0  0  0  0  0  0  0  0  0  0
   -4.1780   -3.4278   -0.0802 H   0  0  0  0  0  0  0  0  0  0  0  0
   -2.4826   -2.5592    0.9192 C   0  0  0  0  0  0  0  0  0  0  0  0
   -1.5916   -3.1106    1.5469 O   0  0  0  0  0  0  0  0  0  0  0  0
   -2.2179   -1.4147    0.1963 N   0  0  0  0  0  0  0  0  0  0  0  0
   -3.0100   -0.9388   -0.2333 H   0  0  0  0  0  0  0  0  0  0  0  0
   -0.9454   -0.6800    0.2336 C   0  0  1  0  0  0  0  0  0  0  0  0
   -0.3797   -0.9886    1.1185 H   0  0  0  0  0  0  0  0  0  0  0  0
   -0.1264   -1.0070   -1.0221 C   0  0  0  0  0  0  0  0  0  0  0  0
   -0.1463   -2.0875   -1.1995 H   0  0  0  0  0  0  0  0  0  0  0  0
   -0.5741   -0.5251   -1.8979 H   0  0  0  0  0  0  0  0  0  0  0  0
    1.3080   -0.5708   -0.8456 C   0  0  0  0  0  0  0  0  0  0  0  0
    2.1776   -1.3111   -0.0307 C   0  0  0  0  0  0  0  0  0  0  0  0
    1.8251   -2.2179    0.4550 H   0  0  0  0  0  0  0  0  0  0  0  0
    3.4994   -0.8910    0.1593 C   0  0  0  0  0  0  0  0  0  0  0  0
    4.1591   -1.4776    0.7895 H   0  0  0  0  0  0  0  0  0  0  0  0
    3.9614    0.2732   -0.4589 C   0  0  0  0  0  0  0  0  0  0  0  0
    5.2478    0.6927   -0.2803 O   0  0  0  0  0  0  0  0  0  0  0  0
    5.7359    0.0502    0.2575 H   0  0  0  0  0  0  0  0  0  0  0  0
    3.0993    1.0148   -1.2650 C   0  0  0  0  0  0  0  0  0  0  0  0
    3.4664    1.9185   -1.7409 H   0  0  0  0  0  0  0  0  0  0  0  0
    1.7777    0.5992   -1.4604 C   0  0  0  0  0  0  0  0  0  0  0  0
    1.1171    1.1931   -2.0867 H   0  0  0  0  0  0  0  0  0  0  0  0
   -1.1791    0.8375    0.3510 C   0  0  0  0  0  0  0  0  0  0  0  0
   -2.0839    1.3632   -0.2885 O   0  0  0  0  0  0  0  0  0  0  0  0
   -0.4405    1.5957    1.2400 N   0  0  0  0  0  0  0  0  0  0  0  0
    0.3544    1.1443    1.6849 H   0  0  0  0  0  0  0  0  0  0  0  0
   -0.5952    3.0380    1.3768 C   0  0  0  0  0  0  0  0  0  0  0  0
   -1.6272    3.2895    1.6432 H   0  0  0  0  0  0  0  0  0  0  0  0
    0.0649    3.4159    2.1634 H   0  0  0  0  0  0  0  0  0  0  0  0
   -0.3407    3.5402    0.4377 H   0  0  0  0  0  0  0  0  0  0  0  0
  1  2  1  0  0  0  0
  2  3  1  0  0  0  0
  2  4  1  0  0  0  0
  2  5  1  0  0  0  0
  5  6  2  0  0  0  0
  5  7  1  0  0  0  0
  7  8  1  0  0  0  0
  7  9  1  0  0  0  0
  9 10  1  0  0  0  0
  9 11  1  0  0  0  0
  9 26  1  0  0  0  0
 11 12  1  0  0  0  0
 11 13  1  0  0  0  0
 11 14  1  0  0  0  0
 14 15  2  0  0  0  0
 14 24  1  0  0  0  0
 15 16  1  0  0  0  0
 15 17  1  0  0  0  0
 17 18  1  0  0  0  0
 17 19  2  0  0  0  0
 19 20  1  0  0  0  0
 19 22  1  0  0  0  0
 20 21  1  0  0  0  0
 22 23  1  0  0  0  0
 22 24  2  0  0  0  0
 24 25  1  0  0  0  0
 26 27  2  0  0  0  0
 26 28  1  0  0  0  0
 28 29  1  0  0  0  0
 28 30  1  0  0  0  0
 30 31  1  0  0  0  0
 30 32  1  0  0  0  0
 30 33  1  0  0  0  0
M  END
$$$$

  -OEChem-04042216043D

 33 33  0     1  0  0  0  0  0999 V2000
   -3.9179   -4.0221    1.5552 H   0  0  0  0  0  0  0  0  0  0  0  0
   -3.8777   -3.1385    0.9121 C   0  0  0  0  0  0  0  0  0  0  0  0
   -4.5879   -2.3976    1.2872 H   0  0  0  0  0  0  0  0  0  0  0  0
   -4.1642   -3.4271   -0.1021 H   0  0  0  0  0  0  0  0  0  0  0  0
   -2.4764   -2.5571    0.9088 C   0  0  0  0  0  0  0  0  0  0  0  0
   -1.5834   -3.1108    1.5312 O   0  0  0  0  0  0  0  0  0  0  0  0
   -2.2163   -1.4062    0.1947 N   0  0  0  0  0  0  0  0  0  0  0  0
   -3.0105   -0.9303   -0.2309 H   0  0  0  0  0  0  0  0  0  0  0  0
   -0.9479   -0.6647    0.2391 C   0  0  1  0  0  0  0  0  0  0  0  0
   -0.3796   -0.9738    1.1228 H   0  0  0  0  0  0  0  0  0  0  0  0
   -0.1241   -0.9958   -1.0130 C   0  0  0  0  0  0  0  0  0  0  0  0
   -0.1482   -2.0764   -1.1899 H   0  0  0  0  0  0  0  0  0  0  0  0
   -0.5659   -0.5129   -1.8912 H   0  0  0  0  0  0  0  0  0  0  0  0
    1.3087   -0.5551   -0.8347 C   0  0  0  0  0  0  0  0  0  0  0  0
    2.2535   -1.4323   -0.2828 C   0  0  0  0  0  0  0  0  0  0  0  0
    1.9546   -2.4338    0.0164 H   0  0  0  0  0  0  0  0  0  0  0  0
    3.5806   -1.0235   -0.1061 C   0  0  0  0  0  0  0  0  0  0  0  0
    4.2975   -1.7139    0.3247 H   0  0  0  0  0  0  0  0  0  0  0  0
    3.9746    0.2627   -0.4819 C   0  0  0  0  0  0  0  0  0  0  0  0
    5.2655    0.6721   -0.3125 O   0  0  0  0  0  0  0  0  0  0  0  0
    5.8020   -0.0553    0.0388 H   0  0  0  0  0  0  0  0  0  0  0  0
    3.0408    1.1364   -1.0364 C   0  0  0  0  0  0  0  0  0  0  0  0
    3.3565    2.1324   -1.3296 H   0  0  0  0  0  0  0  0  0  0  0  0
    1.7138    0.7326   -1.2172 C   0  0  0  0  0  0  0  0  0  0  0  0
    0.9981    1.4250   -1.6528 H   0  0  0  0  0  0  0  0  0  0  0  0
   -1.1960    0.8498    0.3667 C   0  0  0  0  0  0  0  0  0  0  0  0
   -2.0943    1.3752   -0.2819 O   0  0  0  0  0  0  0  0  0  0  0  0
   -0.4665    1.6092    1.2624 N   0  0  0  0  0  0  0  0  0  0  0  0
    0.3219    1.1575    1.7190 H   0  0  0  0  0  0  0  0  0  0  0  0
   -0.6276    3.0505    1.4035 C   0  0  0  0  0  0  0  0  0  0  0  0
   -1.6620    3.2973    1.6649 H   0  0  0  0  0  0  0  0  0  0  0  0
    0.0266    3.4278    2.1952 H   0  0  0  0  0  0  0  0  0  0  0  0
   -0.3695    3.5575    0.4679 H   0  0  0  0  0  0  0  0  0  0  0  0
  1  2  1  0  0  0  0
  2  3  1  0  0  0  0
  2  4  1  0  0  0  0
  2  5  1  0  0  0  0
  5  6  2  0  0  0  0
  5  7  1  0  0  0  0
  7  8  1  0  0  0  0
  7  9  1  0  0  0  0
  9 10  1  0  0  0  0
  9 11  1  0  0  0  0
  9 26  1  0  0  0  0
 11 12  1  0  0  0  0
 11 13  1  0  0  0  0
 11 14  1  0  0  0  0
 14 15  2  0  0  0  0
 14 24  1  0  0  0  0
 15 16  1  0  0  0  0
 15 17  1  0  0  0  0
 17 18  1  0  0  0  0
 17 19  2  0  0  0  0
 19 20  1  0  0  0  0
 19 22  1  0  0  0  0
 20 21  1  0  0  0  0
 22 23  1  0  0  0  0
 22 24  2  0  0  0  0
 24 25  1  0  0  0  0
 26 27  2  0  0  0  0
 26 28  1  0  0  0  0
 28 29  1  0  0  0  0
 28 30  1  0  0  0  0
 30 31  1  0  0  0  0
 30 32  1  0  0  0  0
 30 33  1  0  0  0  0
M  END
$$$$

  -OEChem-04042216043D

 33 33  0     1  0  0  0  0  0999 V2000
   -3.9200   -4.0363    1.5019 H   0  0  0  0  0  0  0  0  0  0  0  0
   -3.8714   -3.1517    0.8606 C   0  0  0  0  0  0  0  0  0  0  0  0
   -4.6083   -2.4238    1.2086 H   0  0  0  0  0  0  0  0  0  0  0  0
   -4.1144   -3.4451   -0.1635 H   0  0  0  0  0  0  0  0  0  0  0  0
   -2.4813   -2.5457    0.9091 C   0  0  0  0  0  0  0  0  0  0  0  0
   -1.6013   -3.0879    1.5590 O   0  0  0  0  0  0  0  0  0  0  0  0
   -2.2146   -1.3892    0.2061 N   0  0  0  0  0  0  0  0  0  0  0  0
   -3.0002   -0.9251   -0.2474 H   0  0  0  0  0  0  0  0  0  0  0  0
   -0.9531   -0.6371    0.2788 C   0  0  1  0  0  0  0  0  0  0  0  0
   -0.3961   -0.9429    1.1707 H   0  0  0  0  0  0  0  0  0  0  0  0
   -0.1098   -0.9766   -0.9613 C   0  0  0  0  0  0  0  0  0  0  0  0
   -0.1421   -2.0578   -1.1321 H   0  0  0  0  0  0  0  0  0  0  0  0
   -0.5430   -0.4973   -1.8456 H   0  0  0  0  0  0  0  0  0  0  0  0
    1.3289   -0.5426   -0.7963 C   0  0  0  0  0  0  0  0  0  0  0  0
    2.3255   -1.4959   -0.5388 C   0  0  0  0  0  0  0  0  0  0  0  0
    2.0600   -2.5437   -0.4260 H   0  0  0  0  0  0  0  0  0  0  0  0
    3.6641   -1.1074   -0.4104 C   0  0  0  0  0  0  0  0  0  0  0  0
    4.4179   -1.8583   -0.2006 H   0  0  0  0  0  0  0  0  0  0  0  0
    4.0223    0.2346   -0.5535 C   0  0  0  0  0  0  0  0  0  0  0  0
    5.3243    0.6241   -0.4296 O   0  0  0  0  0  0  0  0  0  0  0  0
    5.8878   -0.1483   -0.2685 H   0  0  0  0  0  0  0  0  0  0  0  0
    3.0415    1.1835   -0.8345 C   0  0  0  0  0  0  0  0  0  0  0  0
    3.3298    2.2224   -0.9588 H   0  0  0  0  0  0  0  0  0  0  0  0
    1.7028    0.8002   -0.9662 C   0  0  0  0  0  0  0  0  0  0  0  0
    0.9578    1.5536   -1.2080 H   0  0  0  0  0  0  0  0  0  0  0  0
   -1.2279    0.8727    0.4075 C   0  0  0  0  0  0  0  0  0  0  0  0
   -2.1041    1.3920   -0.2749 O   0  0  0  0  0  0  0  0  0  0  0  0
   -0.5304    1.6410    1.3214 N   0  0  0  0  0  0  0  0  0  0  0  0
    0.2283    1.1899    1.8267 H   0  0  0  0  0  0  0  0  0  0  0  0
   -0.7149    3.0797    1.4648 C   0  0  0  0  0  0  0  0  0  0  0  0
   -1.7641    3.3132    1.6743 H   0  0  0  0  0  0  0  0  0  0  0  0
   -0.1071    3.4587    2.2921 H   0  0  0  0  0  0  0  0  0  0  0  0
   -0.4146    3.5970    0.5477 H   0  0  0  0  0  0  0  0  0  0  0  0
  1  2  1  0  0  0  0
  2  3  1  0  0  0  0
  2  4  1  0  0  0  0
  2  5  1  0  0  0  0
  5  6  2  0  0  0  0
  5  7  1  0  0  0  0
  7  8  1  0  0  0  0
  7  9  1  0  0  0  0
  9 10  1  0  0  0  0
  9 11  1  0  0  0  0
  9 26  1  0  0  0  0
 11 12  1  0  0  0  0
 11 13  1  0  0  0  0
 11 14  1  0  0  0  0
 14 15  2  0  0  0  0
 14 24  1  0  0  0  0
 15 16  1  0  0  0  0
 15 17  1  0  0  0  0
 17 18  1  0  0  0  0
 17 19  2  0  0  0  0
 19 20  1  0  0  0  0
 19 22  1  0  0  0  0
 20 21  1  0  0  0  0
 22 23  1  0  0  0  0
 22 24  2  0  0  0  0
 24 25  1  0  0  0  0
 26 27  2  0  0  0  0
 26 28  1  0  0  0  0
 28 29  1  0  0  0  0
 28 30  1  0  0  0  0
 30 31  1  0  0  0  0
 30 32  1  0  0  0  0
 30 33  1  0  0  0  0
M  END
$$$$

  -OEChem-04042216043D

 33 33  0     1  0  0  0  0  0999 V2000
   -3.9155   -4.0460    1.4334 H   0  0  0  0  0  0  0  0  0  0  0  0
   -3.8631   -3.1473    0.8125 C   0  0  0  0  0  0  0  0  0  0  0  0
   -4.6134   -2.4338    1.1620 H   0  0  0  0  0  0  0  0  0  0  0  0
   -4.0835   -3.4203   -0.2223 H   0  0  0  0  0  0  0  0  0  0  0  0
   -2.4800   -2.5300    0.9001 C   0  0  0  0  0  0  0  0  0  0  0  0
   -1.6150   -3.0637    1.5763 O   0  0  0  0  0  0  0  0  0  0  0  0
   -2.2037   -1.3694    0.2080 N   0  0  0  0  0  0  0  0  0  0  0  0
   -2.9803   -0.9101   -0.2659 H   0  0  0  0  0  0  0  0  0  0  0  0
   -0.9513   -0.6064    0.3187 C   0  0  1  0  0  0  0  0  0  0  0  0
   -0.4143   -0.9042    1.2255 H   0  0  0  0  0  0  0  0  0  0  0  0
   -0.0784   -0.9585   -0.9019 C   0  0  0  0  0  0  0  0  0  0  0  0
   -0.1209   -2.0414   -1.0598 H   0  0  0  0  0  0  0  0  0  0  0  0
   -0.4994   -0.4868   -1.7961 H   0  0  0  0  0  0  0  0  0  0  0  0
    1.3707   -0.5386   -0.7543 C   0  0  0  0  0  0  0  0  0  0  0  0
    2.3819   -1.5119   -0.8022 C   0  0  0  0  0  0  0  0  0  0  0  0
    2.1221   -2.5639   -0.8823 H   0  0  0  0  0  0  0  0  0  0  0  0
    3.7313   -1.1477   -0.7257 C   0  0  0  0  0  0  0  0  0  0  0  0
    4.4924   -1.9202   -0.7425 H   0  0  0  0  0  0  0  0  0  0  0  0
    4.0905    0.1975   -0.6331 C   0  0  0  0  0  0  0  0  0  0  0  0
    5.4028    0.5648   -0.5592 O   0  0  0  0  0  0  0  0  0  0  0  0
    5.9698   -0.2211   -0.5933 H   0  0  0  0  0  0  0  0  0  0  0  0
    3.0985    1.1746   -0.6351 C   0  0  0  0  0  0  0  0  0  0  0  0
    3.3869    2.2199   -0.5920 H   0  0  0  0  0  0  0  0  0  0  0  0
    1.7490    0.8146   -0.7122 C   0  0  0  0  0  0  0  0  0  0  0  0
    1.0059    1.6036   -0.7636 H   0  0  0  0  0  0  0  0  0  0  0  0
   -1.2658    0.8958    0.4422 C   0  0  0  0  0  0  0  0  0  0  0  0
   -2.1314    1.3981   -0.2659 O   0  0  0  0  0  0  0  0  0  0  0  0
   -0.6147    1.6774    1.3792 N   0  0  0  0  0  0  0  0  0  0  0  0
    0.1130    1.2345    1.9349 H   0  0  0  0  0  0  0  0  0  0  0  0
   -0.8620    3.1040    1.5465 C   0  0  0  0  0  0  0  0  0  0  0  0
   -1.9222    3.2889    1.7493 H   0  0  0  0  0  0  0  0  0  0  0  0
   -0.2784    3.4931    2.3865 H   0  0  0  0  0  0  0  0  0  0  0  0
   -0.5754    3.6501    0.6418 H   0  0  0  0  0  0  0  0  0  0  0  0
  1  2  1  0  0  0  0
  2  3  1  0  0  0  0
  2  4  1  0  0  0  0
  2  5  1  0  0  0  0
  5  6  2  0  0  0  0
  5  7  1  0  0  0  0
  7  8  1  0  0  0  0
  7  9  1  0  0  0  0
  9 10  1  0  0  0  0
  9 11  1  0  0  0  0
  9 26  1  0  0  0  0
 11 12  1  0  0  0  0
 11 13  1  0  0  0  0
 11 14  1  0  0  0  0
 14 15  2  0  0  0  0
 14 24  1  0  0  0  0
 15 16  1  0  0  0  0
 15 17  1  0  0  0  0
 17 18  1  0  0  0  0
 17 19  2  0  0  0  0
 19 20  1  0  0  0  0
 19 22  1  0  0  0  0
 20 21  1  0  0  0  0
 22 23  1  0  0  0  0
 22 24  2  0  0  0  0
 24 25  1  0  0  0  0
 26 27  2  0  0  0  0
 26 28  1  0  0  0  0
 28 29  1  0  0  0  0
 28 30  1  0  0  0  0
 30 31  1  0  0  0  0
 30 32  1  0  0  0  0
 30 33  1  0  0  0  0
M  END
$$$$

  -OEChem-04042216043D

 33 33  0     1  0  0  0  0  0999 V2000
   -3.9023   -4.0539    1.3600 H   0  0  0  0  0  0  0  0  0  0  0  0
   -3.8405   -3.1450    0.7548 C   0  0  0  0  0  0  0  0  0  0  0  0
   -4.6097   -2.4453    1.0907 H   0  0  0  0  0  0  0  0  0  0  0  0
   -4.0249   -3.4046   -0.2904 H   0  0  0  0  0  0  0  0  0  0  0  0
   -2.4686   -2.5131    0.8968 C   0  0  0  0  0  0  0  0  0  0  0  0
   -1.6279   -3.0329    1.6132 O   0  0  0  0  0  0  0  0  0  0  0  0
   -2.1782   -1.3500    0.2149 N   0  0  0  0  0  0  0  0  0  0  0  0
   -2.9394   -0.9018   -0.2937 H   0  0  0  0  0  0  0  0  0  0  0  0
   -0.9393   -0.5723    0.3734 C   0  0  1  0  0  0  0  0  0  0  0  0
   -0.4238   -0.8594    1.2957 H   0  0  0  0  0  0  0  0  0  0  0  0
   -0.0390   -0.9307   -0.8307 C   0  0  0  0  0  0  0  0  0  0  0  0
   -0.0915   -2.0147   -0.9778 H   0  0  0  0  0  0  0  0  0  0  0  0
   -0.4543   -0.4657   -1.7310 H   0  0  0  0  0  0  0  0  0  0  0  0
    1.4241   -0.5344   -0.7169 C   0  0  0  0  0  0  0  0  0  0  0  0
    2.4049   -1.4716   -1.0862 C   0  0  0  0  0  0  0  0  0  0  0  0
    2.1143   -2.4773   -1.3767 H   0  0  0  0  0  0  0  0  0  0  0  0
    3.7652   -1.1425   -1.0643 C   0  0  0  0  0  0  0  0  0  0  0  0
    4.4999   -1.8948   -1.3295 H   0  0  0  0  0  0  0  0  0  0  0  0
    4.1680    0.1446   -0.7101 C   0  0  0  0  0  0  0  0  0  0  0  0
    5.4910    0.4793   -0.6827 O   0  0  0  0  0  0  0  0  0  0  0  0
    6.0333   -0.2884   -0.9211 H   0  0  0  0  0  0  0  0  0  0  0  0
    3.2060    1.1025   -0.4041 C   0  0  0  0  0  0  0  0  0  0  0  0
    3.5247    2.1125   -0.1674 H   0  0  0  0  0  0  0  0  0  0  0  0
    1.8458    0.7757   -0.4252 C   0  0  0  0  0  0  0  0  0  0  0  0
    1.1372    1.5738   -0.2476 H   0  0  0  0  0  0  0  0  0  0  0  0
   -1.3075    0.9202    0.4804 C   0  0  0  0  0  0  0  0  0  0  0  0
   -2.1544    1.3951   -0.2681 O   0  0  0  0  0  0  0  0  0  0  0  0
   -0.7236    1.7263    1.4413 N   0  0  0  0  0  0  0  0  0  0  0  0
   -0.0461    1.2967    2.0662 H   0  0  0  0  0  0  0  0  0  0  0  0
   -1.0477    3.1372    1.6118 C   0  0  0  0  0  0  0  0  0  0  0  0
   -2.1121    3.2619    1.8360 H   0  0  0  0  0  0  0  0  0  0  0  0
   -0.4691    3.5610    2.4381 H   0  0  0  0  0  0  0  0  0  0  0  0
   -0.8112    3.6972    0.7011 H   0  0  0  0  0  0  0  0  0  0  0  0
  1  2  1  0  0  0  0
  2  3  1  0  0  0  0
  2  4  1  0  0  0  0
  2  5  1  0  0  0  0
  5  6  2  0  0  0  0
  5  7  1  0  0  0  0
  7  8  1  0  0  0  0
  7  9  1  0  0  0  0
  9 10  1  0  0  0  0
  9 11  1  0  0  0  0
  9 26  1  0  0  0  0
 11 12  1  0  0  0  0
 11 13  1  0  0  0  0
 11 14  1  0  0  0  0
 14 15  2  0  0  0  0
 14 24  1  0  0  0  0
 15 16  1  0  0  0  0
 15 17  1  0  0  0  0
 17 18  1  0  0  0  0
 17 19  2  0  0  0  0
 19 20  1  0  0  0  0
 19 22  1  0  0  0  0
 20 21  1  0  0  0  0
 22 23  1  0  0  0  0
 22 24  2  0  0  0  0
 24 25  1  0  0  0  0
 26 27  2  0  0  0  0
 26 28  1  0  0  0  0
 28 29  1  0  0  0  0
 28 30  1  0  0  0  0
 30 31  1  0  0  0  0
 30 32  1  0  0  0  0
 30 33  1  0  0  0  0
M  END
$$$$

  -OEChem-04042216043D

 33 33  0     1  0  0  0  0  0999 V2000
   -3.8691   -4.0573    1.3107 H   0  0  0  0  0  0  0  0  0  0  0  0
   -3.7990   -3.1481    0.7067 C   0  0  0  0  0  0  0  0  0  0  0  0
   -4.5956   -2.4628    1.0069 H   0  0  0  0  0  0  0  0  0  0  0  0
   -3.9321   -3.4133   -0.3450 H   0  0  0  0  0  0  0  0  0  0  0  0
   -2.4469   -2.4898    0.9067 C   0  0  0  0  0  0  0  0  0  0  0  0
   -1.6332   -2.9856    1.6697 O   0  0  0  0  0  0  0  0  0  0  0  0
   -2.1428   -1.3297    0.2259 N   0  0  0  0  0  0  0  0  0  0  0  0
   -2.8859   -0.8959   -0.3211 H   0  0  0  0  0  0  0  0  0  0  0  0
   -0.9176   -0.5390    0.4246 C   0  0  1  0  0  0  0  0  0  0  0  0
   -0.4145   -0.8138    1.3575 H   0  0  0  0  0  0  0  0  0  0  0  0
   -0.0065   -0.8871   -0.7774 C   0  0  0  0  0  0  0  0  0  0  0  0
   -0.0603   -1.9718   -0.9215 H   0  0  0  0  0  0  0  0  0  0  0  0
   -0.4282   -0.4238   -1.6755 H   0  0  0  0  0  0  0  0  0  0  0  0
    1.4675   -0.5143   -0.7057 C   0  0  0  0  0  0  0  0  0  0  0  0
    2.3770   -1.3327   -1.3990 C   0  0  0  0  0  0  0  0  0  0  0  0
    2.0206   -2.2116   -1.9289 H   0  0  0  0  0  0  0  0  0  0  0  0
    3.7471   -1.0488   -1.4113 C   0  0  0  0  0  0  0  0  0  0  0  0
    4.4241   -1.7094   -1.9418 H   0  0  0  0  0  0  0  0  0  0  0  0
    4.2334    0.0766   -0.7487 C   0  0  0  0  0  0  0  0  0  0  0  0
    5.5676    0.3639   -0.7503 O   0  0  0  0  0  0  0  0  0  0  0  0
    6.0529   -0.3204   -1.2365 H   0  0  0  0  0  0  0  0  0  0  0  0
    3.3436    0.9194   -0.0896 C   0  0  0  0  0  0  0  0  0  0  0  0
    3.7265    1.8061    0.4052 H   0  0  0  0  0  0  0  0  0  0  0  0
    1.9731    0.6363   -0.0744 C   0  0  0  0  0  0  0  0  0  0  0  0
    1.3305    1.3468    0.4206 H   0  0  0  0  0  0  0  0  0  0  0  0
   -1.3384    0.9446    0.5011 C   0  0  0  0  0  0  0  0  0  0  0  0
   -2.1658    1.3826   -0.2913 O   0  0  0  0  0  0  0  0  0  0  0  0
   -0.8277    1.7878    1.4720 N   0  0  0  0  0  0  0  0  0  0  0  0
   -0.2162    1.3784    2.1734 H   0  0  0  0  0  0  0  0  0  0  0  0
   -1.2315    3.1812    1.6166 C   0  0  0  0  0  0  0  0  0  0  0  0
   -2.3106    3.2523    1.7883 H   0  0  0  0  0  0  0  0  0  0  0  0
   -0.7159    3.6384    2.4665 H   0  0  0  0  0  0  0  0  0  0  0  0
   -0.9800    3.7478    0.7139 H   0  0  0  0  0  0  0  0  0  0  0  0
  1  2  1  0  0  0  0
  2  3  1  0  0  0  0
  2  4  1  0  0  0  0
  2  5  1  0  0  0  0
  5  6  2  0  0  0  0
  5  7  1  0  0  0  0
  7  8  1  0  0  0  0
  7  9  1  0  0  0  0
  9 10  1  0  0  0  0
  9 11  1  0  0  0  0
  9 26  1  0  0  0  0
 11 12  1  0  0  0  0
 11 13  1  0  0  0  0
 11 14  1  0  0  0  0
 14 15  2  0  0  0  0
 14 24  1  0  0  0  0
 15 16  1  0  0  0  0
 15 17  1  0  0  0  0
 17 18  1  0  0  0  0
 17 19  2  0  0  0  0
 19 20  1  0  0  0  0
 19 22  1  0  0  0  0
 20 21  1  0  0  0  0
 22 23  1  0  0  0  0
 22 24  2  0  0  0  0
 24 25  1  0  0  0  0
 26 27  2  0  0  0  0
 26 28  1  0  0  0  0
 28 29  1  0  0  0  0
 28 30  1  0  0  0  0
 30 31  1  0  0  0  0
 30 32  1  0  0  0  0
 30 33  1  0  0  0  0
M  END
$$$$

  -OEChem-04042216043D

 33 33  0     1  0  0  0  0  0999 V2000
   -3.8958   -4.0456    1.3308 H   0  0  0  0  0  0  0  0  0  0  0  0
   -3.8171   -3.1451    0.7150 C   0  0  0  0  0  0  0  0  0  0  0  0
   -4.6122   -2.4525    1.0013 H   0  0  0  0  0  0  0  0  0  0  0  0
   -3.9459   -3.4237   -0.3337 H   0  0  0  0  0  0  0  0  0  0  0  0
   -2.4626   -2.4908    0.9154 C   0  0  0  0  0  0  0  0  0  0  0  0
   -1.6595   -2.9774    1.6952 O   0  0  0  0  0  0  0  0  0  0  0  0
   -2.1475   -1.3404    0.2228 N   0  0  0  0  0  0  0  0  0  0  0  0
   -2.8827   -0.9125   -0.3390 H   0  0  0  0  0  0  0  0  0  0  0  0
   -0.9199   -0.5526    0.4187 C   0  0  1  0  0  0  0  0  0  0  0  0
   -0.4172   -0.8287    1.3511 H   0  0  0  0  0  0  0  0  0  0  0  0
   -0.0095   -0.8668   -0.7900 C   0  0  0  0  0  0  0  0  0  0  0  0
   -0.0450   -1.9502   -0.9502 H   0  0  0  0  0  0  0  0  0  0  0  0
   -0.4382   -0.3959   -1.6810 H   0  0  0  0  0  0  0  0  0  0  0  0
    1.4608   -0.4849   -0.7122 C   0  0  0  0  0  0  0  0  0  0  0  0
    2.3227   -1.0569   -1.6629 C   0  0  0  0  0  0  0  0  0  0  0  0
    1.9218   -1.7251   -2.4198 H   0  0  0  0  0  0  0  0  0  0  0  0
    3.6941   -0.7783   -1.6598 C   0  0  0  0  0  0  0  0  0  0  0  0
    4.3321   -1.2316   -2.4106 H   0  0  0  0  0  0  0  0  0  0  0  0
    4.2315    0.0755   -0.6974 C   0  0  0  0  0  0  0  0  0  0  0  0
    5.5670    0.3564   -0.6819 O   0  0  0  0  0  0  0  0  0  0  0  0
    6.0138   -0.1166   -1.4008 H   0  0  0  0  0  0  0  0  0  0  0  0
    3.3945    0.6408    0.2599 C   0  0  0  0  0  0  0  0  0  0  0  0
    3.8222    1.2982    1.0098 H   0  0  0  0  0  0  0  0  0  0  0  0
    2.0232    0.3617    0.2606 C   0  0  0  0  0  0  0  0  0  0  0  0
    1.4280    0.8119    1.0398 H   0  0  0  0  0  0  0  0  0  0  0  0
   -1.3273    0.9378    0.4753 C   0  0  0  0  0  0  0  0  0  0  0  0
   -2.1529    1.3676   -0.3240 O   0  0  0  0  0  0  0  0  0  0  0  0
   -0.8187    1.7960    1.4341 N   0  0  0  0  0  0  0  0  0  0  0  0
   -0.2277    1.3949    2.1564 H   0  0  0  0  0  0  0  0  0  0  0  0
   -1.2127    3.1952    1.5475 C   0  0  0  0  0  0  0  0  0  0  0  0
   -2.2903    3.2781    1.7237 H   0  0  0  0  0  0  0  0  0  0  0  0
   -0.6886    3.6692    2.3830 H   0  0  0  0  0  0  0  0  0  0  0  0
   -0.9627    3.7386    0.6301 H   0  0  0  0  0  0  0  0  0  0  0  0
  1  2  1  0  0  0  0
  2  3  1  0  0  0  0
  2  4  1  0  0  0  0
  2  5  1  0  0  0  0
  5  6  2  0  0  0  0
  5  7  1  0  0  0  0
  7  8  1  0  0  0  0
  7  9  1  0  0  0  0
  9 10  1  0  0  0  0
  9 11  1  0  0  0  0
  9 26  1  0  0  0  0
 11 12  1  0  0  0  0
 11 13  1  0  0  0  0
 11 14  1  0  0  0  0
 14 15  2  0  0  0  0
 14 24  1  0  0  0  0
 15 16  1  0  0  0  0
 15 17  1  0  0  0  0
 17 18  1  0  0  0  0
 17 19  2  0  0  0  0
 19 20  1  0  0  0  0
 19 22  1  0  0  0  0
 20 21  1  0  0  0  0
 22 23  1  0  0  0  0
 22 24  2  0  0  0  0
 24 25  1  0  0  0  0
 26 27  2  0  0  0  0
 26 28  1  0  0  0  0
 28 29  1  0  0  0  0
 28 30  1  0  0  0  0
 30 31  1  0  0  0  0
 30 32  1  0  0  0  0
 30 33  1  0  0  0  0
M  END
$$$$

  -OEChem-04042216043D

 33 33  0     1  0  0  0  0  0999 V2000
   -4.0019   -4.0479    1.3736 H   0  0  0  0  0  0  0  0  0  0  0  0
   -3.9185   -3.1524    0.7512 C   0  0  0  0  0  0  0  0  0  0  0  0
   -4.6962   -2.4441    1.0466 H   0  0  0  0  0  0  0  0  0  0  0  0
   -4.0698   -3.4343   -0.2936 H   0  0  0  0  0  0  0  0  0  0  0  0
   -2.5497   -2.5208    0.9235 C   0  0  0  0  0  0  0  0  0  0  0  0
   -1.7423   -3.0183    1.6920 O   0  0  0  0  0  0  0  0  0  0  0  0
   -2.2280   -1.3832    0.2118 N   0  0  0  0  0  0  0  0  0  0  0  0
   -2.9686   -0.9521   -0.3396 H   0  0  0  0  0  0  0  0  0  0  0  0
   -0.9843   -0.6121    0.3684 C   0  0  1  0  0  0  0  0  0  0  0  0
   -0.5282   -0.9054    1.3160 H   0  0  0  0  0  0  0  0  0  0  0  0
   -0.0354   -0.9412   -0.8045 C   0  0  0  0  0  0  0  0  0  0  0  0
   -0.2360   -1.9710   -1.1193 H   0  0  0  0  0  0  0  0  0  0  0  0
   -0.2828   -0.2944   -1.6538 H   0  0  0  0  0  0  0  0  0  0  0  0
    1.4607   -0.8571   -0.5393 C   0  0  0  0  0  0  0  0  0  0  0  0
    2.3178   -1.1573   -1.6107 C   0  0  0  0  0  0  0  0  0  0  0  0
    1.8986   -1.4383   -2.5728 H   0  0  0  0  0  0  0  0  0  0  0  0
    3.7083   -1.0979   -1.4646 C   0  0  0  0  0  0  0  0  0  0  0  0
    4.3441   -1.3333   -2.3111 H   0  0  0  0  0  0  0  0  0  0  0  0
    4.2685   -0.7383   -0.2394 C   0  0  0  0  0  0  0  0  0  0  0  0
    5.6230   -0.6738   -0.0834 O   0  0  0  0  0  0  0  0  0  0  0  0
    6.0648   -0.9147   -0.9122 H   0  0  0  0  0  0  0  0  0  0  0  0
    3.4342   -0.4433    0.8349 C   0  0  0  0  0  0  0  0  0  0  0  0
    3.8796   -0.1709    1.7861 H   0  0  0  0  0  0  0  0  0  0  0  0
    2.0432   -0.5008    0.6943 C   0  0  0  0  0  0  0  0  0  0  0  0
    1.4499   -0.2665    1.5686 H   0  0  0  0  0  0  0  0  0  0  0  0
   -1.2720    0.9007    0.4249 C   0  0  0  0  0  0  0  0  0  0  0  0
   -2.1063    1.3848   -0.3321 O   0  0  0  0  0  0  0  0  0  0  0  0
   -0.6616    1.7088    1.3665 N   0  0  0  0  0  0  0  0  0  0  0  0
    0.0173    1.2810    1.9884 H   0  0  0  0  0  0  0  0  0  0  0  0
   -0.8960    3.1445    1.4605 C   0  0  0  0  0  0  0  0  0  0  0  0
   -1.9590    3.3498    1.6251 H   0  0  0  0  0  0  0  0  0  0  0  0
   -0.3301    3.5668    2.2965 H   0  0  0  0  0  0  0  0  0  0  0  0
   -0.5784    3.6447    0.5396 H   0  0  0  0  0  0  0  0  0  0  0  0
  1  2  1  0  0  0  0
  2  3  1  0  0  0  0
  2  4  1  0  0  0  0
  2  5  1  0  0  0  0
  5  6  2  0  0  0  0
  5  7  1  0  0  0  0
  7  8  1  0  0  0  0
  7  9  1  0  0  0  0
  9 10  1  0  0  0  0
  9 11  1  0  0  0  0
  9 26  1  0  0  0  0
 11 12  1  0  0  0  0
 11 13  1  0  0  0  0
 11 14  1  0  0  0  0
 14 15  2  0  0  0  0
 14 24  1  0  0  0  0
 15 16  1  0  0  0  0
 15 17  1  0  0  0  0
 17 18  1  0  0  0  0
 17 19  2  0  0  0  0
 19 20  1  0  0  0  0
 19 22  1  0  0  0  0
 20 21  1  0  0  0  0
 22 23  1  0  0  0  0
 22 24  2  0  0  0  0
 24 25  1  0  0  0  0
 26 27  2  0  0  0  0
 26 28  1  0  0  0  0
 28 29  1  0  0  0  0
 28 30  1  0  0  0  0
 30 31  1  0  0  0  0
 30 32  1  0  0  0  0
 30 33  1  0  0  0  0
M  END
$$$$

  -OEChem-04042216043D

 33 33  0     1  0  0  0  0  0999 V2000
   -4.0027   -4.0480    1.3976 H   0  0  0  0  0  0  0  0  0  0  0  0
   -3.9287   -3.1558    0.7694 C   0  0  0  0  0  0  0  0  0  0  0  0
   -4.7049   -2.4477    1.0697 H   0  0  0  0  0  0  0  0  0  0  0  0
   -4.0907   -3.4441   -0.2720 H   0  0  0  0  0  0  0  0  0  0  0  0
   -2.5595   -2.5209    0.9234 C   0  0  0  0  0  0  0  0  0  0  0  0
   -1.7415   -3.0154    1.6831 O   0  0  0  0  0  0  0  0  0  0  0  0
   -2.2471   -1.3850    0.2049 N   0  0  0  0  0  0  0  0  0  0  0  0
   -2.9953   -0.9536   -0.3357 H   0  0  0  0  0  0  0  0  0  0  0  0
   -1.0038   -0.6121    0.3530 C   0  0  1  0  0  0  0  0  0  0  0  0
   -0.5618   -0.8932    1.3080 H   0  0  0  0  0  0  0  0  0  0  0  0
   -0.0457   -0.9411   -0.8121 C   0  0  0  0  0  0  0  0  0  0  0  0
   -0.2335   -1.9742   -1.1229 H   0  0  0  0  0  0  0  0  0  0  0  0
   -0.2968   -0.3018   -1.6658 H   0  0  0  0  0  0  0  0  0  0  0  0
    1.4478   -0.8447   -0.5323 C   0  0  0  0  0  0  0  0  0  0  0  0
    2.3076   -0.8192   -1.6430 C   0  0  0  0  0  0  0  0  0  0  0  0
    1.8929   -0.8459   -2.6468 H   0  0  0  0  0  0  0  0  0  0  0  0
    3.6961   -0.7484   -1.4837 C   0  0  0  0  0  0  0  0  0  0  0  0
    4.3329   -0.7178   -2.3609 H   0  0  0  0  0  0  0  0  0  0  0  0
    4.2535   -0.7209   -0.2062 C   0  0  0  0  0  0  0  0  0  0  0  0
    5.6059   -0.6510   -0.0360 O   0  0  0  0  0  0  0  0  0  0  0  0
    6.0497   -0.6391   -0.8980 H   0  0  0  0  0  0  0  0  0  0  0  0
    3.4189   -0.7772    0.9059 C   0  0  0  0  0  0  0  0  0  0  0  0
    3.8620   -0.7770    1.8965 H   0  0  0  0  0  0  0  0  0  0  0  0
    2.0297   -0.8477    0.7530 C   0  0  0  0  0  0  0  0  0  0  0  0
    1.4430   -0.9222    1.6602 H   0  0  0  0  0  0  0  0  0  0  0  0
   -1.2732    0.9025    0.4088 C   0  0  0  0  0  0  0  0  0  0  0  0
   -2.1180    1.3952   -0.3307 O   0  0  0  0  0  0  0  0  0  0  0  0
   -0.6423    1.6965    1.3485 N   0  0  0  0  0  0  0  0  0  0  0  0
    0.0828    1.2660    1.9150 H   0  0  0  0  0  0  0  0  0  0  0  0
   -0.8476    3.1361    1.4443 C   0  0  0  0  0  0  0  0  0  0  0  0
   -1.9056    3.3621    1.6137 H   0  0  0  0  0  0  0  0  0  0  0  0
   -0.2701    3.5458    2.2786 H   0  0  0  0  0  0  0  0  0  0  0  0
   -0.5240    3.6306    0.5225 H   0  0  0  0  0  0  0  0  0  0  0  0
  1  2  1  0  0  0  0
  2  3  1  0  0  0  0
  2  4  1  0  0  0  0
  2  5  1  0  0  0  0
  5  6  2  0  0  0  0
  5  7  1  0  0  0  0
  7  8  1  0  0  0  0
  7  9  1  0  0  0  0
  9 10  1  0  0  0  0
  9 11  1  0  0  0  0
  9 26  1  0  0  0  0
 11 12  1  0  0  0  0
 11 13  1  0  0  0  0
 11 14  1  0  0  0  0
 14 15  2  0  0  0  0
 14 24  1  0  0  0  0
 15 16  1  0  0  0  0
 15 17  1  0  0  0  0
 17 18  1  0  0  0  0
 17 19  2  0  0  0  0
 19 20  1  0  0  0  0
 19 22  1  0  0  0  0
 20 21  1  0  0  0  0
 22 23  1  0  0  0  0
 22 24  2  0  0  0  0
 24 25  1  0  0  0  0
 26 27  2  0  0  0  0
 26 28  1  0  0  0  0
 28 29  1  0  0  0  0
 28 30  1  0  0  0  0
 30 31  1  0  0  0  0
 30 32  1  0  0  0  0
 30 33  1  0  0  0  0
M  END
$$$$

  -OEChem-04042216043D

 33 33  0     1  0  0  0  0  0999 V2000
   -3.9768   -4.0390    1.4579 H   0  0  0  0  0  0  0  0  0  0  0  0
   -3.9149   -3.1532    0.8195 C   0  0  0  0  0  0  0  0  0  0  0  0
   -4.6811   -2.4394    1.1320 H   0  0  0  0  0  0  0  0  0  0  0  0
   -4.1036   -3.4514   -0.2146 H   0  0  0  0  0  0  0  0  0  0  0  0
   -2.5401   -2.5215    0.9332 C   0  0  0  0  0  0  0  0  0  0  0  0
   -1.6995   -3.0193    1.6660 O   0  0  0  0  0  0  0  0  0  0  0  0
   -2.2453   -1.3860    0.2069 N   0  0  0  0  0  0  0  0  0  0  0  0
   -3.0072   -0.9496   -0.3101 H   0  0  0  0  0  0  0  0  0  0  0  0
   -0.9991   -0.6150    0.3321 C   0  0  1  0  0  0  0  0  0  0  0  0
   -0.5358   -0.8842    1.2811 H   0  0  0  0  0  0  0  0  0  0  0  0
   -0.0619   -0.9387   -0.8506 C   0  0  0  0  0  0  0  0  0  0  0  0
   -0.2444   -1.9719   -1.1642 H   0  0  0  0  0  0  0  0  0  0  0  0
   -0.3229   -0.2976   -1.6998 H   0  0  0  0  0  0  0  0  0  0  0  0
    1.4241   -0.8311   -0.5516 C   0  0  0  0  0  0  0  0  0  0  0  0
    2.2881   -0.4690   -1.5981 C   0  0  0  0  0  0  0  0  0  0  0  0
    1.8825   -0.2249   -2.5759 H   0  0  0  0  0  0  0  0  0  0  0  0
    3.6716   -0.3975   -1.3994 C   0  0  0  0  0  0  0  0  0  0  0  0
    4.3131   -0.0948   -2.2197 H   0  0  0  0  0  0  0  0  0  0  0  0
    4.2183   -0.7192   -0.1574 C   0  0  0  0  0  0  0  0  0  0  0  0
    5.5658   -0.6525    0.0489 O   0  0  0  0  0  0  0  0  0  0  0  0
    6.0141   -0.3853   -0.7683 H   0  0  0  0  0  0  0  0  0  0  0  0
    3.3801   -1.1323    0.8743 C   0  0  0  0  0  0  0  0  0  0  0  0
    3.8155   -1.4129    1.8281 H   0  0  0  0  0  0  0  0  0  0  0  0
    1.9966   -1.2068    0.6801 C   0  0  0  0  0  0  0  0  0  0  0  0
    1.3949   -1.5888    1.4983 H   0  0  0  0  0  0  0  0  0  0  0  0
   -1.2641    0.8998    0.3938 C   0  0  0  0  0  0  0  0  0  0  0  0
   -2.1202    1.3962   -0.3300 O   0  0  0  0  0  0  0  0  0  0  0  0
   -0.6126    1.6893    1.3230 N   0  0  0  0  0  0  0  0  0  0  0  0
    0.1278    1.2551    1.8677 H   0  0  0  0  0  0  0  0  0  0  0  0
   -0.8067    3.1302    1.4230 C   0  0  0  0  0  0  0  0  0  0  0  0
   -1.8603    3.3637    1.6093 H   0  0  0  0  0  0  0  0  0  0  0  0
   -0.2134    3.5353    2.2484 H   0  0  0  0  0  0  0  0  0  0  0  0
   -0.4939    3.6232    0.4966 H   0  0  0  0  0  0  0  0  0  0  0  0
  1  2  1  0  0  0  0
  2  3  1  0  0  0  0
  2  4  1  0  0  0  0
  2  5  1  0  0  0  0
  5  6  2  0  0  0  0
  5  7  1  0  0  0  0
  7  8  1  0  0  0  0
  7  9  1  0  0  0  0
  9 10  1  0  0  0  0
  9 11  1  0  0  0  0
  9 26  1  0  0  0  0
 11 12  1  0  0  0  0
 11 13  1  0  0  0  0
 11 14  1  0  0  0  0
 14 15  2  0  0  0  0
 14 24  1  0  0  0  0
 15 16  1  0  0  0  0
 15 17  1  0  0  0  0
 17 18  1  0  0  0  0
 17 19  2  0  0  0  0
 19 20  1  0  0  0  0
 19 22  1  0  0  0  0
 20 21  1  0  0  0  0
 22 23  1  0  0  0  0
 22 24  2  0  0  0  0
 24 25  1  0  0  0  0
 26 27  2  0  0  0  0
 26 28  1  0  0  0  0
 28 29  1  0  0  0  0
 28 30  1  0  0  0  0
 30 31  1  0  0  0  0
 30 32  1  0  0  0  0
 30 33  1  0  0  0  0
M  END
$$$$

  -OEChem-04042216043D

 33 33  0     1  0  0  0  0  0999 V2000
   -3.9581   -4.0357    1.5027 H   0  0  0  0  0  0  0  0  0  0  0  0
   -3.9030   -3.1558    0.8557 C   0  0  0  0  0  0  0  0  0  0  0  0
   -4.6580   -2.4343    1.1773 H   0  0  0  0  0  0  0  0  0  0  0  0
   -4.1138   -3.4603   -0.1723 H   0  0  0  0  0  0  0  0  0  0  0  0
   -2.5222   -2.5326    0.9366 C   0  0  0  0  0  0  0  0  0  0  0  0
   -1.6619   -3.0423    1.6379 O   0  0  0  0  0  0  0  0  0  0  0  0
   -2.2424   -1.3936    0.2101 N   0  0  0  0  0  0  0  0  0  0  0  0
   -3.0154   -0.9518   -0.2850 H   0  0  0  0  0  0  0  0  0  0  0  0
   -0.9895   -0.6300    0.3051 C   0  0  1  0  0  0  0  0  0  0  0  0
   -0.4926   -0.9080    1.2371 H   0  0  0  0  0  0  0  0  0  0  0  0
   -0.0864   -0.9551   -0.9006 C   0  0  0  0  0  0  0  0  0  0  0  0
   -0.2703   -1.9878   -1.2145 H   0  0  0  0  0  0  0  0  0  0  0  0
   -0.3549   -0.3115   -1.7453 H   0  0  0  0  0  0  0  0  0  0  0  0
    1.3909   -0.8413   -0.5851 C   0  0  0  0  0  0  0  0  0  0  0  0
    2.2398   -0.1799   -1.4861 C   0  0  0  0  0  0  0  0  0  0  0  0
    1.8297    0.2855   -2.3780 H   0  0  0  0  0  0  0  0  0  0  0  0
    3.6154   -0.0960   -1.2414 C   0  0  0  0  0  0  0  0  0  0  0  0
    4.2497    0.4354   -1.9425 H   0  0  0  0  0  0  0  0  0  0  0  0
    4.1643   -0.6959   -0.1069 C   0  0  0  0  0  0  0  0  0  0  0  0
    5.5042   -0.6176    0.1411 O   0  0  0  0  0  0  0  0  0  0  0  0
    5.9458   -0.1285   -0.5702 H   0  0  0  0  0  0  0  0  0  0  0  0
    3.3372   -1.3941    0.7700 C   0  0  0  0  0  0  0  0  0  0  0  0
    3.7742   -1.8812    1.6358 H   0  0  0  0  0  0  0  0  0  0  0  0
    1.9619   -1.4822    0.5292 C   0  0  0  0  0  0  0  0  0  0  0  0
    1.3492   -2.0695    1.2084 H   0  0  0  0  0  0  0  0  0  0  0  0
   -1.2394    0.8862    0.3849 C   0  0  0  0  0  0  0  0  0  0  0  0
   -2.1051    1.3975   -0.3169 O   0  0  0  0  0  0  0  0  0  0  0  0
   -0.5538    1.6615    1.3014 N   0  0  0  0  0  0  0  0  0  0  0  0
    0.1897    1.2118    1.8295 H   0  0  0  0  0  0  0  0  0  0  0  0
   -0.7274    3.1037    1.4186 C   0  0  0  0  0  0  0  0  0  0  0  0
   -1.7767    3.3498    1.6126 H   0  0  0  0  0  0  0  0  0  0  0  0
   -0.1248    3.4902    2.2462 H   0  0  0  0  0  0  0  0  0  0  0  0
   -0.4125    3.6030    0.4963 H   0  0  0  0  0  0  0  0  0  0  0  0
  1  2  1  0  0  0  0
  2  3  1  0  0  0  0
  2  4  1  0  0  0  0
  2  5  1  0  0  0  0
  5  6  2  0  0  0  0
  5  7  1  0  0  0  0
  7  8  1  0  0  0  0
  7  9  1  0  0  0  0
  9 10  1  0  0  0  0
  9 11  1  0  0  0  0
  9 26  1  0  0  0  0
 11 12  1  0  0  0  0
 11 13  1  0  0  0  0
 11 14  1  0  0  0  0
 14 15  2  0  0  0  0
 14 24  1  0  0  0  0
 15 16  1  0  0  0  0
 15 17  1  0  0  0  0
 17 18  1  0  0  0  0
 17 19  2  0  0  0  0
 19 20  1  0  0  0  0
 19 22  1  0  0  0  0
 20 21  1  0  0  0  0
 22 23  1  0  0  0  0
 22 24  2  0  0  0  0
 24 25  1  0  0  0  0
 26 27  2  0  0  0  0
 26 28  1  0  0  0  0
 28 29  1  0  0  0  0
 28 30  1  0  0  0  0
 30 31  1  0  0  0  0
 30 32  1  0  0  0  0
 30 33  1  0  0  0  0
M  END
$$$$

  -OEChem-04042216043D

 33 33  0     1  0  0  0  0  0999 V2000
   -3.9406   -4.0284    1.5337 H   0  0  0  0  0  0  0  0  0  0  0  0
   -3.8933   -3.1497    0.8844 C   0  0  0  0  0  0  0  0  0  0  0  0
   -4.6264   -2.4168    1.2298 H   0  0  0  0  0  0  0  0  0  0  0  0
   -4.1421   -3.4512   -0.1358 H   0  0  0  0  0  0  0  0  0  0  0  0
   -2.5020   -2.5464    0.9201 C   0  0  0  0  0  0  0  0  0  0  0  0
   -1.6228   -3.0767    1.5817 O   0  0  0  0  0  0  0  0  0  0  0  0
   -2.2349   -1.4017    0.1979 N   0  0  0  0  0  0  0  0  0  0  0  0
   -3.0201   -0.9454   -0.2641 H   0  0  0  0  0  0  0  0  0  0  0  0
   -0.9762   -0.6455    0.2712 C   0  0  1  0  0  0  0  0  0  0  0  0
   -0.4524   -0.9378    1.1863 H   0  0  0  0  0  0  0  0  0  0  0  0
   -0.1005   -0.9711   -0.9511 C   0  0  0  0  0  0  0  0  0  0  0  0
   -0.2910   -2.0018   -1.2682 H   0  0  0  0  0  0  0  0  0  0  0  0
   -0.3702   -0.3221   -1.7913 H   0  0  0  0  0  0  0  0  0  0  0  0
    1.3704   -0.8556   -0.6224 C   0  0  0  0  0  0  0  0  0  0  0  0
    2.1816    0.0551   -1.3162 C   0  0  0  0  0  0  0  0  0  0  0  0
    1.7501    0.7013   -2.0756 H   0  0  0  0  0  0  0  0  0  0  0  0
    3.5492    0.1476   -1.0307 C   0  0  0  0  0  0  0  0  0  0  0  0
    4.1589    0.8643   -1.5701 H   0  0  0  0  0  0  0  0  0  0  0  0
    4.1219   -0.6792   -0.0617 C   0  0  0  0  0  0  0  0  0  0  0  0
    5.4545   -0.5983    0.2227 O   0  0  0  0  0  0  0  0  0  0  0  0
    5.8797    0.0543   -0.3546 H   0  0  0  0  0  0  0  0  0  0  0  0
    3.3257   -1.6005    0.6163 C   0  0  0  0  0  0  0  0  0  0  0  0
    3.7798   -2.2476    1.3598 H   0  0  0  0  0  0  0  0  0  0  0  0
    1.9587   -1.6974    0.3357 C   0  0  0  0  0  0  0  0  0  0  0  0
    1.3560   -2.4345    0.8623 H   0  0  0  0  0  0  0  0  0  0  0  0
   -1.2157    0.8709    0.3718 C   0  0  0  0  0  0  0  0  0  0  0  0
   -2.0902    1.3951   -0.3090 O   0  0  0  0  0  0  0  0  0  0  0  0
   -0.5051    1.6336    1.2796 N   0  0  0  0  0  0  0  0  0  0  0  0
    0.2393    1.1715    1.7960 H   0  0  0  0  0  0  0  0  0  0  0  0
   -0.6782    3.0730    1.4270 C   0  0  0  0  0  0  0  0  0  0  0  0
   -1.7192    3.3119    1.6687 H   0  0  0  0  0  0  0  0  0  0  0  0
   -0.0426    3.4491    2.2344 H   0  0  0  0  0  0  0  0  0  0  0  0
   -0.4039    3.5882    0.5006 H   0  0  0  0  0  0  0  0  0  0  0  0
  1  2  1  0  0  0  0
  2  3  1  0  0  0  0
  2  4  1  0  0  0  0
  2  5  1  0  0  0  0
  5  6  2  0  0  0  0
  5  7  1  0  0  0  0
  7  8  1  0  0  0  0
  7  9  1  0  0  0  0
  9 10  1  0  0  0  0
  9 11  1  0  0  0  0
  9 26  1  0  0  0  0
 11 12  1  0  0  0  0
 11 13  1  0  0  0  0
 11 14  1  0  0  0  0
 14 15  2  0  0  0  0
 14 24  1  0  0  0  0
 15 16  1  0  0  0  0
 15 17  1  0  0  0  0
 17 18  1  0  0  0  0
 17 19  2  0  0  0  0
 19 20  1  0  0  0  0
 19 22  1  0  0  0  0
 20 21  1  0  0  0  0
 22 23  1  0  0  0  0
 22 24  2  0  0  0  0
 24 25  1  0  0  0  0
 26 27  2  0  0  0  0
 26 28  1  0  0  0  0
 28 29  1  0  0  0  0
 28 30  1  0  0  0  0
 30 31  1  0  0  0  0
 30 32  1  0  0  0  0
 30 33  1  0  0  0  0
M  END
$$$$

  -OEChem-04042216043D

 33 33  0     1  0  0  0  0  0999 V2000
   -3.9350   -4.0232    1.5422 H   0  0  0  0  0  0  0  0  0  0  0  0
   -3.8928   -3.1433    0.8941 C   0  0  0  0  0  0  0  0  0  0  0  0
   -4.6116   -2.4045    1.2567 H   0  0  0  0  0  0  0  0  0  0  0  0
   -4.1665   -3.4398   -0.1213 H   0  0  0  0  0  0  0  0  0  0  0  0
   -2.4943   -2.5551    0.9028 C   0  0  0  0  0  0  0  0  0  0  0  0
   -1.6052   -3.1053    1.5339 O   0  0  0  0  0  0  0  0  0  0  0  0
   -2.2315   -1.4052    0.1873 N   0  0  0  0  0  0  0  0  0  0  0  0
   -3.0230   -0.9358   -0.2497 H   0  0  0  0  0  0  0  0  0  0  0  0
   -0.9661   -0.6585    0.2435 C   0  0  1  0  0  0  0  0  0  0  0  0
   -0.4247   -0.9662    1.1440 H   0  0  0  0  0  0  0  0  0  0  0  0
   -0.1108   -0.9868   -0.9899 C   0  0  0  0  0  0  0  0  0  0  0  0
   -0.3111   -2.0141   -1.3124 H   0  0  0  0  0  0  0  0  0  0  0  0
   -0.3773   -0.3298   -1.8249 H   0  0  0  0  0  0  0  0  0  0  0  0
    1.3566   -0.8748   -0.6565 C   0  0  0  0  0  0  0  0  0  0  0  0
    2.1054    0.2239   -1.1026 C   0  0  0  0  0  0  0  0  0  0  0  0
    1.6307    1.0014   -1.6950 H   0  0  0  0  0  0  0  0  0  0  0  0
    3.4650    0.3285   -0.7861 C   0  0  0  0  0  0  0  0  0  0  0  0
    4.0296    1.1846   -1.1389 H   0  0  0  0  0  0  0  0  0  0  0  0
    4.0869   -0.6630   -0.0237 C   0  0  0  0  0  0  0  0  0  0  0  0
    5.4118   -0.5693    0.2907 O   0  0  0  0  0  0  0  0  0  0  0  0
    5.7956    0.2227   -0.1159 H   0  0  0  0  0  0  0  0  0  0  0  0
    3.3467   -1.7574    0.4207 C   0  0  0  0  0  0  0  0  0  0  0  0
    3.8363   -2.5240    1.0127 H   0  0  0  0  0  0  0  0  0  0  0  0
    1.9878   -1.8683    0.1065 C   0  0  0  0  0  0  0  0  0  0  0  0
    1.4207   -2.7267    0.4598 H   0  0  0  0  0  0  0  0  0  0  0  0
   -1.1912    0.8587    0.3631 C   0  0  0  0  0  0  0  0  0  0  0  0
   -2.0733    1.3970   -0.2964 O   0  0  0  0  0  0  0  0  0  0  0  0
   -0.4574    1.6075    1.2638 N   0  0  0  0  0  0  0  0  0  0  0  0
    0.2868    1.1327    1.7688 H   0  0  0  0  0  0  0  0  0  0  0  0
   -0.6261    3.0445    1.4388 C   0  0  0  0  0  0  0  0  0  0  0  0
   -1.6588    3.2783    1.7182 H   0  0  0  0  0  0  0  0  0  0  0  0
    0.0354    3.4089    2.2306 H   0  0  0  0  0  0  0  0  0  0  0  0
   -0.3829    3.5745    0.5120 H   0  0  0  0  0  0  0  0  0  0  0  0
  1  2  1  0  0  0  0
  2  3  1  0  0  0  0
  2  4  1  0  0  0  0
  2  5  1  0  0  0  0
  5  6  2  0  0  0  0
  5  7  1  0  0  0  0
  7  8  1  0  0  0  0
  7  9  1  0  0  0  0
  9 10  1  0  0  0  0
  9 11  1  0  0  0  0
  9 26  1  0  0  0  0
 11 12  1  0  0  0  0
 11 13  1  0  0  0  0
 11 14  1  0  0  0  0
 14 15  2  0  0  0  0
 14 24  1  0  0  0  0
 15 16  1  0  0  0  0
 15 17  1  0  0  0  0
 17 18  1  0  0  0  0
 17 19  2  0  0  0  0
 19 20  1  0  0  0  0
 19 22  1  0  0  0  0
 20 21  1  0  0  0  0
 22 23  1  0  0  0  0
 22 24  2  0  0  0  0
 24 25  1  0  0  0  0
 26 27  2  0  0  0  0
 26 28  1  0  0  0  0
 28 29  1  0  0  0  0
 28 30  1  0  0  0  0
 30 31  1  0  0  0  0
 30 32  1  0  0  0  0
 30 33  1  0  0  0  0
M  END
$$$$

  -OEChem-04042216043D

 33 33  0     1  0  0  0  0  0999 V2000
   -3.9372   -4.0192    1.5317 H   0  0  0  0  0  0  0  0  0  0  0  0
   -3.8916   -3.1373    0.8867 C   0  0  0  0  0  0  0  0  0  0  0  0
   -4.6084   -2.3975    1.2510 H   0  0  0  0  0  0  0  0  0  0  0  0
   -4.1648   -3.4293   -0.1301 H   0  0  0  0  0  0  0  0  0  0  0  0
   -2.4917   -2.5528    0.8979 C   0  0  0  0  0  0  0  0  0  0  0  0
   -1.6046   -3.1070    1.5278 O   0  0  0  0  0  0  0  0  0  0  0  0
   -2.2274   -1.4008    0.1864 N   0  0  0  0  0  0  0  0  0  0  0  0
   -3.0187   -0.9295   -0.2493 H   0  0  0  0  0  0  0  0  0  0  0  0
   -0.9588   -0.6587    0.2357 C   0  0  1  0  0  0  0  0  0  0  0  0
   -0.4082   -0.9733    1.1291 H   0  0  0  0  0  0  0  0  0  0  0  0
   -0.1147   -0.9943   -1.0037 C   0  0  0  0  0  0  0  0  0  0  0  0
   -0.3280   -2.0186   -1.3278 H   0  0  0  0  0  0  0  0  0  0  0  0
   -0.3781   -0.3329   -1.8359 H   0  0  0  0  0  0  0  0  0  0  0  0
    1.3551   -0.8884   -0.6793 C   0  0  0  0  0  0  0  0  0  0  0  0
    2.0345    0.3268   -0.8518 C   0  0  0  0  0  0  0  0  0  0  0  0
    1.5088    1.1926   -1.2458 H   0  0  0  0  0  0  0  0  0  0  0  0
    3.3907    0.4323   -0.5219 C   0  0  0  0  0  0  0  0  0  0  0  0
    3.9028    1.3773   -0.6666 H   0  0  0  0  0  0  0  0  0  0  0  0
    4.0767   -0.6721   -0.0114 C   0  0  0  0  0  0  0  0  0  0  0  0
    5.3990   -0.5798    0.3142 O   0  0  0  0  0  0  0  0  0  0  0  0
    5.7339    0.3048    0.1017 H   0  0  0  0  0  0  0  0  0  0  0  0
    3.4032   -1.8790    0.1702 C   0  0  0  0  0  0  0  0  0  0  0  0
    3.9412   -2.7313    0.5729 H   0  0  0  0  0  0  0  0  0  0  0  0
    2.0479   -1.9910   -0.1595 C   0  0  0  0  0  0  0  0  0  0  0  0
    1.5320   -2.9351   -0.0022 H   0  0  0  0  0  0  0  0  0  0  0  0
   -1.1814    0.8581    0.3634 C   0  0  0  0  0  0  0  0  0  0  0  0
   -2.0606    1.4031   -0.2941 O   0  0  0  0  0  0  0  0  0  0  0  0
   -0.4396    1.6015    1.2622 N   0  0  0  0  0  0  0  0  0  0  0  0
    0.2878    1.1164    1.7818 H   0  0  0  0  0  0  0  0  0  0  0  0
   -0.6127    3.0353    1.4565 C   0  0  0  0  0  0  0  0  0  0  0  0
   -1.6425    3.2607    1.7530 H   0  0  0  0  0  0  0  0  0  0  0  0
    0.0586    3.3935    2.2430 H   0  0  0  0  0  0  0  0  0  0  0  0
   -0.3854    3.5772    0.5326 H   0  0  0  0  0  0  0  0  0  0  0  0
  1  2  1  0  0  0  0
  2  3  1  0  0  0  0
  2  4  1  0  0  0  0
  2  5  1  0  0  0  0
  5  6  2  0  0  0  0
  5  7  1  0  0  0  0
  7  8  1  0  0  0  0
  7  9  1  0  0  0  0
  9 10  1  0  0  0  0
  9 11  1  0  0  0  0
  9 26  1  0  0  0  0
 11 12  1  0  0  0  0
 11 13  1  0  0  0  0
 11 14  1  0  0  0  0
 14 15  2  0  0  0  0
 14 24  1  0  0  0  0
 15 16  1  0  0  0  0
 15 17  1  0  0  0  0
 17 18  1  0  0  0  0
 17 19  2  0  0  0  0
 19 20  1  0  0  0  0
 19 22  1  0  0  0  0
 20 21  1  0  0  0  0
 22 23  1  0  0  0  0
 22 24  2  0  0  0  0
 24 25  1  0  0  0  0
 26 27  2  0  0  0  0
 26 28  1  0  0  0  0
 28 29  1  0  0  0  0
 28 30  1  0  0  0  0
 30 31  1  0  0  0  0
 30 32  1  0  0  0  0
 30 33  1  0  0  0  0
M  END
$$$$

  -OEChem-04042216043D

 33 33  0     1  0  0  0  0  0999 V2000
   -3.9310   -4.0173    1.5099 H   0  0  0  0  0  0  0  0  0  0  0  0
   -3.8823   -3.1316    0.8701 C   0  0  0  0  0  0  0  0  0  0  0  0
   -4.6080   -2.3978    1.2293 H   0  0  0  0  0  0  0  0  0  0  0  0
   -4.1412   -3.4199   -0.1515 H   0  0  0  0  0  0  0  0  0  0  0  0
   -2.4858   -2.5390    0.9022 C   0  0  0  0  0  0  0  0  0  0  0  0
   -1.6070   -3.0856    1.5496 O   0  0  0  0  0  0  0  0  0  0  0  0
   -2.2161   -1.3867    0.1933 N   0  0  0  0  0  0  0  0  0  0  0  0
   -3.0018   -0.9217   -0.2590 H   0  0  0  0  0  0  0  0  0  0  0  0
   -0.9491   -0.6421    0.2513 C   0  0  1  0  0  0  0  0  0  0  0  0
   -0.3971   -0.9537    1.1450 H   0  0  0  0  0  0  0  0  0  0  0  0
   -0.1061   -0.9890   -0.9889 C   0  0  0  0  0  0  0  0  0  0  0  0
   -0.3355   -2.0103   -1.3111 H   0  0  0  0  0  0  0  0  0  0  0  0
   -0.3673   -0.3258   -1.8203 H   0  0  0  0  0  0  0  0  0  0  0  0
    1.3724   -0.8938   -0.6912 C   0  0  0  0  0  0  0  0  0  0  0  0
    2.0022    0.3557   -0.5781 C   0  0  0  0  0  0  0  0  0  0  0  0
    1.4399    1.2681   -0.7556 H   0  0  0  0  0  0  0  0  0  0  0  0
    3.3617    0.4395   -0.2561 C   0  0  0  0  0  0  0  0  0  0  0  0
    3.8337    1.4132   -0.1837 H   0  0  0  0  0  0  0  0  0  0  0  0
    4.1030   -0.7229   -0.0344 C   0  0  0  0  0  0  0  0  0  0  0  0
    5.4290   -0.6528    0.2815 O   0  0  0  0  0  0  0  0  0  0  0  0
    5.7203    0.2717    0.2946 H   0  0  0  0  0  0  0  0  0  0  0  0
    3.4813   -1.9661   -0.1343 C   0  0  0  0  0  0  0  0  0  0  0  0
    4.0619   -2.8652    0.0458 H   0  0  0  0  0  0  0  0  0  0  0  0
    2.1227   -2.0556   -0.4577 C   0  0  0  0  0  0  0  0  0  0  0  0
    1.6509   -3.0329   -0.5159 H   0  0  0  0  0  0  0  0  0  0  0  0
   -1.1939    0.8718    0.3771 C   0  0  0  0  0  0  0  0  0  0  0  0
   -2.0661    1.4078   -0.2967 O   0  0  0  0  0  0  0  0  0  0  0  0
   -0.4707    1.6263    1.2822 N   0  0  0  0  0  0  0  0  0  0  0  0
    0.2293    1.1437    1.8403 H   0  0  0  0  0  0  0  0  0  0  0  0
   -0.6762    3.0550    1.4836 C   0  0  0  0  0  0  0  0  0  0  0  0
   -1.7094    3.2551    1.7867 H   0  0  0  0  0  0  0  0  0  0  0  0
   -0.0087    3.4258    2.2675 H   0  0  0  0  0  0  0  0  0  0  0  0
   -0.4662    3.6054    0.5604 H   0  0  0  0  0  0  0  0  0  0  0  0
  1  2  1  0  0  0  0
  2  3  1  0  0  0  0
  2  4  1  0  0  0  0
  2  5  1  0  0  0  0
  5  6  2  0  0  0  0
  5  7  1  0  0  0  0
  7  8  1  0  0  0  0
  7  9  1  0  0  0  0
  9 10  1  0  0  0  0
  9 11  1  0  0  0  0
  9 26  1  0  0  0  0
 11 12  1  0  0  0  0
 11 13  1  0  0  0  0
 11 14  1  0  0  0  0
 14 15  2  0  0  0  0
 14 24  1  0  0  0  0
 15 16  1  0  0  0  0
 15 17  1  0  0  0  0
 17 18  1  0  0  0  0
 17 19  2  0  0  0  0
 19 20  1  0  0  0  0
 19 22  1  0  0  0  0
 20 21  1  0  0  0  0
 22 23  1  0  0  0  0
 22 24  2  0  0  0  0
 24 25  1  0  0  0  0
 26 27  2  0  0  0  0
 26 28  1  0  0  0  0
 28 29  1  0  0  0  0
 28 30  1  0  0  0  0
 30 31  1  0  0  0  0
 30 32  1  0  0  0  0
 30 33  1  0  0  0  0
M  END
$$$$

  -OEChem-04042216043D

 33 33  0     1  0  0  0  0  0999 V2000
   -3.9160   -4.0200    1.4589 H   0  0  0  0  0  0  0  0  0  0  0  0
   -3.8606   -3.1247    0.8333 C   0  0  0  0  0  0  0  0  0  0  0  0
   -4.6081   -2.4066    1.1791 H   0  0  0  0  0  0  0  0  0  0  0  0
   -4.0823   -3.4028   -0.1999 H   0  0  0  0  0  0  0  0  0  0  0  0
   -2.4758   -2.5110    0.9187 C   0  0  0  0  0  0  0  0  0  0  0  0
   -1.6207   -3.0303    1.6180 O   0  0  0  0  0  0  0  0  0  0  0  0
   -2.1934   -1.3630    0.2081 N   0  0  0  0  0  0  0  0  0  0  0  0
   -2.9640   -0.9179   -0.2883 H   0  0  0  0  0  0  0  0  0  0  0  0
   -0.9342   -0.6070    0.2964 C   0  0  1  0  0  0  0  0  0  0  0  0
   -0.3925   -0.9032    1.2009 H   0  0  0  0  0  0  0  0  0  0  0  0
   -0.0772   -0.9703   -0.9350 C   0  0  0  0  0  0  0  0  0  0  0  0
   -0.3217   -1.9905   -1.2491 H   0  0  0  0  0  0  0  0  0  0  0  0
   -0.3367   -0.3120   -1.7709 H   0  0  0  0  0  0  0  0  0  0  0  0
    1.4141   -0.8910   -0.6760 C   0  0  0  0  0  0  0  0  0  0  0  0
    2.0349    0.3071   -0.2847 C   0  0  0  0  0  0  0  0  0  0  0  0
    1.4686    1.2303   -0.2328 H   0  0  0  0  0  0  0  0  0  0  0  0
    3.4054    0.3423   -0.0018 C   0  0  0  0  0  0  0  0  0  0  0  0
    3.8672    1.2805    0.2854 H   0  0  0  0  0  0  0  0  0  0  0  0
    4.1726   -0.8198   -0.0971 C   0  0  0  0  0  0  0  0  0  0  0  0
    5.5104   -0.7969    0.1746 O   0  0  0  0  0  0  0  0  0  0  0  0
    5.7895    0.1031    0.4022 H   0  0  0  0  0  0  0  0  0  0  0  0
    3.5650   -2.0145   -0.4751 C   0  0  0  0  0  0  0  0  0  0  0  0
    4.1655   -2.9158   -0.5422 H   0  0  0  0  0  0  0  0  0  0  0  0
    2.1959   -2.0544   -0.7604 C   0  0  0  0  0  0  0  0  0  0  0  0
    1.7420   -3.0014   -1.0389 H   0  0  0  0  0  0  0  0  0  0  0  0
   -1.2287    0.9010    0.4002 C   0  0  0  0  0  0  0  0  0  0  0  0
   -2.0884    1.4057   -0.3129 O   0  0  0  0  0  0  0  0  0  0  0  0
   -0.5599    1.6881    1.3199 N   0  0  0  0  0  0  0  0  0  0  0  0
    0.0913    1.2222    1.9469 H   0  0  0  0  0  0  0  0  0  0  0  0
   -0.8439    3.1039    1.5192 C   0  0  0  0  0  0  0  0  0  0  0  0
   -1.8871    3.2462    1.8207 H   0  0  0  0  0  0  0  0  0  0  0  0
   -0.1982    3.5127    2.3024 H   0  0  0  0  0  0  0  0  0  0  0  0
   -0.6638    3.6645    0.5958 H   0  0  0  0  0  0  0  0  0  0  0  0
  1  2  1  0  0  0  0
  2  3  1  0  0  0  0
  2  4  1  0  0  0  0
  2  5  1  0  0  0  0
  5  6  2  0  0  0  0
  5  7  1  0  0  0  0
  7  8  1  0  0  0  0
  7  9  1  0  0  0  0
  9 10  1  0  0  0  0
  9 11  1  0  0  0  0
  9 26  1  0  0  0  0
 11 12  1  0  0  0  0
 11 13  1  0  0  0  0
 11 14  1  0  0  0  0
 14 15  2  0  0  0  0
 14 24  1  0  0  0  0
 15 16  1  0  0  0  0
 15 17  1  0  0  0  0
 17 18  1  0  0  0  0
 17 19  2  0  0  0  0
 19 20  1  0  0  0  0
 19 22  1  0  0  0  0
 20 21  1  0  0  0  0
 22 23  1  0  0  0  0
 22 24  2  0  0  0  0
 24 25  1  0  0  0  0
 26 27  2  0  0  0  0
 26 28  1  0  0  0  0
 28 29  1  0  0  0  0
 28 30  1  0  0  0  0
 30 31  1  0  0  0  0
 30 32  1  0  0  0  0
 30 33  1  0  0  0  0
M  END
$$$$

  -OEChem-04042216043D

 33 33  0     1  0  0  0  0  0999 V2000
   -3.9235   -4.0187    1.4104 H   0  0  0  0  0  0  0  0  0  0  0  0
   -3.8512   -3.1232    0.7869 C   0  0  0  0  0  0  0  0  0  0  0  0
   -4.6269   -2.4171    1.0929 H   0  0  0  0  0  0  0  0  0  0  0  0
   -4.0161   -3.4057   -0.2557 H   0  0  0  0  0  0  0  0  0  0  0  0
   -2.4824   -2.4874    0.9407 C   0  0  0  0  0  0  0  0  0  0  0  0
   -1.6625   -2.9799    1.6988 O   0  0  0  0  0  0  0  0  0  0  0  0
   -2.1754   -1.3475    0.2277 N   0  0  0  0  0  0  0  0  0  0  0  0
   -2.9220   -0.9190   -0.3178 H   0  0  0  0  0  0  0  0  0  0  0  0
   -0.9248   -0.5832    0.3599 C   0  0  1  0  0  0  0  0  0  0  0  0
   -0.4049   -0.8644    1.2817 H   0  0  0  0  0  0  0  0  0  0  0  0
   -0.0417   -0.9503   -0.8561 C   0  0  0  0  0  0  0  0  0  0  0  0
   -0.2923   -1.9704   -1.1664 H   0  0  0  0  0  0  0  0  0  0  0  0
   -0.2939   -0.2951   -1.6963 H   0  0  0  0  0  0  0  0  0  0  0  0
    1.4581   -0.8903   -0.6214 C   0  0  0  0  0  0  0  0  0  0  0  0
    2.0881    0.1754    0.0442 C   0  0  0  0  0  0  0  0  0  0  0  0
    1.5263    1.0401    0.3691 H   0  0  0  0  0  0  0  0  0  0  0  0
    3.4712    0.1682    0.2625 C   0  0  0  0  0  0  0  0  0  0  0  0
    3.9360    1.0078    0.7676 H   0  0  0  0  0  0  0  0  0  0  0  0
    4.2469   -0.9055   -0.1758 C   0  0  0  0  0  0  0  0  0  0  0  0
    5.5967   -0.9220    0.0275 O   0  0  0  0  0  0  0  0  0  0  0  0
    5.8757   -0.1136    0.4838 H   0  0  0  0  0  0  0  0  0  0  0  0
    3.6353   -1.9686   -0.8332 C   0  0  0  0  0  0  0  0  0  0  0  0
    4.2430   -2.8017   -1.1705 H   0  0  0  0  0  0  0  0  0  0  0  0
    2.2542   -1.9642   -1.0546 C   0  0  0  0  0  0  0  0  0  0  0  0
    1.8029   -2.8107   -1.5642 H   0  0  0  0  0  0  0  0  0  0  0  0
   -1.2638    0.9197    0.4286 C   0  0  0  0  0  0  0  0  0  0  0  0
   -2.0963    1.3910   -0.3382 O   0  0  0  0  0  0  0  0  0  0  0  0
   -0.6637    1.7447    1.3628 N   0  0  0  0  0  0  0  0  0  0  0  0
   -0.0683    1.3037    2.0587 H   0  0  0  0  0  0  0  0  0  0  0  0
   -1.0012    3.1547    1.5167 C   0  0  0  0  0  0  0  0  0  0  0  0
   -2.0636    3.2713    1.7554 H   0  0  0  0  0  0  0  0  0  0  0  0
   -0.4139    3.5985    2.3262 H   0  0  0  0  0  0  0  0  0  0  0  0
   -0.7851    3.7024    0.5934 H   0  0  0  0  0  0  0  0  0  0  0  0
  1  2  1  0  0  0  0
  2  3  1  0  0  0  0
  2  4  1  0  0  0  0
  2  5  1  0  0  0  0
  5  6  2  0  0  0  0
  5  7  1  0  0  0  0
  7  8  1  0  0  0  0
  7  9  1  0  0  0  0
  9 10  1  0  0  0  0
  9 11  1  0  0  0  0
  9 26  1  0  0  0  0
 11 12  1  0  0  0  0
 11 13  1  0  0  0  0
 11 14  1  0  0  0  0
 14 15  2  0  0  0  0
 14 24  1  0  0  0  0
 15 16  1  0  0  0  0
 15 17  1  0  0  0  0
 17 18  1  0  0  0  0
 17 19  2  0  0  0  0
 19 20  1  0  0  0  0
 19 22  1  0  0  0  0
 20 21  1  0  0  0  0
 22 23  1  0  0  0  0
 22 24  2  0  0  0  0
 24 25  1  0  0  0  0
 26 27  2  0  0  0  0
 26 28  1  0  0  0  0
 28 29  1  0  0  0  0
 28 30  1  0  0  0  0
 30 31  1  0  0  0  0
 30 32  1  0  0  0  0
 30 33  1  0  0  0  0
M  END
$$$$

  -OEChem-04042216043D

 33 33  0     1  0  0  0  0  0999 V2000
   -3.9707   -4.0058    1.3847 H   0  0  0  0  0  0  0  0  0  0  0  0
   -3.8773   -3.1148    0.7576 C   0  0  0  0  0  0  0  0  0  0  0  0
   -4.6626   -2.4063    1.0320 H   0  0  0  0  0  0  0  0  0  0  0  0
   -4.0065   -3.4053   -0.2878 H   0  0  0  0  0  0  0  0  0  0  0  0
   -2.5143   -2.4781    0.9532 C   0  0  0  0  0  0  0  0  0  0  0  0
   -1.7249   -2.9584    1.7507 O   0  0  0  0  0  0  0  0  0  0  0  0
   -2.1784   -1.3496    0.2349 N   0  0  0  0  0  0  0  0  0  0  0  0
   -2.9038   -0.9259   -0.3421 H   0  0  0  0  0  0  0  0  0  0  0  0
   -0.9278   -0.5907    0.3954 C   0  0  1  0  0  0  0  0  0  0  0  0
   -0.4339   -0.8669    1.3324 H   0  0  0  0  0  0  0  0  0  0  0  0
   -0.0178   -0.9518   -0.8028 C   0  0  0  0  0  0  0  0  0  0  0  0
   -0.2627   -1.9731   -1.1140 H   0  0  0  0  0  0  0  0  0  0  0  0
   -0.2580   -0.2977   -1.6479 H   0  0  0  0  0  0  0  0  0  0  0  0
    1.4825   -0.9056   -0.5627 C   0  0  0  0  0  0  0  0  0  0  0  0
    2.1054   -0.0411    0.3553 C   0  0  0  0  0  0  0  0  0  0  0  0
    1.5316    0.6578    0.9465 H   0  0  0  0  0  0  0  0  0  0  0  0
    3.4962   -0.0520    0.5215 C   0  0  0  0  0  0  0  0  0  0  0  0
    3.9544    0.6250    1.2342 H   0  0  0  0  0  0  0  0  0  0  0  0
    4.2878   -0.9238   -0.2269 C   0  0  0  0  0  0  0  0  0  0  0  0
    5.6444   -0.9415   -0.0758 O   0  0  0  0  0  0  0  0  0  0  0  0
    5.9143   -0.2920    0.5912 H   0  0  0  0  0  0  0  0  0  0  0  0
    3.6847   -1.7820   -1.1410 C   0  0  0  0  0  0  0  0  0  0  0  0
    4.3040   -2.4581   -1.7215 H   0  0  0  0  0  0  0  0  0  0  0  0
    2.2966   -1.7735   -1.3096 C   0  0  0  0  0  0  0  0  0  0  0  0
    1.8523   -2.4531   -2.0310 H   0  0  0  0  0  0  0  0  0  0  0  0
   -1.2675    0.9148    0.4327 C   0  0  0  0  0  0  0  0  0  0  0  0
   -2.0801    1.3716   -0.3640 O   0  0  0  0  0  0  0  0  0  0  0  0
   -0.6996    1.7586    1.3703 N   0  0  0  0  0  0  0  0  0  0  0  0
   -0.1419    1.3311    2.1040 H   0  0  0  0  0  0  0  0  0  0  0  0
   -1.0485    3.1694    1.4875 C   0  0  0  0  0  0  0  0  0  0  0  0
   -2.1169    3.2839    1.6987 H   0  0  0  0  0  0  0  0  0  0  0  0
   -0.4829    3.6327    2.3016 H   0  0  0  0  0  0  0  0  0  0  0  0
   -0.8136    3.7001    0.5588 H   0  0  0  0  0  0  0  0  0  0  0  0
  1  2  1  0  0  0  0
  2  3  1  0  0  0  0
  2  4  1  0  0  0  0
  2  5  1  0  0  0  0
  5  6  2  0  0  0  0
  5  7  1  0  0  0  0
  7  8  1  0  0  0  0
  7  9  1  0  0  0  0
  9 10  1  0  0  0  0
  9 11  1  0  0  0  0
  9 26  1  0  0  0  0
 11 12  1  0  0  0  0
 11 13  1  0  0  0  0
 11 14  1  0  0  0  0
 14 15  2  0  0  0  0
 14 24  1  0  0  0  0
 15 16  1  0  0  0  0
 15 17  1  0  0  0  0
 17 18  1  0  0  0  0
 17 19  2  0  0  0  0
 19 20  1  0  0  0  0
 19 22  1  0  0  0  0
 20 21  1  0  0  0  0
 22 23  1  0  0  0  0
 22 24  2  0  0  0  0
 24 25  1  0  0  0  0
 26 27  2  0  0  0  0
 26 28  1  0  0  0  0
 28 29  1  0  0  0  0
 28 30  1  0  0  0  0
 30 31  1  0  0  0  0
 30 32  1  0  0  0  0
 30 33  1  0  0  0  0
M  END
$$$$

  -OEChem-04042216043D

 33 33  0     1  0  0  0  0  0999 V2000
   -4.0137   -4.0089    1.3776 H   0  0  0  0  0  0  0  0  0  0  0  0
   -3.9139   -3.1199    0.7485 C   0  0  0  0  0  0  0  0  0  0  0  0
   -4.6972   -2.4073    1.0180 H   0  0  0  0  0  0  0  0  0  0  0  0
   -4.0411   -3.4124   -0.2965 H   0  0  0  0  0  0  0  0  0  0  0  0
   -2.5484   -2.4891    0.9479 C   0  0  0  0  0  0  0  0  0  0  0  0
   -1.7655   -2.9713    1.7508 O   0  0  0  0  0  0  0  0  0  0  0  0
   -2.2036   -1.3642    0.2277 N   0  0  0  0  0  0  0  0  0  0  0  0
   -2.9236   -0.9422   -0.3572 H   0  0  0  0  0  0  0  0  0  0  0  0
   -0.9510   -0.6089    0.3904 C   0  0  1  0  0  0  0  0  0  0  0  0
   -0.4785   -0.8929    1.3351 H   0  0  0  0  0  0  0  0  0  0  0  0
   -0.0226   -0.9660   -0.7930 C   0  0  0  0  0  0  0  0  0  0  0  0
   -0.2534   -1.9912   -1.1021 H   0  0  0  0  0  0  0  0  0  0  0  0
   -0.2590   -0.3178   -1.6436 H   0  0  0  0  0  0  0  0  0  0  0  0
    1.4761   -0.9159   -0.5421 C   0  0  0  0  0  0  0  0  0  0  0  0
    2.0777   -0.2904    0.5667 C   0  0  0  0  0  0  0  0  0  0  0  0
    1.4871    0.1947    1.3320 H   0  0  0  0  0  0  0  0  0  0  0  0
    3.4704   -0.2791    0.7139 C   0  0  0  0  0  0  0  0  0  0  0  0
    3.9122    0.2078    1.5762 H   0  0  0  0  0  0  0  0  0  0  0  0
    4.2847   -0.8884   -0.2410 C   0  0  0  0  0  0  0  0  0  0  0  0
    5.6430   -0.8832   -0.1063 O   0  0  0  0  0  0  0  0  0  0  0  0
    5.8947   -0.4378    0.7171 H   0  0  0  0  0  0  0  0  0  0  0  0
    3.7029   -1.5072   -1.3431 C   0  0  0  0  0  0  0  0  0  0  0  0
    4.3405   -1.9792   -2.0833 H   0  0  0  0  0  0  0  0  0  0  0  0
    2.3127   -1.5208   -1.4941 C   0  0  0  0  0  0  0  0  0  0  0  0
    1.8821   -2.0088   -2.3638 H   0  0  0  0  0  0  0  0  0  0  0  0
   -1.2540    0.9035    0.4241 C   0  0  0  0  0  0  0  0  0  0  0  0
   -2.0645    1.3746   -0.3662 O   0  0  0  0  0  0  0  0  0  0  0  0
   -0.6673    1.7343    1.3618 N   0  0  0  0  0  0  0  0  0  0  0  0
   -0.0967    1.3014    2.0813 H   0  0  0  0  0  0  0  0  0  0  0  0
   -0.9781    3.1543    1.4734 C   0  0  0  0  0  0  0  0  0  0  0  0
   -2.0443    3.2995    1.6775 H   0  0  0  0  0  0  0  0  0  0  0  0
   -0.4050    3.6038    2.2898 H   0  0  0  0  0  0  0  0  0  0  0  0
   -0.7225    3.6757    0.5450 H   0  0  0  0  0  0  0  0  0  0  0  0
  1  2  1  0  0  0  0
  2  3  1  0  0  0  0
  2  4  1  0  0  0  0
  2  5  1  0  0  0  0
  5  6  2  0  0  0  0
  5  7  1  0  0  0  0
  7  8  1  0  0  0  0
  7  9  1  0  0  0  0
  9 10  1  0  0  0  0
  9 11  1  0  0  0  0
  9 26  1  0  0  0  0
 11 12  1  0  0  0  0
 11 13  1  0  0  0  0
 11 14  1  0  0  0  0
 14 15  2  0  0  0  0
 14 24  1  0  0  0  0
 15 16  1  0  0  0  0
 15 17  1  0  0  0  0
 17 18  1  0  0  0  0
 17 19  2  0  0  0  0
 19 20  1  0  0  0  0
 19 22  1  0  0  0  0
 20 21  1  0  0  0  0
 22 23  1  0  0  0  0
 22 24  2  0  0  0  0
 24 25  1  0  0  0  0
 26 27  2  0  0  0  0
 26 28  1  0  0  0  0
 28 29  1  0  0  0  0
 28 30  1  0  0  0  0
 30 31  1  0  0  0  0
 30 32  1  0  0  0  0
 30 33  1  0  0  0  0
M  END
$$$$

  -OEChem-04042216043D

 33 33  0     1  0  0  0  0  0999 V2000
   -4.0479   -4.0212    1.3778 H   0  0  0  0  0  0  0  0  0  0  0  0
   -3.9492   -3.1318    0.7491 C   0  0  0  0  0  0  0  0  0  0  0  0
   -4.7251   -2.4150    1.0282 H   0  0  0  0  0  0  0  0  0  0  0  0
   -4.0891   -3.4219   -0.2950 H   0  0  0  0  0  0  0  0  0  0  0  0
   -2.5779   -2.5098    0.9344 C   0  0  0  0  0  0  0  0  0  0  0  0
   -1.7874   -3.0020    1.7240 O   0  0  0  0  0  0  0  0  0  0  0  0
   -2.2367   -1.3823    0.2159 N   0  0  0  0  0  0  0  0  0  0  0  0
   -2.9641   -0.9522   -0.3537 H   0  0  0  0  0  0  0  0  0  0  0  0
   -0.9832   -0.6277    0.3721 C   0  0  1  0  0  0  0  0  0  0  0  0
   -0.5336   -0.9205    1.3227 H   0  0  0  0  0  0  0  0  0  0  0  0
   -0.0375   -0.9799   -0.7965 C   0  0  0  0  0  0  0  0  0  0  0  0
   -0.2523   -2.0096   -1.1021 H   0  0  0  0  0  0  0  0  0  0  0  0
   -0.2758   -0.3378   -1.6517 H   0  0  0  0  0  0  0  0  0  0  0  0
    1.4598   -0.9176   -0.5327 C   0  0  0  0  0  0  0  0  0  0  0  0
    2.0499   -0.5630    0.6978 C   0  0  0  0  0  0  0  0  0  0  0  0
    1.4574   -0.3171    1.5694 H   0  0  0  0  0  0  0  0  0  0  0  0
    3.4428   -0.5249    0.8383 C   0  0  0  0  0  0  0  0  0  0  0  0
    3.8750   -0.2533    1.7950 H   0  0  0  0  0  0  0  0  0  0  0  0
    4.2698   -0.8371   -0.2408 C   0  0  0  0  0  0  0  0  0  0  0  0
    5.6282   -0.8054   -0.1113 O   0  0  0  0  0  0  0  0  0  0  0  0
    5.8711   -0.5839    0.8007 H   0  0  0  0  0  0  0  0  0  0  0  0
    3.7003   -1.1862   -1.4612 C   0  0  0  0  0  0  0  0  0  0  0  0
    4.3482   -1.4272   -2.2974 H   0  0  0  0  0  0  0  0  0  0  0  0
    2.3101   -1.2265   -1.6069 C   0  0  0  0  0  0  0  0  0  0  0  0
    1.8892   -1.5020   -2.5698 H   0  0  0  0  0  0  0  0  0  0  0  0
   -1.2517    0.8889    0.4159 C   0  0  0  0  0  0  0  0  0  0  0  0
   -2.0785    1.3788   -0.3455 O   0  0  0  0  0  0  0  0  0  0  0  0
   -0.6342    1.6948    1.3549 N   0  0  0  0  0  0  0  0  0  0  0  0
    0.0220    1.2589    1.9949 H   0  0  0  0  0  0  0  0  0  0  0  0
   -0.8769    3.1281    1.4621 C   0  0  0  0  0  0  0  0  0  0  0  0
   -1.9368    3.3244    1.6549 H   0  0  0  0  0  0  0  0  0  0  0  0
   -0.2926    3.5501    2.2853 H   0  0  0  0  0  0  0  0  0  0  0  0
   -0.5869    3.6356    0.5361 H   0  0  0  0  0  0  0  0  0  0  0  0
  1  2  1  0  0  0  0
  2  3  1  0  0  0  0
  2  4  1  0  0  0  0
  2  5  1  0  0  0  0
  5  6  2  0  0  0  0
  5  7  1  0  0  0  0
  7  8  1  0  0  0  0
  7  9  1  0  0  0  0
  9 10  1  0  0  0  0
  9 11  1  0  0  0  0
  9 26  1  0  0  0  0
 11 12  1  0  0  0  0
 11 13  1  0  0  0  0
 11 14  1  0  0  0  0
 14 15  2  0  0  0  0
 14 24  1  0  0  0  0
 15 16  1  0  0  0  0
 15 17  1  0  0  0  0
 17 18  1  0  0  0  0
 17 19  2  0  0  0  0
 19 20  1  0  0  0  0
 19 22  1  0  0  0  0
 20 21  1  0  0  0  0
 22 23  1  0  0  0  0
 22 24  2  0  0  0  0
 24 25  1  0  0  0  0
 26 27  2  0  0  0  0
 26 28  1  0  0  0  0
 28 29  1  0  0  0  0
 28 30  1  0  0  0  0
 30 31  1  0  0  0  0
 30 32  1  0  0  0  0
 30 33  1  0  0  0  0
M  END
$$$$

  -OEChem-04042216043D

 33 33  0     1  0  0  0  0  0999 V2000
   -4.0885   -4.0196    1.3889 H   0  0  0  0  0  0  0  0  0  0  0  0
   -3.9887   -3.1287    0.7625 C   0  0  0  0  0  0  0  0  0  0  0  0
   -4.7493   -2.4024    1.0591 H   0  0  0  0  0  0  0  0  0  0  0  0
   -4.1514   -3.4113   -0.2804 H   0  0  0  0  0  0  0  0  0  0  0  0
   -2.6059   -2.5262    0.9262 C   0  0  0  0  0  0  0  0  0  0  0  0
   -1.8062   -3.0348    1.6961 O   0  0  0  0  0  0  0  0  0  0  0  0
   -2.2632   -1.3984    0.2090 N   0  0  0  0  0  0  0  0  0  0  0  0
   -2.9957   -0.9554   -0.3436 H   0  0  0  0  0  0  0  0  0  0  0  0
   -1.0032   -0.6539    0.3591 C   0  0  1  0  0  0  0  0  0  0  0  0
   -0.5662   -0.9470    1.3132 H   0  0  0  0  0  0  0  0  0  0  0  0
   -0.0547   -1.0035   -0.8075 C   0  0  0  0  0  0  0  0  0  0  0  0
   -0.2675   -2.0314   -1.1194 H   0  0  0  0  0  0  0  0  0  0  0  0
   -0.2940   -0.3578   -1.6597 H   0  0  0  0  0  0  0  0  0  0  0  0
    1.4421   -0.9440   -0.5352 C   0  0  0  0  0  0  0  0  0  0  0  0
    2.0322   -0.8946    0.7456 C   0  0  0  0  0  0  0  0  0  0  0  0
    1.4468   -0.9438    1.6555 H   0  0  0  0  0  0  0  0  0  0  0  0
    3.4227   -0.8077    0.8892 C   0  0  0  0  0  0  0  0  0  0  0  0
    3.8550   -0.7791    1.8835 H   0  0  0  0  0  0  0  0  0  0  0  0
    4.2475   -0.7662   -0.2348 C   0  0  0  0  0  0  0  0  0  0  0  0
    5.6033   -0.6804   -0.1030 O   0  0  0  0  0  0  0  0  0  0  0  0
    5.8477   -0.6836    0.8351 H   0  0  0  0  0  0  0  0  0  0  0  0
    3.6789   -0.8172   -1.5034 C   0  0  0  0  0  0  0  0  0  0  0  0
    4.3250   -0.7861   -2.3747 H   0  0  0  0  0  0  0  0  0  0  0  0
    2.2915   -0.9061   -1.6531 C   0  0  0  0  0  0  0  0  0  0  0  0
    1.8725   -0.9407   -2.6548 H   0  0  0  0  0  0  0  0  0  0  0  0
   -1.2415    0.8663    0.4127 C   0  0  0  0  0  0  0  0  0  0  0  0
   -2.0724    1.3756   -0.3311 O   0  0  0  0  0  0  0  0  0  0  0  0
   -0.5969    1.6488    1.3528 N   0  0  0  0  0  0  0  0  0  0  0  0
    0.1115    1.2032    1.9281 H   0  0  0  0  0  0  0  0  0  0  0  0
   -0.7656    3.0939    1.4391 C   0  0  0  0  0  0  0  0  0  0  0  0
   -1.8190    3.3492    1.5957 H   0  0  0  0  0  0  0  0  0  0  0  0
   -0.1866    3.4924    2.2777 H   0  0  0  0  0  0  0  0  0  0  0  0
   -0.4191    3.5748    0.5183 H   0  0  0  0  0  0  0  0  0  0  0  0
  1  2  1  0  0  0  0
  2  3  1  0  0  0  0
  2  4  1  0  0  0  0
  2  5  1  0  0  0  0
  5  6  2  0  0  0  0
  5  7  1  0  0  0  0
  7  8  1  0  0  0  0
  7  9  1  0  0  0  0
  9 10  1  0  0  0  0
  9 11  1  0  0  0  0
  9 26  1  0  0  0  0
 11 12  1  0  0  0  0
 11 13  1  0  0  0  0
 11 14  1  0  0  0  0
 14 15  2  0  0  0  0
 14 24  1  0  0  0  0
 15 16  1  0  0  0  0
 15 17  1  0  0  0  0
 17 18  1  0  0  0  0
 17 19  2  0  0  0  0
 19 20  1  0  0  0  0
 19 22  1  0  0  0  0
 20 21  1  0  0  0  0
 22 23  1  0  0  0  0
 22 24  2  0  0  0  0
 24 25  1  0  0  0  0
 26 27  2  0  0  0  0
 26 28  1  0  0  0  0
 28 29  1  0  0  0  0
 28 30  1  0  0  0  0
 30 31  1  0  0  0  0
 30 32  1  0  0  0  0
 30 33  1  0  0  0  0
M  END
$$$$

  -OEChem-04042216043D

 33 33  0     1  0  0  0  0  0999 V2000
   -4.0684   -4.0069    1.4386 H   0  0  0  0  0  0  0  0  0  0  0  0
   -3.9780   -3.1222    0.8022 C   0  0  0  0  0  0  0  0  0  0  0  0
   -4.7301   -2.3904    1.1067 H   0  0  0  0  0  0  0  0  0  0  0  0
   -4.1616   -3.4143   -0.2344 H   0  0  0  0  0  0  0  0  0  0  0  0
   -2.5901   -2.5236    0.9333 C   0  0  0  0  0  0  0  0  0  0  0  0
   -1.7706   -3.0402    1.6773 O   0  0  0  0  0  0  0  0  0  0  0  0
   -2.2601   -1.3960    0.2097 N   0  0  0  0  0  0  0  0  0  0  0  0
   -3.0044   -0.9428   -0.3185 H   0  0  0  0  0  0  0  0  0  0  0  0
   -0.9915   -0.6625    0.3348 C   0  0  1  0  0  0  0  0  0  0  0  0
   -0.5327   -0.9498    1.2803 H   0  0  0  0  0  0  0  0  0  0  0  0
   -0.0731   -1.0119   -0.8558 C   0  0  0  0  0  0  0  0  0  0  0  0
   -0.2930   -2.0380   -1.1681 H   0  0  0  0  0  0  0  0  0  0  0  0
   -0.3258   -0.3626   -1.7013 H   0  0  0  0  0  0  0  0  0  0  0  0
    1.4231   -0.9589   -0.5876 C   0  0  0  0  0  0  0  0  0  0  0  0
    2.0081   -1.2259    0.6669 C   0  0  0  0  0  0  0  0  0  0  0  0
    1.4173   -1.5627    1.5119 H   0  0  0  0  0  0  0  0  0  0  0  0
    3.3920   -1.1156    0.8482 C   0  0  0  0  0  0  0  0  0  0  0  0
    3.8207   -1.3390    1.8192 H   0  0  0  0  0  0  0  0  0  0  0  0
    4.2137   -0.7339   -0.2125 C   0  0  0  0  0  0  0  0  0  0  0  0
    5.5639   -0.6256   -0.0447 O   0  0  0  0  0  0  0  0  0  0  0  0
    5.8095   -0.8841    0.8568 H   0  0  0  0  0  0  0  0  0  0  0  0
    3.6484   -0.4674   -1.4559 C   0  0  0  0  0  0  0  0  0  0  0  0
    4.2925   -0.1730   -2.2782 H   0  0  0  0  0  0  0  0  0  0  0  0
    2.2670   -0.5784   -1.6438 C   0  0  0  0  0  0  0  0  0  0  0  0
    1.8508   -0.3609   -2.6234 H   0  0  0  0  0  0  0  0  0  0  0  0
   -1.2184    0.8591    0.3988 C   0  0  0  0  0  0  0  0  0  0  0  0
   -2.0658    1.3766   -0.3206 O   0  0  0  0  0  0  0  0  0  0  0  0
   -0.5477    1.6329    1.3278 N   0  0  0  0  0  0  0  0  0  0  0  0
    0.1799    1.1817    1.8749 H   0  0  0  0  0  0  0  0  0  0  0  0
   -0.7162    3.0768    1.4354 C   0  0  0  0  0  0  0  0  0  0  0  0
   -1.7671    3.3287    1.6137 H   0  0  0  0  0  0  0  0  0  0  0  0
   -0.1236    3.4656    2.2690 H   0  0  0  0  0  0  0  0  0  0  0  0
   -0.3862    3.5698    0.5150 H   0  0  0  0  0  0  0  0  0  0  0  0
  1  2  1  0  0  0  0
  2  3  1  0  0  0  0
  2  4  1  0  0  0  0
  2  5  1  0  0  0  0
  5  6  2  0  0  0  0
  5  7  1  0  0  0  0
  7  8  1  0  0  0  0
  7  9  1  0  0  0  0
  9 10  1  0  0  0  0
  9 11  1  0  0  0  0
  9 26  1  0  0  0  0
 11 12  1  0  0  0  0
 11 13  1  0  0  0  0
 11 14  1  0  0  0  0
 14 15  2  0  0  0  0
 14 24  1  0  0  0  0
 15 16  1  0  0  0  0
 15 17  1  0  0  0  0
 17 18  1  0  0  0  0
 17 19  2  0  0  0  0
 19 20  1  0  0  0  0
 19 22  1  0  0  0  0
 20 21  1  0  0  0  0
 22 23  1  0  0  0  0
 22 24  2  0  0  0  0
 24 25  1  0  0  0  0
 26 27  2  0  0  0  0
 26 28  1  0  0  0  0
 28 29  1  0  0  0  0
 28 30  1  0  0  0  0
 30 31  1  0  0  0  0
 30 32  1  0  0  0  0
 30 33  1  0  0  0  0
M  END
$$$$

  -OEChem-04042216043D

 33 33  0     1  0  0  0  0  0999 V2000
   -4.0157   -3.9987    1.5219 H   0  0  0  0  0  0  0  0  0  0  0  0
   -3.9465   -3.1205    0.8739 C   0  0  0  0  0  0  0  0  0  0  0  0
   -4.6701   -2.3753    1.2131 H   0  0  0  0  0  0  0  0  0  0  0  0
   -4.1910   -3.4171   -0.1488 H   0  0  0  0  0  0  0  0  0  0  0  0
   -2.5447   -2.5427    0.9239 C   0  0  0  0  0  0  0  0  0  0  0  0
   -1.6850   -3.0828    1.6036 O   0  0  0  0  0  0  0  0  0  0  0  0
   -2.2469   -1.4063    0.2007 N   0  0  0  0  0  0  0  0  0  0  0  0
   -3.0172   -0.9347   -0.2713 H   0  0  0  0  0  0  0  0  0  0  0  0
   -0.9739   -0.6761    0.2851 C   0  0  1  0  0  0  0  0  0  0  0  0
   -0.4736   -0.9702    1.2095 H   0  0  0  0  0  0  0  0  0  0  0  0
   -0.0970   -1.0100   -0.9388 C   0  0  0  0  0  0  0  0  0  0  0  0
   -0.3164   -2.0336   -1.2601 H   0  0  0  0  0  0  0  0  0  0  0  0
   -0.3654   -0.3507   -1.7715 H   0  0  0  0  0  0  0  0  0  0  0  0
    1.3928   -0.9435   -0.6626 C   0  0  0  0  0  0  0  0  0  0  0  0
    1.9670   -1.5125    0.4890 C   0  0  0  0  0  0  0  0  0  0  0  0
    1.3604   -2.0831    1.1876 H   0  0  0  0  0  0  0  0  0  0  0  0
    3.3392   -1.3912    0.7363 C   0  0  0  0  0  0  0  0  0  0  0  0
    3.7611   -1.8472    1.6253 H   0  0  0  0  0  0  0  0  0  0  0  0
    4.1559   -0.6982   -0.1584 C   0  0  0  0  0  0  0  0  0  0  0  0
    5.4959   -0.5777    0.0715 O   0  0  0  0  0  0  0  0  0  0  0  0
    5.7426   -1.0737    0.8674 H   0  0  0  0  0  0  0  0  0  0  0  0
    3.5967   -0.1291   -1.3000 C   0  0  0  0  0  0  0  0  0  0  0  0
    4.2377    0.4075   -1.9919 H   0  0  0  0  0  0  0  0  0  0  0  0
    2.2260   -0.2486   -1.5530 C   0  0  0  0  0  0  0  0  0  0  0  0
    1.8123    0.2086   -2.4473 H   0  0  0  0  0  0  0  0  0  0  0  0
   -1.1968    0.8439    0.3780 C   0  0  0  0  0  0  0  0  0  0  0  0
   -2.0760    1.3697   -0.2958 O   0  0  0  0  0  0  0  0  0  0  0  0
   -0.4886    1.6040    1.2899 N   0  0  0  0  0  0  0  0  0  0  0  0
    0.2699    1.1473    1.7893 H   0  0  0  0  0  0  0  0  0  0  0  0
   -0.6506    3.0464    1.4221 C   0  0  0  0  0  0  0  0  0  0  0  0
   -1.6888    3.2952    1.6664 H   0  0  0  0  0  0  0  0  0  0  0  0
   -0.0082    3.4277    2.2216 H   0  0  0  0  0  0  0  0  0  0  0  0
   -0.3778    3.5489    0.4882 H   0  0  0  0  0  0  0  0  0  0  0  0
  1  2  1  0  0  0  0
  2  3  1  0  0  0  0
  2  4  1  0  0  0  0
  2  5  1  0  0  0  0
  5  6  2  0  0  0  0
  5  7  1  0  0  0  0
  7  8  1  0  0  0  0
  7  9  1  0  0  0  0
  9 10  1  0  0  0  0
  9 11  1  0  0  0  0
  9 26  1  0  0  0  0
 11 12  1  0  0  0  0
 11 13  1  0  0  0  0
 11 14  1  0  0  0  0
 14 15  2  0  0  0  0
 14 24  1  0  0  0  0
 15 16  1  0  0  0  0
 15 17  1  0  0  0  0
 17 18  1  0  0  0  0
 17 19  2  0  0  0  0
 19 20  1  0  0  0  0
 19 22  1  0  0  0  0
 20 21  1  0  0  0  0
 22 23  1  0  0  0  0
 22 24  2  0  0  0  0
 24 25  1  0  0  0  0
 26 27  2  0  0  0  0
 26 28  1  0  0  0  0
 28 29  1  0  0  0  0
 28 30  1  0  0  0  0
 30 31  1  0  0  0  0
 30 32  1  0  0  0  0
 30 33  1  0  0  0  0
M  END
$$$$

  -OEChem-04042216043D

 33 33  0     1  0  0  0  0  0999 V2000
   -3.9513   -4.0134    1.5640 H   0  0  0  0  0  0  0  0  0  0  0  0
   -3.9051   -3.1340    0.9156 C   0  0  0  0  0  0  0  0  0  0  0  0
   -4.6131   -2.3875    1.2840 H   0  0  0  0  0  0  0  0  0  0  0  0
   -4.1904   -3.4273   -0.0975 H   0  0  0  0  0  0  0  0  0  0  0  0
   -2.5009   -2.5595    0.9125 C   0  0  0  0  0  0  0  0  0  0  0  0
   -1.6130   -3.1121    1.5441 O   0  0  0  0  0  0  0  0  0  0  0  0
   -2.2331   -1.4130    0.1934 N   0  0  0  0  0  0  0  0  0  0  0  0
   -3.0227   -0.9361   -0.2399 H   0  0  0  0  0  0  0  0  0  0  0  0
   -0.9613   -0.6774    0.2431 C   0  0  1  0  0  0  0  0  0  0  0  0
   -0.4228   -0.9831    1.1445 H   0  0  0  0  0  0  0  0  0  0  0  0
   -0.1176   -1.0014   -1.0025 C   0  0  0  0  0  0  0  0  0  0  0  0
   -0.3309   -2.0253   -1.3267 H   0  0  0  0  0  0  0  0  0  0  0  0
   -0.3975   -0.3392   -1.8289 H   0  0  0  0  0  0  0  0  0  0  0  0
    1.3633   -0.9125   -0.7113 C   0  0  0  0  0  0  0  0  0  0  0  0
    1.9546   -1.7317    0.2647 C   0  0  0  0  0  0  0  0  0  0  0  0
    1.3537   -2.4686    0.7937 H   0  0  0  0  0  0  0  0  0  0  0  0
    3.3188   -1.6176    0.5558 C   0  0  0  0  0  0  0  0  0  0  0  0
    3.7572   -2.2633    1.3090 H   0  0  0  0  0  0  0  0  0  0  0  0
    4.1047   -0.6820   -0.1202 C   0  0  0  0  0  0  0  0  0  0  0  0
    5.4358   -0.5619    0.1563 O   0  0  0  0  0  0  0  0  0  0  0  0
    5.7019   -1.2300    0.8068 H   0  0  0  0  0  0  0  0  0  0  0  0
    3.5232    0.1373   -1.0859 C   0  0  0  0  0  0  0  0  0  0  0  0
    4.1414    0.8621   -1.6055 H   0  0  0  0  0  0  0  0  0  0  0  0
    2.1601    0.0272   -1.3823 C   0  0  0  0  0  0  0  0  0  0  0  0
    1.7249    0.6800   -2.1339 H   0  0  0  0  0  0  0  0  0  0  0  0
   -1.1821    0.8406    0.3618 C   0  0  0  0  0  0  0  0  0  0  0  0
   -2.0821    1.3742   -0.2773 O   0  0  0  0  0  0  0  0  0  0  0  0
   -0.4431    1.5897    1.2581 N   0  0  0  0  0  0  0  0  0  0  0  0
    0.3315    1.1259    1.7259 H   0  0  0  0  0  0  0  0  0  0  0  0
   -0.6027    3.0293    1.4183 C   0  0  0  0  0  0  0  0  0  0  0  0
   -1.6324    3.2719    1.7013 H   0  0  0  0  0  0  0  0  0  0  0  0
    0.0658    3.3984    2.2021 H   0  0  0  0  0  0  0  0  0  0  0  0
   -0.3619    3.5468    0.4839 H   0  0  0  0  0  0  0  0  0  0  0  0
  1  2  1  0  0  0  0
  2  3  1  0  0  0  0
  2  4  1  0  0  0  0
  2  5  1  0  0  0  0
  5  6  2  0  0  0  0
  5  7  1  0  0  0  0
  7  8  1  0  0  0  0
  7  9  1  0  0  0  0
  9 10  1  0  0  0  0
  9 11  1  0  0  0  0
  9 26  1  0  0  0  0
 11 12  1  0  0  0  0
 11 13  1  0  0  0  0
 11 14  1  0  0  0  0
 14 15  2  0  0  0  0
 14 24  1  0  0  0  0
 15 16  1  0  0  0  0
 15 17  1  0  0  0  0
 17 18  1  0  0  0  0
 17 19  2  0  0  0  0
 19 20  1  0  0  0  0
 19 22  1  0  0  0  0
 20 21  1  0  0  0  0
 22 23  1  0  0  0  0
 22 24  2  0  0  0  0
 24 25  1  0  0  0  0
 26 27  2  0  0  0  0
 26 28  1  0  0  0  0
 28 29  1  0  0  0  0
 28 30  1  0  0  0  0
 30 31  1  0  0  0  0
 30 32  1  0  0  0  0
 30 33  1  0  0  0  0
M  END
$$$$

  -OEChem-04042216043D

 33 33  0     1  0  0  0  0  0999 V2000
   -3.9094   -4.0267    1.5741 H   0  0  0  0  0  0  0  0  0  0  0  0
   -3.8776   -3.1446    0.9284 C   0  0  0  0  0  0  0  0  0  0  0  0
   -4.5797   -2.4012    1.3137 H   0  0  0  0  0  0  0  0  0  0  0  0
   -4.1816   -3.4346   -0.0803 H   0  0  0  0  0  0  0  0  0  0  0  0
   -2.4750   -2.5668    0.8997 C   0  0  0  0  0  0  0  0  0  0  0  0
   -1.5707   -3.1273    1.5002 O   0  0  0  0  0  0  0  0  0  0  0  0
   -2.2254   -1.4135    0.1851 N   0  0  0  0  0  0  0  0  0  0  0  0
   -3.0262   -0.9345   -0.2242 H   0  0  0  0  0  0  0  0  0  0  0  0
   -0.9563   -0.6719    0.2170 C   0  0  1  0  0  0  0  0  0  0  0  0
   -0.3971   -0.9853    1.1047 H   0  0  0  0  0  0  0  0  0  0  0  0
   -0.1282   -0.9950   -1.0359 C   0  0  0  0  0  0  0  0  0  0  0  0
   -0.3385   -2.0193   -1.3616 H   0  0  0  0  0  0  0  0  0  0  0  0
   -0.4085   -0.3309   -1.8607 H   0  0  0  0  0  0  0  0  0  0  0  0
    1.3453   -0.8889   -0.7287 C   0  0  0  0  0  0  0  0  0  0  0  0
    1.9852   -1.8923    0.0142 C   0  0  0  0  0  0  0  0  0  0  0  0
    1.4204   -2.7575    0.3546 H   0  0  0  0  0  0  0  0  0  0  0  0
    3.3458   -1.7840    0.3246 C   0  0  0  0  0  0  0  0  0  0  0  0
    3.8244   -2.5703    0.8985 H   0  0  0  0  0  0  0  0  0  0  0  0
    4.0758   -0.6717   -0.1006 C   0  0  0  0  0  0  0  0  0  0  0  0
    5.4028   -0.5562    0.1972 O   0  0  0  0  0  0  0  0  0  0  0  0
    5.7071   -1.3467    0.6694 H   0  0  0  0  0  0  0  0  0  0  0  0
    3.4426    0.3306   -0.8340 C   0  0  0  0  0  0  0  0  0  0  0  0
    4.0179    1.1915   -1.1592 H   0  0  0  0  0  0  0  0  0  0  0  0
    2.0832    0.2270   -1.1488 C   0  0  0  0  0  0  0  0  0  0  0  0
    1.6033    1.0184   -1.7179 H   0  0  0  0  0  0  0  0  0  0  0  0
   -1.1769    0.8449    0.3515 C   0  0  0  0  0  0  0  0  0  0  0  0
   -2.0846    1.3848   -0.2711 O   0  0  0  0  0  0  0  0  0  0  0  0
   -0.4212    1.5863    1.2402 N   0  0  0  0  0  0  0  0  0  0  0  0
    0.3559    1.1154    1.6969 H   0  0  0  0  0  0  0  0  0  0  0  0
   -0.5794    3.0238    1.4210 C   0  0  0  0  0  0  0  0  0  0  0  0
   -1.6042    3.2617    1.7251 H   0  0  0  0  0  0  0  0  0  0  0  0
    0.1022    3.3846    2.1973 H   0  0  0  0  0  0  0  0  0  0  0  0
   -0.3559    3.5533    0.4891 H   0  0  0  0  0  0  0  0  0  0  0  0
  1  2  1  0  0  0  0
  2  3  1  0  0  0  0
  2  4  1  0  0  0  0
  2  5  1  0  0  0  0
  5  6  2  0  0  0  0
  5  7  1  0  0  0  0
  7  8  1  0  0  0  0
  7  9  1  0  0  0  0
  9 10  1  0  0  0  0
  9 11  1  0  0  0  0
  9 26  1  0  0  0  0
 11 12  1  0  0  0  0
 11 13  1  0  0  0  0
 11 14  1  0  0  0  0
 14 15  2  0  0  0  0
 14 24  1  0  0  0  0
 15 16  1  0  0  0  0
 15 17  1  0  0  0  0
 17 18  1  0  0  0  0
 17 19  2  0  0  0  0
 19 20  1  0  0  0  0
 19 22  1  0  0  0  0
 20 21  1  0  0  0  0
 22 23  1  0  0  0  0
 22 24  2  0  0  0  0
 24 25  1  0  0  0  0
 26 27  2  0  0  0  0
 26 28  1  0  0  0  0
 28 29  1  0  0  0  0
 28 30  1  0  0  0  0
 30 31  1  0  0  0  0
 30 32  1  0  0  0  0
 30 33  1  0  0  0  0
M  END
$$$$

  -OEChem-04042216043D

 33 33  0     1  0  0  0  0  0999 V2000
   -3.9068   -4.0276    1.5565 H   0  0  0  0  0  0  0  0  0  0  0  0
   -3.8730   -3.1445    0.9124 C   0  0  0  0  0  0  0  0  0  0  0  0
   -4.5793   -2.4032    1.2943 H   0  0  0  0  0  0  0  0  0  0  0  0
   -4.1700   -3.4338   -0.0986 H   0  0  0  0  0  0  0  0  0  0  0  0
   -2.4717   -2.5635    0.8936 C   0  0  0  0  0  0  0  0  0  0  0  0
   -1.5698   -3.1259    1.4952 O   0  0  0  0  0  0  0  0  0  0  0  0
   -2.2219   -1.4069    0.1848 N   0  0  0  0  0  0  0  0  0  0  0  0
   -3.0221   -0.9298   -0.2278 H   0  0  0  0  0  0  0  0  0  0  0  0
   -0.9547   -0.6623    0.2201 C   0  0  1  0  0  0  0  0  0  0  0  0
   -0.3919   -0.9791    1.1049 H   0  0  0  0  0  0  0  0  0  0  0  0
   -0.1257   -0.9892   -1.0311 C   0  0  0  0  0  0  0  0  0  0  0  0
   -0.3411   -2.0115   -1.3597 H   0  0  0  0  0  0  0  0  0  0  0  0
   -0.3983   -0.3221   -1.8561 H   0  0  0  0  0  0  0  0  0  0  0  0
    1.3457   -0.8792   -0.7179 C   0  0  0  0  0  0  0  0  0  0  0  0
    2.0554   -1.9954   -0.2517 C   0  0  0  0  0  0  0  0  0  0  0  0
    1.5439   -2.9449   -0.1124 H   0  0  0  0  0  0  0  0  0  0  0  0
    3.4180   -1.8907    0.0506 C   0  0  0  0  0  0  0  0  0  0  0  0
    3.9498   -2.7632    0.4142 H   0  0  0  0  0  0  0  0  0  0  0  0
    4.0818   -0.6728   -0.1135 C   0  0  0  0  0  0  0  0  0  0  0  0
    5.4099   -0.5595    0.1788 O   0  0  0  0  0  0  0  0  0  0  0  0
    5.7624   -1.4186    0.4581 H   0  0  0  0  0  0  0  0  0  0  0  0
    3.3812    0.4379   -0.5813 C   0  0  0  0  0  0  0  0  0  0  0  0
    3.9067    1.3787   -0.7094 H   0  0  0  0  0  0  0  0  0  0  0  0
    2.0194    0.3395   -0.8853 C   0  0  0  0  0  0  0  0  0  0  0  0
    1.4883    1.2140   -1.2517 H   0  0  0  0  0  0  0  0  0  0  0  0
   -1.1823    0.8528    0.3601 C   0  0  0  0  0  0  0  0  0  0  0  0
   -2.0844    1.3925   -0.2703 O   0  0  0  0  0  0  0  0  0  0  0  0
   -0.4316    1.5960    1.2518 N   0  0  0  0  0  0  0  0  0  0  0  0
    0.3329    1.1226    1.7273 H   0  0  0  0  0  0  0  0  0  0  0  0
   -0.5980    3.0318    1.4375 C   0  0  0  0  0  0  0  0  0  0  0  0
   -1.6253    3.2631    1.7381 H   0  0  0  0  0  0  0  0  0  0  0  0
    0.0783    3.3928    2.2182 H   0  0  0  0  0  0  0  0  0  0  0  0
   -0.3728    3.5662    0.5088 H   0  0  0  0  0  0  0  0  0  0  0  0
  1  2  1  0  0  0  0
  2  3  1  0  0  0  0
  2  4  1  0  0  0  0
  2  5  1  0  0  0  0
  5  6  2  0  0  0  0
  5  7  1  0  0  0  0
  7  8  1  0  0  0  0
  7  9  1  0  0  0  0
  9 10  1  0  0  0  0
  9 11  1  0  0  0  0
  9 26  1  0  0  0  0
 11 12  1  0  0  0  0
 11 13  1  0  0  0  0
 11 14  1  0  0  0  0
 14 15  2  0  0  0  0
 14 24  1  0  0  0  0
 15 16  1  0  0  0  0
 15 17  1  0  0  0  0
 17 18  1  0  0  0  0
 17 19  2  0  0  0  0
 19 20  1  0  0  0  0
 19 22  1  0  0  0  0
 20 21  1  0  0  0  0
 22 23  1  0  0  0  0
 22 24  2  0  0  0  0
 24 25  1  0  0  0  0
 26 27  2  0  0  0  0
 26 28  1  0  0  0  0
 28 29  1  0  0  0  0
 28 30  1  0  0  0  0
 30 31  1  0  0  0  0
 30 32  1  0  0  0  0
 30 33  1  0  0  0  0
M  END
$$$$

  -OEChem-04042216043D

 33 33  0     1  0  0  0  0  0999 V2000
   -3.9192   -4.0271    1.5207 H   0  0  0  0  0  0  0  0  0  0  0  0
   -3.8741   -3.1452    0.8755 C   0  0  0  0  0  0  0  0  0  0  0  0
   -4.5999   -2.4105    1.2323 H   0  0  0  0  0  0  0  0  0  0  0  0
   -4.1351   -3.4400   -0.1438 H   0  0  0  0  0  0  0  0  0  0  0  0
   -2.4791   -2.5497    0.9005 C   0  0  0  0  0  0  0  0  0  0  0  0
   -1.5930   -3.1000    1.5351 O   0  0  0  0  0  0  0  0  0  0  0  0
   -2.2177   -1.3935    0.1949 N   0  0  0  0  0  0  0  0  0  0  0  0
   -3.0088   -0.9259   -0.2454 H   0  0  0  0  0  0  0  0  0  0  0  0
   -0.9538   -0.6436    0.2527 C   0  0  1  0  0  0  0  0  0  0  0  0
   -0.3992   -0.9565    1.1442 H   0  0  0  0  0  0  0  0  0  0  0  0
   -0.1112   -0.9801   -0.9901 C   0  0  0  0  0  0  0  0  0  0  0  0
   -0.3351   -2.0011   -1.3168 H   0  0  0  0  0  0  0  0  0  0  0  0
   -0.3754   -0.3140   -1.8185 H   0  0  0  0  0  0  0  0  0  0  0  0
    1.3649   -0.8768   -0.6855 C   0  0  0  0  0  0  0  0  0  0  0  0
    2.1364   -2.0367   -0.5208 C   0  0  0  0  0  0  0  0  0  0  0  0
    1.6685   -3.0156   -0.5850 H   0  0  0  0  0  0  0  0  0  0  0  0
    3.5075   -1.9443   -0.2542 C   0  0  0  0  0  0  0  0  0  0  0  0
    4.0847   -2.8526   -0.1186 H   0  0  0  0  0  0  0  0  0  0  0  0
    4.1222   -0.6937   -0.1632 C   0  0  0  0  0  0  0  0  0  0  0  0
    5.4576   -0.5927    0.0990 O   0  0  0  0  0  0  0  0  0  0  0  0
    5.8454   -1.4768    0.1902 H   0  0  0  0  0  0  0  0  0  0  0  0
    3.3656    0.4618   -0.3478 C   0  0  0  0  0  0  0  0  0  0  0  0
    3.8548    1.4286   -0.2888 H   0  0  0  0  0  0  0  0  0  0  0  0
    1.9954    0.3753   -0.6150 C   0  0  0  0  0  0  0  0  0  0  0  0
    1.4276    1.2873   -0.7763 H   0  0  0  0  0  0  0  0  0  0  0  0
   -1.2031    0.8692    0.3850 C   0  0  0  0  0  0  0  0  0  0  0  0
   -2.0836    1.4013   -0.2812 O   0  0  0  0  0  0  0  0  0  0  0  0
   -0.4810    1.6249    1.2901 N   0  0  0  0  0  0  0  0  0  0  0  0
    0.2490    1.1529    1.8182 H   0  0  0  0  0  0  0  0  0  0  0  0
   -0.6707    3.0587    1.4711 C   0  0  0  0  0  0  0  0  0  0  0  0
   -1.7116    3.2782    1.7310 H   0  0  0  0  0  0  0  0  0  0  0  0
   -0.0297    3.4265    2.2782 H   0  0  0  0  0  0  0  0  0  0  0  0
   -0.4156    3.5977    0.5527 H   0  0  0  0  0  0  0  0  0  0  0  0
  1  2  1  0  0  0  0
  2  3  1  0  0  0  0
  2  4  1  0  0  0  0
  2  5  1  0  0  0  0
  5  6  2  0  0  0  0
  5  7  1  0  0  0  0
  7  8  1  0  0  0  0
  7  9  1  0  0  0  0
  9 10  1  0  0  0  0
  9 11  1  0  0  0  0
  9 26  1  0  0  0  0
 11 12  1  0  0  0  0
 11 13  1  0  0  0  0
 11 14  1  0  0  0  0
 14 15  2  0  0  0  0
 14 24  1  0  0  0  0
 15 16  1  0  0  0  0
 15 17  1  0  0  0  0
 17 18  1  0  0  0  0
 17 19  2  0  0  0  0
 19 20  1  0  0  0  0
 19 22  1  0  0  0  0
 20 21  1  0  0  0  0
 22 23  1  0  0  0  0
 22 24  2  0  0  0  0
 24 25  1  0  0  0  0
 26 27  2  0  0  0  0
 26 28  1  0  0  0  0
 28 29  1  0  0  0  0
 28 30  1  0  0  0  0
 30 31  1  0  0  0  0
 30 32  1  0  0  0  0
 30 33  1  0  0  0  0
M  END
$$$$

  -OEChem-04042216043D

 33 33  0     1  0  0  0  0  0999 V2000
   -3.9292   -4.0254    1.4585 H   0  0  0  0  0  0  0  0  0  0  0  0
   -3.8729   -3.1311    0.8314 C   0  0  0  0  0  0  0  0  0  0  0  0
   -4.6135   -2.4083    1.1820 H   0  0  0  0  0  0  0  0  0  0  0  0
   -4.1038   -3.4088   -0.1998 H   0  0  0  0  0  0  0  0  0  0  0  0
   -2.4837   -2.5259    0.9054 C   0  0  0  0  0  0  0  0  0  0  0  0
   -1.6210   -3.0615    1.5829 O   0  0  0  0  0  0  0  0  0  0  0  0
   -2.2024   -1.3732    0.2019 N   0  0  0  0  0  0  0  0  0  0  0  0
   -2.9781   -0.9135   -0.2728 H   0  0  0  0  0  0  0  0  0  0  0  0
   -0.9433   -0.6183    0.2967 C   0  0  1  0  0  0  0  0  0  0  0  0
   -0.4074   -0.9197    1.2032 H   0  0  0  0  0  0  0  0  0  0  0  0
   -0.0772   -0.9714   -0.9299 C   0  0  0  0  0  0  0  0  0  0  0  0
   -0.3125   -1.9916   -1.2507 H   0  0  0  0  0  0  0  0  0  0  0  0
   -0.3287   -0.3094   -1.7654 H   0  0  0  0  0  0  0  0  0  0  0  0
    1.4066   -0.8846   -0.6407 C   0  0  0  0  0  0  0  0  0  0  0  0
    2.2149   -2.0238   -0.7826 C   0  0  0  0  0  0  0  0  0  0  0  0
    1.7695   -2.9787   -1.0478 H   0  0  0  0  0  0  0  0  0  0  0  0
    3.5955   -1.9521   -0.5631 C   0  0  0  0  0  0  0  0  0  0  0  0
    4.1963   -2.8498   -0.6589 H   0  0  0  0  0  0  0  0  0  0  0  0
    4.1902   -0.7352   -0.2268 C   0  0  0  0  0  0  0  0  0  0  0  0
    5.5351   -0.6534   -0.0103 O   0  0  0  0  0  0  0  0  0  0  0  0
    5.9427   -1.5261   -0.1228 H   0  0  0  0  0  0  0  0  0  0  0  0
    3.4034    0.4094   -0.1261 C   0  0  0  0  0  0  0  0  0  0  0  0
    3.8774    1.3562    0.1109 H   0  0  0  0  0  0  0  0  0  0  0  0
    2.0233    0.3423   -0.3441 C   0  0  0  0  0  0  0  0  0  0  0  0
    1.4456    1.2594   -0.3032 H   0  0  0  0  0  0  0  0  0  0  0  0
   -1.2318    0.8900    0.4102 C   0  0  0  0  0  0  0  0  0  0  0  0
   -2.0965    1.3989   -0.2939 O   0  0  0  0  0  0  0  0  0  0  0  0
   -0.5612    1.6696    1.3349 N   0  0  0  0  0  0  0  0  0  0  0  0
    0.1230    1.2085    1.9297 H   0  0  0  0  0  0  0  0  0  0  0  0
   -0.8158    3.0927    1.5203 C   0  0  0  0  0  0  0  0  0  0  0  0
   -1.8681    3.2647    1.7698 H   0  0  0  0  0  0  0  0  0  0  0  0
   -0.1997    3.4844    2.3354 H   0  0  0  0  0  0  0  0  0  0  0  0
   -0.5749    3.6465    0.6068 H   0  0  0  0  0  0  0  0  0  0  0  0
  1  2  1  0  0  0  0
  2  3  1  0  0  0  0
  2  4  1  0  0  0  0
  2  5  1  0  0  0  0
  5  6  2  0  0  0  0
  5  7  1  0  0  0  0
  7  8  1  0  0  0  0
  7  9  1  0  0  0  0
  9 10  1  0  0  0  0
  9 11  1  0  0  0  0
  9 26  1  0  0  0  0
 11 12  1  0  0  0  0
 11 13  1  0  0  0  0
 11 14  1  0  0  0  0
 14 15  2  0  0  0  0
 14 24  1  0  0  0  0
 15 16  1  0  0  0  0
 15 17  1  0  0  0  0
 17 18  1  0  0  0  0
 17 19  2  0  0  0  0
 19 20  1  0  0  0  0
 19 22  1  0  0  0  0
 20 21  1  0  0  0  0
 22 23  1  0  0  0  0
 22 24  2  0  0  0  0
 24 25  1  0  0  0  0
 26 27  2  0  0  0  0
 26 28  1  0  0  0  0
 28 29  1  0  0  0  0
 28 30  1  0  0  0  0
 30 31  1  0  0  0  0
 30 32  1  0  0  0  0
 30 33  1  0  0  0  0
M  END
$$$$

  -OEChem-04042216043D

 33 33  0     1  0  0  0  0  0999 V2000
   -3.9306   -4.0228    1.4052 H   0  0  0  0  0  0  0  0  0  0  0  0
   -3.8603   -3.1251    0.7845 C   0  0  0  0  0  0  0  0  0  0  0  0
   -4.6248   -2.4141    1.1066 H   0  0  0  0  0  0  0  0  0  0  0  0
   -4.0442   -3.4012   -0.2565 H   0  0  0  0  0  0  0  0  0  0  0  0
   -2.4832   -2.5025    0.9186 C   0  0  0  0  0  0  0  0  0  0  0  0
   -1.6500   -3.0174    1.6469 O   0  0  0  0  0  0  0  0  0  0  0  0
   -2.1804   -1.3553    0.2151 N   0  0  0  0  0  0  0  0  0  0  0  0
   -2.9353   -0.9111   -0.3060 H   0  0  0  0  0  0  0  0  0  0  0  0
   -0.9289   -0.5925    0.3495 C   0  0  1  0  0  0  0  0  0  0  0  0
   -0.4111   -0.8806    1.2703 H   0  0  0  0  0  0  0  0  0  0  0  0
   -0.0415   -0.9548   -0.8640 C   0  0  0  0  0  0  0  0  0  0  0  0
   -0.2858   -1.9751   -1.1785 H   0  0  0  0  0  0  0  0  0  0  0  0
   -0.2882   -0.2971   -1.7041 H   0  0  0  0  0  0  0  0  0  0  0  0
    1.4528   -0.8883   -0.6043 C   0  0  0  0  0  0  0  0  0  0  0  0
    2.2717   -1.9360   -1.0586 C   0  0  0  0  0  0  0  0  0  0  0  0
    1.8294   -2.8049   -1.5376 H   0  0  0  0  0  0  0  0  0  0  0  0
    3.6600   -1.8927   -0.8842 C   0  0  0  0  0  0  0  0  0  0  0  0
    4.2655   -2.7255   -1.2248 H   0  0  0  0  0  0  0  0  0  0  0  0
    4.2559   -0.7858   -0.2800 C   0  0  0  0  0  0  0  0  0  0  0  0
    5.6080   -0.7315   -0.1014 O   0  0  0  0  0  0  0  0  0  0  0  0
    6.0186   -1.5478   -0.4258 H   0  0  0  0  0  0  0  0  0  0  0  0
    3.4617    0.2817    0.1290 C   0  0  0  0  0  0  0  0  0  0  0  0
    3.9358    1.1515    0.5715 H   0  0  0  0  0  0  0  0  0  0  0  0
    2.0741    0.2409   -0.0436 C   0  0  0  0  0  0  0  0  0  0  0  0
    1.5024    1.1136    0.2410 H   0  0  0  0  0  0  0  0  0  0  0  0
   -1.2612    0.9107    0.4350 C   0  0  0  0  0  0  0  0  0  0  0  0
   -2.1046    1.3904   -0.3146 O   0  0  0  0  0  0  0  0  0  0  0  0
   -0.6520    1.7220    1.3751 N   0  0  0  0  0  0  0  0  0  0  0  0
   -0.0183    1.2788    2.0352 H   0  0  0  0  0  0  0  0  0  0  0  0
   -0.9704    3.1347    1.5434 C   0  0  0  0  0  0  0  0  0  0  0  0
   -2.0316    3.2625    1.7818 H   0  0  0  0  0  0  0  0  0  0  0  0
   -0.3789    3.5609    2.3594 H   0  0  0  0  0  0  0  0  0  0  0  0
   -0.7447    3.6905    0.6271 H   0  0  0  0  0  0  0  0  0  0  0  0
  1  2  1  0  0  0  0
  2  3  1  0  0  0  0
  2  4  1  0  0  0  0
  2  5  1  0  0  0  0
  5  6  2  0  0  0  0
  5  7  1  0  0  0  0
  7  8  1  0  0  0  0
  7  9  1  0  0  0  0
  9 10  1  0  0  0  0
  9 11  1  0  0  0  0
  9 26  1  0  0  0  0
 11 12  1  0  0  0  0
 11 13  1  0  0  0  0
 11 14  1  0  0  0  0
 14 15  2  0  0  0  0
 14 24  1  0  0  0  0
 15 16  1  0  0  0  0
 15 17  1  0  0  0  0
 17 18  1  0  0  0  0
 17 19  2  0  0  0  0
 19 20  1  0  0  0  0
 19 22  1  0  0  0  0
 20 21  1  0  0  0  0
 22 23  1  0  0  0  0
 22 24  2  0  0  0  0
 24 25  1  0  0  0  0
 26 27  2  0  0  0  0
 26 28  1  0  0  0  0
 28 29  1  0  0  0  0
 28 30  1  0  0  0  0
 30 31  1  0  0  0  0
 30 32  1  0  0  0  0
 30 33  1  0  0  0  0
M  END
$$$$

  -OEChem-04042216043D

 33 33  0     1  0  0  0  0  0999 V2000
   -3.9334   -4.0271    1.3768 H   0  0  0  0  0  0  0  0  0  0  0  0
   -3.8523   -3.1298    0.7568 C   0  0  0  0  0  0  0  0  0  0  0  0
   -4.6355   -2.4264    1.0501 H   0  0  0  0  0  0  0  0  0  0  0  0
   -3.9965   -3.4101   -0.2895 H   0  0  0  0  0  0  0  0  0  0  0  0
   -2.4882   -2.4913    0.9373 C   0  0  0  0  0  0  0  0  0  0  0  0
   -1.6818   -2.9835    1.7101 O   0  0  0  0  0  0  0  0  0  0  0  0
   -2.1682   -1.3522    0.2290 N   0  0  0  0  0  0  0  0  0  0  0  0
   -2.9071   -0.9197   -0.3240 H   0  0  0  0  0  0  0  0  0  0  0  0
   -0.9227   -0.5848    0.3885 C   0  0  1  0  0  0  0  0  0  0  0  0
   -0.4192   -0.8661    1.3194 H   0  0  0  0  0  0  0  0  0  0  0  0
   -0.0182   -0.9286   -0.8188 C   0  0  0  0  0  0  0  0  0  0  0  0
   -0.2576   -1.9481   -1.1400 H   0  0  0  0  0  0  0  0  0  0  0  0
   -0.2668   -0.2667   -1.6550 H   0  0  0  0  0  0  0  0  0  0  0  0
    1.4821   -0.8715   -0.5823 C   0  0  0  0  0  0  0  0  0  0  0  0
    2.3036   -1.7314   -1.3308 C   0  0  0  0  0  0  0  0  0  0  0  0
    1.8588   -2.4298   -2.0341 H   0  0  0  0  0  0  0  0  0  0  0  0
    3.6952   -1.7123   -1.1824 C   0  0  0  0  0  0  0  0  0  0  0  0
    4.3033   -2.3949   -1.7659 H   0  0  0  0  0  0  0  0  0  0  0  0
    4.2918   -0.8195   -0.2927 C   0  0  0  0  0  0  0  0  0  0  0  0
    5.6475   -0.7892   -0.1388 O   0  0  0  0  0  0  0  0  0  0  0  0
    6.0603   -1.4619   -0.7020 H   0  0  0  0  0  0  0  0  0  0  0  0
    3.4934    0.0546    0.4391 C   0  0  0  0  0  0  0  0  0  0  0  0
    3.9676    0.7544    1.1195 H   0  0  0  0  0  0  0  0  0  0  0  0
    2.1018    0.0365    0.2945 C   0  0  0  0  0  0  0  0  0  0  0  0
    1.5286    0.7476    0.8706 H   0  0  0  0  0  0  0  0  0  0  0  0
   -1.2776    0.9165    0.4453 C   0  0  0  0  0  0  0  0  0  0  0  0
   -2.1020    1.3723   -0.3400 O   0  0  0  0  0  0  0  0  0  0  0  0
   -0.7121    1.7568    1.3872 N   0  0  0  0  0  0  0  0  0  0  0  0
   -0.1233    1.3339    2.0993 H   0  0  0  0  0  0  0  0  0  0  0  0
   -1.0512    3.1699    1.5041 C   0  0  0  0  0  0  0  0  0  0  0  0
   -2.1233    3.2938    1.6895 H   0  0  0  0  0  0  0  0  0  0  0  0
   -0.5021    3.6228    2.3352 H   0  0  0  0  0  0  0  0  0  0  0  0
   -0.7883    3.7033    0.5844 H   0  0  0  0  0  0  0  0  0  0  0  0
  1  2  1  0  0  0  0
  2  3  1  0  0  0  0
  2  4  1  0  0  0  0
  2  5  1  0  0  0  0
  5  6  2  0  0  0  0
  5  7  1  0  0  0  0
  7  8  1  0  0  0  0
  7  9  1  0  0  0  0
  9 10  1  0  0  0  0
  9 11  1  0  0  0  0
  9 26  1  0  0  0  0
 11 12  1  0  0  0  0
 11 13  1  0  0  0  0
 11 14  1  0  0  0  0
 14 15  2  0  0  0  0
 14 24  1  0  0  0  0
 15 16  1  0  0  0  0
 15 17  1  0  0  0  0
 17 18  1  0  0  0  0
 17 19  2  0  0  0  0
 19 20  1  0  0  0  0
 19 22  1  0  0  0  0
 20 21  1  0  0  0  0
 22 23  1  0  0  0  0
 22 24  2  0  0  0  0
 24 25  1  0  0  0  0
 26 27  2  0  0  0  0
 26 28  1  0  0  0  0
 28 29  1  0  0  0  0
 28 30  1  0  0  0  0
 30 31  1  0  0  0  0
 30 32  1  0  0  0  0
 30 33  1  0  0  0  0
M  END
$$$$

  -OEChem-04042216043D

 33 33  0     1  0  0  0  0  0999 V2000
   -3.9598   -4.0311    1.3771 H   0  0  0  0  0  0  0  0  0  0  0  0
   -3.8762   -3.1371    0.7526 C   0  0  0  0  0  0  0  0  0  0  0  0
   -4.6593   -2.4314    1.0405 H   0  0  0  0  0  0  0  0  0  0  0  0
   -4.0185   -3.4233   -0.2923 H   0  0  0  0  0  0  0  0  0  0  0  0
   -2.5117   -2.4990    0.9332 C   0  0  0  0  0  0  0  0  0  0  0  0
   -1.7096   -2.9874    1.7127 O   0  0  0  0  0  0  0  0  0  0  0  0
   -2.1887   -1.3630    0.2206 N   0  0  0  0  0  0  0  0  0  0  0  0
   -2.9244   -0.9361   -0.3406 H   0  0  0  0  0  0  0  0  0  0  0  0
   -0.9453   -0.5931    0.3812 C   0  0  1  0  0  0  0  0  0  0  0  0
   -0.4611   -0.8788    1.3198 H   0  0  0  0  0  0  0  0  0  0  0  0
   -0.0207   -0.9272   -0.8115 C   0  0  0  0  0  0  0  0  0  0  0  0
   -0.2396   -1.9530   -1.1273 H   0  0  0  0  0  0  0  0  0  0  0  0
   -0.2709   -0.2750   -1.6551 H   0  0  0  0  0  0  0  0  0  0  0  0
    1.4780   -0.8585   -0.5660 C   0  0  0  0  0  0  0  0  0  0  0  0
    2.3202   -1.4594   -1.5158 C   0  0  0  0  0  0  0  0  0  0  0  0
    1.8892   -1.9569   -2.3801 H   0  0  0  0  0  0  0  0  0  0  0  0
    3.7118   -1.4302   -1.3698 C   0  0  0  0  0  0  0  0  0  0  0  0
    4.3369   -1.9051   -2.1179 H   0  0  0  0  0  0  0  0  0  0  0  0
    4.2866   -0.7936   -0.2702 C   0  0  0  0  0  0  0  0  0  0  0  0
    5.6422   -0.7582   -0.1145 O   0  0  0  0  0  0  0  0  0  0  0  0
    6.0720   -1.2427   -0.8362 H   0  0  0  0  0  0  0  0  0  0  0  0
    3.4662   -0.1883    0.6774 C   0  0  0  0  0  0  0  0  0  0  0  0
    3.9226    0.3051    1.5292 H   0  0  0  0  0  0  0  0  0  0  0  0
    2.0744   -0.2164    0.5358 C   0  0  0  0  0  0  0  0  0  0  0  0
    1.4841    0.2680    1.3013 H   0  0  0  0  0  0  0  0  0  0  0  0
   -1.2723    0.9140    0.4310 C   0  0  0  0  0  0  0  0  0  0  0  0
   -2.0966    1.3780   -0.3495 O   0  0  0  0  0  0  0  0  0  0  0  0
   -0.6928    1.7463    1.3713 N   0  0  0  0  0  0  0  0  0  0  0  0
   -0.0928    1.3207    2.0712 H   0  0  0  0  0  0  0  0  0  0  0  0
   -1.0038    3.1662    1.4832 C   0  0  0  0  0  0  0  0  0  0  0  0
   -2.0715    3.3121    1.6781 H   0  0  0  0  0  0  0  0  0  0  0  0
   -0.4379    3.6132    2.3063 H   0  0  0  0  0  0  0  0  0  0  0  0
   -0.7397    3.6894    0.5581 H   0  0  0  0  0  0  0  0  0  0  0  0
  1  2  1  0  0  0  0
  2  3  1  0  0  0  0
  2  4  1  0  0  0  0
  2  5  1  0  0  0  0
  5  6  2  0  0  0  0
  5  7  1  0  0  0  0
  7  8  1  0  0  0  0
  7  9  1  0  0  0  0
  9 10  1  0  0  0  0
  9 11  1  0  0  0  0
  9 26  1  0  0  0  0
 11 12  1  0  0  0  0
 11 13  1  0  0  0  0
 11 14  1  0  0  0  0
 14 15  2  0  0  0  0
 14 24  1  0  0  0  0
 15 16  1  0  0  0  0
 15 17  1  0  0  0  0
 17 18  1  0  0  0  0
 17 19  2  0  0  0  0
 19 20  1  0  0  0  0
 19 22  1  0  0  0  0
 20 21  1  0  0  0  0
 22 23  1  0  0  0  0
 22 24  2  0  0  0  0
 24 25  1  0  0  0  0
 26 27  2  0  0  0  0
 26 28  1  0  0  0  0
 28 29  1  0  0  0  0
 28 30  1  0  0  0  0
 30 31  1  0  0  0  0
 30 32  1  0  0  0  0
 30 33  1  0  0  0  0
M  END
$$$$

  -OEChem-04042216043D

 33 33  0     1  0  0  0  0  0999 V2000
   -4.0481   -4.0238    1.3806 H   0  0  0  0  0  0  0  0  0  0  0  0
   -3.9550   -3.1334    0.7525 C   0  0  0  0  0  0  0  0  0  0  0  0
   -4.7340   -2.4206    1.0335 H   0  0  0  0  0  0  0  0  0  0  0  0
   -4.0949   -3.4235   -0.2915 H   0  0  0  0  0  0  0  0  0  0  0  0
   -2.5867   -2.5045    0.9366 C   0  0  0  0  0  0  0  0  0  0  0  0
   -1.7954   -2.9899    1.7294 O   0  0  0  0  0  0  0  0  0  0  0  0
   -2.2498   -1.3793    0.2125 N   0  0  0  0  0  0  0  0  0  0  0  0
   -2.9803   -0.9528   -0.3553 H   0  0  0  0  0  0  0  0  0  0  0  0
   -1.0002   -0.6176    0.3702 C   0  0  1  0  0  0  0  0  0  0  0  0
   -0.5789   -0.8888    1.3365 H   0  0  0  0  0  0  0  0  0  0  0  0
   -0.0239   -0.9698   -0.7789 C   0  0  0  0  0  0  0  0  0  0  0  0
   -0.3914   -1.8787   -1.2667 H   0  0  0  0  0  0  0  0  0  0  0  0
   -0.0624   -0.1761   -1.5330 H   0  0  0  0  0  0  0  0  0  0  0  0
    1.4354   -1.2337   -0.4304 C   0  0  0  0  0  0  0  0  0  0  0  0
    2.2912   -1.5501   -1.4987 C   0  0  0  0  0  0  0  0  0  0  0  0
    1.8942   -1.6046   -2.5085 H   0  0  0  0  0  0  0  0  0  0  0  0
    3.6530   -1.7961   -1.2910 C   0  0  0  0  0  0  0  0  0  0  0  0
    4.2868   -2.0377   -2.1372 H   0  0  0  0  0  0  0  0  0  0  0  0
    4.1872   -1.7303   -0.0052 C   0  0  0  0  0  0  0  0  0  0  0  0
    5.5141   -1.9655    0.2115 O   0  0  0  0  0  0  0  0  0  0  0  0
    5.9535   -2.1809   -0.6255 H   0  0  0  0  0  0  0  0  0  0  0  0
    3.3550   -1.4219    1.0665 C   0  0  0  0  0  0  0  0  0  0  0  0
    3.7786   -1.3795    2.0646 H   0  0  0  0  0  0  0  0  0  0  0  0
    1.9921   -1.1750    0.8650 C   0  0  0  0  0  0  0  0  0  0  0  0
    1.4068   -0.9465    1.7462 H   0  0  0  0  0  0  0  0  0  0  0  0
   -1.2640    0.8989    0.4060 C   0  0  0  0  0  0  0  0  0  0  0  0
   -2.0847    1.3893   -0.3614 O   0  0  0  0  0  0  0  0  0  0  0  0
   -0.6443    1.7017    1.3457 N   0  0  0  0  0  0  0  0  0  0  0  0
    0.0390    1.2680    1.9597 H   0  0  0  0  0  0  0  0  0  0  0  0
   -0.8584    3.1407    1.4334 C   0  0  0  0  0  0  0  0  0  0  0  0
   -1.9171    3.3612    1.6064 H   0  0  0  0  0  0  0  0  0  0  0  0
   -0.2792    3.5596    2.2619 H   0  0  0  0  0  0  0  0  0  0  0  0
   -0.5423    3.6312    0.5068 H   0  0  0  0  0  0  0  0  0  0  0  0
  1  2  1  0  0  0  0
  2  3  1  0  0  0  0
  2  4  1  0  0  0  0
  2  5  1  0  0  0  0
  5  6  2  0  0  0  0
  5  7  1  0  0  0  0
  7  8  1  0  0  0  0
  7  9  1  0  0  0  0
  9 10  1  0  0  0  0
  9 11  1  0  0  0  0
  9 26  1  0  0  0  0
 11 12  1  0  0  0  0
 11 13  1  0  0  0  0
 11 14  1  0  0  0  0
 14 15  2  0  0  0  0
 14 24  1  0  0  0  0
 15 16  1  0  0  0  0
 15 17  1  0  0  0  0
 17 18  1  0  0  0  0
 17 19  2  0  0  0  0
 19 20  1  0  0  0  0
 19 22  1  0  0  0  0
 20 21  1  0  0  0  0
 22 23  1  0  0  0  0
 22 24  2  0  0  0  0
 24 25  1  0  0  0  0
 26 27  2  0  0  0  0
 26 28  1  0  0  0  0
 28 29  1  0  0  0  0
 28 30  1  0  0  0  0
 30 31  1  0  0  0  0
 30 32  1  0  0  0  0
 30 33  1  0  0  0  0
M  END
$$$$

  -OEChem-04042216043D

 33 33  0     1  0  0  0  0  0999 V2000
   -4.0146   -4.0152    1.4305 H   0  0  0  0  0  0  0  0  0  0  0  0
   -3.9337   -3.1306    0.7923 C   0  0  0  0  0  0  0  0  0  0  0  0
   -4.7118   -2.4183    1.0772 H   0  0  0  0  0  0  0  0  0  0  0  0
   -4.0870   -3.4315   -0.2469 H   0  0  0  0  0  0  0  0  0  0  0  0
   -2.5654   -2.4943    0.9513 C   0  0  0  0  0  0  0  0  0  0  0  0
   -1.7579   -2.9720    1.7331 O   0  0  0  0  0  0  0  0  0  0  0  0
   -2.2426   -1.3720    0.2164 N   0  0  0  0  0  0  0  0  0  0  0  0
   -2.9816   -0.9480   -0.3424 H   0  0  0  0  0  0  0  0  0  0  0  0
   -0.9960   -0.6053    0.3661 C   0  0  1  0  0  0  0  0  0  0  0  0
   -0.5655   -0.8488    1.3353 H   0  0  0  0  0  0  0  0  0  0  0  0
   -0.0223   -0.9455   -0.7896 C   0  0  0  0  0  0  0  0  0  0  0  0
   -0.3798   -1.8573   -1.2796 H   0  0  0  0  0  0  0  0  0  0  0  0
   -0.0707   -0.1502   -1.5415 H   0  0  0  0  0  0  0  0  0  0  0  0
    1.4354   -1.1998   -0.4311 C   0  0  0  0  0  0  0  0  0  0  0  0
    2.3656   -1.1810   -1.4839 C   0  0  0  0  0  0  0  0  0  0  0  0
    2.0353   -0.9451   -2.4916 H   0  0  0  0  0  0  0  0  0  0  0  0
    3.7216   -1.4438   -1.2596 C   0  0  0  0  0  0  0  0  0  0  0  0
    4.4176   -1.4022   -2.0903 H   0  0  0  0  0  0  0  0  0  0  0  0
    4.1700   -1.7601    0.0219 C   0  0  0  0  0  0  0  0  0  0  0  0
    5.4901   -2.0158    0.2554 O   0  0  0  0  0  0  0  0  0  0  0  0
    5.9914   -1.9528   -0.5719 H   0  0  0  0  0  0  0  0  0  0  0  0
    3.2555   -1.8330    1.0682 C   0  0  0  0  0  0  0  0  0  0  0  0
    3.6074   -2.1112    2.0564 H   0  0  0  0  0  0  0  0  0  0  0  0
    1.8980   -1.5732    0.8487 C   0  0  0  0  0  0  0  0  0  0  0  0
    1.2336   -1.7027    1.6952 H   0  0  0  0  0  0  0  0  0  0  0  0
   -1.2706    0.9096    0.3947 C   0  0  0  0  0  0  0  0  0  0  0  0
   -2.0984    1.3918   -0.3704 O   0  0  0  0  0  0  0  0  0  0  0  0
   -0.6520    1.7194    1.3291 N   0  0  0  0  0  0  0  0  0  0  0  0
    0.0475    1.2929    1.9308 H   0  0  0  0  0  0  0  0  0  0  0  0
   -0.8648    3.1594    1.4054 C   0  0  0  0  0  0  0  0  0  0  0  0
   -1.9236    3.3819    1.5745 H   0  0  0  0  0  0  0  0  0  0  0  0
   -0.2870    3.5845    2.2316 H   0  0  0  0  0  0  0  0  0  0  0  0
   -0.5468    3.6426    0.4756 H   0  0  0  0  0  0  0  0  0  0  0  0
  1  2  1  0  0  0  0
  2  3  1  0  0  0  0
  2  4  1  0  0  0  0
  2  5  1  0  0  0  0
  5  6  2  0  0  0  0
  5  7  1  0  0  0  0
  7  8  1  0  0  0  0
  7  9  1  0  0  0  0
  9 10  1  0  0  0  0
  9 11  1  0  0  0  0
  9 26  1  0  0  0  0
 11 12  1  0  0  0  0
 11 13  1  0  0  0  0
 11 14  1  0  0  0  0
 14 15  2  0  0  0  0
 14 24  1  0  0  0  0
 15 16  1  0  0  0  0
 15 17  1  0  0  0  0
 17 18  1  0  0  0  0
 17 19  2  0  0  0  0
 19 20  1  0  0  0  0
 19 22  1  0  0  0  0
 20 21  1  0  0  0  0
 22 23  1  0  0  0  0
 22 24  2  0  0  0  0
 24 25  1  0  0  0  0
 26 27  2  0  0  0  0
 26 28  1  0  0  0  0
 28 29  1  0  0  0  0
 28 30  1  0  0  0  0
 30 31  1  0  0  0  0
 30 32  1  0  0  0  0
 30 33  1  0  0  0  0
M  END
$$$$

  -OEChem-04042216043D

 33 33  0     1  0  0  0  0  0999 V2000
   -3.9721   -4.0163    1.4874 H   0  0  0  0  0  0  0  0  0  0  0  0
   -3.9092   -3.1354    0.8424 C   0  0  0  0  0  0  0  0  0  0  0  0
   -4.6756   -2.4193    1.1487 H   0  0  0  0  0  0  0  0  0  0  0  0
   -4.0968   -3.4408   -0.1898 H   0  0  0  0  0  0  0  0  0  0  0  0
   -2.5344   -2.5033    0.9532 C   0  0  0  0  0  0  0  0  0  0  0  0
   -1.6961   -2.9931    1.6944 O   0  0  0  0  0  0  0  0  0  0  0  0
   -2.2364   -1.3752    0.2167 N   0  0  0  0  0  0  0  0  0  0  0  0
   -2.9941   -0.9429   -0.3097 H   0  0  0  0  0  0  0  0  0  0  0  0
   -0.9864   -0.6097    0.3370 C   0  0  1  0  0  0  0  0  0  0  0  0
   -0.5210   -0.8553    1.2923 H   0  0  0  0  0  0  0  0  0  0  0  0
   -0.0437   -0.9422   -0.8439 C   0  0  0  0  0  0  0  0  0  0  0  0
   -0.4000   -1.8540   -1.3341 H   0  0  0  0  0  0  0  0  0  0  0  0
   -0.1014   -0.1431   -1.5912 H   0  0  0  0  0  0  0  0  0  0  0  0
    1.4057   -1.1876   -0.4638 C   0  0  0  0  0  0  0  0  0  0  0  0
    2.4067   -0.8628   -1.3937 C   0  0  0  0  0  0  0  0  0  0  0  0
    2.1403   -0.3873   -2.3335 H   0  0  0  0  0  0  0  0  0  0  0  0
    3.7544   -1.1267   -1.1232 C   0  0  0  0  0  0  0  0  0  0  0  0
    4.5089   -0.8452   -1.8496 H   0  0  0  0  0  0  0  0  0  0  0  0
    4.1203   -1.7538    0.0677 C   0  0  0  0  0  0  0  0  0  0  0  0
    5.4311   -2.0174    0.3417 O   0  0  0  0  0  0  0  0  0  0  0  0
    5.9898   -1.7280   -0.3957 H   0  0  0  0  0  0  0  0  0  0  0  0
    3.1339   -2.1337    0.9737 C   0  0  0  0  0  0  0  0  0  0  0  0
    3.4220   -2.6520    1.8825 H   0  0  0  0  0  0  0  0  0  0  0  0
    1.7853   -1.8730    0.7073 C   0  0  0  0  0  0  0  0  0  0  0  0
    1.0474   -2.2409    1.4149 H   0  0  0  0  0  0  0  0  0  0  0  0
   -1.2573    0.9047    0.3858 C   0  0  0  0  0  0  0  0  0  0  0  0
   -2.1045    1.3954   -0.3523 O   0  0  0  0  0  0  0  0  0  0  0  0
   -0.6096    1.7035    1.3096 N   0  0  0  0  0  0  0  0  0  0  0  0
    0.1058    1.2684    1.8863 H   0  0  0  0  0  0  0  0  0  0  0  0
   -0.8182    3.1423    1.4097 C   0  0  0  0  0  0  0  0  0  0  0  0
   -1.8727    3.3638    1.6053 H   0  0  0  0  0  0  0  0  0  0  0  0
   -0.2219    3.5558    2.2289 H   0  0  0  0  0  0  0  0  0  0  0  0
   -0.5199    3.6375    0.4798 H   0  0  0  0  0  0  0  0  0  0  0  0
  1  2  1  0  0  0  0
  2  3  1  0  0  0  0
  2  4  1  0  0  0  0
  2  5  1  0  0  0  0
  5  6  2  0  0  0  0
  5  7  1  0  0  0  0
  7  8  1  0  0  0  0
  7  9  1  0  0  0  0
  9 10  1  0  0  0  0
  9 11  1  0  0  0  0
  9 26  1  0  0  0  0
 11 12  1  0  0  0  0
 11 13  1  0  0  0  0
 11 14  1  0  0  0  0
 14 15  2  0  0  0  0
 14 24  1  0  0  0  0
 15 16  1  0  0  0  0
 15 17  1  0  0  0  0
 17 18  1  0  0  0  0
 17 19  2  0  0  0  0
 19 20  1  0  0  0  0
 19 22  1  0  0  0  0
 20 21  1  0  0  0  0
 22 23  1  0  0  0  0
 22 24  2  0  0  0  0
 24 25  1  0  0  0  0
 26 27  2  0  0  0  0
 26 28  1  0  0  0  0
 28 29  1  0  0  0  0
 28 30  1  0  0  0  0
 30 31  1  0  0  0  0
 30 32  1  0  0  0  0
 30 33  1  0  0  0  0
M  END
$$$$

  -OEChem-04042216043D

 33 33  0     1  0  0  0  0  0999 V2000
   -3.9643   -4.0172    1.4997 H   0  0  0  0  0  0  0  0  0  0  0  0
   -3.9044   -3.1319    0.8606 C   0  0  0  0  0  0  0  0  0  0  0  0
   -4.6542   -2.4083    1.1897 H   0  0  0  0  0  0  0  0  0  0  0  0
   -4.1191   -3.4259   -0.1696 H   0  0  0  0  0  0  0  0  0  0  0  0
   -2.5197   -2.5182    0.9458 C   0  0  0  0  0  0  0  0  0  0  0  0
   -1.6685   -3.0281    1.6577 O   0  0  0  0  0  0  0  0  0  0  0  0
   -2.2298   -1.3841    0.2159 N   0  0  0  0  0  0  0  0  0  0  0  0
   -2.9982   -0.9413   -0.2856 H   0  0  0  0  0  0  0  0  0  0  0  0
   -0.9728   -0.6259    0.3079 C   0  0  1  0  0  0  0  0  0  0  0  0
   -0.4740   -0.8907    1.2436 H   0  0  0  0  0  0  0  0  0  0  0  0
   -0.0642   -0.9599   -0.8964 C   0  0  0  0  0  0  0  0  0  0  0  0
   -0.4276   -1.8726   -1.3799 H   0  0  0  0  0  0  0  0  0  0  0  0
   -0.1294   -0.1615   -1.6436 H   0  0  0  0  0  0  0  0  0  0  0  0
    1.3785   -1.2052   -0.5059 C   0  0  0  0  0  0  0  0  0  0  0  0
    2.4101   -0.6187   -1.2556 C   0  0  0  0  0  0  0  0  0  0  0  0
    2.1730    0.0433   -2.0837 H   0  0  0  0  0  0  0  0  0  0  0  0
    3.7517   -0.8678   -0.9417 C   0  0  0  0  0  0  0  0  0  0  0  0
    4.5330   -0.3925   -1.5246 H   0  0  0  0  0  0  0  0  0  0  0  0
    4.0789   -1.7257    0.1097 C   0  0  0  0  0  0  0  0  0  0  0  0
    5.3835   -1.9765    0.4231 O   0  0  0  0  0  0  0  0  0  0  0  0
    5.9693   -1.5144   -0.1958 H   0  0  0  0  0  0  0  0  0  0  0  0
    3.0625   -2.3425    0.8354 C   0  0  0  0  0  0  0  0  0  0  0  0
    3.3224   -3.0249    1.6382 H   0  0  0  0  0  0  0  0  0  0  0  0
    1.7206   -2.0983    0.5249 C   0  0  0  0  0  0  0  0  0  0  0  0
    0.9487   -2.6203    1.0855 H   0  0  0  0  0  0  0  0  0  0  0  0
   -1.2315    0.8896    0.3793 C   0  0  0  0  0  0  0  0  0  0  0  0
   -2.0965    1.3931   -0.3286 O   0  0  0  0  0  0  0  0  0  0  0  0
   -0.5524    1.6749    1.2920 N   0  0  0  0  0  0  0  0  0  0  0  0
    0.1644    1.2259    1.8563 H   0  0  0  0  0  0  0  0  0  0  0  0
   -0.7697    3.1090    1.4345 C   0  0  0  0  0  0  0  0  0  0  0  0
   -1.8151    3.3152    1.6872 H   0  0  0  0  0  0  0  0  0  0  0  0
   -0.1368    3.5097    2.2322 H   0  0  0  0  0  0  0  0  0  0  0  0
   -0.5230    3.6281    0.5025 H   0  0  0  0  0  0  0  0  0  0  0  0
  1  2  1  0  0  0  0
  2  3  1  0  0  0  0
  2  4  1  0  0  0  0
  2  5  1  0  0  0  0
  5  6  2  0  0  0  0
  5  7  1  0  0  0  0
  7  8  1  0  0  0  0
  7  9  1  0  0  0  0
  9 10  1  0  0  0  0
  9 11  1  0  0  0  0
  9 26  1  0  0  0  0
 11 12  1  0  0  0  0
 11 13  1  0  0  0  0
 11 14  1  0  0  0  0
 14 15  2  0  0  0  0
 14 24  1  0  0  0  0
 15 16  1  0  0  0  0
 15 17  1  0  0  0  0
 17 18  1  0  0  0  0
 17 19  2  0  0  0  0
 19 20  1  0  0  0  0
 19 22  1  0  0  0  0
 20 21  1  0  0  0  0
 22 23  1  0  0  0  0
 22 24  2  0  0  0  0
 24 25  1  0  0  0  0
 26 27  2  0  0  0  0
 26 28  1  0  0  0  0
 28 29  1  0  0  0  0
 28 30  1  0  0  0  0
 30 31  1  0  0  0  0
 30 32  1  0  0  0  0
 30 33  1  0  0  0  0
M  END
$$$$

  -OEChem-04042216043D

 33 33  0     1  0  0  0  0  0999 V2000
   -3.9566   -4.0236    1.5206 H   0  0  0  0  0  0  0  0  0  0  0  0
   -3.9014   -3.1430    0.8745 C   0  0  0  0  0  0  0  0  0  0  0  0
   -4.6369   -2.4103    1.2152 H   0  0  0  0  0  0  0  0  0  0  0  0
   -4.1405   -3.4414   -0.1490 H   0  0  0  0  0  0  0  0  0  0  0  0
   -2.5093   -2.5421    0.9260 C   0  0  0  0  0  0  0  0  0  0  0  0
   -1.6407   -3.0727    1.6007 O   0  0  0  0  0  0  0  0  0  0  0  0
   -2.2324   -1.3981    0.2064 N   0  0  0  0  0  0  0  0  0  0  0  0
   -3.0116   -0.9454   -0.2688 H   0  0  0  0  0  0  0  0  0  0  0  0
   -0.9711   -0.6442    0.2791 C   0  0  1  0  0  0  0  0  0  0  0  0
   -0.4487   -0.9324    1.1967 H   0  0  0  0  0  0  0  0  0  0  0  0
   -0.0886   -0.9712   -0.9431 C   0  0  0  0  0  0  0  0  0  0  0  0
   -0.4571   -1.8811   -1.4281 H   0  0  0  0  0  0  0  0  0  0  0  0
   -0.1570   -0.1691   -1.6859 H   0  0  0  0  0  0  0  0  0  0  0  0
    1.3490   -1.2155   -0.5449 C   0  0  0  0  0  0  0  0  0  0  0  0
    2.3733   -0.4067   -1.0605 C   0  0  0  0  0  0  0  0  0  0  0  0
    2.1355    0.4116   -1.7346 H   0  0  0  0  0  0  0  0  0  0  0  0
    3.7082   -0.6416   -0.7093 C   0  0  0  0  0  0  0  0  0  0  0  0
    4.4859   -0.0023   -1.1127 H   0  0  0  0  0  0  0  0  0  0  0  0
    4.0336   -1.6929    0.1503 C   0  0  0  0  0  0  0  0  0  0  0  0
    5.3321   -1.9312    0.4974 O   0  0  0  0  0  0  0  0  0  0  0  0
    5.9184   -1.3059    0.0446 H   0  0  0  0  0  0  0  0  0  0  0  0
    3.0228   -2.5097    0.6531 C   0  0  0  0  0  0  0  0  0  0  0  0
    3.2827   -3.3301    1.3142 H   0  0  0  0  0  0  0  0  0  0  0  0
    1.6872   -2.2805    0.3056 C   0  0  0  0  0  0  0  0  0  0  0  0
    0.9129   -2.9349    0.6997 H   0  0  0  0  0  0  0  0  0  0  0  0
   -1.2126    0.8719    0.3789 C   0  0  0  0  0  0  0  0  0  0  0  0
   -2.0790    1.3969   -0.3114 O   0  0  0  0  0  0  0  0  0  0  0  0
   -0.5035    1.6366    1.2863 N   0  0  0  0  0  0  0  0  0  0  0  0
    0.2088    1.1674    1.8398 H   0  0  0  0  0  0  0  0  0  0  0  0
   -0.6909    3.0732    1.4454 C   0  0  0  0  0  0  0  0  0  0  0  0
   -1.7317    3.2986    1.7008 H   0  0  0  0  0  0  0  0  0  0  0  0
   -0.0495    3.4514    2.2473 H   0  0  0  0  0  0  0  0  0  0  0  0
   -0.4339    3.5974    0.5191 H   0  0  0  0  0  0  0  0  0  0  0  0
  1  2  1  0  0  0  0
  2  3  1  0  0  0  0
  2  4  1  0  0  0  0
  2  5  1  0  0  0  0
  5  6  2  0  0  0  0
  5  7  1  0  0  0  0
  7  8  1  0  0  0  0
  7  9  1  0  0  0  0
  9 10  1  0  0  0  0
  9 11  1  0  0  0  0
  9 26  1  0  0  0  0
 11 12  1  0  0  0  0
 11 13  1  0  0  0  0
 11 14  1  0  0  0  0
 14 15  2  0  0  0  0
 14 24  1  0  0  0  0
 15 16  1  0  0  0  0
 15 17  1  0  0  0  0
 17 18  1  0  0  0  0
 17 19  2  0  0  0  0
 19 20  1  0  0  0  0
 19 22  1  0  0  0  0
 20 21  1  0  0  0  0
 22 23  1  0  0  0  0
 22 24  2  0  0  0  0
 24 25  1  0  0  0  0
 26 27  2  0  0  0  0
 26 28  1  0  0  0  0
 28 29  1  0  0  0  0
 28 30  1  0  0  0  0
 30 31  1  0  0  0  0
 30 32  1  0  0  0  0
 30 33  1  0  0  0  0
M  END
$$$$

  -OEChem-04042216043D

 33 33  0     1  0  0  0  0  0999 V2000
   -3.9334   -4.0282    1.5228 H   0  0  0  0  0  0  0  0  0  0  0  0
   -3.8897   -3.1435    0.8814 C   0  0  0  0  0  0  0  0  0  0  0  0
   -4.6101   -2.4077    1.2469 H   0  0  0  0  0  0  0  0  0  0  0  0
   -4.1596   -3.4325   -0.1372 H   0  0  0  0  0  0  0  0  0  0  0  0
   -2.4923   -2.5535    0.8989 C   0  0  0  0  0  0  0  0  0  0  0  0
   -1.6062   -3.1037    1.5340 O   0  0  0  0  0  0  0  0  0  0  0  0
   -2.2292   -1.4009    0.1880 N   0  0  0  0  0  0  0  0  0  0  0  0
   -3.0195   -0.9354   -0.2558 H   0  0  0  0  0  0  0  0  0  0  0  0
   -0.9643   -0.6522    0.2441 C   0  0  1  0  0  0  0  0  0  0  0  0
   -0.4267   -0.9566    1.1485 H   0  0  0  0  0  0  0  0  0  0  0  0
   -0.1025   -0.9817   -0.9891 C   0  0  0  0  0  0  0  0  0  0  0  0
   -0.4795   -1.8877   -1.4752 H   0  0  0  0  0  0  0  0  0  0  0  0
   -0.1670   -0.1761   -1.7283 H   0  0  0  0  0  0  0  0  0  0  0  0
    1.3307   -1.2271   -0.5859 C   0  0  0  0  0  0  0  0  0  0  0  0
    2.3154   -0.2600   -0.8350 C   0  0  0  0  0  0  0  0  0  0  0  0
    2.0529    0.6703   -1.3310 H   0  0  0  0  0  0  0  0  0  0  0  0
    3.6421   -0.4862   -0.4495 C   0  0  0  0  0  0  0  0  0  0  0  0
    4.3927    0.2699   -0.6525 H   0  0  0  0  0  0  0  0  0  0  0  0
    3.9943   -1.6770    0.1903 C   0  0  0  0  0  0  0  0  0  0  0  0
    5.2853   -1.9066    0.5695 O   0  0  0  0  0  0  0  0  0  0  0  0
    5.8496   -1.1675    0.2955 H   0  0  0  0  0  0  0  0  0  0  0  0
    3.0177   -2.6385    0.4445 C   0  0  0  0  0  0  0  0  0  0  0  0
    3.2961   -3.5600    0.9454 H   0  0  0  0  0  0  0  0  0  0  0  0
    1.6907   -2.4192    0.0597 C   0  0  0  0  0  0  0  0  0  0  0  0
    0.9369   -3.1741    0.2720 H   0  0  0  0  0  0  0  0  0  0  0  0
   -1.1923    0.8636    0.3689 C   0  0  0  0  0  0  0  0  0  0  0  0
   -2.0741    1.4037   -0.2892 O   0  0  0  0  0  0  0  0  0  0  0  0
   -0.4576    1.6098    1.2712 N   0  0  0  0  0  0  0  0  0  0  0  0
    0.2583    1.1261    1.8075 H   0  0  0  0  0  0  0  0  0  0  0  0
   -0.6449    3.0415    1.4689 C   0  0  0  0  0  0  0  0  0  0  0  0
   -1.6766    3.2561    1.7674 H   0  0  0  0  0  0  0  0  0  0  0  0
    0.0238    3.4053    2.2549 H   0  0  0  0  0  0  0  0  0  0  0  0
   -0.4238    3.5870    0.5455 H   0  0  0  0  0  0  0  0  0  0  0  0
  1  2  1  0  0  0  0
  2  3  1  0  0  0  0
  2  4  1  0  0  0  0
  2  5  1  0  0  0  0
  5  6  2  0  0  0  0
  5  7  1  0  0  0  0
  7  8  1  0  0  0  0
  7  9  1  0  0  0  0
  9 10  1  0  0  0  0
  9 11  1  0  0  0  0
  9 26  1  0  0  0  0
 11 12  1  0  0  0  0
 11 13  1  0  0  0  0
 11 14  1  0  0  0  0
 14 15  2  0  0  0  0
 14 24  1  0  0  0  0
 15 16  1  0  0  0  0
 15 17  1  0  0  0  0
 17 18  1  0  0  0  0
 17 19  2  0  0  0  0
 19 20  1  0  0  0  0
 19 22  1  0  0  0  0
 20 21  1  0  0  0  0
 22 23  1  0  0  0  0
 22 24  2  0  0  0  0
 24 25  1  0  0  0  0
 26 27  2  0  0  0  0
 26 28  1  0  0  0  0
 28 29  1  0  0  0  0
 28 30  1  0  0  0  0
 30 31  1  0  0  0  0
 30 32  1  0  0  0  0
 30 33  1  0  0  0  0
M  END
$$$$

  -OEChem-04042216043D

 33 33  0     1  0  0  0  0  0999 V2000
   -3.9267   -4.0215    1.5318 H   0  0  0  0  0  0  0  0  0  0  0  0
   -3.8844   -3.1416    0.8837 C   0  0  0  0  0  0  0  0  0  0  0  0
   -4.6004   -2.4012    1.2487 H   0  0  0  0  0  0  0  0  0  0  0  0
   -4.1610   -3.4373   -0.1311 H   0  0  0  0  0  0  0  0  0  0  0  0
   -2.4850   -2.5557    0.8885 C   0  0  0  0  0  0  0  0  0  0  0  0
   -1.5943   -3.1127    1.5104 O   0  0  0  0  0  0  0  0  0  0  0  0
   -2.2260   -1.3995    0.1817 N   0  0  0  0  0  0  0  0  0  0  0  0
   -3.0197   -0.9281   -0.2496 H   0  0  0  0  0  0  0  0  0  0  0  0
   -0.9583   -0.6547    0.2290 C   0  0  1  0  0  0  0  0  0  0  0  0
   -0.4109   -0.9683    1.1249 H   0  0  0  0  0  0  0  0  0  0  0  0
   -0.1091   -0.9834   -1.0125 C   0  0  0  0  0  0  0  0  0  0  0  0
   -0.4963   -1.8827   -1.5029 H   0  0  0  0  0  0  0  0  0  0  0  0
   -0.1688   -0.1726   -1.7466 H   0  0  0  0  0  0  0  0  0  0  0  0
    1.3240   -1.2324   -0.6135 C   0  0  0  0  0  0  0  0  0  0  0  0
    2.2435   -0.1737   -0.5711 C   0  0  0  0  0  0  0  0  0  0  0  0
    1.9339    0.8278   -0.8573 H   0  0  0  0  0  0  0  0  0  0  0  0
    3.5647   -0.4005   -0.1669 C   0  0  0  0  0  0  0  0  0  0  0  0
    4.2662    0.4263   -0.1461 H   0  0  0  0  0  0  0  0  0  0  0  0
    3.9744   -1.6834    0.2050 C   0  0  0  0  0  0  0  0  0  0  0  0
    5.2600   -1.9162    0.6009 O   0  0  0  0  0  0  0  0  0  0  0  0
    5.7781   -1.0985    0.5509 H   0  0  0  0  0  0  0  0  0  0  0  0
    3.0599   -2.7350    0.1767 C   0  0  0  0  0  0  0  0  0  0  0  0
    3.3825   -3.7271    0.4751 H   0  0  0  0  0  0  0  0  0  0  0  0
    1.7383   -2.5144   -0.2255 C   0  0  0  0  0  0  0  0  0  0  0  0
    1.0305   -3.3398   -0.2233 H   0  0  0  0  0  0  0  0  0  0  0  0
   -1.1802    0.8607    0.3652 C   0  0  0  0  0  0  0  0  0  0  0  0
   -2.0596    1.4094   -0.2885 O   0  0  0  0  0  0  0  0  0  0  0  0
   -0.4335    1.5984    1.2647 N   0  0  0  0  0  0  0  0  0  0  0  0
    0.2637    1.1021    1.8141 H   0  0  0  0  0  0  0  0  0  0  0  0
   -0.6229    3.0268    1.4827 C   0  0  0  0  0  0  0  0  0  0  0  0
   -1.6520    3.2337    1.7950 H   0  0  0  0  0  0  0  0  0  0  0  0
    0.0537    3.3827    2.2657 H   0  0  0  0  0  0  0  0  0  0  0  0
   -0.4140    3.5848    0.5640 H   0  0  0  0  0  0  0  0  0  0  0  0
  1  2  1  0  0  0  0
  2  3  1  0  0  0  0
  2  4  1  0  0  0  0
  2  5  1  0  0  0  0
  5  6  2  0  0  0  0
  5  7  1  0  0  0  0
  7  8  1  0  0  0  0
  7  9  1  0  0  0  0
  9 10  1  0  0  0  0
  9 11  1  0  0  0  0
  9 26  1  0  0  0  0
 11 12  1  0  0  0  0
 11 13  1  0  0  0  0
 11 14  1  0  0  0  0
 14 15  2  0  0  0  0
 14 24  1  0  0  0  0
 15 16  1  0  0  0  0
 15 17  1  0  0  0  0
 17 18  1  0  0  0  0
 17 19  2  0  0  0  0
 19 20  1  0  0  0  0
 19 22  1  0  0  0  0
 20 21  1  0  0  0  0
 22 23  1  0  0  0  0
 22 24  2  0  0  0  0
 24 25  1  0  0  0  0
 26 27  2  0  0  0  0
 26 28  1  0  0  0  0
 28 29  1  0  0  0  0
 28 30  1  0  0  0  0
 30 31  1  0  0  0  0
 30 32  1  0  0  0  0
 30 33  1  0  0  0  0
M  END
$$$$

  -OEChem-04042216043D

 33 33  0     1  0  0  0  0  0999 V2000
   -3.9363   -4.0235    1.4996 H   0  0  0  0  0  0  0  0  0  0  0  0
   -3.8870   -3.1349    0.8639 C   0  0  0  0  0  0  0  0  0  0  0  0
   -4.6142   -2.4034    1.2248 H   0  0  0  0  0  0  0  0  0  0  0  0
   -4.1432   -3.4193   -0.1596 H   0  0  0  0  0  0  0  0  0  0  0  0
   -2.4911   -2.5409    0.9019 C   0  0  0  0  0  0  0  0  0  0  0  0
   -1.6161   -3.0847    1.5563 O   0  0  0  0  0  0  0  0  0  0  0  0
   -2.2202   -1.3888    0.1928 N   0  0  0  0  0  0  0  0  0  0  0  0
   -3.0034   -0.9303   -0.2700 H   0  0  0  0  0  0  0  0  0  0  0  0
   -0.9517   -0.6451    0.2445 C   0  0  1  0  0  0  0  0  0  0  0  0
   -0.4047   -0.9569    1.1411 H   0  0  0  0  0  0  0  0  0  0  0  0
   -0.1034   -0.9859   -0.9967 C   0  0  0  0  0  0  0  0  0  0  0  0
   -0.5042   -1.8802   -1.4855 H   0  0  0  0  0  0  0  0  0  0  0  0
   -0.1563   -0.1750   -1.7314 H   0  0  0  0  0  0  0  0  0  0  0  0
    1.3348   -1.2423   -0.6148 C   0  0  0  0  0  0  0  0  0  0  0  0
    2.1818   -0.1729   -0.2844 C   0  0  0  0  0  0  0  0  0  0  0  0
    1.8182    0.8488   -0.3467 H   0  0  0  0  0  0  0  0  0  0  0  0
    3.5045   -0.4105    0.1070 C   0  0  0  0  0  0  0  0  0  0  0  0
    4.1495    0.4276    0.3472 H   0  0  0  0  0  0  0  0  0  0  0  0
    3.9887   -1.7183    0.1845 C   0  0  0  0  0  0  0  0  0  0  0  0
    5.2763   -1.9626    0.5666 O   0  0  0  0  0  0  0  0  0  0  0  0
    5.7356   -1.1278    0.7447 H   0  0  0  0  0  0  0  0  0  0  0  0
    3.1469   -2.7845   -0.1269 C   0  0  0  0  0  0  0  0  0  0  0  0
    3.5269   -3.7983   -0.0547 H   0  0  0  0  0  0  0  0  0  0  0  0
    1.8245   -2.5529   -0.5209 C   0  0  0  0  0  0  0  0  0  0  0  0
    1.1773   -3.3974   -0.7412 H   0  0  0  0  0  0  0  0  0  0  0  0
   -1.1811    0.8702    0.3710 C   0  0  0  0  0  0  0  0  0  0  0  0
   -2.0504    1.4154   -0.2988 O   0  0  0  0  0  0  0  0  0  0  0  0
   -0.4434    1.6146    1.2729 N   0  0  0  0  0  0  0  0  0  0  0  0
    0.2157    1.1138    1.8635 H   0  0  0  0  0  0  0  0  0  0  0  0
   -0.6536    3.0394    1.4970 C   0  0  0  0  0  0  0  0  0  0  0  0
   -1.6775    3.2266    1.8371 H   0  0  0  0  0  0  0  0  0  0  0  0
    0.0374    3.4085    2.2610 H   0  0  0  0  0  0  0  0  0  0  0  0
   -0.4797    3.6014    0.5734 H   0  0  0  0  0  0  0  0  0  0  0  0
  1  2  1  0  0  0  0
  2  3  1  0  0  0  0
  2  4  1  0  0  0  0
  2  5  1  0  0  0  0
  5  6  2  0  0  0  0
  5  7  1  0  0  0  0
  7  8  1  0  0  0  0
  7  9  1  0  0  0  0
  9 10  1  0  0  0  0
  9 11  1  0  0  0  0
  9 26  1  0  0  0  0
 11 12  1  0  0  0  0
 11 13  1  0  0  0  0
 11 14  1  0  0  0  0
 14 15  2  0  0  0  0
 14 24  1  0  0  0  0
 15 16  1  0  0  0  0
 15 17  1  0  0  0  0
 17 18  1  0  0  0  0
 17 19  2  0  0  0  0
 19 20  1  0  0  0  0
 19 22  1  0  0  0  0
 20 21  1  0  0  0  0
 22 23  1  0  0  0  0
 22 24  2  0  0  0  0
 24 25  1  0  0  0  0
 26 27  2  0  0  0  0
 26 28  1  0  0  0  0
 28 29  1  0  0  0  0
 28 30  1  0  0  0  0
 30 31  1  0  0  0  0
 30 32  1  0  0  0  0
 30 33  1  0  0  0  0
M  END
$$$$

  -OEChem-04042216043D

 33 33  0     1  0  0  0  0  0999 V2000
   -3.9402   -4.0139    1.4736 H   0  0  0  0  0  0  0  0  0  0  0  0
   -3.8786   -3.1236    0.8415 C   0  0  0  0  0  0  0  0  0  0  0  0
   -4.6257   -2.4004    1.1776 H   0  0  0  0  0  0  0  0  0  0  0  0
   -4.0959   -3.4086   -0.1907 H   0  0  0  0  0  0  0  0  0  0  0  0
   -2.4919   -2.5144    0.9297 C   0  0  0  0  0  0  0  0  0  0  0  0
   -1.6445   -3.0292    1.6412 O   0  0  0  0  0  0  0  0  0  0  0  0
   -2.2032   -1.3720    0.2126 N   0  0  0  0  0  0  0  0  0  0  0  0
   -2.9688   -0.9320   -0.2954 H   0  0  0  0  0  0  0  0  0  0  0  0
   -0.9374   -0.6254    0.2862 C   0  0  1  0  0  0  0  0  0  0  0  0
   -0.3994   -0.9244    1.1922 H   0  0  0  0  0  0  0  0  0  0  0  0
   -0.0790   -0.9779   -0.9494 C   0  0  0  0  0  0  0  0  0  0  0  0
   -0.4926   -1.8667   -1.4374 H   0  0  0  0  0  0  0  0  0  0  0  0
   -0.1268   -0.1671   -1.6842 H   0  0  0  0  0  0  0  0  0  0  0  0
    1.3676   -1.2475   -0.5936 C   0  0  0  0  0  0  0  0  0  0  0  0
    2.1602   -0.2624    0.0186 C   0  0  0  0  0  0  0  0  0  0  0  0
    1.7592    0.7294    0.1980 H   0  0  0  0  0  0  0  0  0  0  0  0
    3.4864   -0.5346    0.3752 C   0  0  0  0  0  0  0  0  0  0  0  0
    4.0859    0.2423    0.8371 H   0  0  0  0  0  0  0  0  0  0  0  0
    4.0339   -1.7958    0.1319 C   0  0  0  0  0  0  0  0  0  0  0  0
    5.3257   -2.0732    0.4757 O   0  0  0  0  0  0  0  0  0  0  0  0
    5.7345   -1.2974    0.8885 H   0  0  0  0  0  0  0  0  0  0  0  0
    3.2523   -2.7807   -0.4679 C   0  0  0  0  0  0  0  0  0  0  0  0
    3.6830   -3.7601   -0.6485 H   0  0  0  0  0  0  0  0  0  0  0  0
    1.9266   -2.5136   -0.8268 C   0  0  0  0  0  0  0  0  0  0  0  0
    1.3321   -3.3017   -1.2799 H   0  0  0  0  0  0  0  0  0  0  0  0
   -1.2004    0.8883    0.3857 C   0  0  0  0  0  0  0  0  0  0  0  0
   -2.0549    1.4072   -0.3232 O   0  0  0  0  0  0  0  0  0  0  0  0
   -0.5057    1.6645    1.2954 N   0  0  0  0  0  0  0  0  0  0  0  0
    0.1110    1.1819    1.9436 H   0  0  0  0  0  0  0  0  0  0  0  0
   -0.7699    3.0834    1.4993 C   0  0  0  0  0  0  0  0  0  0  0  0
   -1.8005    3.2373    1.8361 H   0  0  0  0  0  0  0  0  0  0  0  0
   -0.0934    3.4890    2.2578 H   0  0  0  0  0  0  0  0  0  0  0  0
   -0.6168    3.6392    0.5683 H   0  0  0  0  0  0  0  0  0  0  0  0
  1  2  1  0  0  0  0
  2  3  1  0  0  0  0
  2  4  1  0  0  0  0
  2  5  1  0  0  0  0
  5  6  2  0  0  0  0
  5  7  1  0  0  0  0
  7  8  1  0  0  0  0
  7  9  1  0  0  0  0
  9 10  1  0  0  0  0
  9 11  1  0  0  0  0
  9 26  1  0  0  0  0
 11 12  1  0  0  0  0
 11 13  1  0  0  0  0
 11 14  1  0  0  0  0
 14 15  2  0  0  0  0
 14 24  1  0  0  0  0
 15 16  1  0  0  0  0
 15 17  1  0  0  0  0
 17 18  1  0  0  0  0
 17 19  2  0  0  0  0
 19 20  1  0  0  0  0
 19 22  1  0  0  0  0
 20 21  1  0  0  0  0
 22 23  1  0  0  0  0
 22 24  2  0  0  0  0
 24 25  1  0  0  0  0
 26 27  2  0  0  0  0
 26 28  1  0  0  0  0
 28 29  1  0  0  0  0
 28 30  1  0  0  0  0
 30 31  1  0  0  0  0
 30 32  1  0  0  0  0
 30 33  1  0  0  0  0
M  END
$$$$

  -OEChem-04042216043D

 33 33  0     1  0  0  0  0  0999 V2000
   -3.9658   -4.0031    1.4524 H   0  0  0  0  0  0  0  0  0  0  0  0
   -3.8868   -3.1171    0.8163 C   0  0  0  0  0  0  0  0  0  0  0  0
   -4.6540   -2.3991    1.1160 H   0  0  0  0  0  0  0  0  0  0  0  0
   -4.0589   -3.4122   -0.2217 H   0  0  0  0  0  0  0  0  0  0  0  0
   -2.5104   -2.4938    0.9555 C   0  0  0  0  0  0  0  0  0  0  0  0
   -1.6936   -2.9853    1.7176 O   0  0  0  0  0  0  0  0  0  0  0  0
   -2.1974   -1.3627    0.2304 N   0  0  0  0  0  0  0  0  0  0  0  0
   -2.9429   -0.9353   -0.3170 H   0  0  0  0  0  0  0  0  0  0  0  0
   -0.9341   -0.6147    0.3343 C   0  0  1  0  0  0  0  0  0  0  0  0
   -0.4177   -0.9016    1.2559 H   0  0  0  0  0  0  0  0  0  0  0  0
   -0.0517   -0.9724   -0.8859 C   0  0  0  0  0  0  0  0  0  0  0  0
   -0.4683   -1.8593   -1.3749 H   0  0  0  0  0  0  0  0  0  0  0  0
   -0.0914   -0.1633   -1.6233 H   0  0  0  0  0  0  0  0  0  0  0  0
    1.3999   -1.2542   -0.5459 C   0  0  0  0  0  0  0  0  0  0  0  0
    2.1387   -0.4353    0.3258 C   0  0  0  0  0  0  0  0  0  0  0  0
    1.6945    0.4527    0.7587 H   0  0  0  0  0  0  0  0  0  0  0  0
    3.4719   -0.7353    0.6314 C   0  0  0  0  0  0  0  0  0  0  0  0
    4.0253   -0.0878    1.3026 H   0  0  0  0  0  0  0  0  0  0  0  0
    4.0857   -1.8568    0.0717 C   0  0  0  0  0  0  0  0  0  0  0  0
    5.3855   -2.1580    0.3605 O   0  0  0  0  0  0  0  0  0  0  0  0
    5.7487   -1.5074    0.9804 H   0  0  0  0  0  0  0  0  0  0  0  0
    3.3635   -2.6746   -0.7932 C   0  0  0  0  0  0  0  0  0  0  0  0
    3.8460   -3.5460   -1.2234 H   0  0  0  0  0  0  0  0  0  0  0  0
    2.0313   -2.3788   -1.1013 C   0  0  0  0  0  0  0  0  0  0  0  0
    1.4881   -3.0358   -1.7742 H   0  0  0  0  0  0  0  0  0  0  0  0
   -1.2205    0.8981    0.4000 C   0  0  0  0  0  0  0  0  0  0  0  0
   -2.0536    1.3917   -0.3515 O   0  0  0  0  0  0  0  0  0  0  0  0
   -0.5721    1.7051    1.3174 N   0  0  0  0  0  0  0  0  0  0  0  0
    0.0062    1.2452    2.0149 H   0  0  0  0  0  0  0  0  0  0  0  0
   -0.8672    3.1243    1.4764 C   0  0  0  0  0  0  0  0  0  0  0  0
   -1.9126    3.2678    1.7692 H   0  0  0  0  0  0  0  0  0  0  0  0
   -0.2273    3.5597    2.2499 H   0  0  0  0  0  0  0  0  0  0  0  0
   -0.6871    3.6604    0.5385 H   0  0  0  0  0  0  0  0  0  0  0  0
  1  2  1  0  0  0  0
  2  3  1  0  0  0  0
  2  4  1  0  0  0  0
  2  5  1  0  0  0  0
  5  6  2  0  0  0  0
  5  7  1  0  0  0  0
  7  8  1  0  0  0  0
  7  9  1  0  0  0  0
  9 10  1  0  0  0  0
  9 11  1  0  0  0  0
  9 26  1  0  0  0  0
 11 12  1  0  0  0  0
 11 13  1  0  0  0  0
 11 14  1  0  0  0  0
 14 15  2  0  0  0  0
 14 24  1  0  0  0  0
 15 16  1  0  0  0  0
 15 17  1  0  0  0  0
 17 18  1  0  0  0  0
 17 19  2  0  0  0  0
 19 20  1  0  0  0  0
 19 22  1  0  0  0  0
 20 21  1  0  0  0  0
 22 23  1  0  0  0  0
 22 24  2  0  0  0  0
 24 25  1  0  0  0  0
 26 27  2  0  0  0  0
 26 28  1  0  0  0  0
 28 29  1  0  0  0  0
 28 30  1  0  0  0  0
 30 31  1  0  0  0  0
 30 32  1  0  0  0  0
 30 33  1  0  0  0  0
M  END
$$$$

  -OEChem-04042216043D

 33 33  0     1  0  0  0  0  0999 V2000
   -4.0081   -4.0016    1.4303 H   0  0  0  0  0  0  0  0  0  0  0  0
   -3.9158   -3.1166    0.7946 C   0  0  0  0  0  0  0  0  0  0  0  0
   -4.6920   -2.3996    1.0728 H   0  0  0  0  0  0  0  0  0  0  0  0
   -4.0607   -3.4145   -0.2466 H   0  0  0  0  0  0  0  0  0  0  0  0
   -2.5455   -2.4889    0.9670 C   0  0  0  0  0  0  0  0  0  0  0  0
   -1.7518   -2.9660    1.7621 O   0  0  0  0  0  0  0  0  0  0  0  0
   -2.2143   -1.3668    0.2362 N   0  0  0  0  0  0  0  0  0  0  0  0
   -2.9439   -0.9496   -0.3396 H   0  0  0  0  0  0  0  0  0  0  0  0
   -0.9532   -0.6186    0.3588 C   0  0  1  0  0  0  0  0  0  0  0  0
   -0.4680   -0.9004    1.2977 H   0  0  0  0  0  0  0  0  0  0  0  0
   -0.0398   -0.9802   -0.8385 C   0  0  0  0  0  0  0  0  0  0  0  0
   -0.4453   -1.8745   -1.3235 H   0  0  0  0  0  0  0  0  0  0  0  0
   -0.0753   -0.1784   -1.5839 H   0  0  0  0  0  0  0  0  0  0  0  0
    1.4143   -1.2626   -0.5009 C   0  0  0  0  0  0  0  0  0  0  0  0
    2.0885   -0.6636    0.5797 C   0  0  0  0  0  0  0  0  0  0  0  0
    1.5904    0.0504    1.2235 H   0  0  0  0  0  0  0  0  0  0  0  0
    3.4307   -0.9646    0.8414 C   0  0  0  0  0  0  0  0  0  0  0  0
    3.9307   -0.4907    1.6788 H   0  0  0  0  0  0  0  0  0  0  0  0
    4.1213   -1.8642    0.0286 C   0  0  0  0  0  0  0  0  0  0  0  0
    5.4296   -2.1657    0.2747 O   0  0  0  0  0  0  0  0  0  0  0  0
    5.7338   -1.7032    1.0704 H   0  0  0  0  0  0  0  0  0  0  0  0
    3.4671   -2.4584   -1.0466 C   0  0  0  0  0  0  0  0  0  0  0  0
    4.0095   -3.1561   -1.6762 H   0  0  0  0  0  0  0  0  0  0  0  0
    2.1262   -2.1617   -1.3113 C   0  0  0  0  0  0  0  0  0  0  0  0
    1.6380   -2.6400   -2.1553 H   0  0  0  0  0  0  0  0  0  0  0  0
   -1.2311    0.8966    0.4010 C   0  0  0  0  0  0  0  0  0  0  0  0
   -2.0523    1.3838   -0.3679 O   0  0  0  0  0  0  0  0  0  0  0  0
   -0.5974    1.7105    1.3222 N   0  0  0  0  0  0  0  0  0  0  0  0
   -0.0168    1.2612    2.0237 H   0  0  0  0  0  0  0  0  0  0  0  0
   -0.8823    3.1341    1.4540 C   0  0  0  0  0  0  0  0  0  0  0  0
   -1.9356    3.2927    1.7084 H   0  0  0  0  0  0  0  0  0  0  0  0
   -0.2654    3.5717    2.2447 H   0  0  0  0  0  0  0  0  0  0  0  0
   -0.6635    3.6564    0.5166 H   0  0  0  0  0  0  0  0  0  0  0  0
  1  2  1  0  0  0  0
  2  3  1  0  0  0  0
  2  4  1  0  0  0  0
  2  5  1  0  0  0  0
  5  6  2  0  0  0  0
  5  7  1  0  0  0  0
  7  8  1  0  0  0  0
  7  9  1  0  0  0  0
  9 10  1  0  0  0  0
  9 11  1  0  0  0  0
  9 26  1  0  0  0  0
 11 12  1  0  0  0  0
 11 13  1  0  0  0  0
 11 14  1  0  0  0  0
 14 15  2  0  0  0  0
 14 24  1  0  0  0  0
 15 16  1  0  0  0  0
 15 17  1  0  0  0  0
 17 18  1  0  0  0  0
 17 19  2  0  0  0  0
 19 20  1  0  0  0  0
 19 22  1  0  0  0  0
 20 21  1  0  0  0  0
 22 23  1  0  0  0  0
 22 24  2  0  0  0  0
 24 25  1  0  0  0  0
 26 27  2  0  0  0  0
 26 28  1  0  0  0  0
 28 29  1  0  0  0  0
 28 30  1  0  0  0  0
 30 31  1  0  0  0  0
 30 32  1  0  0  0  0
 30 33  1  0  0  0  0
M  END
$$$$

  -OEChem-04042216043D

 33 33  0     1  0  0  0  0  0999 V2000
   -4.0496   -4.0102    1.4052 H   0  0  0  0  0  0  0  0  0  0  0  0
   -3.9516   -3.1237    0.7723 C   0  0  0  0  0  0  0  0  0  0  0  0
   -4.7310   -2.4078    1.0446 H   0  0  0  0  0  0  0  0  0  0  0  0
   -4.0865   -3.4195   -0.2710 H   0  0  0  0  0  0  0  0  0  0  0  0
   -2.5828   -2.4963    0.9593 C   0  0  0  0  0  0  0  0  0  0  0  0
   -1.7971   -2.9750    1.7616 O   0  0  0  0  0  0  0  0  0  0  0  0
   -2.2420   -1.3761    0.2294 N   0  0  0  0  0  0  0  0  0  0  0  0
   -2.9669   -0.9575   -0.3514 H   0  0  0  0  0  0  0  0  0  0  0  0
   -0.9839   -0.6249    0.3676 C   0  0  1  0  0  0  0  0  0  0  0  0
   -0.5361   -0.9048    1.3227 H   0  0  0  0  0  0  0  0  0  0  0  0
   -0.0368   -0.9897   -0.8025 C   0  0  0  0  0  0  0  0  0  0  0  0
   -0.4259   -1.8931   -1.2844 H   0  0  0  0  0  0  0  0  0  0  0  0
   -0.0710   -0.1958   -1.5566 H   0  0  0  0  0  0  0  0  0  0  0  0
    1.4204   -1.2664   -0.4620 C   0  0  0  0  0  0  0  0  0  0  0  0
    2.0361   -0.9286    0.7604 C   0  0  0  0  0  0  0  0  0  0  0  0
    1.4954   -0.4295    1.5546 H   0  0  0  0  0  0  0  0  0  0  0  0
    3.3869   -1.2210    0.9864 C   0  0  0  0  0  0  0  0  0  0  0  0
    3.8395   -0.9531    1.9347 H   0  0  0  0  0  0  0  0  0  0  0  0
    4.1466   -1.8503    0.0003 C   0  0  0  0  0  0  0  0  0  0  0  0
    5.4631   -2.1408    0.2134 O   0  0  0  0  0  0  0  0  0  0  0  0
    5.7165   -1.8935    1.1157 H   0  0  0  0  0  0  0  0  0  0  0  0
    3.5534   -2.1827   -1.2136 C   0  0  0  0  0  0  0  0  0  0  0  0
    4.1495   -2.6704   -1.9781 H   0  0  0  0  0  0  0  0  0  0  0  0
    2.2044   -1.8942   -1.4440 C   0  0  0  0  0  0  0  0  0  0  0  0
    1.7642   -2.1648   -2.3996 H   0  0  0  0  0  0  0  0  0  0  0  0
   -1.2453    0.8926    0.4015 C   0  0  0  0  0  0  0  0  0  0  0  0
   -2.0660    1.3831   -0.3657 O   0  0  0  0  0  0  0  0  0  0  0  0
   -0.6140    1.7007    1.3292 N   0  0  0  0  0  0  0  0  0  0  0  0
    0.0182    1.2588    1.9893 H   0  0  0  0  0  0  0  0  0  0  0  0
   -0.8587    3.1334    1.4388 C   0  0  0  0  0  0  0  0  0  0  0  0
   -1.9157    3.3270    1.6500 H   0  0  0  0  0  0  0  0  0  0  0  0
   -0.2606    3.5582    2.2507 H   0  0  0  0  0  0  0  0  0  0  0  0
   -0.5863    3.6398    0.5068 H   0  0  0  0  0  0  0  0  0  0  0  0
  1  2  1  0  0  0  0
  2  3  1  0  0  0  0
  2  4  1  0  0  0  0
  2  5  1  0  0  0  0
  5  6  2  0  0  0  0
  5  7  1  0  0  0  0
  7  8  1  0  0  0  0
  7  9  1  0  0  0  0
  9 10  1  0  0  0  0
  9 11  1  0  0  0  0
  9 26  1  0  0  0  0
 11 12  1  0  0  0  0
 11 13  1  0  0  0  0
 11 14  1  0  0  0  0
 14 15  2  0  0  0  0
 14 24  1  0  0  0  0
 15 16  1  0  0  0  0
 15 17  1  0  0  0  0
 17 18  1  0  0  0  0
 17 19  2  0  0  0  0
 19 20  1  0  0  0  0
 19 22  1  0  0  0  0
 20 21  1  0  0  0  0
 22 23  1  0  0  0  0
 22 24  2  0  0  0  0
 24 25  1  0  0  0  0
 26 27  2  0  0  0  0
 26 28  1  0  0  0  0
 28 29  1  0  0  0  0
 28 30  1  0  0  0  0
 30 31  1  0  0  0  0
 30 32  1  0  0  0  0
 30 33  1  0  0  0  0
M  END
$$$$

  -OEChem-04042216043D

 33 33  0     1  0  0  0  0  0999 V2000
   -4.1051   -4.0129    1.3786 H   0  0  0  0  0  0  0  0  0  0  0  0
   -4.0014   -3.1188    0.7574 C   0  0  0  0  0  0  0  0  0  0  0  0
   -4.7732   -2.3997    1.0426 H   0  0  0  0  0  0  0  0  0  0  0  0
   -4.1434   -3.3994   -0.2891 H   0  0  0  0  0  0  0  0  0  0  0  0
   -2.6265   -2.5059    0.9482 C   0  0  0  0  0  0  0  0  0  0  0  0
   -1.8485   -2.9935    1.7530 O   0  0  0  0  0  0  0  0  0  0  0  0
   -2.2709   -1.3881    0.2214 N   0  0  0  0  0  0  0  0  0  0  0  0
   -2.9888   -0.9614   -0.3621 H   0  0  0  0  0  0  0  0  0  0  0  0
   -1.0111   -0.6433    0.3775 C   0  0  1  0  0  0  0  0  0  0  0  0
   -0.5921   -0.9174    1.3440 H   0  0  0  0  0  0  0  0  0  0  0  0
   -0.0401   -1.0073   -0.7728 C   0  0  0  0  0  0  0  0  0  0  0  0
   -0.4199   -1.9114   -1.2603 H   0  0  0  0  0  0  0  0  0  0  0  0
   -0.0691   -0.2136   -1.5273 H   0  0  0  0  0  0  0  0  0  0  0  0
    1.4165   -1.2907   -0.4289 C   0  0  0  0  0  0  0  0  0  0  0  0
    1.9775   -1.2530    0.8655 C   0  0  0  0  0  0  0  0  0  0  0  0
    1.3913   -1.0346    1.7488 H   0  0  0  0  0  0  0  0  0  0  0  0
    3.3400   -1.5122    1.0620 C   0  0  0  0  0  0  0  0  0  0  0  0
    3.7479   -1.4838    2.0666 H   0  0  0  0  0  0  0  0  0  0  0  0
    4.1669   -1.8079   -0.0214 C   0  0  0  0  0  0  0  0  0  0  0  0
    5.4957   -2.0599    0.1629 O   0  0  0  0  0  0  0  0  0  0  0  0
    5.7131   -2.0247    1.1070 H   0  0  0  0  0  0  0  0  0  0  0  0
    3.6279   -1.8464   -1.3027 C   0  0  0  0  0  0  0  0  0  0  0  0
    4.2750   -2.0779   -2.1424 H   0  0  0  0  0  0  0  0  0  0  0  0
    2.2683   -1.5910   -1.5048 C   0  0  0  0  0  0  0  0  0  0  0  0
    1.8727   -1.6248   -2.5159 H   0  0  0  0  0  0  0  0  0  0  0  0
   -1.2544    0.8769    0.4071 C   0  0  0  0  0  0  0  0  0  0  0  0
   -2.0640    1.3770   -0.3657 O   0  0  0  0  0  0  0  0  0  0  0  0
   -0.6243    1.6740    1.3447 N   0  0  0  0  0  0  0  0  0  0  0  0
    0.0486    1.2316    1.9634 H   0  0  0  0  0  0  0  0  0  0  0  0
   -0.8018    3.1191    1.4139 C   0  0  0  0  0  0  0  0  0  0  0  0
   -1.8559    3.3693    1.5730 H   0  0  0  0  0  0  0  0  0  0  0  0
   -0.2204    3.5321    2.2437 H   0  0  0  0  0  0  0  0  0  0  0  0
   -0.4632    3.5905    0.4853 H   0  0  0  0  0  0  0  0  0  0  0  0
  1  2  1  0  0  0  0
  2  3  1  0  0  0  0
  2  4  1  0  0  0  0
  2  5  1  0  0  0  0
  5  6  2  0  0  0  0
  5  7  1  0  0  0  0
  7  8  1  0  0  0  0
  7  9  1  0  0  0  0
  9 10  1  0  0  0  0
  9 11  1  0  0  0  0
  9 26  1  0  0  0  0
 11 12  1  0  0  0  0
 11 13  1  0  0  0  0
 11 14  1  0  0  0  0
 14 15  2  0  0  0  0
 14 24  1  0  0  0  0
 15 16  1  0  0  0  0
 15 17  1  0  0  0  0
 17 18  1  0  0  0  0
 17 19  2  0  0  0  0
 19 20  1  0  0  0  0
 19 22  1  0  0  0  0
 20 21  1  0  0  0  0
 22 23  1  0  0  0  0
 22 24  2  0  0  0  0
 24 25  1  0  0  0  0
 26 27  2  0  0  0  0
 26 28  1  0  0  0  0
 28 29  1  0  0  0  0
 28 30  1  0  0  0  0
 30 31  1  0  0  0  0
 30 32  1  0  0  0  0
 30 33  1  0  0  0  0
M  END
$$$$

  -OEChem-04042216043D

 33 33  0     1  0  0  0  0  0999 V2000
   -4.1124   -3.9916    1.4078 H   0  0  0  0  0  0  0  0  0  0  0  0
   -4.0103   -3.1043    0.7765 C   0  0  0  0  0  0  0  0  0  0  0  0
   -4.7743   -2.3777    1.0632 H   0  0  0  0  0  0  0  0  0  0  0  0
   -4.1652   -3.3944   -0.2655 H   0  0  0  0  0  0  0  0  0  0  0  0
   -2.6298   -2.4986    0.9458 C   0  0  0  0  0  0  0  0  0  0  0  0
   -1.8382   -2.9961    1.7318 O   0  0  0  0  0  0  0  0  0  0  0  0
   -2.2769   -1.3828    0.2146 N   0  0  0  0  0  0  0  0  0  0  0  0
   -3.0009   -0.9421   -0.3508 H   0  0  0  0  0  0  0  0  0  0  0  0
   -1.0081   -0.6529    0.3626 C   0  0  1  0  0  0  0  0  0  0  0  0
   -0.5828   -0.9170    1.3281 H   0  0  0  0  0  0  0  0  0  0  0  0
   -0.0515   -1.0204   -0.7991 C   0  0  0  0  0  0  0  0  0  0  0  0
   -0.4396   -1.9201   -1.2880 H   0  0  0  0  0  0  0  0  0  0  0  0
   -0.0834   -0.2227   -1.5498 H   0  0  0  0  0  0  0  0  0  0  0  0
    1.4024   -1.3214   -0.4581 C   0  0  0  0  0  0  0  0  0  0  0  0
    1.8963   -1.5921    0.8360 C   0  0  0  0  0  0  0  0  0  0  0  0
    1.2489   -1.6745    1.7008 H   0  0  0  0  0  0  0  0  0  0  0  0
    3.2620   -1.8163    1.0483 C   0  0  0  0  0  0  0  0  0  0  0  0
    3.6144   -2.0341    2.0507 H   0  0  0  0  0  0  0  0  0  0  0  0
    4.1597   -1.7718   -0.0179 C   0  0  0  0  0  0  0  0  0  0  0  0
    5.4924   -1.9885    0.1823 O   0  0  0  0  0  0  0  0  0  0  0  0
    5.6594   -2.1950    1.1148 H   0  0  0  0  0  0  0  0  0  0  0  0
    3.6868   -1.5085   -1.2994 C   0  0  0  0  0  0  0  0  0  0  0  0
    4.3884   -1.4779   -2.1265 H   0  0  0  0  0  0  0  0  0  0  0  0
    2.3235   -1.2867   -1.5183 C   0  0  0  0  0  0  0  0  0  0  0  0
    1.9809   -1.0798   -2.5281 H   0  0  0  0  0  0  0  0  0  0  0  0
   -1.2375    0.8697    0.3987 C   0  0  0  0  0  0  0  0  0  0  0  0
   -2.0555    1.3793   -0.3591 O   0  0  0  0  0  0  0  0  0  0  0  0
   -0.5916    1.6568    1.3343 N   0  0  0  0  0  0  0  0  0  0  0  0
    0.0979    1.2079    1.9306 H   0  0  0  0  0  0  0  0  0  0  0  0
   -0.7644    3.1016    1.4208 C   0  0  0  0  0  0  0  0  0  0  0  0
   -1.8174    3.3534    1.5853 H   0  0  0  0  0  0  0  0  0  0  0  0
   -0.1805    3.5030    2.2545 H   0  0  0  0  0  0  0  0  0  0  0  0
   -0.4265    3.5832    0.4973 H   0  0  0  0  0  0  0  0  0  0  0  0
  1  2  1  0  0  0  0
  2  3  1  0  0  0  0
  2  4  1  0  0  0  0
  2  5  1  0  0  0  0
  5  6  2  0  0  0  0
  5  7  1  0  0  0  0
  7  8  1  0  0  0  0
  7  9  1  0  0  0  0
  9 10  1  0  0  0  0
  9 11  1  0  0  0  0
  9 26  1  0  0  0  0
 11 12  1  0  0  0  0
 11 13  1  0  0  0  0
 11 14  1  0  0  0  0
 14 15  2  0  0  0  0
 14 24  1  0  0  0  0
 15 16  1  0  0  0  0
 15 17  1  0  0  0  0
 17 18  1  0  0  0  0
 17 19  2  0  0  0  0
 19 20  1  0  0  0  0
 19 22  1  0  0  0  0
 20 21  1  0  0  0  0
 22 23  1  0  0  0  0
 22 24  2  0  0  0  0
 24 25  1  0  0  0  0
 26 27  2  0  0  0  0
 26 28  1  0  0  0  0
 28 29  1  0  0  0  0
 28 30  1  0  0  0  0
 30 31  1  0  0  0  0
 30 32  1  0  0  0  0
 30 33  1  0  0  0  0
M  END
$$$$

  -OEChem-04042216043D

 33 33  0     1  0  0  0  0  0999 V2000
   -4.0752   -3.9842    1.4686 H   0  0  0  0  0  0  0  0  0  0  0  0
   -3.9844   -3.1041    0.8255 C   0  0  0  0  0  0  0  0  0  0  0  0
   -4.7316   -2.3670    1.1292 H   0  0  0  0  0  0  0  0  0  0  0  0
   -4.1758   -3.4020   -0.2083 H   0  0  0  0  0  0  0  0  0  0  0  0
   -2.5932   -2.5108    0.9439 C   0  0  0  0  0  0  0  0  0  0  0  0
   -1.7698   -3.0269    1.6844 O   0  0  0  0  0  0  0  0  0  0  0  0
   -2.2638   -1.3873    0.2142 N   0  0  0  0  0  0  0  0  0  0  0  0
   -3.0082   -0.9306   -0.3110 H   0  0  0  0  0  0  0  0  0  0  0  0
   -0.9894   -0.6633    0.3330 C   0  0  1  0  0  0  0  0  0  0  0  0
   -0.5261   -0.9300    1.2826 H   0  0  0  0  0  0  0  0  0  0  0  0
   -0.0710   -1.0137   -0.8636 C   0  0  0  0  0  0  0  0  0  0  0  0
   -0.4667   -1.9077   -1.3566 H   0  0  0  0  0  0  0  0  0  0  0  0
   -0.1185   -0.2058   -1.6021 H   0  0  0  0  0  0  0  0  0  0  0  0
    1.3806   -1.3172   -0.5284 C   0  0  0  0  0  0  0  0  0  0  0  0
    1.7976   -1.8893    0.6903 C   0  0  0  0  0  0  0  0  0  0  0  0
    1.0804   -2.2220    1.4349 H   0  0  0  0  0  0  0  0  0  0  0  0
    3.1561   -2.1013    0.9529 C   0  0  0  0  0  0  0  0  0  0  0  0
    3.4499   -2.5573    1.8922 H   0  0  0  0  0  0  0  0  0  0  0  0
    4.1199   -1.7433    0.0101 C   0  0  0  0  0  0  0  0  0  0  0  0
    5.4464   -1.9488    0.2572 O   0  0  0  0  0  0  0  0  0  0  0  0
    5.5599   -2.3892    1.1136 H   0  0  0  0  0  0  0  0  0  0  0  0
    3.7212   -1.1782   -1.1979 C   0  0  0  0  0  0  0  0  0  0  0  0
    4.4757   -0.9052   -1.9286 H   0  0  0  0  0  0  0  0  0  0  0  0
    2.3649   -0.9664   -1.4669 C   0  0  0  0  0  0  0  0  0  0  0  0
    2.0810   -0.5195   -2.4155 H   0  0  0  0  0  0  0  0  0  0  0  0
   -1.2193    0.8583    0.3944 C   0  0  0  0  0  0  0  0  0  0  0  0
   -2.0611    1.3753   -0.3318 O   0  0  0  0  0  0  0  0  0  0  0  0
   -0.5472    1.6357    1.3194 N   0  0  0  0  0  0  0  0  0  0  0  0
    0.1612    1.1807    1.8887 H   0  0  0  0  0  0  0  0  0  0  0  0
   -0.7197    3.0791    1.4284 C   0  0  0  0  0  0  0  0  0  0  0  0
   -1.7688    3.3271    1.6205 H   0  0  0  0  0  0  0  0  0  0  0  0
   -0.1171    3.4709    2.2535 H   0  0  0  0  0  0  0  0  0  0  0  0
   -0.4041    3.5729    0.5035 H   0  0  0  0  0  0  0  0  0  0  0  0
  1  2  1  0  0  0  0
  2  3  1  0  0  0  0
  2  4  1  0  0  0  0
  2  5  1  0  0  0  0
  5  6  2  0  0  0  0
  5  7  1  0  0  0  0
  7  8  1  0  0  0  0
  7  9  1  0  0  0  0
  9 10  1  0  0  0  0
  9 11  1  0  0  0  0
  9 26  1  0  0  0  0
 11 12  1  0  0  0  0
 11 13  1  0  0  0  0
 11 14  1  0  0  0  0
 14 15  2  0  0  0  0
 14 24  1  0  0  0  0
 15 16  1  0  0  0  0
 15 17  1  0  0  0  0
 17 18  1  0  0  0  0
 17 19  2  0  0  0  0
 19 20  1  0  0  0  0
 19 22  1  0  0  0  0
 20 21  1  0  0  0  0
 22 23  1  0  0  0  0
 22 24  2  0  0  0  0
 24 25  1  0  0  0  0
 26 27  2  0  0  0  0
 26 28  1  0  0  0  0
 28 29  1  0  0  0  0
 28 30  1  0  0  0  0
 30 31  1  0  0  0  0
 30 32  1  0  0  0  0
 30 33  1  0  0  0  0
M  END
$$$$

  -OEChem-04042216043D

 33 33  0     1  0  0  0  0  0999 V2000
   -4.0136   -3.9978    1.5181 H   0  0  0  0  0  0  0  0  0  0  0  0
   -3.9443   -3.1182    0.8721 C   0  0  0  0  0  0  0  0  0  0  0  0
   -4.6713   -2.3756    1.2098 H   0  0  0  0  0  0  0  0  0  0  0  0
   -4.1843   -3.4138   -0.1521 H   0  0  0  0  0  0  0  0  0  0  0  0
   -2.5443   -2.5361    0.9285 C   0  0  0  0  0  0  0  0  0  0  0  0
   -1.6873   -3.0730    1.6139 O   0  0  0  0  0  0  0  0  0  0  0  0
   -2.2462   -1.3986    0.2070 N   0  0  0  0  0  0  0  0  0  0  0  0
   -3.0148   -0.9313   -0.2720 H   0  0  0  0  0  0  0  0  0  0  0  0
   -0.9723   -0.6682    0.2880 C   0  0  1  0  0  0  0  0  0  0  0  0
   -0.4663   -0.9524    1.2135 H   0  0  0  0  0  0  0  0  0  0  0  0
   -0.0917   -1.0003   -0.9385 C   0  0  0  0  0  0  0  0  0  0  0  0
   -0.4855   -1.8957   -1.4303 H   0  0  0  0  0  0  0  0  0  0  0  0
   -0.1566   -0.1879   -1.6705 H   0  0  0  0  0  0  0  0  0  0  0  0
    1.3570   -1.2853   -0.5939 C   0  0  0  0  0  0  0  0  0  0  0  0
    1.7171   -2.1196    0.4801 C   0  0  0  0  0  0  0  0  0  0  0  0
    0.9540   -2.6281    1.0646 H   0  0  0  0  0  0  0  0  0  0  0  0
    3.0635   -2.3338    0.7961 C   0  0  0  0  0  0  0  0  0  0  0  0
    3.3163   -2.9865    1.6246 H   0  0  0  0  0  0  0  0  0  0  0  0
    4.0675   -1.7181    0.0473 C   0  0  0  0  0  0  0  0  0  0  0  0
    5.3833   -1.9210    0.3474 O   0  0  0  0  0  0  0  0  0  0  0  0
    5.4627   -2.5551    1.0767 H   0  0  0  0  0  0  0  0  0  0  0  0
    3.7211   -0.8911   -1.0186 C   0  0  0  0  0  0  0  0  0  0  0  0
    4.5073   -0.4173   -1.5972 H   0  0  0  0  0  0  0  0  0  0  0  0
    2.3768   -0.6740   -1.3398 C   0  0  0  0  0  0  0  0  0  0  0  0
    2.1315   -0.0222   -2.1734 H   0  0  0  0  0  0  0  0  0  0  0  0
   -1.2027    0.8507    0.3833 C   0  0  0  0  0  0  0  0  0  0  0  0
   -2.0770    1.3764   -0.2967 O   0  0  0  0  0  0  0  0  0  0  0  0
   -0.4953    1.6125    1.2945 N   0  0  0  0  0  0  0  0  0  0  0  0
    0.2410    1.1502    1.8214 H   0  0  0  0  0  0  0  0  0  0  0  0
   -0.6733    3.0514    1.4441 C   0  0  0  0  0  0  0  0  0  0  0  0
   -1.7124    3.2855    1.6985 H   0  0  0  0  0  0  0  0  0  0  0  0
   -0.0295    3.4309    2.2434 H   0  0  0  0  0  0  0  0  0  0  0  0
   -0.4127    3.5677    0.5143 H   0  0  0  0  0  0  0  0  0  0  0  0
  1  2  1  0  0  0  0
  2  3  1  0  0  0  0
  2  4  1  0  0  0  0
  2  5  1  0  0  0  0
  5  6  2  0  0  0  0
  5  7  1  0  0  0  0
  7  8  1  0  0  0  0
  7  9  1  0  0  0  0
  9 10  1  0  0  0  0
  9 11  1  0  0  0  0
  9 26  1  0  0  0  0
 11 12  1  0  0  0  0
 11 13  1  0  0  0  0
 11 14  1  0  0  0  0
 14 15  2  0  0  0  0
 14 24  1  0  0  0  0
 15 16  1  0  0  0  0
 15 17  1  0  0  0  0
 17 18  1  0  0  0  0
 17 19  2  0  0  0  0
 19 20  1  0  0  0  0
 19 22  1  0  0  0  0
 20 21  1  0  0  0  0
 22 23  1  0  0  0  0
 22 24  2  0  0  0  0
 24 25  1  0  0  0  0
 26 27  2  0  0  0  0
 26 28  1  0  0  0  0
 28 29  1  0  0  0  0
 28 30  1  0  0  0  0
 30 31  1  0  0  0  0
 30 32  1  0  0  0  0
 30 33  1  0  0  0  0
M  END
$$$$

  -OEChem-04042216043D

 33 33  0     1  0  0  0  0  0999 V2000
   -3.9536   -4.0194    1.5435 H   0  0  0  0  0  0  0  0  0  0  0  0
   -3.9032   -3.1379    0.8983 C   0  0  0  0  0  0  0  0  0  0  0  0
   -4.6183   -2.3953    1.2603 H   0  0  0  0  0  0  0  0  0  0  0  0
   -4.1745   -3.4294   -0.1191 H   0  0  0  0  0  0  0  0  0  0  0  0
   -2.5017   -2.5576    0.9142 C   0  0  0  0  0  0  0  0  0  0  0  0
   -1.6207   -3.1076    1.5572 O   0  0  0  0  0  0  0  0  0  0  0  0
   -2.2309   -1.4084    0.2008 N   0  0  0  0  0  0  0  0  0  0  0  0
   -3.0181   -0.9376   -0.2431 H   0  0  0  0  0  0  0  0  0  0  0  0
   -0.9608   -0.6684    0.2521 C   0  0  1  0  0  0  0  0  0  0  0  0
   -0.4217   -0.9692    1.1555 H   0  0  0  0  0  0  0  0  0  0  0  0
   -0.1082   -0.9875   -0.9935 C   0  0  0  0  0  0  0  0  0  0  0  0
   -0.4970   -1.8869   -1.4823 H   0  0  0  0  0  0  0  0  0  0  0  0
   -0.1847   -0.1745   -1.7236 H   0  0  0  0  0  0  0  0  0  0  0  0
    1.3360   -1.2510   -0.6334 C   0  0  0  0  0  0  0  0  0  0  0  0
    1.6805   -2.3019    0.2323 C   0  0  0  0  0  0  0  0  0  0  0  0
    0.9070   -2.9530    0.6335 H   0  0  0  0  0  0  0  0  0  0  0  0
    3.0169   -2.5241    0.5828 C   0  0  0  0  0  0  0  0  0  0  0  0
    3.2603   -3.3426    1.2514 H   0  0  0  0  0  0  0  0  0  0  0  0
    4.0220   -1.6986    0.0752 C   0  0  0  0  0  0  0  0  0  0  0  0
    5.3283   -1.9063    0.4114 O   0  0  0  0  0  0  0  0  0  0  0  0
    5.4033   -2.6871    0.9815 H   0  0  0  0  0  0  0  0  0  0  0  0
    3.6869   -0.6523   -0.7825 C   0  0  0  0  0  0  0  0  0  0  0  0
    4.4748   -0.0163   -1.1727 H   0  0  0  0  0  0  0  0  0  0  0  0
    2.3524   -0.4254   -1.1369 C   0  0  0  0  0  0  0  0  0  0  0  0
    2.1125    0.3976   -1.8041 H   0  0  0  0  0  0  0  0  0  0  0  0
   -1.1913    0.8480    0.3746 C   0  0  0  0  0  0  0  0  0  0  0  0
   -2.0853    1.3808   -0.2733 O   0  0  0  0  0  0  0  0  0  0  0  0
   -0.4572    1.5991    1.2731 N   0  0  0  0  0  0  0  0  0  0  0  0
    0.2905    1.1289    1.7769 H   0  0  0  0  0  0  0  0  0  0  0  0
   -0.6357    3.0345    1.4512 C   0  0  0  0  0  0  0  0  0  0  0  0
   -1.6676    3.2602    1.7404 H   0  0  0  0  0  0  0  0  0  0  0  0
    0.0304    3.4038    2.2369 H   0  0  0  0  0  0  0  0  0  0  0  0
   -0.4052    3.5667    0.5224 H   0  0  0  0  0  0  0  0  0  0  0  0
  1  2  1  0  0  0  0
  2  3  1  0  0  0  0
  2  4  1  0  0  0  0
  2  5  1  0  0  0  0
  5  6  2  0  0  0  0
  5  7  1  0  0  0  0
  7  8  1  0  0  0  0
  7  9  1  0  0  0  0
  9 10  1  0  0  0  0
  9 11  1  0  0  0  0
  9 26  1  0  0  0  0
 11 12  1  0  0  0  0
 11 13  1  0  0  0  0
 11 14  1  0  0  0  0
 14 15  2  0  0  0  0
 14 24  1  0  0  0  0
 15 16  1  0  0  0  0
 15 17  1  0  0  0  0
 17 18  1  0  0  0  0
 17 19  2  0  0  0  0
 19 20  1  0  0  0  0
 19 22  1  0  0  0  0
 20 21  1  0  0  0  0
 22 23  1  0  0  0  0
 22 24  2  0  0  0  0
 24 25  1  0  0  0  0
 26 27  2  0  0  0  0
 26 28  1  0  0  0  0
 28 29  1  0  0  0  0
 28 30  1  0  0  0  0
 30 31  1  0  0  0  0
 30 32  1  0  0  0  0
 30 33  1  0  0  0  0
M  END
$$$$

  -OEChem-04042216043D

 33 33  0     1  0  0  0  0  0999 V2000
   -3.9028   -4.0351    1.5543 H   0  0  0  0  0  0  0  0  0  0  0  0
   -3.8720   -3.1498    0.9131 C   0  0  0  0  0  0  0  0  0  0  0  0
   -4.5757   -2.4096    1.3015 H   0  0  0  0  0  0  0  0  0  0  0  0
   -4.1745   -3.4352   -0.0973 H   0  0  0  0  0  0  0  0  0  0  0  0
   -2.4706   -2.5691    0.8895 C   0  0  0  0  0  0  0  0  0  0  0  0
   -1.5664   -3.1335    1.4861 O   0  0  0  0  0  0  0  0  0  0  0  0
   -2.2235   -1.4106    0.1826 N   0  0  0  0  0  0  0  0  0  0  0  0
   -3.0257   -0.9337   -0.2266 H   0  0  0  0  0  0  0  0  0  0  0  0
   -0.9574   -0.6625    0.2188 C   0  0  1  0  0  0  0  0  0  0  0  0
   -0.4027   -0.9729    1.1107 H   0  0  0  0  0  0  0  0  0  0  0  0
   -0.1181   -0.9811   -1.0323 C   0  0  0  0  0  0  0  0  0  0  0  0
   -0.5030   -1.8830   -1.5197 H   0  0  0  0  0  0  0  0  0  0  0  0
   -0.1946   -0.1688   -1.7633 H   0  0  0  0  0  0  0  0  0  0  0  0
    1.3206   -1.2280   -0.6509 C   0  0  0  0  0  0  0  0  0  0  0  0
    1.6915   -2.4332   -0.0359 C   0  0  0  0  0  0  0  0  0  0  0  0
    0.9401   -3.1944    0.1627 H   0  0  0  0  0  0  0  0  0  0  0  0
    3.0222   -2.6573    0.3360 C   0  0  0  0  0  0  0  0  0  0  0  0
    3.2890   -3.5943    0.8129 H   0  0  0  0  0  0  0  0  0  0  0  0
    3.9913   -1.6803    0.0976 C   0  0  0  0  0  0  0  0  0  0  0  0
    5.2909   -1.8889    0.4579 O   0  0  0  0  0  0  0  0  0  0  0  0
    5.3889   -2.7715    0.8477 H   0  0  0  0  0  0  0  0  0  0  0  0
    3.6269   -0.4802   -0.5111 C   0  0  0  0  0  0  0  0  0  0  0  0
    4.3873    0.2725   -0.6923 H   0  0  0  0  0  0  0  0  0  0  0  0
    2.2981   -0.2501   -0.8847 C   0  0  0  0  0  0  0  0  0  0  0  0
    2.0304    0.6909   -1.3571 H   0  0  0  0  0  0  0  0  0  0  0  0
   -1.1841    0.8522    0.3613 C   0  0  0  0  0  0  0  0  0  0  0  0
   -2.0884    1.3937   -0.2641 O   0  0  0  0  0  0  0  0  0  0  0  0
   -0.4315    1.5915    1.2544 N   0  0  0  0  0  0  0  0  0  0  0  0
    0.3172    1.1109    1.7469 H   0  0  0  0  0  0  0  0  0  0  0  0
   -0.6104    3.0229    1.4625 C   0  0  0  0  0  0  0  0  0  0  0  0
   -1.6355    3.2388    1.7816 H   0  0  0  0  0  0  0  0  0  0  0  0
    0.0744    3.3806    2.2374 H   0  0  0  0  0  0  0  0  0  0  0  0
   -0.4057    3.5727    0.5380 H   0  0  0  0  0  0  0  0  0  0  0  0
  1  2  1  0  0  0  0
  2  3  1  0  0  0  0
  2  4  1  0  0  0  0
  2  5  1  0  0  0  0
  5  6  2  0  0  0  0
  5  7  1  0  0  0  0
  7  8  1  0  0  0  0
  7  9  1  0  0  0  0
  9 10  1  0  0  0  0
  9 11  1  0  0  0  0
  9 26  1  0  0  0  0
 11 12  1  0  0  0  0
 11 13  1  0  0  0  0
 11 14  1  0  0  0  0
 14 15  2  0  0  0  0
 14 24  1  0  0  0  0
 15 16  1  0  0  0  0
 15 17  1  0  0  0  0
 17 18  1  0  0  0  0
 17 19  2  0  0  0  0
 19 20  1  0  0  0  0
 19 22  1  0  0  0  0
 20 21  1  0  0  0  0
 22 23  1  0  0  0  0
 22 24  2  0  0  0  0
 24 25  1  0  0  0  0
 26 27  2  0  0  0  0
 26 28  1  0  0  0  0
 28 29  1  0  0  0  0
 28 30  1  0  0  0  0
 30 31  1  0  0  0  0
 30 32  1  0  0  0  0
 30 33  1  0  0  0  0
M  END
$$$$

  -OEChem-04042216043D

 33 33  0     1  0  0  0  0  0999 V2000
   -3.8993   -4.0359    1.5399 H   0  0  0  0  0  0  0  0  0  0  0  0
   -3.8692   -3.1474    0.9031 C   0  0  0  0  0  0  0  0  0  0  0  0
   -4.5728   -2.4092    1.2957 H   0  0  0  0  0  0  0  0  0  0  0  0
   -4.1726   -3.4276   -0.1085 H   0  0  0  0  0  0  0  0  0  0  0  0
   -2.4678   -2.5667    0.8810 C   0  0  0  0  0  0  0  0  0  0  0  0
   -1.5636   -3.1328    1.4754 O   0  0  0  0  0  0  0  0  0  0  0  0
   -2.2222   -1.4060    0.1774 N   0  0  0  0  0  0  0  0  0  0  0  0
   -3.0247   -0.9304   -0.2326 H   0  0  0  0  0  0  0  0  0  0  0  0
   -0.9572   -0.6565    0.2129 C   0  0  1  0  0  0  0  0  0  0  0  0
   -0.4009   -0.9715    1.1029 H   0  0  0  0  0  0  0  0  0  0  0  0
   -0.1179   -0.9807   -1.0360 C   0  0  0  0  0  0  0  0  0  0  0  0
   -0.5057   -1.8803   -1.5252 H   0  0  0  0  0  0  0  0  0  0  0  0
   -0.1852   -0.1681   -1.7675 H   0  0  0  0  0  0  0  0  0  0  0  0
    1.3179   -1.2229   -0.6437 C   0  0  0  0  0  0  0  0  0  0  0  0
    1.7560   -2.5130   -0.3120 C   0  0  0  0  0  0  0  0  0  0  0  0
    1.0555   -3.3444   -0.3255 H   0  0  0  0  0  0  0  0  0  0  0  0
    3.0880   -2.7332    0.0581 C   0  0  0  0  0  0  0  0  0  0  0  0
    3.4076   -3.7365    0.3179 H   0  0  0  0  0  0  0  0  0  0  0  0
    3.9913   -1.6684    0.0962 C   0  0  0  0  0  0  0  0  0  0  0  0
    5.2916   -1.8716    0.4573 O   0  0  0  0  0  0  0  0  0  0  0  0
    5.4378   -2.8102    0.6527 H   0  0  0  0  0  0  0  0  0  0  0  0
    3.5602   -0.3851   -0.2362 C   0  0  0  0  0  0  0  0  0  0  0  0
    4.2707    0.4346   -0.2076 H   0  0  0  0  0  0  0  0  0  0  0  0
    2.2302   -0.1586   -0.6059 C   0  0  0  0  0  0  0  0  0  0  0  0
    1.9106    0.8466   -0.8664 H   0  0  0  0  0  0  0  0  0  0  0  0
   -1.1829    0.8576    0.3599 C   0  0  0  0  0  0  0  0  0  0  0  0
   -2.0849    1.4029   -0.2655 O   0  0  0  0  0  0  0  0  0  0  0  0
   -0.4271    1.5927    1.2538 N   0  0  0  0  0  0  0  0  0  0  0  0
    0.3040    1.1034    1.7640 H   0  0  0  0  0  0  0  0  0  0  0  0
   -0.6092    3.0215    1.4742 C   0  0  0  0  0  0  0  0  0  0  0  0
   -1.6312    3.2315    1.8069 H   0  0  0  0  0  0  0  0  0  0  0  0
    0.0835    3.3763    2.2434 H   0  0  0  0  0  0  0  0  0  0  0  0
   -0.4170    3.5782    0.5511 H   0  0  0  0  0  0  0  0  0  0  0  0
  1  2  1  0  0  0  0
  2  3  1  0  0  0  0
  2  4  1  0  0  0  0
  2  5  1  0  0  0  0
  5  6  2  0  0  0  0
  5  7  1  0  0  0  0
  7  8  1  0  0  0  0
  7  9  1  0  0  0  0
  9 10  1  0  0  0  0
  9 11  1  0  0  0  0
  9 26  1  0  0  0  0
 11 12  1  0  0  0  0
 11 13  1  0  0  0  0
 11 14  1  0  0  0  0
 14 15  2  0  0  0  0
 14 24  1  0  0  0  0
 15 16  1  0  0  0  0
 15 17  1  0  0  0  0
 17 18  1  0  0  0  0
 17 19  2  0  0  0  0
 19 20  1  0  0  0  0
 19 22  1  0  0  0  0
 20 21  1  0  0  0  0
 22 23  1  0  0  0  0
 22 24  2  0  0  0  0
 24 25  1  0  0  0  0
 26 27  2  0  0  0  0
 26 28  1  0  0  0  0
 28 29  1  0  0  0  0
 28 30  1  0  0  0  0
 30 31  1  0  0  0  0
 30 32  1  0  0  0  0
 30 33  1  0  0  0  0
M  END
$$$$

  -OEChem-04042216043D

 33 33  0     1  0  0  0  0  0999 V2000
   -3.9150   -4.0280    1.5255 H   0  0  0  0  0  0  0  0  0  0  0  0
   -3.8713   -3.1474    0.8785 C   0  0  0  0  0  0  0  0  0  0  0  0
   -4.5950   -2.4111    1.2366 H   0  0  0  0  0  0  0  0  0  0  0  0
   -4.1357   -3.4436   -0.1395 H   0  0  0  0  0  0  0  0  0  0  0  0
   -2.4757   -2.5532    0.8974 C   0  0  0  0  0  0  0  0  0  0  0  0
   -1.5878   -3.1058    1.5272 O   0  0  0  0  0  0  0  0  0  0  0  0
   -2.2181   -1.3961    0.1916 N   0  0  0  0  0  0  0  0  0  0  0  0
   -3.0113   -0.9300   -0.2461 H   0  0  0  0  0  0  0  0  0  0  0  0
   -0.9533   -0.6462    0.2411 C   0  0  1  0  0  0  0  0  0  0  0  0
   -0.4014   -0.9587    1.1344 H   0  0  0  0  0  0  0  0  0  0  0  0
   -0.1085   -0.9748   -1.0051 C   0  0  0  0  0  0  0  0  0  0  0  0
   -0.5061   -1.8678   -1.4988 H   0  0  0  0  0  0  0  0  0  0  0  0
   -0.1666   -0.1592   -1.7342 H   0  0  0  0  0  0  0  0  0  0  0  0
    1.3298   -1.2241   -0.6203 C   0  0  0  0  0  0  0  0  0  0  0  0
    1.8454   -2.5280   -0.5956 C   0  0  0  0  0  0  0  0  0  0  0  0
    1.2030   -3.3722   -0.8309 H   0  0  0  0  0  0  0  0  0  0  0  0
    3.1822   -2.7540   -0.2475 C   0  0  0  0  0  0  0  0  0  0  0  0
    3.5598   -3.7704   -0.2231 H   0  0  0  0  0  0  0  0  0  0  0  0
    4.0171   -1.6796    0.0671 C   0  0  0  0  0  0  0  0  0  0  0  0
    5.3212   -1.8900    0.4098 O   0  0  0  0  0  0  0  0  0  0  0  0
    5.5156   -2.8400    0.4037 H   0  0  0  0  0  0  0  0  0  0  0  0
    3.5147   -0.3804    0.0277 C   0  0  0  0  0  0  0  0  0  0  0  0
    4.1748    0.4478    0.2638 H   0  0  0  0  0  0  0  0  0  0  0  0
    2.1792   -0.1486   -0.3181 C   0  0  0  0  0  0  0  0  0  0  0  0
    1.8091    0.8718   -0.3593 H   0  0  0  0  0  0  0  0  0  0  0  0
   -1.1908    0.8677    0.3766 C   0  0  0  0  0  0  0  0  0  0  0  0
   -2.0699    1.4075   -0.2848 O   0  0  0  0  0  0  0  0  0  0  0  0
   -0.4552    1.6157    1.2774 N   0  0  0  0  0  0  0  0  0  0  0  0
    0.2386    1.1268    1.8377 H   0  0  0  0  0  0  0  0  0  0  0  0
   -0.6537    3.0450    1.4839 C   0  0  0  0  0  0  0  0  0  0  0  0
   -1.6900    3.2507    1.7721 H   0  0  0  0  0  0  0  0  0  0  0  0
    0.0038    3.4078    2.2799 H   0  0  0  0  0  0  0  0  0  0  0  0
   -0.4262    3.5993    0.5673 H   0  0  0  0  0  0  0  0  0  0  0  0
  1  2  1  0  0  0  0
  2  3  1  0  0  0  0
  2  4  1  0  0  0  0
  2  5  1  0  0  0  0
  5  6  2  0  0  0  0
  5  7  1  0  0  0  0
  7  8  1  0  0  0  0
  7  9  1  0  0  0  0
  9 10  1  0  0  0  0
  9 11  1  0  0  0  0
  9 26  1  0  0  0  0
 11 12  1  0  0  0  0
 11 13  1  0  0  0  0
 11 14  1  0  0  0  0
 14 15  2  0  0  0  0
 14 24  1  0  0  0  0
 15 16  1  0  0  0  0
 15 17  1  0  0  0  0
 17 18  1  0  0  0  0
 17 19  2  0  0  0  0
 19 20  1  0  0  0  0
 19 22  1  0  0  0  0
 20 21  1  0  0  0  0
 22 23  1  0  0  0  0
 22 24  2  0  0  0  0
 24 25  1  0  0  0  0
 26 27  2  0  0  0  0
 26 28  1  0  0  0  0
 28 29  1  0  0  0  0
 28 30  1  0  0  0  0
 30 31  1  0  0  0  0
 30 32  1  0  0  0  0
 30 33  1  0  0  0  0
M  END
$$$$

  -OEChem-04042216043D

 33 33  0     1  0  0  0  0  0999 V2000
   -3.9324   -4.0164    1.4905 H   0  0  0  0  0  0  0  0  0  0  0  0
   -3.8773   -3.1304    0.8518 C   0  0  0  0  0  0  0  0  0  0  0  0
   -4.6122   -2.4001    1.1993 H   0  0  0  0  0  0  0  0  0  0  0  0
   -4.1179   -3.4200   -0.1740 H   0  0  0  0  0  0  0  0  0  0  0  0
   -2.4844   -2.5317    0.9085 C   0  0  0  0  0  0  0  0  0  0  0  0
   -1.6188   -3.0686    1.5810 O   0  0  0  0  0  0  0  0  0  0  0  0
   -2.2059   -1.3816    0.1993 N   0  0  0  0  0  0  0  0  0  0  0  0
   -2.9839   -0.9227   -0.2722 H   0  0  0  0  0  0  0  0  0  0  0  0
   -0.9425   -0.6318    0.2773 C   0  0  1  0  0  0  0  0  0  0  0  0
   -0.4045   -0.9349    1.1821 H   0  0  0  0  0  0  0  0  0  0  0  0
   -0.0800   -0.9698   -0.9578 C   0  0  0  0  0  0  0  0  0  0  0  0
   -0.4857   -1.8576   -1.4540 H   0  0  0  0  0  0  0  0  0  0  0  0
   -0.1263   -0.1537   -1.6868 H   0  0  0  0  0  0  0  0  0  0  0  0
    1.3623   -1.2326   -0.5844 C   0  0  0  0  0  0  0  0  0  0  0  0
    1.9488   -2.4765   -0.8634 C   0  0  0  0  0  0  0  0  0  0  0  0
    1.3569   -3.2696   -1.3115 H   0  0  0  0  0  0  0  0  0  0  0  0
    3.2917   -2.7172   -0.5495 C   0  0  0  0  0  0  0  0  0  0  0  0
    3.7206   -3.6910   -0.7591 H   0  0  0  0  0  0  0  0  0  0  0  0
    4.0683   -1.7112    0.0282 C   0  0  0  0  0  0  0  0  0  0  0  0
    5.3774   -1.9368    0.3417 O   0  0  0  0  0  0  0  0  0  0  0  0
    5.6137   -2.8543    0.1353 H   0  0  0  0  0  0  0  0  0  0  0  0
    3.5029   -0.4627    0.2788 C   0  0  0  0  0  0  0  0  0  0  0  0
    4.1197    0.3185    0.7113 H   0  0  0  0  0  0  0  0  0  0  0  0
    2.1610   -0.2180   -0.0323 C   0  0  0  0  0  0  0  0  0  0  0  0
    1.7524    0.7712    0.1450 H   0  0  0  0  0  0  0  0  0  0  0  0
   -1.2103    0.8797    0.3914 C   0  0  0  0  0  0  0  0  0  0  0  0
   -2.0745    1.3998   -0.3051 O   0  0  0  0  0  0  0  0  0  0  0  0
   -0.5166    1.6501    1.3062 N   0  0  0  0  0  0  0  0  0  0  0  0
    0.1334    1.1723    1.9250 H   0  0  0  0  0  0  0  0  0  0  0  0
   -0.7560    3.0749    1.4973 C   0  0  0  0  0  0  0  0  0  0  0  0
   -1.7964    3.2544    1.7878 H   0  0  0  0  0  0  0  0  0  0  0  0
   -0.1048    3.4654    2.2852 H   0  0  0  0  0  0  0  0  0  0  0  0
   -0.5482    3.6240    0.5731 H   0  0  0  0  0  0  0  0  0  0  0  0
  1  2  1  0  0  0  0
  2  3  1  0  0  0  0
  2  4  1  0  0  0  0
  2  5  1  0  0  0  0
  5  6  2  0  0  0  0
  5  7  1  0  0  0  0
  7  8  1  0  0  0  0
  7  9  1  0  0  0  0
  9 10  1  0  0  0  0
  9 11  1  0  0  0  0
  9 26  1  0  0  0  0
 11 12  1  0  0  0  0
 11 13  1  0  0  0  0
 11 14  1  0  0  0  0
 14 15  2  0  0  0  0
 14 24  1  0  0  0  0
 15 16  1  0  0  0  0
 15 17  1  0  0  0  0
 17 18  1  0  0  0  0
 17 19  2  0  0  0  0
 19 20  1  0  0  0  0
 19 22  1  0  0  0  0
 20 21  1  0  0  0  0
 22 23  1  0  0  0  0
 22 24  2  0  0  0  0
 24 25  1  0  0  0  0
 26 27  2  0  0  0  0
 26 28  1  0  0  0  0
 28 29  1  0  0  0  0
 28 30  1  0  0  0  0
 30 31  1  0  0  0  0
 30 32  1  0  0  0  0
 30 33  1  0  0  0  0
M  END
$$$$

  -OEChem-04042216043D

 33 33  0     1  0  0  0  0  0999 V2000
   -3.9578   -4.0101    1.4432 H   0  0  0  0  0  0  0  0  0  0  0  0
   -3.8853   -3.1196    0.8125 C   0  0  0  0  0  0  0  0  0  0  0  0
   -4.6413   -2.3984    1.1324 H   0  0  0  0  0  0  0  0  0  0  0  0
   -4.0795   -3.4052   -0.2241 H   0  0  0  0  0  0  0  0  0  0  0  0
   -2.5021   -2.5074    0.9304 C   0  0  0  0  0  0  0  0  0  0  0  0
   -1.6702   -3.0204    1.6614 O   0  0  0  0  0  0  0  0  0  0  0  0
   -2.1967   -1.3680    0.2152 N   0  0  0  0  0  0  0  0  0  0  0  0
   -2.9523   -0.9245   -0.3050 H   0  0  0  0  0  0  0  0  0  0  0  0
   -0.9343   -0.6189    0.3221 C   0  0  1  0  0  0  0  0  0  0  0  0
   -0.4166   -0.9123    1.2414 H   0  0  0  0  0  0  0  0  0  0  0  0
   -0.0510   -0.9692   -0.8986 C   0  0  0  0  0  0  0  0  0  0  0  0
   -0.4622   -1.8552   -1.3934 H   0  0  0  0  0  0  0  0  0  0  0  0
   -0.0880   -0.1556   -1.6311 H   0  0  0  0  0  0  0  0  0  0  0  0
    1.3961   -1.2469   -0.5426 C   0  0  0  0  0  0  0  0  0  0  0  0
    2.0483   -2.3565   -1.1044 C   0  0  0  0  0  0  0  0  0  0  0  0
    1.5037   -3.0384   -1.7510 H   0  0  0  0  0  0  0  0  0  0  0  0
    3.3973   -2.6095   -0.8291 C   0  0  0  0  0  0  0  0  0  0  0  0
    3.8746   -3.4822   -1.2610 H   0  0  0  0  0  0  0  0  0  0  0  0
    4.1198   -1.7431   -0.0078 C   0  0  0  0  0  0  0  0  0  0  0  0
    5.4353   -1.9790    0.2679 O   0  0  0  0  0  0  0  0  0  0  0  0
    5.7180   -2.8068   -0.1502 H   0  0  0  0  0  0  0  0  0  0  0  0
    3.4937   -0.6194    0.5251 C   0  0  0  0  0  0  0  0  0  0  0  0
    4.0690    0.0593    1.1465 H   0  0  0  0  0  0  0  0  0  0  0  0
    2.1455   -0.3638    0.2534 C   0  0  0  0  0  0  0  0  0  0  0  0
    1.6988    0.5372    0.6556 H   0  0  0  0  0  0  0  0  0  0  0  0
   -1.2213    0.8931    0.4054 C   0  0  0  0  0  0  0  0  0  0  0  0
   -2.0637    1.3922   -0.3322 O   0  0  0  0  0  0  0  0  0  0  0  0
   -0.5698    1.6909    1.3285 N   0  0  0  0  0  0  0  0  0  0  0  0
    0.0336    1.2283    2.0031 H   0  0  0  0  0  0  0  0  0  0  0  0
   -0.8576    3.1099    1.4998 C   0  0  0  0  0  0  0  0  0  0  0  0
   -1.9041    3.2570    1.7867 H   0  0  0  0  0  0  0  0  0  0  0  0
   -0.2212    3.5335    2.2826 H   0  0  0  0  0  0  0  0  0  0  0  0
   -0.6674    3.6546    0.5689 H   0  0  0  0  0  0  0  0  0  0  0  0
  1  2  1  0  0  0  0
  2  3  1  0  0  0  0
  2  4  1  0  0  0  0
  2  5  1  0  0  0  0
  5  6  2  0  0  0  0
  5  7  1  0  0  0  0
  7  8  1  0  0  0  0
  7  9  1  0  0  0  0
  9 10  1  0  0  0  0
  9 11  1  0  0  0  0
  9 26  1  0  0  0  0
 11 12  1  0  0  0  0
 11 13  1  0  0  0  0
 11 14  1  0  0  0  0
 14 15  2  0  0  0  0
 14 24  1  0  0  0  0
 15 16  1  0  0  0  0
 15 17  1  0  0  0  0
 17 18  1  0  0  0  0
 17 19  2  0  0  0  0
 19 20  1  0  0  0  0
 19 22  1  0  0  0  0
 20 21  1  0  0  0  0
 22 23  1  0  0  0  0
 22 24  2  0  0  0  0
 24 25  1  0  0  0  0
 26 27  2  0  0  0  0
 26 28  1  0  0  0  0
 28 29  1  0  0  0  0
 28 30  1  0  0  0  0
 30 31  1  0  0  0  0
 30 32  1  0  0  0  0
 30 33  1  0  0  0  0
M  END
$$$$

  -OEChem-04042216043D

 33 33  0     1  0  0  0  0  0999 V2000
   -3.9855   -4.0155    1.4163 H   0  0  0  0  0  0  0  0  0  0  0  0
   -3.9017   -3.1253    0.7865 C   0  0  0  0  0  0  0  0  0  0  0  0
   -4.6724   -2.4099    1.0831 H   0  0  0  0  0  0  0  0  0  0  0  0
   -4.0633   -3.4145   -0.2547 H   0  0  0  0  0  0  0  0  0  0  0  0
   -2.5276   -2.5012    0.9430 C   0  0  0  0  0  0  0  0  0  0  0  0
   -1.7180   -2.9976    1.7096 O   0  0  0  0  0  0  0  0  0  0  0  0
   -2.2060   -1.3689    0.2235 N   0  0  0  0  0  0  0  0  0  0  0  0
   -2.9472   -0.9362   -0.3259 H   0  0  0  0  0  0  0  0  0  0  0  0
   -0.9469   -0.6169    0.3510 C   0  0  1  0  0  0  0  0  0  0  0  0
   -0.4554   -0.9053    1.2853 H   0  0  0  0  0  0  0  0  0  0  0  0
   -0.0360   -0.9661   -0.8514 C   0  0  0  0  0  0  0  0  0  0  0  0
   -0.4385   -1.8564   -1.3462 H   0  0  0  0  0  0  0  0  0  0  0  0
   -0.0713   -0.1563   -1.5880 H   0  0  0  0  0  0  0  0  0  0  0  0
    1.4160   -1.2453   -0.5064 C   0  0  0  0  0  0  0  0  0  0  0  0
    2.1392   -2.1421   -1.3100 C   0  0  0  0  0  0  0  0  0  0  0  0
    1.6468   -2.6527   -2.1327 H   0  0  0  0  0  0  0  0  0  0  0  0
    3.4924   -2.4004   -1.0619 C   0  0  0  0  0  0  0  0  0  0  0  0
    4.0236   -3.1078   -1.6893 H   0  0  0  0  0  0  0  0  0  0  0  0
    4.1500   -1.7494   -0.0181 C   0  0  0  0  0  0  0  0  0  0  0  0
    5.4697   -1.9917    0.2327 O   0  0  0  0  0  0  0  0  0  0  0  0
    5.8081   -2.6580   -0.3851 H   0  0  0  0  0  0  0  0  0  0  0  0
    3.4533   -0.8353    0.7677 C   0  0  0  0  0  0  0  0  0  0  0  0
    3.9765   -0.3237    1.5688 H   0  0  0  0  0  0  0  0  0  0  0  0
    2.1005   -0.5754    0.5239 C   0  0  0  0  0  0  0  0  0  0  0  0
    1.6030    0.1595    1.1437 H   0  0  0  0  0  0  0  0  0  0  0  0
   -1.2342    0.8962    0.4122 C   0  0  0  0  0  0  0  0  0  0  0  0
   -2.0613    1.3859   -0.3488 O   0  0  0  0  0  0  0  0  0  0  0  0
   -0.6043    1.7060    1.3398 N   0  0  0  0  0  0  0  0  0  0  0  0
   -0.0104    1.2562    2.0302 H   0  0  0  0  0  0  0  0  0  0  0  0
   -0.8856    3.1298    1.4768 C   0  0  0  0  0  0  0  0  0  0  0  0
   -1.9429    3.2907    1.7122 H   0  0  0  0  0  0  0  0  0  0  0  0
   -0.2826    3.5596    2.2824 H   0  0  0  0  0  0  0  0  0  0  0  0
   -0.6467    3.6579    0.5478 H   0  0  0  0  0  0  0  0  0  0  0  0
  1  2  1  0  0  0  0
  2  3  1  0  0  0  0
  2  4  1  0  0  0  0
  2  5  1  0  0  0  0
  5  6  2  0  0  0  0
  5  7  1  0  0  0  0
  7  8  1  0  0  0  0
  7  9  1  0  0  0  0
  9 10  1  0  0  0  0
  9 11  1  0  0  0  0
  9 26  1  0  0  0  0
 11 12  1  0  0  0  0
 11 13  1  0  0  0  0
 11 14  1  0  0  0  0
 14 15  2  0  0  0  0
 14 24  1  0  0  0  0
 15 16  1  0  0  0  0
 15 17  1  0  0  0  0
 17 18  1  0  0  0  0
 17 19  2  0  0  0  0
 19 20  1  0  0  0  0
 19 22  1  0  0  0  0
 20 21  1  0  0  0  0
 22 23  1  0  0  0  0
 22 24  2  0  0  0  0
 24 25  1  0  0  0  0
 26 27  2  0  0  0  0
 26 28  1  0  0  0  0
 28 29  1  0  0  0  0
 28 30  1  0  0  0  0
 30 31  1  0  0  0  0
 30 32  1  0  0  0  0
 30 33  1  0  0  0  0
M  END
$$$$

  -OEChem-04042216043D

 33 33  0     1  0  0  0  0  0999 V2000
   -4.0257   -4.0239    1.3890 H   0  0  0  0  0  0  0  0  0  0  0  0
   -3.9348   -3.1326    0.7619 C   0  0  0  0  0  0  0  0  0  0  0  0
   -4.7108   -2.4190    1.0495 H   0  0  0  0  0  0  0  0  0  0  0  0
   -4.0820   -3.4206   -0.2817 H   0  0  0  0  0  0  0  0  0  0  0  0
   -2.5639   -2.5068    0.9377 C   0  0  0  0  0  0  0  0  0  0  0  0
   -1.7661   -3.0001    1.7187 O   0  0  0  0  0  0  0  0  0  0  0  0
   -2.2319   -1.3773    0.2180 N   0  0  0  0  0  0  0  0  0  0  0  0
   -2.9660   -0.9474   -0.3429 H   0  0  0  0  0  0  0  0  0  0  0  0
   -0.9773   -0.6208    0.3619 C   0  0  1  0  0  0  0  0  0  0  0  0
   -0.5241   -0.9076    1.3131 H   0  0  0  0  0  0  0  0  0  0  0  0
   -0.0310   -0.9734   -0.8117 C   0  0  0  0  0  0  0  0  0  0  0  0
   -0.4153   -1.8750   -1.3006 H   0  0  0  0  0  0  0  0  0  0  0  0
   -0.0675   -0.1736   -1.5594 H   0  0  0  0  0  0  0  0  0  0  0  0
    1.4249   -1.2448   -0.4649 C   0  0  0  0  0  0  0  0  0  0  0  0
    2.2188   -1.8735   -1.4381 C   0  0  0  0  0  0  0  0  0  0  0  0
    1.7751   -2.1783   -2.3816 H   0  0  0  0  0  0  0  0  0  0  0  0
    3.5776   -2.1222   -1.2138 C   0  0  0  0  0  0  0  0  0  0  0  0
    4.1623   -2.6190   -1.9802 H   0  0  0  0  0  0  0  0  0  0  0  0
    4.1719   -1.7308   -0.0146 C   0  0  0  0  0  0  0  0  0  0  0  0
    5.4965   -1.9653    0.2166 O   0  0  0  0  0  0  0  0  0  0  0  0
    5.8884   -2.4297   -0.5389 H   0  0  0  0  0  0  0  0  0  0  0  0
    3.4052   -1.0865    0.9519 C   0  0  0  0  0  0  0  0  0  0  0  0
    3.8793   -0.7790    1.8784 H   0  0  0  0  0  0  0  0  0  0  0  0
    2.0460   -0.8357    0.7320 C   0  0  0  0  0  0  0  0  0  0  0  0
    1.5030   -0.3145    1.5102 H   0  0  0  0  0  0  0  0  0  0  0  0
   -1.2479    0.8950    0.4115 C   0  0  0  0  0  0  0  0  0  0  0  0
   -2.0725    1.3867   -0.3508 O   0  0  0  0  0  0  0  0  0  0  0  0
   -0.6213    1.6999    1.3454 N   0  0  0  0  0  0  0  0  0  0  0  0
    0.0187    1.2578    1.9982 H   0  0  0  0  0  0  0  0  0  0  0  0
   -0.8664    3.1324    1.4598 C   0  0  0  0  0  0  0  0  0  0  0  0
   -1.9252    3.3259    1.6621 H   0  0  0  0  0  0  0  0  0  0  0  0
   -0.2761    3.5535    2.2792 H   0  0  0  0  0  0  0  0  0  0  0  0
   -0.5850    3.6435    0.5332 H   0  0  0  0  0  0  0  0  0  0  0  0
  1  2  1  0  0  0  0
  2  3  1  0  0  0  0
  2  4  1  0  0  0  0
  2  5  1  0  0  0  0
  5  6  2  0  0  0  0
  5  7  1  0  0  0  0
  7  8  1  0  0  0  0
  7  9  1  0  0  0  0
  9 10  1  0  0  0  0
  9 11  1  0  0  0  0
  9 26  1  0  0  0  0
 11 12  1  0  0  0  0
 11 13  1  0  0  0  0
 11 14  1  0  0  0  0
 14 15  2  0  0  0  0
 14 24  1  0  0  0  0
 15 16  1  0  0  0  0
 15 17  1  0  0  0  0
 17 18  1  0  0  0  0
 17 19  2  0  0  0  0
 19 20  1  0  0  0  0
 19 22  1  0  0  0  0
 20 21  1  0  0  0  0
 22 23  1  0  0  0  0
 22 24  2  0  0  0  0
 24 25  1  0  0  0  0
 26 27  2  0  0  0  0
 26 28  1  0  0  0  0
 28 29  1  0  0  0  0
 28 30  1  0  0  0  0
 30 31  1  0  0  0  0
 30 32  1  0  0  0  0
 30 33  1  0  0  0  0
M  END
$$$$

  -OEChem-04042216043D

 33 33  0     1  0  0  0  0  0999 V2000
   -4.0453   -3.9777    1.4396 H   0  0  0  0  0  0  0  0  0  0  0  0
   -3.9454   -3.1011    0.7935 C   0  0  0  0  0  0  0  0  0  0  0  0
   -4.7314   -2.3853    1.0461 H   0  0  0  0  0  0  0  0  0  0  0  0
   -4.0676   -3.4151   -0.2459 H   0  0  0  0  0  0  0  0  0  0  0  0
   -2.5820   -2.4634    0.9848 C   0  0  0  0  0  0  0  0  0  0  0  0
   -1.8075   -2.9176    1.8126 O   0  0  0  0  0  0  0  0  0  0  0  0
   -2.2306   -1.3600    0.2349 N   0  0  0  0  0  0  0  0  0  0  0  0
   -2.9461   -0.9463   -0.3611 H   0  0  0  0  0  0  0  0  0  0  0  0
   -0.9766   -0.6089    0.3973 C   0  0  1  0  0  0  0  0  0  0  0  0
   -0.5568   -0.8263    1.3768 H   0  0  0  0  0  0  0  0  0  0  0  0
    0.0069   -0.9664   -0.7488 C   0  0  0  0  0  0  0  0  0  0  0  0
   -0.4944   -1.6670   -1.4248 H   0  0  0  0  0  0  0  0  0  0  0  0
    0.2064   -0.0641   -1.3375 H   0  0  0  0  0  0  0  0  0  0  0  0
    1.3547   -1.5791   -0.3880 C   0  0  0  0  0  0  0  0  0  0  0  0
    2.2132   -1.8832   -1.4584 C   0  0  0  0  0  0  0  0  0  0  0  0
    1.9069   -1.6541   -2.4752 H   0  0  0  0  0  0  0  0  0  0  0  0
    3.4663   -2.4675   -1.2433 C   0  0  0  0  0  0  0  0  0  0  0  0
    4.1094   -2.6783   -2.0906 H   0  0  0  0  0  0  0  0  0  0  0  0
    3.8799   -2.7778    0.0510 C   0  0  0  0  0  0  0  0  0  0  0  0
    5.0994   -3.3482    0.2753 O   0  0  0  0  0  0  0  0  0  0  0  0
    5.5563   -3.4961   -0.5668 H   0  0  0  0  0  0  0  0  0  0  0  0
    3.0323   -2.5122    1.1219 C   0  0  0  0  0  0  0  0  0  0  0  0
    3.3520   -2.7768    2.1247 H   0  0  0  0  0  0  0  0  0  0  0  0
    1.7780   -1.9270    0.9129 C   0  0  0  0  0  0  0  0  0  0  0  0
    1.1612   -1.7838    1.7914 H   0  0  0  0  0  0  0  0  0  0  0  0
   -1.2598    0.9056    0.3891 C   0  0  0  0  0  0  0  0  0  0  0  0
   -2.0600    1.3713   -0.4149 O   0  0  0  0  0  0  0  0  0  0  0  0
   -0.6667    1.7380    1.3201 N   0  0  0  0  0  0  0  0  0  0  0  0
   -0.0081    1.3221    1.9729 H   0  0  0  0  0  0  0  0  0  0  0  0
   -0.9034    3.1752    1.3747 C   0  0  0  0  0  0  0  0  0  0  0  0
   -1.9668    3.3827    1.5335 H   0  0  0  0  0  0  0  0  0  0  0  0
   -0.3380    3.6208    2.1987 H   0  0  0  0  0  0  0  0  0  0  0  0
   -0.5865    3.6507    0.4406 H   0  0  0  0  0  0  0  0  0  0  0  0
  1  2  1  0  0  0  0
  2  3  1  0  0  0  0
  2  4  1  0  0  0  0
  2  5  1  0  0  0  0
  5  6  2  0  0  0  0
  5  7  1  0  0  0  0
  7  8  1  0  0  0  0
  7  9  1  0  0  0  0
  9 10  1  0  0  0  0
  9 11  1  0  0  0  0
  9 26  1  0  0  0  0
 11 12  1  0  0  0  0
 11 13  1  0  0  0  0
 11 14  1  0  0  0  0
 14 15  2  0  0  0  0
 14 24  1  0  0  0  0
 15 16  1  0  0  0  0
 15 17  1  0  0  0  0
 17 18  1  0  0  0  0
 17 19  2  0  0  0  0
 19 20  1  0  0  0  0
 19 22  1  0  0  0  0
 20 21  1  0  0  0  0
 22 23  1  0  0  0  0
 22 24  2  0  0  0  0
 24 25  1  0  0  0  0
 26 27  2  0  0  0  0
 26 28  1  0  0  0  0
 28 29  1  0  0  0  0
 28 30  1  0  0  0  0
 30 31  1  0  0  0  0
 30 32  1  0  0  0  0
 30 33  1  0  0  0  0
M  END
$$$$

  -OEChem-04042216043D

 33 33  0     1  0  0  0  0  0999 V2000
   -4.0186   -3.9711    1.4745 H   0  0  0  0  0  0  0  0  0  0  0  0
   -3.9230   -3.0976    0.8232 C   0  0  0  0  0  0  0  0  0  0  0  0
   -4.7047   -2.3788    1.0802 H   0  0  0  0  0  0  0  0  0  0  0  0
   -4.0556   -3.4152   -0.2139 H   0  0  0  0  0  0  0  0  0  0  0  0
   -2.5570   -2.4616    0.9984 C   0  0  0  0  0  0  0  0  0  0  0  0
   -1.7708   -2.9192    1.8130 O   0  0  0  0  0  0  0  0  0  0  0  0
   -2.2156   -1.3565    0.2471 N   0  0  0  0  0  0  0  0  0  0  0  0
   -2.9385   -0.9437   -0.3403 H   0  0  0  0  0  0  0  0  0  0  0  0
   -0.9600   -0.6042    0.3904 C   0  0  1  0  0  0  0  0  0  0  0  0
   -0.5095   -0.8151    1.3605 H   0  0  0  0  0  0  0  0  0  0  0  0
    0.0028   -0.9530   -0.7748 C   0  0  0  0  0  0  0  0  0  0  0  0
   -0.4985   -1.6567   -1.4477 H   0  0  0  0  0  0  0  0  0  0  0  0
    0.1935   -0.0480   -1.3624 H   0  0  0  0  0  0  0  0  0  0  0  0
    1.3457   -1.5627   -0.4027 C   0  0  0  0  0  0  0  0  0  0  0  0
    2.3457   -1.5808   -1.3895 C   0  0  0  0  0  0  0  0  0  0  0  0
    2.1603   -1.1174   -2.3544 H   0  0  0  0  0  0  0  0  0  0  0  0
    3.5906   -2.1734   -1.1488 C   0  0  0  0  0  0  0  0  0  0  0  0
    4.3501   -2.1533   -1.9229 H   0  0  0  0  0  0  0  0  0  0  0  0
    3.8468   -2.7907    0.0752 C   0  0  0  0  0  0  0  0  0  0  0  0
    5.0559   -3.3741    0.3225 O   0  0  0  0  0  0  0  0  0  0  0  0
    5.6281   -3.2963   -0.4562 H   0  0  0  0  0  0  0  0  0  0  0  0
    2.8487   -2.8293    1.0443 C   0  0  0  0  0  0  0  0  0  0  0  0
    3.0417   -3.3409    1.9817 H   0  0  0  0  0  0  0  0  0  0  0  0
    1.6027   -2.2382    0.8082 C   0  0  0  0  0  0  0  0  0  0  0  0
    0.8469   -2.3518    1.5782 H   0  0  0  0  0  0  0  0  0  0  0  0
   -1.2515    0.9089    0.3888 C   0  0  0  0  0  0  0  0  0  0  0  0
   -2.0658    1.3719   -0.4025 O   0  0  0  0  0  0  0  0  0  0  0  0
   -0.6476    1.7429    1.3115 N   0  0  0  0  0  0  0  0  0  0  0  0
    0.0173    1.3275    1.9585 H   0  0  0  0  0  0  0  0  0  0  0  0
   -0.8971    3.1774    1.3789 C   0  0  0  0  0  0  0  0  0  0  0  0
   -1.9596    3.3740    1.5567 H   0  0  0  0  0  0  0  0  0  0  0  0
   -0.3223    3.6230    2.1964 H   0  0  0  0  0  0  0  0  0  0  0  0
   -0.6007    3.6619    0.4427 H   0  0  0  0  0  0  0  0  0  0  0  0
  1  2  1  0  0  0  0
  2  3  1  0  0  0  0
  2  4  1  0  0  0  0
  2  5  1  0  0  0  0
  5  6  2  0  0  0  0
  5  7  1  0  0  0  0
  7  8  1  0  0  0  0
  7  9  1  0  0  0  0
  9 10  1  0  0  0  0
  9 11  1  0  0  0  0
  9 26  1  0  0  0  0
 11 12  1  0  0  0  0
 11 13  1  0  0  0  0
 11 14  1  0  0  0  0
 14 15  2  0  0  0  0
 14 24  1  0  0  0  0
 15 16  1  0  0  0  0
 15 17  1  0  0  0  0
 17 18  1  0  0  0  0
 17 19  2  0  0  0  0
 19 20  1  0  0  0  0
 19 22  1  0  0  0  0
 20 21  1  0  0  0  0
 22 23  1  0  0  0  0
 22 24  2  0  0  0  0
 24 25  1  0  0  0  0
 26 27  2  0  0  0  0
 26 28  1  0  0  0  0
 28 29  1  0  0  0  0
 28 30  1  0  0  0  0
 30 31  1  0  0  0  0
 30 32  1  0  0  0  0
 30 33  1  0  0  0  0
M  END
$$$$

  -OEChem-04042216043D

 33 33  0     1  0  0  0  0  0999 V2000
   -4.0411   -3.9815    1.4612 H   0  0  0  0  0  0  0  0  0  0  0  0
   -3.9352   -3.1053    0.8153 C   0  0  0  0  0  0  0  0  0  0  0  0
   -4.7176   -2.3851    1.0667 H   0  0  0  0  0  0  0  0  0  0  0  0
   -4.0573   -3.4182   -0.2245 H   0  0  0  0  0  0  0  0  0  0  0  0
   -2.5694   -2.4739    1.0085 C   0  0  0  0  0  0  0  0  0  0  0  0
   -1.7978   -2.9353    1.8337 O   0  0  0  0  0  0  0  0  0  0  0  0
   -2.2209   -1.3654    0.2656 N   0  0  0  0  0  0  0  0  0  0  0  0
   -2.9408   -0.9574   -0.3289 H   0  0  0  0  0  0  0  0  0  0  0  0
   -0.9573   -0.6192    0.3822 C   0  0  1  0  0  0  0  0  0  0  0  0
   -0.4752   -0.8525    1.3349 H   0  0  0  0  0  0  0  0  0  0  0  0
   -0.0229   -0.9649   -0.8060 C   0  0  0  0  0  0  0  0  0  0  0  0
   -0.5324   -1.6727   -1.4679 H   0  0  0  0  0  0  0  0  0  0  0  0
    0.1557   -0.0617   -1.3999 H   0  0  0  0  0  0  0  0  0  0  0  0
    1.3160   -1.5758   -0.4316 C   0  0  0  0  0  0  0  0  0  0  0  0
    2.4194   -1.3371   -1.2674 C   0  0  0  0  0  0  0  0  0  0  0  0
    2.3134   -0.6916   -2.1345 H   0  0  0  0  0  0  0  0  0  0  0  0
    3.6661   -1.9130   -0.9964 C   0  0  0  0  0  0  0  0  0  0  0  0
    4.5057   -1.6997   -1.6486 H   0  0  0  0  0  0  0  0  0  0  0  0
    3.8236   -2.7594    0.1016 C   0  0  0  0  0  0  0  0  0  0  0  0
    5.0334   -3.3301    0.3749 O   0  0  0  0  0  0  0  0  0  0  0  0
    5.6826   -3.0718   -0.2970 H   0  0  0  0  0  0  0  0  0  0  0  0
    2.7291   -3.0348    0.9165 C   0  0  0  0  0  0  0  0  0  0  0  0
    2.8501   -3.7107    1.7569 H   0  0  0  0  0  0  0  0  0  0  0  0
    1.4814   -2.4612    0.6497 C   0  0  0  0  0  0  0  0  0  0  0  0
    0.6487   -2.7329    1.2899 H   0  0  0  0  0  0  0  0  0  0  0  0
   -1.2344    0.8959    0.3970 C   0  0  0  0  0  0  0  0  0  0  0  0
   -2.0586    1.3731   -0.3754 O   0  0  0  0  0  0  0  0  0  0  0  0
   -0.5991    1.7165    1.3101 N   0  0  0  0  0  0  0  0  0  0  0  0
    0.0682    1.2862    1.9450 H   0  0  0  0  0  0  0  0  0  0  0  0
   -0.8416    3.1506    1.4045 C   0  0  0  0  0  0  0  0  0  0  0  0
   -1.8981    3.3473    1.6149 H   0  0  0  0  0  0  0  0  0  0  0  0
   -0.2425    3.5828    2.2117 H   0  0  0  0  0  0  0  0  0  0  0  0
   -0.5700    3.6477    0.4674 H   0  0  0  0  0  0  0  0  0  0  0  0
  1  2  1  0  0  0  0
  2  3  1  0  0  0  0
  2  4  1  0  0  0  0
  2  5  1  0  0  0  0
  5  6  2  0  0  0  0
  5  7  1  0  0  0  0
  7  8  1  0  0  0  0
  7  9  1  0  0  0  0
  9 10  1  0  0  0  0
  9 11  1  0  0  0  0
  9 26  1  0  0  0  0
 11 12  1  0  0  0  0
 11 13  1  0  0  0  0
 11 14  1  0  0  0  0
 14 15  2  0  0  0  0
 14 24  1  0  0  0  0
 15 16  1  0  0  0  0
 15 17  1  0  0  0  0
 17 18  1  0  0  0  0
 17 19  2  0  0  0  0
 19 20  1  0  0  0  0
 19 22  1  0  0  0  0
 20 21  1  0  0  0  0
 22 23  1  0  0  0  0
 22 24  2  0  0  0  0
 24 25  1  0  0  0  0
 26 27  2  0  0  0  0
 26 28  1  0  0  0  0
 28 29  1  0  0  0  0
 28 30  1  0  0  0  0
 30 31  1  0  0  0  0
 30 32  1  0  0  0  0
 30 33  1  0  0  0  0
M  END
$$$$

  -OEChem-04042216043D

 33 33  0     1  0  0  0  0  0999 V2000
   -4.0375   -3.9953    1.4663 H   0  0  0  0  0  0  0  0  0  0  0  0
   -3.9339   -3.1187    0.8208 C   0  0  0  0  0  0  0  0  0  0  0  0
   -4.7149   -2.3985    1.0765 H   0  0  0  0  0  0  0  0  0  0  0  0
   -4.0609   -3.4302   -0.2187 H   0  0  0  0  0  0  0  0  0  0  0  0
   -2.5666   -2.4892    1.0095 C   0  0  0  0  0  0  0  0  0  0  0  0
   -1.7939   -2.9524    1.8321 O   0  0  0  0  0  0  0  0  0  0  0  0
   -2.2235   -1.3752    0.2724 N   0  0  0  0  0  0  0  0  0  0  0  0
   -2.9466   -0.9694   -0.3196 H   0  0  0  0  0  0  0  0  0  0  0  0
   -0.9546   -0.6336    0.3665 C   0  0  1  0  0  0  0  0  0  0  0  0
   -0.4464   -0.8900    1.3014 H   0  0  0  0  0  0  0  0  0  0  0  0
   -0.0453   -0.9682   -0.8425 C   0  0  0  0  0  0  0  0  0  0  0  0
   -0.5608   -1.6765   -1.4991 H   0  0  0  0  0  0  0  0  0  0  0  0
    0.1242   -0.0643   -1.4379 H   0  0  0  0  0  0  0  0  0  0  0  0
    1.2886   -1.5794   -0.4628 C   0  0  0  0  0  0  0  0  0  0  0  0
    2.4606   -1.1137   -1.0810 C   0  0  0  0  0  0  0  0  0  0  0  0
    2.4115   -0.3003   -1.7994 H   0  0  0  0  0  0  0  0  0  0  0  0
    3.7040   -1.6824   -0.7801 C   0  0  0  0  0  0  0  0  0  0  0  0
    4.5966   -1.2998   -1.2626 H   0  0  0  0  0  0  0  0  0  0  0  0
    3.7912   -2.7370    0.1298 C   0  0  0  0  0  0  0  0  0  0  0  0
    4.9983   -3.2999    0.4296 O   0  0  0  0  0  0  0  0  0  0  0  0
    5.7022   -2.8687   -0.0785 H   0  0  0  0  0  0  0  0  0  0  0  0
    2.6319   -3.2241    0.7287 C   0  0  0  0  0  0  0  0  0  0  0  0
    2.7025   -4.0531    1.4255 H   0  0  0  0  0  0  0  0  0  0  0  0
    1.3871   -2.6593    0.4303 C   0  0  0  0  0  0  0  0  0  0  0  0
    0.5011   -3.0769    0.8963 H   0  0  0  0  0  0  0  0  0  0  0  0
   -1.2211    0.8828    0.4015 C   0  0  0  0  0  0  0  0  0  0  0  0
   -2.0544    1.3738   -0.3522 O   0  0  0  0  0  0  0  0  0  0  0  0
   -0.5592    1.6904    1.3073 N   0  0  0  0  0  0  0  0  0  0  0  0
    0.1109    1.2477    1.9306 H   0  0  0  0  0  0  0  0  0  0  0  0
   -0.7907    3.1250    1.4205 C   0  0  0  0  0  0  0  0  0  0  0  0
   -1.8390    3.3261    1.6657 H   0  0  0  0  0  0  0  0  0  0  0  0
   -0.1638    3.5478    2.2115 H   0  0  0  0  0  0  0  0  0  0  0  0
   -0.5461    3.6280    0.4790 H   0  0  0  0  0  0  0  0  0  0  0  0
  1  2  1  0  0  0  0
  2  3  1  0  0  0  0
  2  4  1  0  0  0  0
  2  5  1  0  0  0  0
  5  6  2  0  0  0  0
  5  7  1  0  0  0  0
  7  8  1  0  0  0  0
  7  9  1  0  0  0  0
  9 10  1  0  0  0  0
  9 11  1  0  0  0  0
  9 26  1  0  0  0  0
 11 12  1  0  0  0  0
 11 13  1  0  0  0  0
 11 14  1  0  0  0  0
 14 15  2  0  0  0  0
 14 24  1  0  0  0  0
 15 16  1  0  0  0  0
 15 17  1  0  0  0  0
 17 18  1  0  0  0  0
 17 19  2  0  0  0  0
 19 20  1  0  0  0  0
 19 22  1  0  0  0  0
 20 21  1  0  0  0  0
 22 23  1  0  0  0  0
 22 24  2  0  0  0  0
 24 25  1  0  0  0  0
 26 27  2  0  0  0  0
 26 28  1  0  0  0  0
 28 29  1  0  0  0  0
 28 30  1  0  0  0  0
 30 31  1  0  0  0  0
 30 32  1  0  0  0  0
 30 33  1  0  0  0  0
M  END
$$$$

  -OEChem-04042216043D

 33 33  0     1  0  0  0  0  0999 V2000
   -4.0051   -4.0060    1.4866 H   0  0  0  0  0  0  0  0  0  0  0  0
   -3.9188   -3.1254    0.8438 C   0  0  0  0  0  0  0  0  0  0  0  0
   -4.6790   -2.3980    1.1387 H   0  0  0  0  0  0  0  0  0  0  0  0
   -4.0943   -3.4267   -0.1918 H   0  0  0  0  0  0  0  0  0  0  0  0
   -2.5372   -2.5131    0.9782 C   0  0  0  0  0  0  0  0  0  0  0  0
   -1.7273   -3.0055    1.7466 O   0  0  0  0  0  0  0  0  0  0  0  0
   -2.2189   -1.3863    0.2495 N   0  0  0  0  0  0  0  0  0  0  0  0
   -2.9651   -0.9603   -0.2979 H   0  0  0  0  0  0  0  0  0  0  0  0
   -0.9495   -0.6444    0.3259 C   0  0  1  0  0  0  0  0  0  0  0  0
   -0.4214   -0.9187    1.2454 H   0  0  0  0  0  0  0  0  0  0  0  0
   -0.0636   -0.9703   -0.8993 C   0  0  0  0  0  0  0  0  0  0  0  0
   -0.5834   -1.6779   -1.5535 H   0  0  0  0  0  0  0  0  0  0  0  0
    0.1038   -0.0657   -1.4941 H   0  0  0  0  0  0  0  0  0  0  0  0
    1.2638   -1.5790   -0.5056 C   0  0  0  0  0  0  0  0  0  0  0  0
    2.4625   -0.9376   -0.8554 C   0  0  0  0  0  0  0  0  0  0  0  0
    2.4400    0.0045   -1.3955 H   0  0  0  0  0  0  0  0  0  0  0  0
    3.6977   -1.5011   -0.5137 C   0  0  0  0  0  0  0  0  0  0  0  0
    4.6128   -0.9890   -0.7895 H   0  0  0  0  0  0  0  0  0  0  0  0
    3.7493   -2.7154    0.1734 C   0  0  0  0  0  0  0  0  0  0  0  0
    4.9485   -3.2744    0.5099 O   0  0  0  0  0  0  0  0  0  0  0  0
    5.6761   -2.7200    0.1895 H   0  0  0  0  0  0  0  0  0  0  0  0
    2.5640   -3.3644    0.5125 C   0  0  0  0  0  0  0  0  0  0  0  0
    2.6090   -4.3106    1.0421 H   0  0  0  0  0  0  0  0  0  0  0  0
    1.3270   -2.8066    0.1716 C   0  0  0  0  0  0  0  0  0  0  0  0
    0.4170   -3.3364    0.4365 H   0  0  0  0  0  0  0  0  0  0  0  0
   -1.2091    0.8714    0.3929 C   0  0  0  0  0  0  0  0  0  0  0  0
   -2.0591    1.3775   -0.3311 O   0  0  0  0  0  0  0  0  0  0  0  0
   -0.5226    1.6611    1.2962 N   0  0  0  0  0  0  0  0  0  0  0  0
    0.1508    1.2024    1.9045 H   0  0  0  0  0  0  0  0  0  0  0  0
   -0.7501    3.0934    1.4436 C   0  0  0  0  0  0  0  0  0  0  0  0
   -1.7881    3.2888    1.7326 H   0  0  0  0  0  0  0  0  0  0  0  0
   -0.0932    3.5037    2.2165 H   0  0  0  0  0  0  0  0  0  0  0  0
   -0.5423    3.6131    0.5024 H   0  0  0  0  0  0  0  0  0  0  0  0
  1  2  1  0  0  0  0
  2  3  1  0  0  0  0
  2  4  1  0  0  0  0
  2  5  1  0  0  0  0
  5  6  2  0  0  0  0
  5  7  1  0  0  0  0
  7  8  1  0  0  0  0
  7  9  1  0  0  0  0
  9 10  1  0  0  0  0
  9 11  1  0  0  0  0
  9 26  1  0  0  0  0
 11 12  1  0  0  0  0
 11 13  1  0  0  0  0
 11 14  1  0  0  0  0
 14 15  2  0  0  0  0
 14 24  1  0  0  0  0
 15 16  1  0  0  0  0
 15 17  1  0  0  0  0
 17 18  1  0  0  0  0
 17 19  2  0  0  0  0
 19 20  1  0  0  0  0
 19 22  1  0  0  0  0
 20 21  1  0  0  0  0
 22 23  1  0  0  0  0
 22 24  2  0  0  0  0
 24 25  1  0  0  0  0
 26 27  2  0  0  0  0
 26 28  1  0  0  0  0
 28 29  1  0  0  0  0
 28 30  1  0  0  0  0
 30 31  1  0  0  0  0
 30 32  1  0  0  0  0
 30 33  1  0  0  0  0
M  END
$$$$

  -OEChem-04042216043D

 33 33  0     1  0  0  0  0  0999 V2000
   -3.9684   -4.0173    1.5020 H   0  0  0  0  0  0  0  0  0  0  0  0
   -3.9030   -3.1317    0.8636 C   0  0  0  0  0  0  0  0  0  0  0  0
   -4.6378   -2.3979    1.2039 H   0  0  0  0  0  0  0  0  0  0  0  0
   -4.1363   -3.4204   -0.1641 H   0  0  0  0  0  0  0  0  0  0  0  0
   -2.5077   -2.5389    0.9315 C   0  0  0  0  0  0  0  0  0  0  0  0
   -1.6538   -3.0714    1.6220 O   0  0  0  0  0  0  0  0  0  0  0  0
   -2.2174   -1.3967    0.2147 N   0  0  0  0  0  0  0  0  0  0  0  0
   -2.9898   -0.9437   -0.2712 H   0  0  0  0  0  0  0  0  0  0  0  0
   -0.9491   -0.6522    0.2787 C   0  0  1  0  0  0  0  0  0  0  0  0
   -0.4092   -0.9433    1.1865 H   0  0  0  0  0  0  0  0  0  0  0  0
   -0.0807   -0.9734   -0.9567 C   0  0  0  0  0  0  0  0  0  0  0  0
   -0.6046   -1.6794   -1.6097 H   0  0  0  0  0  0  0  0  0  0  0  0
    0.0890   -0.0685   -1.5502 H   0  0  0  0  0  0  0  0  0  0  0  0
    1.2423   -1.5783   -0.5520 C   0  0  0  0  0  0  0  0  0  0  0  0
    2.4180   -0.8149   -0.6096 C   0  0  0  0  0  0  0  0  0  0  0  0
    2.3831    0.2149   -0.9530 H   0  0  0  0  0  0  0  0  0  0  0  0
    3.6446   -1.3723   -0.2287 C   0  0  0  0  0  0  0  0  0  0  0  0
    4.5447   -0.7697   -0.2822 H   0  0  0  0  0  0  0  0  0  0  0  0
    3.7070   -2.6951    0.2155 C   0  0  0  0  0  0  0  0  0  0  0  0
    4.8980   -3.2477    0.5895 O   0  0  0  0  0  0  0  0  0  0  0  0
    5.6124   -2.6009    0.4861 H   0  0  0  0  0  0  0  0  0  0  0  0
    2.5411   -3.4558    0.2794 C   0  0  0  0  0  0  0  0  0  0  0  0
    2.5934   -4.4806    0.6321 H   0  0  0  0  0  0  0  0  0  0  0  0
    1.3129   -2.9044   -0.1017 C   0  0  0  0  0  0  0  0  0  0  0  0
    0.4117   -3.5086   -0.0375 H   0  0  0  0  0  0  0  0  0  0  0  0
   -1.1977    0.8629    0.3807 C   0  0  0  0  0  0  0  0  0  0  0  0
   -2.0611    1.3883   -0.3126 O   0  0  0  0  0  0  0  0  0  0  0  0
   -0.4861    1.6292    1.2846 N   0  0  0  0  0  0  0  0  0  0  0  0
    0.1902    1.1516    1.8744 H   0  0  0  0  0  0  0  0  0  0  0  0
   -0.7022    3.0586    1.4697 C   0  0  0  0  0  0  0  0  0  0  0  0
   -1.7348    3.2537    1.7777 H   0  0  0  0  0  0  0  0  0  0  0  0
   -0.0321    3.4448    2.2436 H   0  0  0  0  0  0  0  0  0  0  0  0
   -0.5034    3.5996    0.5386 H   0  0  0  0  0  0  0  0  0  0  0  0
  1  2  1  0  0  0  0
  2  3  1  0  0  0  0
  2  4  1  0  0  0  0
  2  5  1  0  0  0  0
  5  6  2  0  0  0  0
  5  7  1  0  0  0  0
  7  8  1  0  0  0  0
  7  9  1  0  0  0  0
  9 10  1  0  0  0  0
  9 11  1  0  0  0  0
  9 26  1  0  0  0  0
 11 12  1  0  0  0  0
 11 13  1  0  0  0  0
 11 14  1  0  0  0  0
 14 15  2  0  0  0  0
 14 24  1  0  0  0  0
 15 16  1  0  0  0  0
 15 17  1  0  0  0  0
 17 18  1  0  0  0  0
 17 19  2  0  0  0  0
 19 20  1  0  0  0  0
 19 22  1  0  0  0  0
 20 21  1  0  0  0  0
 22 23  1  0  0  0  0
 22 24  2  0  0  0  0
 24 25  1  0  0  0  0
 26 27  2  0  0  0  0
 26 28  1  0  0  0  0
 28 29  1  0  0  0  0
 28 30  1  0  0  0  0
 30 31  1  0  0  0  0
 30 32  1  0  0  0  0
 30 33  1  0  0  0  0
M  END
$$$$

  -OEChem-04042216043D

 33 33  0     1  0  0  0  0  0999 V2000
   -3.9339   -4.0265    1.4959 H   0  0  0  0  0  0  0  0  0  0  0  0
   -3.8818   -3.1369    0.8619 C   0  0  0  0  0  0  0  0  0  0  0  0
   -4.6091   -2.4053    1.2223 H   0  0  0  0  0  0  0  0  0  0  0  0
   -4.1346   -3.4190   -0.1630 H   0  0  0  0  0  0  0  0  0  0  0  0
   -2.4859   -2.5446    0.9052 C   0  0  0  0  0  0  0  0  0  0  0  0
   -1.6148   -3.0891    1.5638 O   0  0  0  0  0  0  0  0  0  0  0  0
   -2.2117   -1.3942    0.1953 N   0  0  0  0  0  0  0  0  0  0  0  0
   -2.9935   -0.9356   -0.2698 H   0  0  0  0  0  0  0  0  0  0  0  0
   -0.9443   -0.6486    0.2530 C   0  0  1  0  0  0  0  0  0  0  0  0
   -0.3979   -0.9488    1.1540 H   0  0  0  0  0  0  0  0  0  0  0  0
   -0.0904   -0.9746   -0.9896 C   0  0  0  0  0  0  0  0  0  0  0  0
   -0.6218   -1.6769   -1.6405 H   0  0  0  0  0  0  0  0  0  0  0  0
    0.0848   -0.0705   -1.5829 H   0  0  0  0  0  0  0  0  0  0  0  0
    1.2305   -1.5799   -0.5843 C   0  0  0  0  0  0  0  0  0  0  0  0
    2.3430   -0.7586   -0.3478 C   0  0  0  0  0  0  0  0  0  0  0  0
    2.2653    0.3160   -0.4852 H   0  0  0  0  0  0  0  0  0  0  0  0
    3.5620   -1.3168    0.0550 C   0  0  0  0  0  0  0  0  0  0  0  0
    4.4161   -0.6701    0.2235 H   0  0  0  0  0  0  0  0  0  0  0  0
    3.6751   -2.6969    0.2381 C   0  0  0  0  0  0  0  0  0  0  0  0
    4.8589   -3.2510    0.6317 O   0  0  0  0  0  0  0  0  0  0  0  0
    5.5292   -2.5600    0.7439 H   0  0  0  0  0  0  0  0  0  0  0  0
    2.5670   -3.5142    0.0225 C   0  0  0  0  0  0  0  0  0  0  0  0
    2.6573   -4.5839    0.1797 H   0  0  0  0  0  0  0  0  0  0  0  0
    1.3473   -2.9622   -0.3830 C   0  0  0  0  0  0  0  0  0  0  0  0
    0.4866   -3.6100   -0.5257 H   0  0  0  0  0  0  0  0  0  0  0  0
   -1.1863    0.8656    0.3743 C   0  0  0  0  0  0  0  0  0  0  0  0
   -2.0574    1.4012   -0.3012 O   0  0  0  0  0  0  0  0  0  0  0  0
   -0.4603    1.6179    1.2790 N   0  0  0  0  0  0  0  0  0  0  0  0
    0.2063    1.1265    1.8688 H   0  0  0  0  0  0  0  0  0  0  0  0
   -0.6811    3.0422    1.4960 C   0  0  0  0  0  0  0  0  0  0  0  0
   -1.7092    3.2254    1.8255 H   0  0  0  0  0  0  0  0  0  0  0  0
    0.0003    3.4180    2.2652 H   0  0  0  0  0  0  0  0  0  0  0  0
   -0.5022    3.6020    0.5721 H   0  0  0  0  0  0  0  0  0  0  0  0
  1  2  1  0  0  0  0
  2  3  1  0  0  0  0
  2  4  1  0  0  0  0
  2  5  1  0  0  0  0
  5  6  2  0  0  0  0
  5  7  1  0  0  0  0
  7  8  1  0  0  0  0
  7  9  1  0  0  0  0
  9 10  1  0  0  0  0
  9 11  1  0  0  0  0
  9 26  1  0  0  0  0
 11 12  1  0  0  0  0
 11 13  1  0  0  0  0
 11 14  1  0  0  0  0
 14 15  2  0  0  0  0
 14 24  1  0  0  0  0
 15 16  1  0  0  0  0
 15 17  1  0  0  0  0
 17 18  1  0  0  0  0
 17 19  2  0  0  0  0
 19 20  1  0  0  0  0
 19 22  1  0  0  0  0
 20 21  1  0  0  0  0
 22 23  1  0  0  0  0
 22 24  2  0  0  0  0
 24 25  1  0  0  0  0
 26 27  2  0  0  0  0
 26 28  1  0  0  0  0
 28 29  1  0  0  0  0
 28 30  1  0  0  0  0
 30 31  1  0  0  0  0
 30 32  1  0  0  0  0
 30 33  1  0  0  0  0
M  END
$$$$

  -OEChem-04042216043D

 33 33  0     1  0  0  0  0  0999 V2000
   -3.9326   -4.0260    1.4897 H   0  0  0  0  0  0  0  0  0  0  0  0
   -3.8782   -3.1375    0.8545 C   0  0  0  0  0  0  0  0  0  0  0  0
   -4.6187   -2.4123    1.2004 H   0  0  0  0  0  0  0  0  0  0  0  0
   -4.1113   -3.4249   -0.1736 H   0  0  0  0  0  0  0  0  0  0  0  0
   -2.4885   -2.5319    0.9204 C   0  0  0  0  0  0  0  0  0  0  0  0
   -1.6297   -3.0570    1.6100 O   0  0  0  0  0  0  0  0  0  0  0  0
   -2.2086   -1.3858    0.2053 N   0  0  0  0  0  0  0  0  0  0  0  0
   -2.9823   -0.9382   -0.2835 H   0  0  0  0  0  0  0  0  0  0  0  0
   -0.9396   -0.6430    0.2644 C   0  0  1  0  0  0  0  0  0  0  0  0
   -0.3935   -0.9416    1.1660 H   0  0  0  0  0  0  0  0  0  0  0  0
   -0.0878   -0.9733   -0.9799 C   0  0  0  0  0  0  0  0  0  0  0  0
   -0.6288   -1.6641   -1.6349 H   0  0  0  0  0  0  0  0  0  0  0  0
    0.0971   -0.0676   -1.5677 H   0  0  0  0  0  0  0  0  0  0  0  0
    1.2345   -1.5847   -0.5845 C   0  0  0  0  0  0  0  0  0  0  0  0
    2.2550   -0.7805   -0.0537 C   0  0  0  0  0  0  0  0  0  0  0  0
    2.1085    0.2914    0.0419 H   0  0  0  0  0  0  0  0  0  0  0  0
    3.4719   -1.3487    0.3417 C   0  0  0  0  0  0  0  0  0  0  0  0
    4.2546   -0.7130    0.7408 H   0  0  0  0  0  0  0  0  0  0  0  0
    3.6752   -2.7253    0.2204 C   0  0  0  0  0  0  0  0  0  0  0  0
    4.8574   -3.2905    0.6034 O   0  0  0  0  0  0  0  0  0  0  0  0
    5.4508   -2.6124    0.9604 H   0  0  0  0  0  0  0  0  0  0  0  0
    2.6595   -3.5299   -0.2928 C   0  0  0  0  0  0  0  0  0  0  0  0
    2.8210   -4.5996   -0.3740 H   0  0  0  0  0  0  0  0  0  0  0  0
    1.4416   -2.9674   -0.6902 C   0  0  0  0  0  0  0  0  0  0  0  0
    0.6541   -3.6117   -1.0703 H   0  0  0  0  0  0  0  0  0  0  0  0
   -1.1835    0.8717    0.3769 C   0  0  0  0  0  0  0  0  0  0  0  0
   -2.0441    1.4057   -0.3131 O   0  0  0  0  0  0  0  0  0  0  0  0
   -0.4624    1.6293    1.2812 N   0  0  0  0  0  0  0  0  0  0  0  0
    0.1720    1.1357    1.9033 H   0  0  0  0  0  0  0  0  0  0  0  0
   -0.6961    3.0516    1.4965 C   0  0  0  0  0  0  0  0  0  0  0  0
   -1.7213    3.2237    1.8407 H   0  0  0  0  0  0  0  0  0  0  0  0
   -0.0069    3.4374    2.2538 H   0  0  0  0  0  0  0  0  0  0  0  0
   -0.5373    3.6104    0.5682 H   0  0  0  0  0  0  0  0  0  0  0  0
  1  2  1  0  0  0  0
  2  3  1  0  0  0  0
  2  4  1  0  0  0  0
  2  5  1  0  0  0  0
  5  6  2  0  0  0  0
  5  7  1  0  0  0  0
  7  8  1  0  0  0  0
  7  9  1  0  0  0  0
  9 10  1  0  0  0  0
  9 11  1  0  0  0  0
  9 26  1  0  0  0  0
 11 12  1  0  0  0  0
 11 13  1  0  0  0  0
 11 14  1  0  0  0  0
 14 15  2  0  0  0  0
 14 24  1  0  0  0  0
 15 16  1  0  0  0  0
 15 17  1  0  0  0  0
 17 18  1  0  0  0  0
 17 19  2  0  0  0  0
 19 20  1  0  0  0  0
 19 22  1  0  0  0  0
 20 21  1  0  0  0  0
 22 23  1  0  0  0  0
 22 24  2  0  0  0  0
 24 25  1  0  0  0  0
 26 27  2  0  0  0  0
 26 28  1  0  0  0  0
 28 29  1  0  0  0  0
 28 30  1  0  0  0  0
 30 31  1  0  0  0  0
 30 32  1  0  0  0  0
 30 33  1  0  0  0  0
M  END
$$$$

  -OEChem-04042216043D

 33 33  0     1  0  0  0  0  0999 V2000
   -3.9491   -4.0180    1.4739 H   0  0  0  0  0  0  0  0  0  0  0  0
   -3.8825   -3.1302    0.8388 C   0  0  0  0  0  0  0  0  0  0  0  0
   -4.6437   -2.4130    1.1553 H   0  0  0  0  0  0  0  0  0  0  0  0
   -4.0745   -3.4230   -0.1962 H   0  0  0  0  0  0  0  0  0  0  0  0
   -2.5037   -2.5076    0.9526 C   0  0  0  0  0  0  0  0  0  0  0  0
   -1.6722   -3.0038    1.6954 O   0  0  0  0  0  0  0  0  0  0  0  0
   -2.2060   -1.3732    0.2262 N   0  0  0  0  0  0  0  0  0  0  0  0
   -2.9621   -0.9429   -0.3039 H   0  0  0  0  0  0  0  0  0  0  0  0
   -0.9365   -0.6330    0.2996 C   0  0  1  0  0  0  0  0  0  0  0  0
   -0.4048   -0.9214    1.2121 H   0  0  0  0  0  0  0  0  0  0  0  0
   -0.0731   -0.9764   -0.9365 C   0  0  0  0  0  0  0  0  0  0  0  0
   -0.6218   -1.6594   -1.5935 H   0  0  0  0  0  0  0  0  0  0  0  0
    0.1217   -0.0723   -1.5236 H   0  0  0  0  0  0  0  0  0  0  0  0
    1.2533   -1.5962   -0.5571 C   0  0  0  0  0  0  0  0  0  0  0  0
    2.1716   -0.8968    0.2429 C   0  0  0  0  0  0  0  0  0  0  0  0
    1.9477    0.1118    0.5750 H   0  0  0  0  0  0  0  0  0  0  0  0
    3.3906   -1.4826    0.6044 C   0  0  0  0  0  0  0  0  0  0  0  0
    4.0906   -0.9260    1.2175 H   0  0  0  0  0  0  0  0  0  0  0  0
    3.7030   -2.7741    0.1749 C   0  0  0  0  0  0  0  0  0  0  0  0
    4.8888   -3.3554    0.5209 O   0  0  0  0  0  0  0  0  0  0  0  0
    5.3954   -2.7615    1.0954 H   0  0  0  0  0  0  0  0  0  0  0  0
    2.7941   -3.4763   -0.6135 C   0  0  0  0  0  0  0  0  0  0  0  0
    3.0415   -4.4816   -0.9381 H   0  0  0  0  0  0  0  0  0  0  0  0
    1.5742   -2.8958   -0.9771 C   0  0  0  0  0  0  0  0  0  0  0  0
    0.8757   -3.4652   -1.5830 H   0  0  0  0  0  0  0  0  0  0  0  0
   -1.1920    0.8824    0.3844 C   0  0  0  0  0  0  0  0  0  0  0  0
   -2.0385    1.3999   -0.3351 O   0  0  0  0  0  0  0  0  0  0  0  0
   -0.4963    1.6611    1.2911 N   0  0  0  0  0  0  0  0  0  0  0  0
    0.1097    1.1804    1.9500 H   0  0  0  0  0  0  0  0  0  0  0  0
   -0.7545    3.0830    1.4826 C   0  0  0  0  0  0  0  0  0  0  0  0
   -1.7843    3.2434    1.8187 H   0  0  0  0  0  0  0  0  0  0  0  0
   -0.0759    3.4925    2.2370 H   0  0  0  0  0  0  0  0  0  0  0  0
   -0.5997    3.6301    0.5466 H   0  0  0  0  0  0  0  0  0  0  0  0
  1  2  1  0  0  0  0
  2  3  1  0  0  0  0
  2  4  1  0  0  0  0
  2  5  1  0  0  0  0
  5  6  2  0  0  0  0
  5  7  1  0  0  0  0
  7  8  1  0  0  0  0
  7  9  1  0  0  0  0
  9 10  1  0  0  0  0
  9 11  1  0  0  0  0
  9 26  1  0  0  0  0
 11 12  1  0  0  0  0
 11 13  1  0  0  0  0
 11 14  1  0  0  0  0
 14 15  2  0  0  0  0
 14 24  1  0  0  0  0
 15 16  1  0  0  0  0
 15 17  1  0  0  0  0
 17 18  1  0  0  0  0
 17 19  2  0  0  0  0
 19 20  1  0  0  0  0
 19 22  1  0  0  0  0
 20 21  1  0  0  0  0
 22 23  1  0  0  0  0
 22 24  2  0  0  0  0
 24 25  1  0  0  0  0
 26 27  2  0  0  0  0
 26 28  1  0  0  0  0
 28 29  1  0  0  0  0
 28 30  1  0  0  0  0
 30 31  1  0  0  0  0
 30 32  1  0  0  0  0
 30 33  1  0  0  0  0
M  END
$$$$

  -OEChem-04042216043D

 33 33  0     1  0  0  0  0  0999 V2000
   -3.9794   -4.0136    1.4614 H   0  0  0  0  0  0  0  0  0  0  0  0
   -3.8998   -3.1288    0.8236 C   0  0  0  0  0  0  0  0  0  0  0  0
   -4.6751   -2.4150    1.1127 H   0  0  0  0  0  0  0  0  0  0  0  0
   -4.0583   -3.4286   -0.2152 H   0  0  0  0  0  0  0  0  0  0  0  0
   -2.5298   -2.4950    0.9763 C   0  0  0  0  0  0  0  0  0  0  0  0
   -1.7239   -2.9693    1.7607 O   0  0  0  0  0  0  0  0  0  0  0  0
   -2.2145   -1.3703    0.2422 N   0  0  0  0  0  0  0  0  0  0  0  0
   -2.9531   -0.9566   -0.3243 H   0  0  0  0  0  0  0  0  0  0  0  0
   -0.9479   -0.6278    0.3375 C   0  0  1  0  0  0  0  0  0  0  0  0
   -0.4420   -0.9055    1.2668 H   0  0  0  0  0  0  0  0  0  0  0  0
   -0.0589   -0.9801   -0.8811 C   0  0  0  0  0  0  0  0  0  0  0  0
   -0.6055   -1.6623   -1.5406 H   0  0  0  0  0  0  0  0  0  0  0  0
    0.1404   -0.0771   -1.4682 H   0  0  0  0  0  0  0  0  0  0  0  0
    1.2752   -1.6020   -0.5175 C   0  0  0  0  0  0  0  0  0  0  0  0
    2.0837   -1.0837    0.5097 C   0  0  0  0  0  0  0  0  0  0  0  0
    1.7763   -0.2015    1.0604 H   0  0  0  0  0  0  0  0  0  0  0  0
    3.3077   -1.6848    0.8269 C   0  0  0  0  0  0  0  0  0  0  0  0
    3.9182   -1.2680    1.6203 H   0  0  0  0  0  0  0  0  0  0  0  0
    3.7400   -2.8108    0.1245 C   0  0  0  0  0  0  0  0  0  0  0  0
    4.9318   -3.4039    0.4265 O   0  0  0  0  0  0  0  0  0  0  0  0
    5.3424   -2.9575    1.1826 H   0  0  0  0  0  0  0  0  0  0  0  0
    2.9466   -3.3318   -0.8947 C   0  0  0  0  0  0  0  0  0  0  0  0
    3.2878   -4.2090   -1.4347 H   0  0  0  0  0  0  0  0  0  0  0  0
    1.7229   -2.7346   -1.2157 C   0  0  0  0  0  0  0  0  0  0  0  0
    1.1204   -3.1617   -2.0118 H   0  0  0  0  0  0  0  0  0  0  0  0
   -1.2130    0.8882    0.3947 C   0  0  0  0  0  0  0  0  0  0  0  0
   -2.0405    1.3915   -0.3567 O   0  0  0  0  0  0  0  0  0  0  0  0
   -0.5456    1.6847    1.3072 N   0  0  0  0  0  0  0  0  0  0  0  0
    0.0520    1.2208    1.9849 H   0  0  0  0  0  0  0  0  0  0  0  0
   -0.7978    3.1131    1.4539 C   0  0  0  0  0  0  0  0  0  0  0  0
   -1.8446    3.2922    1.7208 H   0  0  0  0  0  0  0  0  0  0  0  0
   -0.1635    3.5306    2.2419 H   0  0  0  0  0  0  0  0  0  0  0  0
   -0.5774    3.6389    0.5190 H   0  0  0  0  0  0  0  0  0  0  0  0
  1  2  1  0  0  0  0
  2  3  1  0  0  0  0
  2  4  1  0  0  0  0
  2  5  1  0  0  0  0
  5  6  2  0  0  0  0
  5  7  1  0  0  0  0
  7  8  1  0  0  0  0
  7  9  1  0  0  0  0
  9 10  1  0  0  0  0
  9 11  1  0  0  0  0
  9 26  1  0  0  0  0
 11 12  1  0  0  0  0
 11 13  1  0  0  0  0
 11 14  1  0  0  0  0
 14 15  2  0  0  0  0
 14 24  1  0  0  0  0
 15 16  1  0  0  0  0
 15 17  1  0  0  0  0
 17 18  1  0  0  0  0
 17 19  2  0  0  0  0
 19 20  1  0  0  0  0
 19 22  1  0  0  0  0
 20 21  1  0  0  0  0
 22 23  1  0  0  0  0
 22 24  2  0  0  0  0
 24 25  1  0  0  0  0
 26 27  2  0  0  0  0
 26 28  1  0  0  0  0
 28 29  1  0  0  0  0
 28 30  1  0  0  0  0
 30 31  1  0  0  0  0
 30 32  1  0  0  0  0
 30 33  1  0  0  0  0
M  END
$$$$

  -OEChem-04042216043D

 33 33  0     1  0  0  0  0  0999 V2000
   -4.0258   -3.9989    1.4445 H   0  0  0  0  0  0  0  0  0  0  0  0
   -3.9322   -3.1173    0.8043 C   0  0  0  0  0  0  0  0  0  0  0  0
   -4.7153   -2.4033    1.0708 H   0  0  0  0  0  0  0  0  0  0  0  0
   -4.0652   -3.4226   -0.2363 H   0  0  0  0  0  0  0  0  0  0  0  0
   -2.5665   -2.4818    0.9862 C   0  0  0  0  0  0  0  0  0  0  0  0
   -1.7823   -2.9455    1.7987 O   0  0  0  0  0  0  0  0  0  0  0  0
   -2.2295   -1.3675    0.2458 N   0  0  0  0  0  0  0  0  0  0  0  0
   -2.9530   -0.9575   -0.3427 H   0  0  0  0  0  0  0  0  0  0  0  0
   -0.9653   -0.6241    0.3676 C   0  0  1  0  0  0  0  0  0  0  0  0
   -0.4994   -0.8880    1.3187 H   0  0  0  0  0  0  0  0  0  0  0  0
   -0.0391   -0.9889   -0.8217 C   0  0  0  0  0  0  0  0  0  0  0  0
   -0.5747   -1.6782   -1.4829 H   0  0  0  0  0  0  0  0  0  0  0  0
    0.1629   -0.0903   -1.4144 H   0  0  0  0  0  0  0  0  0  0  0  0
    1.3019   -1.6110   -0.4660 C   0  0  0  0  0  0  0  0  0  0  0  0
    1.9997   -1.3339    0.7258 C   0  0  0  0  0  0  0  0  0  0  0  0
    1.6131   -0.6324    1.4555 H   0  0  0  0  0  0  0  0  0  0  0  0
    3.2301   -1.9464    0.9940 C   0  0  0  0  0  0  0  0  0  0  0  0
    3.7489   -1.7182    1.9185 H   0  0  0  0  0  0  0  0  0  0  0  0
    3.7861   -2.8402    0.0784 C   0  0  0  0  0  0  0  0  0  0  0  0
    4.9849   -3.4425    0.3308 O   0  0  0  0  0  0  0  0  0  0  0  0
    5.3051   -3.1909    1.2106 H   0  0  0  0  0  0  0  0  0  0  0  0
    3.1104   -3.1167   -1.1065 C   0  0  0  0  0  0  0  0  0  0  0  0
    3.5482   -3.8113   -1.8157 H   0  0  0  0  0  0  0  0  0  0  0  0
    1.8800   -2.5094   -1.3779 C   0  0  0  0  0  0  0  0  0  0  0  0
    1.3717   -2.7445   -2.3083 H   0  0  0  0  0  0  0  0  0  0  0  0
   -1.2326    0.8925    0.3959 C   0  0  0  0  0  0  0  0  0  0  0  0
   -2.0488    1.3811   -0.3771 O   0  0  0  0  0  0  0  0  0  0  0  0
   -0.5937    1.7049    1.3145 N   0  0  0  0  0  0  0  0  0  0  0  0
    0.0256    1.2615    1.9862 H   0  0  0  0  0  0  0  0  0  0  0  0
   -0.8447    3.1368    1.4247 C   0  0  0  0  0  0  0  0  0  0  0  0
   -1.8990    3.3249    1.6535 H   0  0  0  0  0  0  0  0  0  0  0  0
   -0.2350    3.5674    2.2247 H   0  0  0  0  0  0  0  0  0  0  0  0
   -0.5918    3.6431    0.4872 H   0  0  0  0  0  0  0  0  0  0  0  0
  1  2  1  0  0  0  0
  2  3  1  0  0  0  0
  2  4  1  0  0  0  0
  2  5  1  0  0  0  0
  5  6  2  0  0  0  0
  5  7  1  0  0  0  0
  7  8  1  0  0  0  0
  7  9  1  0  0  0  0
  9 10  1  0  0  0  0
  9 11  1  0  0  0  0
  9 26  1  0  0  0  0
 11 12  1  0  0  0  0
 11 13  1  0  0  0  0
 11 14  1  0  0  0  0
 14 15  2  0  0  0  0
 14 24  1  0  0  0  0
 15 16  1  0  0  0  0
 15 17  1  0  0  0  0
 17 18  1  0  0  0  0
 17 19  2  0  0  0  0
 19 20  1  0  0  0  0
 19 22  1  0  0  0  0
 20 21  1  0  0  0  0
 22 23  1  0  0  0  0
 22 24  2  0  0  0  0
 24 25  1  0  0  0  0
 26 27  2  0  0  0  0
 26 28  1  0  0  0  0
 28 29  1  0  0  0  0
 28 30  1  0  0  0  0
 30 31  1  0  0  0  0
 30 32  1  0  0  0  0
 30 33  1  0  0  0  0
M  END
$$$$

  -OEChem-04042216043D

 33 33  0     1  0  0  0  0  0999 V2000
   -4.0805   -3.9791    1.4324 H   0  0  0  0  0  0  0  0  0  0  0  0
   -3.9746   -3.1014    0.7886 C   0  0  0  0  0  0  0  0  0  0  0  0
   -4.7568   -2.3817    1.0416 H   0  0  0  0  0  0  0  0  0  0  0  0
   -4.0972   -3.4117   -0.2518 H   0  0  0  0  0  0  0  0  0  0  0  0
   -2.6076   -2.4725    0.9833 C   0  0  0  0  0  0  0  0  0  0  0  0
   -1.8370   -2.9350    1.8100 O   0  0  0  0  0  0  0  0  0  0  0  0
   -2.2509   -1.3672    0.2383 N   0  0  0  0  0  0  0  0  0  0  0  0
   -2.9631   -0.9541   -0.3618 H   0  0  0  0  0  0  0  0  0  0  0  0
   -0.9873   -0.6273    0.3861 C   0  0  1  0  0  0  0  0  0  0  0  0
   -0.5596   -0.8747    1.3560 H   0  0  0  0  0  0  0  0  0  0  0  0
   -0.0256   -1.0033   -0.7729 C   0  0  0  0  0  0  0  0  0  0  0  0
   -0.5474   -1.6974   -1.4405 H   0  0  0  0  0  0  0  0  0  0  0  0
    0.1837   -0.1073   -1.3672 H   0  0  0  0  0  0  0  0  0  0  0  0
    1.3170   -1.6290   -0.4176 C   0  0  0  0  0  0  0  0  0  0  0  0
    1.8996   -1.6292    0.8673 C   0  0  0  0  0  0  0  0  0  0  0  0
    1.4216   -1.1660    1.7211 H   0  0  0  0  0  0  0  0  0  0  0  0
    3.1430   -2.2342    1.0895 C   0  0  0  0  0  0  0  0  0  0  0  0
    3.5678   -2.2248    2.0873 H   0  0  0  0  0  0  0  0  0  0  0  0
    3.8297   -2.8440    0.0399 C   0  0  0  0  0  0  0  0  0  0  0  0
    5.0408   -3.4377    0.2496 O   0  0  0  0  0  0  0  0  0  0  0  0
    5.2711   -3.3991    1.1906 H   0  0  0  0  0  0  0  0  0  0  0  0
    3.2714   -2.8444   -1.2341 C   0  0  0  0  0  0  0  0  0  0  0  0
    3.8105   -3.3179   -2.0481 H   0  0  0  0  0  0  0  0  0  0  0  0
    2.0293   -2.2434   -1.4615 C   0  0  0  0  0  0  0  0  0  0  0  0
    1.6158   -2.2574   -2.4659 H   0  0  0  0  0  0  0  0  0  0  0  0
   -1.2474    0.8911    0.3921 C   0  0  0  0  0  0  0  0  0  0  0  0
   -2.0490    1.3743   -0.3996 O   0  0  0  0  0  0  0  0  0  0  0  0
   -0.6278    1.7087    1.3194 N   0  0  0  0  0  0  0  0  0  0  0  0
    0.0092    1.2752    1.9814 H   0  0  0  0  0  0  0  0  0  0  0  0
   -0.8576    3.1460    1.3989 C   0  0  0  0  0  0  0  0  0  0  0  0
   -1.9166    3.3553    1.5829 H   0  0  0  0  0  0  0  0  0  0  0  0
   -0.2733    3.5783    2.2168 H   0  0  0  0  0  0  0  0  0  0  0  0
   -0.5591    3.6340    0.4651 H   0  0  0  0  0  0  0  0  0  0  0  0
  1  2  1  0  0  0  0
  2  3  1  0  0  0  0
  2  4  1  0  0  0  0
  2  5  1  0  0  0  0
  5  6  2  0  0  0  0
  5  7  1  0  0  0  0
  7  8  1  0  0  0  0
  7  9  1  0  0  0  0
  9 10  1  0  0  0  0
  9 11  1  0  0  0  0
  9 26  1  0  0  0  0
 11 12  1  0  0  0  0
 11 13  1  0  0  0  0
 11 14  1  0  0  0  0
 14 15  2  0  0  0  0
 14 24  1  0  0  0  0
 15 16  1  0  0  0  0
 15 17  1  0  0  0  0
 17 18  1  0  0  0  0
 17 19  2  0  0  0  0
 19 20  1  0  0  0  0
 19 22  1  0  0  0  0
 20 21  1  0  0  0  0
 22 23  1  0  0  0  0
 22 24  2  0  0  0  0
 24 25  1  0  0  0  0
 26 27  2  0  0  0  0
 26 28  1  0  0  0  0
 28 29  1  0  0  0  0
 28 30  1  0  0  0  0
 30 31  1  0  0  0  0
 30 32  1  0  0  0  0
 30 33  1  0  0  0  0
M  END
$$$$

  -OEChem-04042216043D

 33 33  0     1  0  0  0  0  0999 V2000
   -4.1358   -3.9522    1.4297 H   0  0  0  0  0  0  0  0  0  0  0  0
   -4.0168   -3.0741    0.7886 C   0  0  0  0  0  0  0  0  0  0  0  0
   -4.7878   -2.3434    1.0445 H   0  0  0  0  0  0  0  0  0  0  0  0
   -4.1451   -3.3794   -0.2527 H   0  0  0  0  0  0  0  0  0  0  0  0
   -2.6407   -2.4652    0.9839 C   0  0  0  0  0  0  0  0  0  0  0  0
   -1.8763   -2.9370    1.8117 O   0  0  0  0  0  0  0  0  0  0  0  0
   -2.2662   -1.3676    0.2366 N   0  0  0  0  0  0  0  0  0  0  0  0
   -2.9707   -0.9421   -0.3643 H   0  0  0  0  0  0  0  0  0  0  0  0
   -0.9954   -0.6444    0.3963 C   0  0  1  0  0  0  0  0  0  0  0  0
   -0.5772   -0.8758    1.3731 H   0  0  0  0  0  0  0  0  0  0  0  0
   -0.0261   -1.0229   -0.7559 C   0  0  0  0  0  0  0  0  0  0  0  0
   -0.5461   -1.7103   -1.4315 H   0  0  0  0  0  0  0  0  0  0  0  0
    0.1912   -0.1237   -1.3429 H   0  0  0  0  0  0  0  0  0  0  0  0
    1.3096   -1.6672   -0.4056 C   0  0  0  0  0  0  0  0  0  0  0  0
    1.7643   -1.9640    0.8972 C   0  0  0  0  0  0  0  0  0  0  0  0
    1.1616   -1.7950    1.7807 H   0  0  0  0  0  0  0  0  0  0  0  0
    3.0274   -2.5331    1.1018 C   0  0  0  0  0  0  0  0  0  0  0  0
    3.3483   -2.7612    2.1124 H   0  0  0  0  0  0  0  0  0  0  0  0
    3.8616   -2.8118    0.0198 C   0  0  0  0  0  0  0  0  0  0  0  0
    5.0921   -3.3696    0.2142 O   0  0  0  0  0  0  0  0  0  0  0  0
    5.2217   -3.5639    1.1552 H   0  0  0  0  0  0  0  0  0  0  0  0
    3.4292   -2.5208   -1.2698 C   0  0  0  0  0  0  0  0  0  0  0  0
    4.0822   -2.7385   -2.1087 H   0  0  0  0  0  0  0  0  0  0  0  0
    2.1675   -1.9558   -1.4807 C   0  0  0  0  0  0  0  0  0  0  0  0
    1.8544   -1.7367   -2.4975 H   0  0  0  0  0  0  0  0  0  0  0  0
   -1.2465    0.8760    0.3930 C   0  0  0  0  0  0  0  0  0  0  0  0
   -2.0400    1.3608   -0.4061 O   0  0  0  0  0  0  0  0  0  0  0  0
   -0.6326    1.6936    1.3239 N   0  0  0  0  0  0  0  0  0  0  0  0
    0.0170    1.2622    1.9752 H   0  0  0  0  0  0  0  0  0  0  0  0
   -0.8343    3.1362    1.3794 C   0  0  0  0  0  0  0  0  0  0  0  0
   -1.8916    3.3699    1.5429 H   0  0  0  0  0  0  0  0  0  0  0  0
   -0.2545    3.5677    2.2010 H   0  0  0  0  0  0  0  0  0  0  0  0
   -0.5102    3.6041    0.4438 H   0  0  0  0  0  0  0  0  0  0  0  0
  1  2  1  0  0  0  0
  2  3  1  0  0  0  0
  2  4  1  0  0  0  0
  2  5  1  0  0  0  0
  5  6  2  0  0  0  0
  5  7  1  0  0  0  0
  7  8  1  0  0  0  0
  7  9  1  0  0  0  0
  9 10  1  0  0  0  0
  9 11  1  0  0  0  0
  9 26  1  0  0  0  0
 11 12  1  0  0  0  0
 11 13  1  0  0  0  0
 11 14  1  0  0  0  0
 14 15  2  0  0  0  0
 14 24  1  0  0  0  0
 15 16  1  0  0  0  0
 15 17  1  0  0  0  0
 17 18  1  0  0  0  0
 17 19  2  0  0  0  0
 19 20  1  0  0  0  0
 19 22  1  0  0  0  0
 20 21  1  0  0  0  0
 22 23  1  0  0  0  0
 22 24  2  0  0  0  0
 24 25  1  0  0  0  0
 26 27  2  0  0  0  0
 26 28  1  0  0  0  0
 28 29  1  0  0  0  0
 28 30  1  0  0  0  0
 30 31  1  0  0  0  0
 30 32  1  0  0  0  0
 30 33  1  0  0  0  0
M  END
$$$$

  -OEChem-04042216043D

 33 33  0     1  0  0  0  0  0999 V2000
   -4.1290   -3.9483    1.4532 H   0  0  0  0  0  0  0  0  0  0  0  0
   -4.0161   -3.0698    0.8118 C   0  0  0  0  0  0  0  0  0  0  0  0
   -4.7749   -2.3330    1.0864 H   0  0  0  0  0  0  0  0  0  0  0  0
   -4.1692   -3.3710   -0.2273 H   0  0  0  0  0  0  0  0  0  0  0  0
   -2.6309   -2.4739    0.9788 C   0  0  0  0  0  0  0  0  0  0  0  0
   -1.8471   -2.9642    1.7775 O   0  0  0  0  0  0  0  0  0  0  0  0
   -2.2663   -1.3703    0.2358 N   0  0  0  0  0  0  0  0  0  0  0  0
   -2.9825   -0.9291   -0.3394 H   0  0  0  0  0  0  0  0  0  0  0  0
   -0.9878   -0.6578    0.3778 C   0  0  1  0  0  0  0  0  0  0  0  0
   -0.5416   -0.8925    1.3430 H   0  0  0  0  0  0  0  0  0  0  0  0
   -0.0450   -1.0240   -0.7992 C   0  0  0  0  0  0  0  0  0  0  0  0
   -0.5747   -1.7037   -1.4747 H   0  0  0  0  0  0  0  0  0  0  0  0
    0.1651   -0.1184   -1.3793 H   0  0  0  0  0  0  0  0  0  0  0  0
    1.2855   -1.6803   -0.4573 C   0  0  0  0  0  0  0  0  0  0  0  0
    1.6013   -2.2552    0.7916 C   0  0  0  0  0  0  0  0  0  0  0  0
    0.8706   -2.3388    1.5889 H   0  0  0  0  0  0  0  0  0  0  0  0
    2.8698   -2.7976    1.0298 C   0  0  0  0  0  0  0  0  0  0  0  0
    3.0818   -3.2455    1.9945 H   0  0  0  0  0  0  0  0  0  0  0  0
    3.8459   -2.7741    0.0342 C   0  0  0  0  0  0  0  0  0  0  0  0
    5.0841   -3.3023    0.2598 O   0  0  0  0  0  0  0  0  0  0  0  0
    5.1192   -3.6975    1.1445 H   0  0  0  0  0  0  0  0  0  0  0  0
    3.5480   -2.2120   -1.2033 C   0  0  0  0  0  0  0  0  0  0  0  0
    4.3106   -2.1989   -1.9751 H   0  0  0  0  0  0  0  0  0  0  0  0
    2.2814   -1.6715   -1.4483 C   0  0  0  0  0  0  0  0  0  0  0  0
    2.0760   -1.2352   -2.4217 H   0  0  0  0  0  0  0  0  0  0  0  0
   -1.2325    0.8638    0.3970 C   0  0  0  0  0  0  0  0  0  0  0  0
   -2.0409    1.3606   -0.3796 O   0  0  0  0  0  0  0  0  0  0  0  0
   -0.5963    1.6683    1.3243 N   0  0  0  0  0  0  0  0  0  0  0  0
    0.0710    1.2275    1.9514 H   0  0  0  0  0  0  0  0  0  0  0  0
   -0.7826    3.1125    1.3941 C   0  0  0  0  0  0  0  0  0  0  0  0
   -1.8363    3.3558    1.5663 H   0  0  0  0  0  0  0  0  0  0  0  0
   -0.1934    3.5308    2.2160 H   0  0  0  0  0  0  0  0  0  0  0  0
   -0.4594    3.5852    0.4607 H   0  0  0  0  0  0  0  0  0  0  0  0
  1  2  1  0  0  0  0
  2  3  1  0  0  0  0
  2  4  1  0  0  0  0
  2  5  1  0  0  0  0
  5  6  2  0  0  0  0
  5  7  1  0  0  0  0
  7  8  1  0  0  0  0
  7  9  1  0  0  0  0
  9 10  1  0  0  0  0
  9 11  1  0  0  0  0
  9 26  1  0  0  0  0
 11 12  1  0  0  0  0
 11 13  1  0  0  0  0
 11 14  1  0  0  0  0
 14 15  2  0  0  0  0
 14 24  1  0  0  0  0
 15 16  1  0  0  0  0
 15 17  1  0  0  0  0
 17 18  1  0  0  0  0
 17 19  2  0  0  0  0
 19 20  1  0  0  0  0
 19 22  1  0  0  0  0
 20 21  1  0  0  0  0
 22 23  1  0  0  0  0
 22 24  2  0  0  0  0
 24 25  1  0  0  0  0
 26 27  2  0  0  0  0
 26 28  1  0  0  0  0
 28 29  1  0  0  0  0
 28 30  1  0  0  0  0
 30 31  1  0  0  0  0
 30 32  1  0  0  0  0
 30 33  1  0  0  0  0
M  END
$$$$

  -OEChem-04042216043D

 33 33  0     1  0  0  0  0  0999 V2000
   -4.1022   -3.9738    1.4558 H   0  0  0  0  0  0  0  0  0  0  0  0
   -3.9931   -3.0921    0.8179 C   0  0  0  0  0  0  0  0  0  0  0  0
   -4.7546   -2.3594    1.0959 H   0  0  0  0  0  0  0  0  0  0  0  0
   -4.1466   -3.3897   -0.2223 H   0  0  0  0  0  0  0  0  0  0  0  0
   -2.6095   -2.4924    0.9860 C   0  0  0  0  0  0  0  0  0  0  0  0
   -1.8241   -2.9877    1.7789 O   0  0  0  0  0  0  0  0  0  0  0  0
   -2.2543   -1.3796    0.2526 N   0  0  0  0  0  0  0  0  0  0  0  0
   -2.9789   -0.9425   -0.3150 H   0  0  0  0  0  0  0  0  0  0  0  0
   -0.9742   -0.6618    0.3625 C   0  0  1  0  0  0  0  0  0  0  0  0
   -0.4881   -0.9148    1.3071 H   0  0  0  0  0  0  0  0  0  0  0  0
   -0.0629   -1.0095   -0.8436 C   0  0  0  0  0  0  0  0  0  0  0  0
   -0.5978   -1.6956   -1.5086 H   0  0  0  0  0  0  0  0  0  0  0  0
    0.1246   -0.1010   -1.4265 H   0  0  0  0  0  0  0  0  0  0  0  0
    1.2708   -1.6556   -0.5070 C   0  0  0  0  0  0  0  0  0  0  0  0
    1.4739   -2.4774    0.6185 C   0  0  0  0  0  0  0  0  0  0  0  0
    0.6562   -2.7316    1.2856 H   0  0  0  0  0  0  0  0  0  0  0  0
    2.7351   -3.0213    0.8889 C   0  0  0  0  0  0  0  0  0  0  0  0
    2.8617   -3.6580    1.7579 H   0  0  0  0  0  0  0  0  0  0  0  0
    3.8130   -2.7537    0.0446 C   0  0  0  0  0  0  0  0  0  0  0  0
    5.0458   -3.2807    0.2997 O   0  0  0  0  0  0  0  0  0  0  0  0
    5.0068   -3.8489    1.0844 H   0  0  0  0  0  0  0  0  0  0  0  0
    3.6250   -1.9446   -1.0724 C   0  0  0  0  0  0  0  0  0  0  0  0
    4.4670   -1.7427   -1.7264 H   0  0  0  0  0  0  0  0  0  0  0  0
    2.3662   -1.4007   -1.3487 C   0  0  0  0  0  0  0  0  0  0  0  0
    2.2469   -0.7722   -2.2266 H   0  0  0  0  0  0  0  0  0  0  0  0
   -1.2191    0.8591    0.4047 C   0  0  0  0  0  0  0  0  0  0  0  0
   -2.0469    1.3641   -0.3457 O   0  0  0  0  0  0  0  0  0  0  0  0
   -0.5544    1.6534    1.3207 N   0  0  0  0  0  0  0  0  0  0  0  0
    0.1291    1.2044    1.9242 H   0  0  0  0  0  0  0  0  0  0  0  0
   -0.7424    3.0956    1.4177 C   0  0  0  0  0  0  0  0  0  0  0  0
   -1.7936    3.3338    1.6114 H   0  0  0  0  0  0  0  0  0  0  0  0
   -0.1411    3.5011    2.2372 H   0  0  0  0  0  0  0  0  0  0  0  0
   -0.4349    3.5847    0.4875 H   0  0  0  0  0  0  0  0  0  0  0  0
  1  2  1  0  0  0  0
  2  3  1  0  0  0  0
  2  4  1  0  0  0  0
  2  5  1  0  0  0  0
  5  6  2  0  0  0  0
  5  7  1  0  0  0  0
  7  8  1  0  0  0  0
  7  9  1  0  0  0  0
  9 10  1  0  0  0  0
  9 11  1  0  0  0  0
  9 26  1  0  0  0  0
 11 12  1  0  0  0  0
 11 13  1  0  0  0  0
 11 14  1  0  0  0  0
 14 15  2  0  0  0  0
 14 24  1  0  0  0  0
 15 16  1  0  0  0  0
 15 17  1  0  0  0  0
 17 18  1  0  0  0  0
 17 19  2  0  0  0  0
 19 20  1  0  0  0  0
 19 22  1  0  0  0  0
 20 21  1  0  0  0  0
 22 23  1  0  0  0  0
 22 24  2  0  0  0  0
 24 25  1  0  0  0  0
 26 27  2  0  0  0  0
 26 28  1  0  0  0  0
 28 29  1  0  0  0  0
 28 30  1  0  0  0  0
 30 31  1  0  0  0  0
 30 32  1  0  0  0  0
 30 33  1  0  0  0  0
M  END
$$$$

  -OEChem-04042216043D

 33 33  0     1  0  0  0  0  0999 V2000
   -4.0594   -4.0072    1.4619 H   0  0  0  0  0  0  0  0  0  0  0  0
   -3.9588   -3.1226    0.8269 C   0  0  0  0  0  0  0  0  0  0  0  0
   -4.7262   -2.3977    1.1086 H   0  0  0  0  0  0  0  0  0  0  0  0
   -4.1102   -3.4180   -0.2142 H   0  0  0  0  0  0  0  0  0  0  0  0
   -2.5807   -2.5109    0.9958 C   0  0  0  0  0  0  0  0  0  0  0  0
   -1.7938   -2.9998    1.7903 O   0  0  0  0  0  0  0  0  0  0  0  0
   -2.2397   -1.3894    0.2690 N   0  0  0  0  0  0  0  0  0  0  0  0
   -2.9708   -0.9630   -0.2984 H   0  0  0  0  0  0  0  0  0  0  0  0
   -0.9598   -0.6651    0.3493 C   0  0  1  0  0  0  0  0  0  0  0  0
   -0.4374   -0.9393    1.2708 H   0  0  0  0  0  0  0  0  0  0  0  0
   -0.0801   -0.9902   -0.8848 C   0  0  0  0  0  0  0  0  0  0  0  0
   -0.6199   -1.6779   -1.5438 H   0  0  0  0  0  0  0  0  0  0  0  0
    0.0892   -0.0769   -1.4658 H   0  0  0  0  0  0  0  0  0  0  0  0
    1.2556   -1.6258   -0.5510 C   0  0  0  0  0  0  0  0  0  0  0  0
    1.3773   -2.6702    0.3815 C   0  0  0  0  0  0  0  0  0  0  0  0
    0.5004   -3.0764    0.8738 H   0  0  0  0  0  0  0  0  0  0  0  0
    2.6291   -3.2188    0.6818 C   0  0  0  0  0  0  0  0  0  0  0  0
    2.6941   -4.0260    1.4033 H   0  0  0  0  0  0  0  0  0  0  0  0
    3.7772   -2.7332    0.0552 C   0  0  0  0  0  0  0  0  0  0  0  0
    5.0020   -3.2619    0.3423 O   0  0  0  0  0  0  0  0  0  0  0  0
    4.9090   -3.9788    0.9887 H   0  0  0  0  0  0  0  0  0  0  0  0
    3.6688   -1.7009   -0.8736 C   0  0  0  0  0  0  0  0  0  0  0  0
    4.5658   -1.3307   -1.3594 H   0  0  0  0  0  0  0  0  0  0  0  0
    2.4190   -1.1498   -1.1773 C   0  0  0  0  0  0  0  0  0  0  0  0
    2.3611   -0.3456   -1.9051 H   0  0  0  0  0  0  0  0  0  0  0  0
   -1.2088    0.8537    0.4136 C   0  0  0  0  0  0  0  0  0  0  0  0
   -2.0535    1.3637   -0.3143 O   0  0  0  0  0  0  0  0  0  0  0  0
   -0.5209    1.6411    1.3180 N   0  0  0  0  0  0  0  0  0  0  0  0
    0.1756    1.1871    1.9031 H   0  0  0  0  0  0  0  0  0  0  0  0
   -0.7074    3.0826    1.4297 C   0  0  0  0  0  0  0  0  0  0  0  0
   -1.7573    3.3200    1.6317 H   0  0  0  0  0  0  0  0  0  0  0  0
   -0.1010    3.4798    2.2494 H   0  0  0  0  0  0  0  0  0  0  0  0
   -0.4055    3.5804    0.5022 H   0  0  0  0  0  0  0  0  0  0  0  0
  1  2  1  0  0  0  0
  2  3  1  0  0  0  0
  2  4  1  0  0  0  0
  2  5  1  0  0  0  0
  5  6  2  0  0  0  0
  5  7  1  0  0  0  0
  7  8  1  0  0  0  0
  7  9  1  0  0  0  0
  9 10  1  0  0  0  0
  9 11  1  0  0  0  0
  9 26  1  0  0  0  0
 11 12  1  0  0  0  0
 11 13  1  0  0  0  0
 11 14  1  0  0  0  0
 14 15  2  0  0  0  0
 14 24  1  0  0  0  0
 15 16  1  0  0  0  0
 15 17  1  0  0  0  0
 17 18  1  0  0  0  0
 17 19  2  0  0  0  0
 19 20  1  0  0  0  0
 19 22  1  0  0  0  0
 20 21  1  0  0  0  0
 22 23  1  0  0  0  0
 22 24  2  0  0  0  0
 24 25  1  0  0  0  0
 26 27  2  0  0  0  0
 26 28  1  0  0  0  0
 28 29  1  0  0  0  0
 28 30  1  0  0  0  0
 30 31  1  0  0  0  0
 30 32  1  0  0  0  0
 30 33  1  0  0  0  0
M  END
$$$$

  -OEChem-04042216043D

 33 33  0     1  0  0  0  0  0999 V2000
   -4.0076   -4.0118    1.5063 H   0  0  0  0  0  0  0  0  0  0  0  0
   -3.9246   -3.1314    0.8630 C   0  0  0  0  0  0  0  0  0  0  0  0
   -4.6678   -2.3945    1.1772 H   0  0  0  0  0  0  0  0  0  0  0  0
   -4.1290   -3.4279   -0.1687 H   0  0  0  0  0  0  0  0  0  0  0  0
   -2.5319   -2.5379    0.9642 C   0  0  0  0  0  0  0  0  0  0  0  0
   -1.7036   -3.0547    1.6967 O   0  0  0  0  0  0  0  0  0  0  0  0
   -2.2237   -1.4026    0.2442 N   0  0  0  0  0  0  0  0  0  0  0  0
   -2.9837   -0.9575   -0.2682 H   0  0  0  0  0  0  0  0  0  0  0  0
   -0.9482   -0.6687    0.3001 C   0  0  1  0  0  0  0  0  0  0  0  0
   -0.4021   -0.9578    1.2040 H   0  0  0  0  0  0  0  0  0  0  0  0
   -0.0897   -0.9784   -0.9491 C   0  0  0  0  0  0  0  0  0  0  0  0
   -0.6273   -1.6734   -1.6023 H   0  0  0  0  0  0  0  0  0  0  0  0
    0.0692   -0.0657   -1.5336 H   0  0  0  0  0  0  0  0  0  0  0  0
    1.2443   -1.5982   -0.5962 C   0  0  0  0  0  0  0  0  0  0  0  0
    1.3206   -2.8158    0.0974 C   0  0  0  0  0  0  0  0  0  0  0  0
    0.4144   -3.3462    0.3728 H   0  0  0  0  0  0  0  0  0  0  0  0
    2.5622   -3.3639    0.4387 C   0  0  0  0  0  0  0  0  0  0  0  0
    2.5951   -4.3050    0.9767 H   0  0  0  0  0  0  0  0  0  0  0  0
    3.7414   -2.7032    0.0903 C   0  0  0  0  0  0  0  0  0  0  0  0
    4.9565   -3.2301    0.4199 O   0  0  0  0  0  0  0  0  0  0  0  0
    4.8357   -4.0733    0.8834 H   0  0  0  0  0  0  0  0  0  0  0  0
    3.6750   -1.4945   -0.5996 C   0  0  0  0  0  0  0  0  0  0  0  0
    4.5963   -0.9876   -0.8674 H   0  0  0  0  0  0  0  0  0  0  0  0
    2.4360   -0.9420   -0.9422 C   0  0  0  0  0  0  0  0  0  0  0  0
    2.4078    0.0021   -1.4784 H   0  0  0  0  0  0  0  0  0  0  0  0
   -1.1979    0.8474    0.3945 C   0  0  0  0  0  0  0  0  0  0  0  0
   -2.0671    1.3665   -0.2968 O   0  0  0  0  0  0  0  0  0  0  0  0
   -0.4849    1.6201    1.2920 N   0  0  0  0  0  0  0  0  0  0  0  0
    0.2165    1.1531    1.8610 H   0  0  0  0  0  0  0  0  0  0  0  0
   -0.6850    3.0551    1.4512 C   0  0  0  0  0  0  0  0  0  0  0  0
   -1.7217    3.2690    1.7316 H   0  0  0  0  0  0  0  0  0  0  0  0
   -0.0281    3.4437    2.2353 H   0  0  0  0  0  0  0  0  0  0  0  0
   -0.4570    3.5796    0.5173 H   0  0  0  0  0  0  0  0  0  0  0  0
  1  2  1  0  0  0  0
  2  3  1  0  0  0  0
  2  4  1  0  0  0  0
  2  5  1  0  0  0  0
  5  6  2  0  0  0  0
  5  7  1  0  0  0  0
  7  8  1  0  0  0  0
  7  9  1  0  0  0  0
  9 10  1  0  0  0  0
  9 11  1  0  0  0  0
  9 26  1  0  0  0  0
 11 12  1  0  0  0  0
 11 13  1  0  0  0  0
 11 14  1  0  0  0  0
 14 15  2  0  0  0  0
 14 24  1  0  0  0  0
 15 16  1  0  0  0  0
 15 17  1  0  0  0  0
 17 18  1  0  0  0  0
 17 19  2  0  0  0  0
 19 20  1  0  0  0  0
 19 22  1  0  0  0  0
 20 21  1  0  0  0  0
 22 23  1  0  0  0  0
 22 24  2  0  0  0  0
 24 25  1  0  0  0  0
 26 27  2  0  0  0  0
 26 28  1  0  0  0  0
 28 29  1  0  0  0  0
 28 30  1  0  0  0  0
 30 31  1  0  0  0  0
 30 32  1  0  0  0  0
 30 33  1  0  0  0  0
M  END
$$$$

  -OEChem-04042216043D

 33 33  0     1  0  0  0  0  0999 V2000
   -3.9309   -4.0291    1.5269 H   0  0  0  0  0  0  0  0  0  0  0  0
   -3.8789   -3.1433    0.8877 C   0  0  0  0  0  0  0  0  0  0  0  0
   -4.5988   -2.4054    1.2501 H   0  0  0  0  0  0  0  0  0  0  0  0
   -4.1429   -3.4293   -0.1333 H   0  0  0  0  0  0  0  0  0  0  0  0
   -2.4793   -2.5586    0.9163 C   0  0  0  0  0  0  0  0  0  0  0  0
   -1.6043   -3.1084    1.5663 O   0  0  0  0  0  0  0  0  0  0  0  0
   -2.2085   -1.4070    0.2072 N   0  0  0  0  0  0  0  0  0  0  0  0
   -2.9957   -0.9422   -0.2430 H   0  0  0  0  0  0  0  0  0  0  0  0
   -0.9411   -0.6603    0.2529 C   0  0  1  0  0  0  0  0  0  0  0  0
   -0.3840   -0.9596    1.1474 H   0  0  0  0  0  0  0  0  0  0  0  0
   -0.0961   -0.9673   -1.0018 C   0  0  0  0  0  0  0  0  0  0  0  0
   -0.6291   -1.6690   -1.6519 H   0  0  0  0  0  0  0  0  0  0  0  0
    0.0625   -0.0565   -1.5894 H   0  0  0  0  0  0  0  0  0  0  0  0
    1.2333   -1.5717   -0.6205 C   0  0  0  0  0  0  0  0  0  0  0  0
    1.3131   -2.9050   -0.1932 C   0  0  0  0  0  0  0  0  0  0  0  0
    0.4134   -3.5118   -0.1350 H   0  0  0  0  0  0  0  0  0  0  0  0
    2.5441   -3.4574    0.1780 C   0  0  0  0  0  0  0  0  0  0  0  0
    2.5819   -4.4880    0.5134 H   0  0  0  0  0  0  0  0  0  0  0  0
    3.7058   -2.6846    0.1217 C   0  0  0  0  0  0  0  0  0  0  0  0
    4.9104   -3.2134    0.4849 O   0  0  0  0  0  0  0  0  0  0  0  0
    4.7950   -4.1343    0.7661 H   0  0  0  0  0  0  0  0  0  0  0  0
    3.6330   -1.3600   -0.3061 C   0  0  0  0  0  0  0  0  0  0  0  0
    4.5414   -0.7680   -0.3485 H   0  0  0  0  0  0  0  0  0  0  0  0
    2.4045   -0.8013   -0.6752 C   0  0  0  0  0  0  0  0  0  0  0  0
    2.3670    0.2331   -1.0047 H   0  0  0  0  0  0  0  0  0  0  0  0
   -1.1919    0.8524    0.3791 C   0  0  0  0  0  0  0  0  0  0  0  0
   -2.0817    1.3792   -0.2790 O   0  0  0  0  0  0  0  0  0  0  0  0
   -0.4635    1.6107    1.2763 N   0  0  0  0  0  0  0  0  0  0  0  0
    0.2493    1.1355    1.8239 H   0  0  0  0  0  0  0  0  0  0  0  0
   -0.6741    3.0390    1.4756 C   0  0  0  0  0  0  0  0  0  0  0  0
   -1.7053    3.2349    1.7880 H   0  0  0  0  0  0  0  0  0  0  0  0
   -0.0010    3.4161    2.2516 H   0  0  0  0  0  0  0  0  0  0  0  0
   -0.4761    3.5876    0.5488 H   0  0  0  0  0  0  0  0  0  0  0  0
  1  2  1  0  0  0  0
  2  3  1  0  0  0  0
  2  4  1  0  0  0  0
  2  5  1  0  0  0  0
  5  6  2  0  0  0  0
  5  7  1  0  0  0  0
  7  8  1  0  0  0  0
  7  9  1  0  0  0  0
  9 10  1  0  0  0  0
  9 11  1  0  0  0  0
  9 26  1  0  0  0  0
 11 12  1  0  0  0  0
 11 13  1  0  0  0  0
 11 14  1  0  0  0  0
 14 15  2  0  0  0  0
 14 24  1  0  0  0  0
 15 16  1  0  0  0  0
 15 17  1  0  0  0  0
 17 18  1  0  0  0  0
 17 19  2  0  0  0  0
 19 20  1  0  0  0  0
 19 22  1  0  0  0  0
 20 21  1  0  0  0  0
 22 23  1  0  0  0  0
 22 24  2  0  0  0  0
 24 25  1  0  0  0  0
 26 27  2  0  0  0  0
 26 28  1  0  0  0  0
 28 29  1  0  0  0  0
 28 30  1  0  0  0  0
 30 31  1  0  0  0  0
 30 32  1  0  0  0  0
 30 33  1  0  0  0  0
M  END
$$$$

  -OEChem-04042216043D

 33 33  0     1  0  0  0  0  0999 V2000
   -3.9004   -4.0381    1.5155 H   0  0  0  0  0  0  0  0  0  0  0  0
   -3.8608   -3.1472    0.8824 C   0  0  0  0  0  0  0  0  0  0  0  0
   -4.5765   -2.4137    1.2617 H   0  0  0  0  0  0  0  0  0  0  0  0
   -4.1407   -3.4257   -0.1365 H   0  0  0  0  0  0  0  0  0  0  0  0
   -2.4624   -2.5592    0.8929 C   0  0  0  0  0  0  0  0  0  0  0  0
   -1.5729   -3.1169    1.5155 O   0  0  0  0  0  0  0  0  0  0  0  0
   -2.2055   -1.4018    0.1881 N   0  0  0  0  0  0  0  0  0  0  0  0
   -3.0001   -0.9339   -0.2451 H   0  0  0  0  0  0  0  0  0  0  0  0
   -0.9423   -0.6491    0.2367 C   0  0  1  0  0  0  0  0  0  0  0  0
   -0.3875   -0.9505    1.1321 H   0  0  0  0  0  0  0  0  0  0  0  0
   -0.0967   -0.9657   -1.0131 C   0  0  0  0  0  0  0  0  0  0  0  0
   -0.6282   -1.6679   -1.6639 H   0  0  0  0  0  0  0  0  0  0  0  0
    0.0704   -0.0580   -1.6032 H   0  0  0  0  0  0  0  0  0  0  0  0
    1.2285   -1.5633   -0.6107 C   0  0  0  0  0  0  0  0  0  0  0  0
    1.3684   -2.9506   -0.4666 C   0  0  0  0  0  0  0  0  0  0  0  0
    0.5118   -3.6009   -0.6231 H   0  0  0  0  0  0  0  0  0  0  0  0
    2.5998   -3.5022   -0.0941 C   0  0  0  0  0  0  0  0  0  0  0  0
    2.6852   -4.5767    0.0242 H   0  0  0  0  0  0  0  0  0  0  0  0
    3.7018   -2.6736    0.1292 C   0  0  0  0  0  0  0  0  0  0  0  0
    4.9060   -3.2021    0.4939 O   0  0  0  0  0  0  0  0  0  0  0  0
    4.8321   -4.1655    0.5759 H   0  0  0  0  0  0  0  0  0  0  0  0
    3.5693   -1.2939   -0.0197 C   0  0  0  0  0  0  0  0  0  0  0  0
    4.4324   -0.6590    0.1523 H   0  0  0  0  0  0  0  0  0  0  0  0
    2.3396   -0.7368   -0.3878 C   0  0  0  0  0  0  0  0  0  0  0  0
    2.2538    0.3397   -0.5044 H   0  0  0  0  0  0  0  0  0  0  0  0
   -1.1915    0.8626    0.3721 C   0  0  0  0  0  0  0  0  0  0  0  0
   -2.0823    1.3948   -0.2800 O   0  0  0  0  0  0  0  0  0  0  0  0
   -0.4597    1.6132    1.2734 N   0  0  0  0  0  0  0  0  0  0  0  0
    0.2412    1.1290    1.8285 H   0  0  0  0  0  0  0  0  0  0  0  0
   -0.6747    3.0379    1.4922 C   0  0  0  0  0  0  0  0  0  0  0  0
   -1.7037    3.2250    1.8168 H   0  0  0  0  0  0  0  0  0  0  0  0
    0.0044    3.4079    2.2664 H   0  0  0  0  0  0  0  0  0  0  0  0
   -0.4876    3.5995    0.5710 H   0  0  0  0  0  0  0  0  0  0  0  0
  1  2  1  0  0  0  0
  2  3  1  0  0  0  0
  2  4  1  0  0  0  0
  2  5  1  0  0  0  0
  5  6  2  0  0  0  0
  5  7  1  0  0  0  0
  7  8  1  0  0  0  0
  7  9  1  0  0  0  0
  9 10  1  0  0  0  0
  9 11  1  0  0  0  0
  9 26  1  0  0  0  0
 11 12  1  0  0  0  0
 11 13  1  0  0  0  0
 11 14  1  0  0  0  0
 14 15  2  0  0  0  0
 14 24  1  0  0  0  0
 15 16  1  0  0  0  0
 15 17  1  0  0  0  0
 17 18  1  0  0  0  0
 17 19  2  0  0  0  0
 19 20  1  0  0  0  0
 19 22  1  0  0  0  0
 20 21  1  0  0  0  0
 22 23  1  0  0  0  0
 22 24  2  0  0  0  0
 24 25  1  0  0  0  0
 26 27  2  0  0  0  0
 26 28  1  0  0  0  0
 28 29  1  0  0  0  0
 28 30  1  0  0  0  0
 30 31  1  0  0  0  0
 30 32  1  0  0  0  0
 30 33  1  0  0  0  0
M  END
$$$$

  -OEChem-04042216043D

 33 33  0     1  0  0  0  0  0999 V2000
   -3.9084   -4.0366    1.4982 H   0  0  0  0  0  0  0  0  0  0  0  0
   -3.8654   -3.1441    0.8674 C   0  0  0  0  0  0  0  0  0  0  0  0
   -4.5940   -2.4178    1.2357 H   0  0  0  0  0  0  0  0  0  0  0  0
   -4.1249   -3.4237   -0.1565 H   0  0  0  0  0  0  0  0  0  0  0  0
   -2.4719   -2.5450    0.9037 C   0  0  0  0  0  0  0  0  0  0  0  0
   -1.5951   -3.0874    1.5568 O   0  0  0  0  0  0  0  0  0  0  0  0
   -2.2056   -1.3925    0.1938 N   0  0  0  0  0  0  0  0  0  0  0  0
   -2.9921   -0.9325   -0.2621 H   0  0  0  0  0  0  0  0  0  0  0  0
   -0.9409   -0.6423    0.2514 C   0  0  1  0  0  0  0  0  0  0  0  0
   -0.3926   -0.9417    1.1514 H   0  0  0  0  0  0  0  0  0  0  0  0
   -0.0889   -0.9650   -0.9942 C   0  0  0  0  0  0  0  0  0  0  0  0
   -0.6265   -1.6577   -1.6501 H   0  0  0  0  0  0  0  0  0  0  0  0
    0.0906   -0.0568   -1.5799 H   0  0  0  0  0  0  0  0  0  0  0  0
    1.2356   -1.5681   -0.5938 C   0  0  0  0  0  0  0  0  0  0  0  0
    1.4723   -2.9414   -0.7487 C   0  0  0  0  0  0  0  0  0  0  0  0
    0.6888   -3.5883   -1.1329 H   0  0  0  0  0  0  0  0  0  0  0  0
    2.7080   -3.4921   -0.3883 C   0  0  0  0  0  0  0  0  0  0  0  0
    2.8684   -4.5584   -0.5034 H   0  0  0  0  0  0  0  0  0  0  0  0
    3.7205   -2.6745    0.1186 C   0  0  0  0  0  0  0  0  0  0  0  0
    4.9280   -3.2021    0.4744 O   0  0  0  0  0  0  0  0  0  0  0  0
    4.9164   -4.1640    0.3531 H   0  0  0  0  0  0  0  0  0  0  0  0
    3.4957   -1.3064    0.2605 C   0  0  0  0  0  0  0  0  0  0  0  0
    4.2917   -0.6789    0.6479 H   0  0  0  0  0  0  0  0  0  0  0  0
    2.2615   -0.7512   -0.0950 C   0  0  0  0  0  0  0  0  0  0  0  0
    2.1070    0.3183    0.0119 H   0  0  0  0  0  0  0  0  0  0  0  0
   -1.1923    0.8705    0.3750 C   0  0  0  0  0  0  0  0  0  0  0  0
   -2.0669    1.4012   -0.2998 O   0  0  0  0  0  0  0  0  0  0  0  0
   -0.4709    1.6268    1.2802 N   0  0  0  0  0  0  0  0  0  0  0  0
    0.1967    1.1392    1.8719 H   0  0  0  0  0  0  0  0  0  0  0  0
   -0.6977    3.0504    1.4959 C   0  0  0  0  0  0  0  0  0  0  0  0
   -1.7237    3.2285    1.8347 H   0  0  0  0  0  0  0  0  0  0  0  0
   -0.0112    3.4316    2.2581 H   0  0  0  0  0  0  0  0  0  0  0  0
   -0.5297    3.6095    0.5694 H   0  0  0  0  0  0  0  0  0  0  0  0
  1  2  1  0  0  0  0
  2  3  1  0  0  0  0
  2  4  1  0  0  0  0
  2  5  1  0  0  0  0
  5  6  2  0  0  0  0
  5  7  1  0  0  0  0
  7  8  1  0  0  0  0
  7  9  1  0  0  0  0
  9 10  1  0  0  0  0
  9 11  1  0  0  0  0
  9 26  1  0  0  0  0
 11 12  1  0  0  0  0
 11 13  1  0  0  0  0
 11 14  1  0  0  0  0
 14 15  2  0  0  0  0
 14 24  1  0  0  0  0
 15 16  1  0  0  0  0
 15 17  1  0  0  0  0
 17 18  1  0  0  0  0
 17 19  2  0  0  0  0
 19 20  1  0  0  0  0
 19 22  1  0  0  0  0
 20 21  1  0  0  0  0
 22 23  1  0  0  0  0
 22 24  2  0  0  0  0
 24 25  1  0  0  0  0
 26 27  2  0  0  0  0
 26 28  1  0  0  0  0
 28 29  1  0  0  0  0
 28 30  1  0  0  0  0
 30 31  1  0  0  0  0
 30 32  1  0  0  0  0
 30 33  1  0  0  0  0
M  END
$$$$

  -OEChem-04042216043D

 33 33  0     1  0  0  0  0  0999 V2000
   -3.9388   -4.0233    1.4767 H   0  0  0  0  0  0  0  0  0  0  0  0
   -3.8778   -3.1330    0.8444 C   0  0  0  0  0  0  0  0  0  0  0  0
   -4.6229   -2.4091    1.1831 H   0  0  0  0  0  0  0  0  0  0  0  0
   -4.0982   -3.4175   -0.1872 H   0  0  0  0  0  0  0  0  0  0  0  0
   -2.4901   -2.5256    0.9281 C   0  0  0  0  0  0  0  0  0  0  0  0
   -1.6407   -3.0458    1.6332 O   0  0  0  0  0  0  0  0  0  0  0  0
   -2.2025   -1.3828    0.2108 N   0  0  0  0  0  0  0  0  0  0  0  0
   -2.9707   -0.9371   -0.2883 H   0  0  0  0  0  0  0  0  0  0  0  0
   -0.9364   -0.6369    0.2855 C   0  0  1  0  0  0  0  0  0  0  0  0
   -0.4006   -0.9292    1.1949 H   0  0  0  0  0  0  0  0  0  0  0  0
   -0.0725   -0.9674   -0.9525 C   0  0  0  0  0  0  0  0  0  0  0  0
   -0.6150   -1.6510   -1.6136 H   0  0  0  0  0  0  0  0  0  0  0  0
    0.1195   -0.0593   -1.5341 H   0  0  0  0  0  0  0  0  0  0  0  0
    1.2528   -1.5803   -0.5620 C   0  0  0  0  0  0  0  0  0  0  0  0
    1.6010   -2.8656   -1.0028 C   0  0  0  0  0  0  0  0  0  0  0  0
    0.9010   -3.4460   -1.5966 H   0  0  0  0  0  0  0  0  0  0  0  0
    2.8430   -3.4189   -0.6687 C   0  0  0  0  0  0  0  0  0  0  0  0
    3.0885   -4.4192   -1.0081 H   0  0  0  0  0  0  0  0  0  0  0  0
    3.7551   -2.6878    0.0950 C   0  0  0  0  0  0  0  0  0  0  0  0
    4.9678   -3.2188    0.4271 O   0  0  0  0  0  0  0  0  0  0  0  0
    5.0332   -4.1268    0.0933 H   0  0  0  0  0  0  0  0  0  0  0  0
    3.4253   -1.4017    0.5170 C   0  0  0  0  0  0  0  0  0  0  0  0
    4.1448   -0.8378    1.1013 H   0  0  0  0  0  0  0  0  0  0  0  0
    2.1853   -0.8449    0.1869 C   0  0  0  0  0  0  0  0  0  0  0  0
    1.9554    0.1654    0.5095 H   0  0  0  0  0  0  0  0  0  0  0  0
   -1.1970    0.8765    0.3857 C   0  0  0  0  0  0  0  0  0  0  0  0
   -2.0516    1.3961   -0.3227 O   0  0  0  0  0  0  0  0  0  0  0  0
   -0.5001    1.6494    1.2961 N   0  0  0  0  0  0  0  0  0  0  0  0
    0.1285    1.1692    1.9344 H   0  0  0  0  0  0  0  0  0  0  0  0
   -0.7496    3.0723    1.4911 C   0  0  0  0  0  0  0  0  0  0  0  0
   -1.7833    3.2395    1.8115 H   0  0  0  0  0  0  0  0  0  0  0  0
   -0.0802    3.4723    2.2587 H   0  0  0  0  0  0  0  0  0  0  0  0
   -0.5755    3.6233    0.5608 H   0  0  0  0  0  0  0  0  0  0  0  0
  1  2  1  0  0  0  0
  2  3  1  0  0  0  0
  2  4  1  0  0  0  0
  2  5  1  0  0  0  0
  5  6  2  0  0  0  0
  5  7  1  0  0  0  0
  7  8  1  0  0  0  0
  7  9  1  0  0  0  0
  9 10  1  0  0  0  0
  9 11  1  0  0  0  0
  9 26  1  0  0  0  0
 11 12  1  0  0  0  0
 11 13  1  0  0  0  0
 11 14  1  0  0  0  0
 14 15  2  0  0  0  0
 14 24  1  0  0  0  0
 15 16  1  0  0  0  0
 15 17  1  0  0  0  0
 17 18  1  0  0  0  0
 17 19  2  0  0  0  0
 19 20  1  0  0  0  0
 19 22  1  0  0  0  0
 20 21  1  0  0  0  0
 22 23  1  0  0  0  0
 22 24  2  0  0  0  0
 24 25  1  0  0  0  0
 26 27  2  0  0  0  0
 26 28  1  0  0  0  0
 28 29  1  0  0  0  0
 28 30  1  0  0  0  0
 30 31  1  0  0  0  0
 30 32  1  0  0  0  0
 30 33  1  0  0  0  0
M  END
$$$$

  -OEChem-04042216043D

 33 33  0     1  0  0  0  0  0999 V2000
   -3.9819   -4.0185    1.4467 H   0  0  0  0  0  0  0  0  0  0  0  0
   -3.9043   -3.1297    0.8142 C   0  0  0  0  0  0  0  0  0  0  0  0
   -4.6678   -2.4109    1.1216 H   0  0  0  0  0  0  0  0  0  0  0  0
   -4.0830   -3.4195   -0.2240 H   0  0  0  0  0  0  0  0  0  0  0  0
   -2.5254   -2.5112    0.9485 C   0  0  0  0  0  0  0  0  0  0  0  0
   -1.7059   -3.0112    1.7020 O   0  0  0  0  0  0  0  0  0  0  0  0
   -2.2132   -1.3784    0.2257 N   0  0  0  0  0  0  0  0  0  0  0  0
   -2.9608   -0.9444   -0.3133 H   0  0  0  0  0  0  0  0  0  0  0  0
   -0.9479   -0.6345    0.3290 C   0  0  1  0  0  0  0  0  0  0  0  0
   -0.4411   -0.9189    1.2562 H   0  0  0  0  0  0  0  0  0  0  0  0
   -0.0550   -0.9743   -0.8887 C   0  0  0  0  0  0  0  0  0  0  0  0
   -0.5948   -1.6565   -1.5536 H   0  0  0  0  0  0  0  0  0  0  0  0
    0.1448   -0.0678   -1.4705 H   0  0  0  0  0  0  0  0  0  0  0  0
    1.2744   -1.5941   -0.5100 C   0  0  0  0  0  0  0  0  0  0  0  0
    1.7424   -2.7182   -1.2085 C   0  0  0  0  0  0  0  0  0  0  0  0
    1.1297   -3.1732   -1.9811 H   0  0  0  0  0  0  0  0  0  0  0  0
    2.9938   -3.2724   -0.9151 C   0  0  0  0  0  0  0  0  0  0  0  0
    3.3291   -4.1484   -1.4595 H   0  0  0  0  0  0  0  0  0  0  0  0
    3.8022   -2.6983    0.0672 C   0  0  0  0  0  0  0  0  0  0  0  0
    5.0252   -3.2290    0.3596 O   0  0  0  0  0  0  0  0  0  0  0  0
    5.1739   -4.0289   -0.1677 H   0  0  0  0  0  0  0  0  0  0  0  0
    3.3595   -1.5664    0.7475 C   0  0  0  0  0  0  0  0  0  0  0  0
    4.0001   -1.1209    1.5013 H   0  0  0  0  0  0  0  0  0  0  0  0
    2.1095   -1.0089    0.4575 C   0  0  0  0  0  0  0  0  0  0  0  0
    1.8017   -0.1128    0.9853 H   0  0  0  0  0  0  0  0  0  0  0  0
   -1.2157    0.8801    0.4016 C   0  0  0  0  0  0  0  0  0  0  0  0
   -2.0465    1.3876   -0.3433 O   0  0  0  0  0  0  0  0  0  0  0  0
   -0.5506    1.6696    1.3217 N   0  0  0  0  0  0  0  0  0  0  0  0
    0.0643    1.2045    1.9833 H   0  0  0  0  0  0  0  0  0  0  0  0
   -0.7912    3.0996    1.4694 C   0  0  0  0  0  0  0  0  0  0  0  0
   -1.8399    3.2888    1.7212 H   0  0  0  0  0  0  0  0  0  0  0  0
   -0.1648    3.5075    2.2684 H   0  0  0  0  0  0  0  0  0  0  0  0
   -0.5510    3.6258    0.5396 H   0  0  0  0  0  0  0  0  0  0  0  0
  1  2  1  0  0  0  0
  2  3  1  0  0  0  0
  2  4  1  0  0  0  0
  2  5  1  0  0  0  0
  5  6  2  0  0  0  0
  5  7  1  0  0  0  0
  7  8  1  0  0  0  0
  7  9  1  0  0  0  0
  9 10  1  0  0  0  0
  9 11  1  0  0  0  0
  9 26  1  0  0  0  0
 11 12  1  0  0  0  0
 11 13  1  0  0  0  0
 11 14  1  0  0  0  0
 14 15  2  0  0  0  0
 14 24  1  0  0  0  0
 15 16  1  0  0  0  0
 15 17  1  0  0  0  0
 17 18  1  0  0  0  0
 17 19  2  0  0  0  0
 19 20  1  0  0  0  0
 19 22  1  0  0  0  0
 20 21  1  0  0  0  0
 22 23  1  0  0  0  0
 22 24  2  0  0  0  0
 24 25  1  0  0  0  0
 26 27  2  0  0  0  0
 26 28  1  0  0  0  0
 28 29  1  0  0  0  0
 28 30  1  0  0  0  0
 30 31  1  0  0  0  0
 30 32  1  0  0  0  0
 30 33  1  0  0  0  0
M  END
$$$$

  -OEChem-04042216043D

 33 33  0     1  0  0  0  0  0999 V2000
   -4.0323   -4.0074    1.4189 H   0  0  0  0  0  0  0  0  0  0  0  0
   -3.9381   -3.1200    0.7866 C   0  0  0  0  0  0  0  0  0  0  0  0
   -4.7094   -2.4004    1.0721 H   0  0  0  0  0  0  0  0  0  0  0  0
   -4.0898   -3.4128   -0.2551 H   0  0  0  0  0  0  0  0  0  0  0  0
   -2.5631   -2.5008    0.9558 C   0  0  0  0  0  0  0  0  0  0  0  0
   -1.7691   -2.9897    1.7432 O   0  0  0  0  0  0  0  0  0  0  0  0
   -2.2273   -1.3765    0.2301 N   0  0  0  0  0  0  0  0  0  0  0  0
   -2.9582   -0.9480   -0.3356 H   0  0  0  0  0  0  0  0  0  0  0  0
   -0.9636   -0.6337    0.3597 C   0  0  1  0  0  0  0  0  0  0  0  0
   -0.4936   -0.9113    1.3061 H   0  0  0  0  0  0  0  0  0  0  0  0
   -0.0376   -0.9858   -0.8327 C   0  0  0  0  0  0  0  0  0  0  0  0
   -0.5685   -1.6713   -1.5014 H   0  0  0  0  0  0  0  0  0  0  0  0
    0.1667   -0.0822   -1.4173 H   0  0  0  0  0  0  0  0  0  0  0  0
    1.2973   -1.6086   -0.4632 C   0  0  0  0  0  0  0  0  0  0  0  0
    1.8926   -2.5079   -1.3631 C   0  0  0  0  0  0  0  0  0  0  0  0
    1.3716   -2.7881   -2.2739 H   0  0  0  0  0  0  0  0  0  0  0  0
    3.1506   -3.0626   -1.1009 C   0  0  0  0  0  0  0  0  0  0  0  0
    3.5803   -3.7658   -1.8055 H   0  0  0  0  0  0  0  0  0  0  0  0
    3.8458   -2.7078    0.0552 C   0  0  0  0  0  0  0  0  0  0  0  0
    5.0741   -3.2407    0.3207 O   0  0  0  0  0  0  0  0  0  0  0  0
    5.3147   -3.8778   -0.3694 H   0  0  0  0  0  0  0  0  0  0  0  0
    3.2845   -1.7903    0.9391 C   0  0  0  0  0  0  0  0  0  0  0  0
    3.8395   -1.5087    1.8281 H   0  0  0  0  0  0  0  0  0  0  0  0
    2.0269   -1.2333    0.6810 C   0  0  0  0  0  0  0  0  0  0  0  0
    1.6408   -0.5006    1.3801 H   0  0  0  0  0  0  0  0  0  0  0  0
   -1.2303    0.8823    0.4084 C   0  0  0  0  0  0  0  0  0  0  0  0
   -2.0456    1.3799   -0.3600 O   0  0  0  0  0  0  0  0  0  0  0  0
   -0.5907    1.6841    1.3360 N   0  0  0  0  0  0  0  0  0  0  0  0
    0.0290    1.2338    2.0030 H   0  0  0  0  0  0  0  0  0  0  0  0
   -0.8270    3.1181    1.4498 C   0  0  0  0  0  0  0  0  0  0  0  0
   -1.8809    3.3173    1.6712 H   0  0  0  0  0  0  0  0  0  0  0  0
   -0.2188    3.5393    2.2561 H   0  0  0  0  0  0  0  0  0  0  0  0
   -0.5607    3.6242    0.5159 H   0  0  0  0  0  0  0  0  0  0  0  0
  1  2  1  0  0  0  0
  2  3  1  0  0  0  0
  2  4  1  0  0  0  0
  2  5  1  0  0  0  0
  5  6  2  0  0  0  0
  5  7  1  0  0  0  0
  7  8  1  0  0  0  0
  7  9  1  0  0  0  0
  9 10  1  0  0  0  0
  9 11  1  0  0  0  0
  9 26  1  0  0  0  0
 11 12  1  0  0  0  0
 11 13  1  0  0  0  0
 11 14  1  0  0  0  0
 14 15  2  0  0  0  0
 14 24  1  0  0  0  0
 15 16  1  0  0  0  0
 15 17  1  0  0  0  0
 17 18  1  0  0  0  0
 17 19  2  0  0  0  0
 19 20  1  0  0  0  0
 19 22  1  0  0  0  0
 20 21  1  0  0  0  0
 22 23  1  0  0  0  0
 22 24  2  0  0  0  0
 24 25  1  0  0  0  0
 26 27  2  0  0  0  0
 26 28  1  0  0  0  0
 28 29  1  0  0  0  0
 28 30  1  0  0  0  0
 30 31  1  0  0  0  0
 30 32  1  0  0  0  0
 30 33  1  0  0  0  0
M  END
$$$$

  -OEChem-04042216043D

 33 33  0     1  0  0  0  0  0999 V2000
   -4.0689   -3.9927    1.4042 H   0  0  0  0  0  0  0  0  0  0  0  0
   -3.9624   -3.1093    0.7683 C   0  0  0  0  0  0  0  0  0  0  0  0
   -4.7418   -2.3898    1.0307 H   0  0  0  0  0  0  0  0  0  0  0  0
   -4.0890   -3.4094   -0.2747 H   0  0  0  0  0  0  0  0  0  0  0  0
   -2.5937   -2.4850    0.9653 C   0  0  0  0  0  0  0  0  0  0  0  0
   -1.8205   -2.9587    1.7826 O   0  0  0  0  0  0  0  0  0  0  0  0
   -2.2395   -1.3721    0.2306 N   0  0  0  0  0  0  0  0  0  0  0  0
   -2.9569   -0.9494   -0.3566 H   0  0  0  0  0  0  0  0  0  0  0  0
   -0.9801   -0.6268    0.3856 C   0  0  1  0  0  0  0  0  0  0  0  0
   -0.5508   -0.8830    1.3535 H   0  0  0  0  0  0  0  0  0  0  0  0
   -0.0155   -0.9900   -0.7741 C   0  0  0  0  0  0  0  0  0  0  0  0
   -0.5315   -1.6839   -1.4464 H   0  0  0  0  0  0  0  0  0  0  0  0
    0.1902   -0.0893   -1.3626 H   0  0  0  0  0  0  0  0  0  0  0  0
    1.3274   -1.6101   -0.4129 C   0  0  0  0  0  0  0  0  0  0  0  0
    2.0469   -2.2282   -1.4494 C   0  0  0  0  0  0  0  0  0  0  0  0
    1.6204   -2.2771   -2.4472 H   0  0  0  0  0  0  0  0  0  0  0  0
    3.3080   -2.7906   -1.2226 C   0  0  0  0  0  0  0  0  0  0  0  0
    3.8339   -3.2689   -2.0415 H   0  0  0  0  0  0  0  0  0  0  0  0
    3.8819   -2.7321    0.0465 C   0  0  0  0  0  0  0  0  0  0  0  0
    5.1123   -3.2745    0.2811 O   0  0  0  0  0  0  0  0  0  0  0  0
    5.4493   -3.6927   -0.5260 H   0  0  0  0  0  0  0  0  0  0  0  0
    3.1940   -2.1044    1.0805 C   0  0  0  0  0  0  0  0  0  0  0  0
    3.6514   -2.0575    2.0633 H   0  0  0  0  0  0  0  0  0  0  0  0
    1.9325   -1.5404    0.8591 C   0  0  0  0  0  0  0  0  0  0  0  0
    1.4602   -1.0516    1.7018 H   0  0  0  0  0  0  0  0  0  0  0  0
   -1.2485    0.8898    0.4027 C   0  0  0  0  0  0  0  0  0  0  0  0
   -2.0526    1.3730   -0.3866 O   0  0  0  0  0  0  0  0  0  0  0  0
   -0.6357    1.7056    1.3357 N   0  0  0  0  0  0  0  0  0  0  0  0
    0.0098    1.2738    1.9906 H   0  0  0  0  0  0  0  0  0  0  0  0
   -0.8658    3.1427    1.4150 C   0  0  0  0  0  0  0  0  0  0  0  0
   -1.9245    3.3522    1.6001 H   0  0  0  0  0  0  0  0  0  0  0  0
   -0.2804    3.5751    2.2321 H   0  0  0  0  0  0  0  0  0  0  0  0
   -0.5680    3.6296    0.4805 H   0  0  0  0  0  0  0  0  0  0  0  0
  1  2  1  0  0  0  0
  2  3  1  0  0  0  0
  2  4  1  0  0  0  0
  2  5  1  0  0  0  0
  5  6  2  0  0  0  0
  5  7  1  0  0  0  0
  7  8  1  0  0  0  0
  7  9  1  0  0  0  0
  9 10  1  0  0  0  0
  9 11  1  0  0  0  0
  9 26  1  0  0  0  0
 11 12  1  0  0  0  0
 11 13  1  0  0  0  0
 11 14  1  0  0  0  0
 14 15  2  0  0  0  0
 14 24  1  0  0  0  0
 15 16  1  0  0  0  0
 15 17  1  0  0  0  0
 17 18  1  0  0  0  0
 17 19  2  0  0  0  0
 19 20  1  0  0  0  0
 19 22  1  0  0  0  0
 20 21  1  0  0  0  0
 22 23  1  0  0  0  0
 22 24  2  0  0  0  0
 24 25  1  0  0  0  0
 26 27  2  0  0  0  0
 26 28  1  0  0  0  0
 28 29  1  0  0  0  0
 28 30  1  0  0  0  0
 30 31  1  0  0  0  0
 30 32  1  0  0  0  0
 30 33  1  0  0  0  0
M  END
$$$$

  -OEChem-04042216043D

 33 33  0     1  0  0  0  0  0999 V2000
   -4.0675   -3.9360    1.4787 H   0  0  0  0  0  0  0  0  0  0  0  0
   -3.9424   -3.0732    0.8183 C   0  0  0  0  0  0  0  0  0  0  0  0
   -4.7347   -2.3506    1.0276 H   0  0  0  0  0  0  0  0  0  0  0  0
   -4.0283   -3.4081   -0.2182 H   0  0  0  0  0  0  0  0  0  0  0  0
   -2.5858   -2.4329    1.0441 C   0  0  0  0  0  0  0  0  0  0  0  0
   -1.8498   -2.8561    1.9217 O   0  0  0  0  0  0  0  0  0  0  0  0
   -2.2058   -1.3512    0.2779 N   0  0  0  0  0  0  0  0  0  0  0  0
   -2.8940   -0.9616   -0.3644 H   0  0  0  0  0  0  0  0  0  0  0  0
   -0.9413   -0.6171    0.4346 C   0  0  1  0  0  0  0  0  0  0  0  0
   -0.4946   -0.8080    1.4105 H   0  0  0  0  0  0  0  0  0  0  0  0
    0.0219   -0.9839   -0.7236 C   0  0  0  0  0  0  0  0  0  0  0  0
   -0.5624   -1.4151   -1.5435 H   0  0  0  0  0  0  0  0  0  0  0  0
    0.4654   -0.0605   -1.1123 H   0  0  0  0  0  0  0  0  0  0  0  0
    1.1825   -1.9203   -0.4180 C   0  0  0  0  0  0  0  0  0  0  0  0
    2.0429   -2.2350   -1.4832 C   0  0  0  0  0  0  0  0  0  0  0  0
    1.8767   -1.7881   -2.4593 H   0  0  0  0  0  0  0  0  0  0  0  0
    3.1224   -3.1087   -1.3110 C   0  0  0  0  0  0  0  0  0  0  0  0
    3.7761   -3.3213   -2.1498 H   0  0  0  0  0  0  0  0  0  0  0  0
    3.3508   -3.7020   -0.0700 C   0  0  0  0  0  0  0  0  0  0  0  0
    4.3992   -4.5571    0.1118 O   0  0  0  0  0  0  0  0  0  0  0  0
    4.8850   -4.6683   -0.7197 H   0  0  0  0  0  0  0  0  0  0  0  0
    2.4906   -3.4261    0.9887 C   0  0  0  0  0  0  0  0  0  0  0  0
    2.6600   -3.9081    1.9461 H   0  0  0  0  0  0  0  0  0  0  0  0
    1.4098   -2.5524    0.8222 C   0  0  0  0  0  0  0  0  0  0  0  0
    0.7585   -2.4110    1.6770 H   0  0  0  0  0  0  0  0  0  0  0  0
   -1.2313    0.8965    0.3898 C   0  0  0  0  0  0  0  0  0  0  0  0
   -2.0094    1.3457   -0.4449 O   0  0  0  0  0  0  0  0  0  0  0  0
   -0.6487    1.7517    1.3070 N   0  0  0  0  0  0  0  0  0  0  0  0
   -0.0284    1.3459    2.0024 H   0  0  0  0  0  0  0  0  0  0  0  0
   -0.9023    3.1870    1.3394 C   0  0  0  0  0  0  0  0  0  0  0  0
   -1.9672    3.3852    1.5000 H   0  0  0  0  0  0  0  0  0  0  0  0
   -0.3380    3.6521    2.1535 H   0  0  0  0  0  0  0  0  0  0  0  0
   -0.5955    3.6515    0.3963 H   0  0  0  0  0  0  0  0  0  0  0  0
  1  2  1  0  0  0  0
  2  3  1  0  0  0  0
  2  4  1  0  0  0  0
  2  5  1  0  0  0  0
  5  6  2  0  0  0  0
  5  7  1  0  0  0  0
  7  8  1  0  0  0  0
  7  9  1  0  0  0  0
  9 10  1  0  0  0  0
  9 11  1  0  0  0  0
  9 26  1  0  0  0  0
 11 12  1  0  0  0  0
 11 13  1  0  0  0  0
 11 14  1  0  0  0  0
 14 15  2  0  0  0  0
 14 24  1  0  0  0  0
 15 16  1  0  0  0  0
 15 17  1  0  0  0  0
 17 18  1  0  0  0  0
 17 19  2  0  0  0  0
 19 20  1  0  0  0  0
 19 22  1  0  0  0  0
 20 21  1  0  0  0  0
 22 23  1  0  0  0  0
 22 24  2  0  0  0  0
 24 25  1  0  0  0  0
 26 27  2  0  0  0  0
 26 28  1  0  0  0  0
 28 29  1  0  0  0  0
 28 30  1  0  0  0  0
 30 31  1  0  0  0  0
 30 32  1  0  0  0  0
 30 33  1  0  0  0  0
M  END
$$$$

  -OEChem-04042216043D

 33 33  0     1  0  0  0  0  0999 V2000
   -4.1201   -3.9429    1.4419 H   0  0  0  0  0  0  0  0  0  0  0  0
   -3.9726   -3.0780    0.7889 C   0  0  0  0  0  0  0  0  0  0  0  0
   -4.7732   -2.3572    0.9716 H   0  0  0  0  0  0  0  0  0  0  0  0
   -4.0201   -3.4101   -0.2510 H   0  0  0  0  0  0  0  0  0  0  0  0
   -2.6264   -2.4358    1.0654 C   0  0  0  0  0  0  0  0  0  0  0  0
   -1.9363   -2.8441    1.9849 O   0  0  0  0  0  0  0  0  0  0  0  0
   -2.2208   -1.3567    0.3087 N   0  0  0  0  0  0  0  0  0  0  0  0
   -2.8877   -0.9854   -0.3661 H   0  0  0  0  0  0  0  0  0  0  0  0
   -0.9468   -0.6314    0.4491 C   0  0  1  0  0  0  0  0  0  0  0  0
   -0.4777   -0.8422    1.4133 H   0  0  0  0  0  0  0  0  0  0  0  0
    0.0001   -0.9953   -0.7254 C   0  0  0  0  0  0  0  0  0  0  0  0
   -0.5924   -1.4271   -1.5388 H   0  0  0  0  0  0  0  0  0  0  0  0
    0.4375   -0.0706   -1.1185 H   0  0  0  0  0  0  0  0  0  0  0  0
    1.1573   -1.9357   -0.4295 C   0  0  0  0  0  0  0  0  0  0  0  0
    2.1897   -2.0137   -1.3793 C   0  0  0  0  0  0  0  0  0  0  0  0
    2.1486   -1.3985   -2.2736 H   0  0  0  0  0  0  0  0  0  0  0  0
    3.2800   -2.8713   -1.1942 C   0  0  0  0  0  0  0  0  0  0  0  0
    4.0647   -2.9057   -1.9416 H   0  0  0  0  0  0  0  0  0  0  0  0
    3.3517   -3.6770   -0.0581 C   0  0  0  0  0  0  0  0  0  0  0  0
    4.4090   -4.5189    0.1341 O   0  0  0  0  0  0  0  0  0  0  0  0
    5.0221   -4.4579   -0.6141 H   0  0  0  0  0  0  0  0  0  0  0  0
    2.3284   -3.6243    0.8839 C   0  0  0  0  0  0  0  0  0  0  0  0
    2.3819   -4.2615    1.7609 H   0  0  0  0  0  0  0  0  0  0  0  0
    1.2364   -2.7684    0.7026 C   0  0  0  0  0  0  0  0  0  0  0  0
    0.4610   -2.7824    1.4585 H   0  0  0  0  0  0  0  0  0  0  0  0
   -1.2213    0.8850    0.4079 C   0  0  0  0  0  0  0  0  0  0  0  0
   -1.9938    1.3441   -0.4264 O   0  0  0  0  0  0  0  0  0  0  0  0
   -0.6174    1.7329    1.3180 N   0  0  0  0  0  0  0  0  0  0  0  0
   -0.0080    1.3165    2.0169 H   0  0  0  0  0  0  0  0  0  0  0  0
   -0.8523    3.1713    1.3525 C   0  0  0  0  0  0  0  0  0  0  0  0
   -1.9126    3.3829    1.5257 H   0  0  0  0  0  0  0  0  0  0  0  0
   -0.2723    3.6296    2.1593 H   0  0  0  0  0  0  0  0  0  0  0  0
   -0.5512    3.6317    0.4056 H   0  0  0  0  0  0  0  0  0  0  0  0
  1  2  1  0  0  0  0
  2  3  1  0  0  0  0
  2  4  1  0  0  0  0
  2  5  1  0  0  0  0
  5  6  2  0  0  0  0
  5  7  1  0  0  0  0
  7  8  1  0  0  0  0
  7  9  1  0  0  0  0
  9 10  1  0  0  0  0
  9 11  1  0  0  0  0
  9 26  1  0  0  0  0
 11 12  1  0  0  0  0
 11 13  1  0  0  0  0
 11 14  1  0  0  0  0
 14 15  2  0  0  0  0
 14 24  1  0  0  0  0
 15 16  1  0  0  0  0
 15 17  1  0  0  0  0
 17 18  1  0  0  0  0
 17 19  2  0  0  0  0
 19 20  1  0  0  0  0
 19 22  1  0  0  0  0
 20 21  1  0  0  0  0
 22 23  1  0  0  0  0
 22 24  2  0  0  0  0
 24 25  1  0  0  0  0
 26 27  2  0  0  0  0
 26 28  1  0  0  0  0
 28 29  1  0  0  0  0
 28 30  1  0  0  0  0
 30 31  1  0  0  0  0
 30 32  1  0  0  0  0
 30 33  1  0  0  0  0
M  END
$$$$

  -OEChem-04042216043D

 33 33  0     1  0  0  0  0  0999 V2000
   -4.1255   -3.9508    1.4433 H   0  0  0  0  0  0  0  0  0  0  0  0
   -3.9689   -3.0944    0.7814 C   0  0  0  0  0  0  0  0  0  0  0  0
   -4.7846   -2.3819    0.9262 H   0  0  0  0  0  0  0  0  0  0  0  0
   -3.9790   -3.4444   -0.2536 H   0  0  0  0  0  0  0  0  0  0  0  0
   -2.6408   -2.4304    1.0919 C   0  0  0  0  0  0  0  0  0  0  0  0
   -1.9869   -2.8061    2.0508 O   0  0  0  0  0  0  0  0  0  0  0  0
   -2.2257   -1.3546    0.3357 N   0  0  0  0  0  0  0  0  0  0  0  0
   -2.8762   -1.0064   -0.3666 H   0  0  0  0  0  0  0  0  0  0  0  0
   -0.9433   -0.6386    0.4577 C   0  0  1  0  0  0  0  0  0  0  0  0
   -0.4512   -0.8711    1.4073 H   0  0  0  0  0  0  0  0  0  0  0  0
   -0.0137   -0.9891   -0.7357 C   0  0  0  0  0  0  0  0  0  0  0  0
   -0.6153   -1.4185   -1.5435 H   0  0  0  0  0  0  0  0  0  0  0  0
    0.4148   -0.0611   -1.1305 H   0  0  0  0  0  0  0  0  0  0  0  0
    1.1396   -1.9346   -0.4485 C   0  0  0  0  0  0  0  0  0  0  0  0
    2.3156   -1.8008   -1.2064 C   0  0  0  0  0  0  0  0  0  0  0  0
    2.3901   -1.0230   -1.9610 H   0  0  0  0  0  0  0  0  0  0  0  0
    3.4043   -2.6577   -1.0063 C   0  0  0  0  0  0  0  0  0  0  0  0
    4.3021   -2.5281   -1.6007 H   0  0  0  0  0  0  0  0  0  0  0  0
    3.3308   -3.6722   -0.0516 C   0  0  0  0  0  0  0  0  0  0  0  0
    4.3855   -4.5145    0.1533 O   0  0  0  0  0  0  0  0  0  0  0  0
    5.1176   -4.2808   -0.4374 H   0  0  0  0  0  0  0  0  0  0  0  0
    2.1650   -3.8281    0.6930 C   0  0  0  0  0  0  0  0  0  0  0  0
    2.1071   -4.6239    1.4283 H   0  0  0  0  0  0  0  0  0  0  0  0
    1.0755   -2.9733    0.4951 C   0  0  0  0  0  0  0  0  0  0  0  0
    0.1858   -3.1414    1.0860 H   0  0  0  0  0  0  0  0  0  0  0  0
   -1.2106    0.8793    0.4209 C   0  0  0  0  0  0  0  0  0  0  0  0
   -1.9828    1.3449   -0.4103 O   0  0  0  0  0  0  0  0  0  0  0  0
   -0.5892    1.7233    1.3224 N   0  0  0  0  0  0  0  0  0  0  0  0
    0.0113    1.3012    2.0255 H   0  0  0  0  0  0  0  0  0  0  0  0
   -0.8240    3.1613    1.3650 C   0  0  0  0  0  0  0  0  0  0  0  0
   -1.8807    3.3713    1.5615 H   0  0  0  0  0  0  0  0  0  0  0  0
   -0.2270    3.6189    2.1598 H   0  0  0  0  0  0  0  0  0  0  0  0
   -0.5436    3.6235    0.4126 H   0  0  0  0  0  0  0  0  0  0  0  0
  1  2  1  0  0  0  0
  2  3  1  0  0  0  0
  2  4  1  0  0  0  0
  2  5  1  0  0  0  0
  5  6  2  0  0  0  0
  5  7  1  0  0  0  0
  7  8  1  0  0  0  0
  7  9  1  0  0  0  0
  9 10  1  0  0  0  0
  9 11  1  0  0  0  0
  9 26  1  0  0  0  0
 11 12  1  0  0  0  0
 11 13  1  0  0  0  0
 11 14  1  0  0  0  0
 14 15  2  0  0  0  0
 14 24  1  0  0  0  0
 15 16  1  0  0  0  0
 15 17  1  0  0  0  0
 17 18  1  0  0  0  0
 17 19  2  0  0  0  0
 19 20  1  0  0  0  0
 19 22  1  0  0  0  0
 20 21  1  0  0  0  0
 22 23  1  0  0  0  0
 22 24  2  0  0  0  0
 24 25  1  0  0  0  0
 26 27  2  0  0  0  0
 26 28  1  0  0  0  0
 28 29  1  0  0  0  0
 28 30  1  0  0  0  0
 30 31  1  0  0  0  0
 30 32  1  0  0  0  0
 30 33  1  0  0  0  0
M  END
$$$$

  -OEChem-04042216043D

 33 33  0     1  0  0  0  0  0999 V2000
   -4.0894   -3.9874    1.4602 H   0  0  0  0  0  0  0  0  0  0  0  0
   -3.9641   -3.1116    0.8172 C   0  0  0  0  0  0  0  0  0  0  0  0
   -4.7716   -2.4047    1.0228 H   0  0  0  0  0  0  0  0  0  0  0  0
   -4.0246   -3.4304   -0.2261 H   0  0  0  0  0  0  0  0  0  0  0  0
   -2.6218   -2.4556    1.0823 C   0  0  0  0  0  0  0  0  0  0  0  0
   -1.9234   -2.8550    1.9995 O   0  0  0  0  0  0  0  0  0  0  0  0
   -2.2337   -1.3685    0.3275 N   0  0  0  0  0  0  0  0  0  0  0  0
   -2.9113   -1.0024   -0.3393 H   0  0  0  0  0  0  0  0  0  0  0  0
   -0.9511   -0.6495    0.4284 C   0  0  1  0  0  0  0  0  0  0  0  0
   -0.4414   -0.8982    1.3652 H   0  0  0  0  0  0  0  0  0  0  0  0
   -0.0307   -0.9768   -0.7769 C   0  0  0  0  0  0  0  0  0  0  0  0
   -0.6310   -1.4132   -1.5816 H   0  0  0  0  0  0  0  0  0  0  0  0
    0.3854   -0.0448   -1.1749 H   0  0  0  0  0  0  0  0  0  0  0  0
    1.1210   -1.9153   -0.4723 C   0  0  0  0  0  0  0  0  0  0  0  0
    2.4025   -1.6078   -0.9612 C   0  0  0  0  0  0  0  0  0  0  0  0
    2.5672   -0.6933   -1.5239 H   0  0  0  0  0  0  0  0  0  0  0  0
    3.4845   -2.4657   -0.7303 C   0  0  0  0  0  0  0  0  0  0  0  0
    4.4657   -2.2018   -1.1095 H   0  0  0  0  0  0  0  0  0  0  0  0
    3.2984   -3.6533   -0.0217 C   0  0  0  0  0  0  0  0  0  0  0  0
    4.3455   -4.4984    0.2089 O   0  0  0  0  0  0  0  0  0  0  0  0
    5.1569   -4.1357   -0.1778 H   0  0  0  0  0  0  0  0  0  0  0  0
    2.0279   -3.9812    0.4443 C   0  0  0  0  0  0  0  0  0  0  0  0
    1.8836   -4.9111    0.9845 H   0  0  0  0  0  0  0  0  0  0  0  0
    0.9446   -3.1263    0.2147 C   0  0  0  0  0  0  0  0  0  0  0  0
   -0.0325   -3.4259    0.5705 H   0  0  0  0  0  0  0  0  0  0  0  0
   -1.2163    0.8684    0.4187 C   0  0  0  0  0  0  0  0  0  0  0  0
   -2.0053    1.3482   -0.3881 O   0  0  0  0  0  0  0  0  0  0  0  0
   -0.5704    1.6963    1.3176 N   0  0  0  0  0  0  0  0  0  0  0  0
    0.0508    1.2614    1.9947 H   0  0  0  0  0  0  0  0  0  0  0  0
   -0.7783    3.1380    1.3721 C   0  0  0  0  0  0  0  0  0  0  0  0
   -1.8297    3.3663    1.5762 H   0  0  0  0  0  0  0  0  0  0  0  0
   -0.1680    3.5782    2.1667 H   0  0  0  0  0  0  0  0  0  0  0  0
   -0.4949    3.6018    0.4214 H   0  0  0  0  0  0  0  0  0  0  0  0
  1  2  1  0  0  0  0
  2  3  1  0  0  0  0
  2  4  1  0  0  0  0
  2  5  1  0  0  0  0
  5  6  2  0  0  0  0
  5  7  1  0  0  0  0
  7  8  1  0  0  0  0
  7  9  1  0  0  0  0
  9 10  1  0  0  0  0
  9 11  1  0  0  0  0
  9 26  1  0  0  0  0
 11 12  1  0  0  0  0
 11 13  1  0  0  0  0
 11 14  1  0  0  0  0
 14 15  2  0  0  0  0
 14 24  1  0  0  0  0
 15 16  1  0  0  0  0
 15 17  1  0  0  0  0
 17 18  1  0  0  0  0
 17 19  2  0  0  0  0
 19 20  1  0  0  0  0
 19 22  1  0  0  0  0
 20 21  1  0  0  0  0
 22 23  1  0  0  0  0
 22 24  2  0  0  0  0
 24 25  1  0  0  0  0
 26 27  2  0  0  0  0
 26 28  1  0  0  0  0
 28 29  1  0  0  0  0
 28 30  1  0  0  0  0
 30 31  1  0  0  0  0
 30 32  1  0  0  0  0
 30 33  1  0  0  0  0
M  END
$$$$

  -OEChem-04042216043D

 33 33  0     1  0  0  0  0  0999 V2000
   -4.0449   -3.9802    1.4962 H   0  0  0  0  0  0  0  0  0  0  0  0
   -3.9352   -3.1088    0.8446 C   0  0  0  0  0  0  0  0  0  0  0  0
   -4.7154   -2.3844    1.0903 H   0  0  0  0  0  0  0  0  0  0  0  0
   -4.0573   -3.4279   -0.1933 H   0  0  0  0  0  0  0  0  0  0  0  0
   -2.5673   -2.4813    1.0363 C   0  0  0  0  0  0  0  0  0  0  0  0
   -1.8043   -2.9334    1.8741 O   0  0  0  0  0  0  0  0  0  0  0  0
   -2.2148   -1.3767    0.2899 N   0  0  0  0  0  0  0  0  0  0  0  0
   -2.9310   -0.9745   -0.3128 H   0  0  0  0  0  0  0  0  0  0  0  0
   -0.9366   -0.6499    0.3737 C   0  0  1  0  0  0  0  0  0  0  0  0
   -0.4092   -0.9102    1.2979 H   0  0  0  0  0  0  0  0  0  0  0  0
   -0.0398   -0.9733   -0.8457 C   0  0  0  0  0  0  0  0  0  0  0  0
   -0.6460   -1.4215   -1.6394 H   0  0  0  0  0  0  0  0  0  0  0  0
    0.3710   -0.0455   -1.2582 H   0  0  0  0  0  0  0  0  0  0  0  0
    1.1035   -1.9082   -0.5151 C   0  0  0  0  0  0  0  0  0  0  0  0
    2.4297   -1.4885   -0.7102 C   0  0  0  0  0  0  0  0  0  0  0  0
    2.6373   -0.4868   -1.0750 H   0  0  0  0  0  0  0  0  0  0  0  0
    3.4990   -2.3504   -0.4379 C   0  0  0  0  0  0  0  0  0  0  0  0
    4.5155   -2.0051   -0.5904 H   0  0  0  0  0  0  0  0  0  0  0  0
    3.2561   -3.6457    0.0222 C   0  0  0  0  0  0  0  0  0  0  0  0
    4.2910   -4.4955    0.2882 O   0  0  0  0  0  0  0  0  0  0  0  0
    5.1367   -4.0561    0.1117 H   0  0  0  0  0  0  0  0  0  0  0  0
    1.9436   -4.0753    0.2037 C   0  0  0  0  0  0  0  0  0  0  0  0
    1.7585   -5.0843    0.5574 H   0  0  0  0  0  0  0  0  0  0  0  0
    0.8723   -3.2179   -0.0687 C   0  0  0  0  0  0  0  0  0  0  0  0
   -0.1396   -3.5834    0.0668 H   0  0  0  0  0  0  0  0  0  0  0  0
   -1.2058    0.8664    0.3999 C   0  0  0  0  0  0  0  0  0  0  0  0
   -2.0294    1.3557   -0.3655 O   0  0  0  0  0  0  0  0  0  0  0  0
   -0.5407    1.6791    1.2988 N   0  0  0  0  0  0  0  0  0  0  0  0
    0.0938    1.2317    1.9551 H   0  0  0  0  0  0  0  0  0  0  0  0
   -0.7830    3.1116    1.4150 C   0  0  0  0  0  0  0  0  0  0  0  0
   -1.8306    3.3038    1.6700 H   0  0  0  0  0  0  0  0  0  0  0  0
   -0.1521    3.5390    2.2002 H   0  0  0  0  0  0  0  0  0  0  0  0
   -0.5511    3.6174    0.4718 H   0  0  0  0  0  0  0  0  0  0  0  0
  1  2  1  0  0  0  0
  2  3  1  0  0  0  0
  2  4  1  0  0  0  0
  2  5  1  0  0  0  0
  5  6  2  0  0  0  0
  5  7  1  0  0  0  0
  7  8  1  0  0  0  0
  7  9  1  0  0  0  0
  9 10  1  0  0  0  0
  9 11  1  0  0  0  0
  9 26  1  0  0  0  0
 11 12  1  0  0  0  0
 11 13  1  0  0  0  0
 11 14  1  0  0  0  0
 14 15  2  0  0  0  0
 14 24  1  0  0  0  0
 15 16  1  0  0  0  0
 15 17  1  0  0  0  0
 17 18  1  0  0  0  0
 17 19  2  0  0  0  0
 19 20  1  0  0  0  0
 19 22  1  0  0  0  0
 20 21  1  0  0  0  0
 22 23  1  0  0  0  0
 22 24  2  0  0  0  0
 24 25  1  0  0  0  0
 26 27  2  0  0  0  0
 26 28  1  0  0  0  0
 28 29  1  0  0  0  0
 28 30  1  0  0  0  0
 30 31  1  0  0  0  0
 30 32  1  0  0  0  0
 30 33  1  0  0  0  0
M  END
$$$$

  -OEChem-04042216043D

 33 33  0     1  0  0  0  0  0999 V2000
   -3.9873   -4.0054    1.4930 H   0  0  0  0  0  0  0  0  0  0  0  0
   -3.9028   -3.1229    0.8526 C   0  0  0  0  0  0  0  0  0  0  0  0
   -4.6623   -2.3964    1.1517 H   0  0  0  0  0  0  0  0  0  0  0  0
   -4.0814   -3.4212   -0.1833 H   0  0  0  0  0  0  0  0  0  0  0  0
   -2.5206   -2.5113    0.9842 C   0  0  0  0  0  0  0  0  0  0  0  0
   -1.7074   -3.0071    1.7464 O   0  0  0  0  0  0  0  0  0  0  0  0
   -2.2014   -1.3870    0.2521 N   0  0  0  0  0  0  0  0  0  0  0  0
   -2.9484   -0.9564   -0.2906 H   0  0  0  0  0  0  0  0  0  0  0  0
   -0.9290   -0.6505    0.3295 C   0  0  1  0  0  0  0  0  0  0  0  0
   -0.3884   -0.9235    1.2426 H   0  0  0  0  0  0  0  0  0  0  0  0
   -0.0544   -0.9676   -0.9033 C   0  0  0  0  0  0  0  0  0  0  0  0
   -0.6671   -1.4147   -1.6929 H   0  0  0  0  0  0  0  0  0  0  0  0
    0.3588   -0.0419   -1.3182 H   0  0  0  0  0  0  0  0  0  0  0  0
    1.0832   -1.9002   -0.5591 C   0  0  0  0  0  0  0  0  0  0  0  0
    2.3940   -1.4102   -0.4495 C   0  0  0  0  0  0  0  0  0  0  0  0
    2.5971   -0.3550   -0.6072 H   0  0  0  0  0  0  0  0  0  0  0  0
    3.4519   -2.2742   -0.1407 C   0  0  0  0  0  0  0  0  0  0  0  0
    4.4585   -1.8788   -0.0616 H   0  0  0  0  0  0  0  0  0  0  0  0
    3.2107   -3.6348    0.0619 C   0  0  0  0  0  0  0  0  0  0  0  0
    4.2355   -4.4855    0.3620 O   0  0  0  0  0  0  0  0  0  0  0  0
    5.0706   -3.9959    0.4108 H   0  0  0  0  0  0  0  0  0  0  0  0
    1.9112   -4.1265   -0.0432 C   0  0  0  0  0  0  0  0  0  0  0  0
    1.7280   -5.1830    0.1227 H   0  0  0  0  0  0  0  0  0  0  0  0
    0.8510   -3.2674   -0.3526 C   0  0  0  0  0  0  0  0  0  0  0  0
   -0.1560   -3.6676   -0.4231 H   0  0  0  0  0  0  0  0  0  0  0  0
   -1.1998    0.8638    0.3934 C   0  0  0  0  0  0  0  0  0  0  0  0
   -2.0393    1.3665   -0.3451 O   0  0  0  0  0  0  0  0  0  0  0  0
   -0.5208    1.6593    1.2974 N   0  0  0  0  0  0  0  0  0  0  0  0
    0.1205    1.1991    1.9379 H   0  0  0  0  0  0  0  0  0  0  0  0
   -0.7631    3.0891    1.4458 C   0  0  0  0  0  0  0  0  0  0  0  0
   -1.8049    3.2739    1.7279 H   0  0  0  0  0  0  0  0  0  0  0  0
   -0.1150    3.5037    2.2239 H   0  0  0  0  0  0  0  0  0  0  0  0
   -0.5538    3.6127    0.5071 H   0  0  0  0  0  0  0  0  0  0  0  0
  1  2  1  0  0  0  0
  2  3  1  0  0  0  0
  2  4  1  0  0  0  0
  2  5  1  0  0  0  0
  5  6  2  0  0  0  0
  5  7  1  0  0  0  0
  7  8  1  0  0  0  0
  7  9  1  0  0  0  0
  9 10  1  0  0  0  0
  9 11  1  0  0  0  0
  9 26  1  0  0  0  0
 11 12  1  0  0  0  0
 11 13  1  0  0  0  0
 11 14  1  0  0  0  0
 14 15  2  0  0  0  0
 14 24  1  0  0  0  0
 15 16  1  0  0  0  0
 15 17  1  0  0  0  0
 17 18  1  0  0  0  0
 17 19  2  0  0  0  0
 19 20  1  0  0  0  0
 19 22  1  0  0  0  0
 20 21  1  0  0  0  0
 22 23  1  0  0  0  0
 22 24  2  0  0  0  0
 24 25  1  0  0  0  0
 26 27  2  0  0  0  0
 26 28  1  0  0  0  0
 28 29  1  0  0  0  0
 28 30  1  0  0  0  0
 30 31  1  0  0  0  0
 30 32  1  0  0  0  0
 30 33  1  0  0  0  0
M  END
$$$$

  -OEChem-04042216043D

 33 33  0     1  0  0  0  0  0999 V2000
   -3.9338   -4.0240    1.4842 H   0  0  0  0  0  0  0  0  0  0  0  0
   -3.8678   -3.1356    0.8498 C   0  0  0  0  0  0  0  0  0  0  0  0
   -4.6253   -2.4163    1.1706 H   0  0  0  0  0  0  0  0  0  0  0  0
   -4.0658   -3.4262   -0.1847 H   0  0  0  0  0  0  0  0  0  0  0  0
   -2.4865   -2.5177    0.9583 C   0  0  0  0  0  0  0  0  0  0  0  0
   -1.6542   -3.0190    1.6962 O   0  0  0  0  0  0  0  0  0  0  0  0
   -2.1869   -1.3848    0.2311 N   0  0  0  0  0  0  0  0  0  0  0  0
   -2.9453   -0.9483   -0.2904 H   0  0  0  0  0  0  0  0  0  0  0  0
   -0.9172   -0.6447    0.3053 C   0  0  1  0  0  0  0  0  0  0  0  0
   -0.3687   -0.9235    1.2117 H   0  0  0  0  0  0  0  0  0  0  0  0
   -0.0595   -0.9608   -0.9375 C   0  0  0  0  0  0  0  0  0  0  0  0
   -0.6802   -1.3981   -1.7264 H   0  0  0  0  0  0  0  0  0  0  0  0
    0.3620   -0.0372   -1.3489 H   0  0  0  0  0  0  0  0  0  0  0  0
    1.0737   -1.8957   -0.5916 C   0  0  0  0  0  0  0  0  0  0  0  0
    2.3167   -1.3892   -0.1822 C   0  0  0  0  0  0  0  0  0  0  0  0
    2.4759   -0.3165   -0.1258 H   0  0  0  0  0  0  0  0  0  0  0  0
    3.3622   -2.2599    0.1493 C   0  0  0  0  0  0  0  0  0  0  0  0
    4.3188   -1.8534    0.4585 H   0  0  0  0  0  0  0  0  0  0  0  0
    3.1728   -3.6424    0.0815 C   0  0  0  0  0  0  0  0  0  0  0  0
    4.1853   -4.4998    0.4032 O   0  0  0  0  0  0  0  0  0  0  0  0
    4.9629   -4.0010    0.6962 H   0  0  0  0  0  0  0  0  0  0  0  0
    1.9367   -4.1499   -0.3141 C   0  0  0  0  0  0  0  0  0  0  0  0
    1.7923   -5.2245   -0.3529 H   0  0  0  0  0  0  0  0  0  0  0  0
    0.8891   -3.2842   -0.6470 C   0  0  0  0  0  0  0  0  0  0  0  0
   -0.0735   -3.6950   -0.9368 H   0  0  0  0  0  0  0  0  0  0  0  0
   -1.1896    0.8681    0.3870 C   0  0  0  0  0  0  0  0  0  0  0  0
   -2.0389    1.3760   -0.3365 O   0  0  0  0  0  0  0  0  0  0  0  0
   -0.5043    1.6559    1.2933 N   0  0  0  0  0  0  0  0  0  0  0  0
    0.1349    1.1887    1.9307 H   0  0  0  0  0  0  0  0  0  0  0  0
   -0.7633    3.0796    1.4705 C   0  0  0  0  0  0  0  0  0  0  0  0
   -1.7971    3.2436    1.7925 H   0  0  0  0  0  0  0  0  0  0  0  0
   -0.0939    3.4943    2.2303 H   0  0  0  0  0  0  0  0  0  0  0  0
   -0.5965    3.6196    0.5325 H   0  0  0  0  0  0  0  0  0  0  0  0
  1  2  1  0  0  0  0
  2  3  1  0  0  0  0
  2  4  1  0  0  0  0
  2  5  1  0  0  0  0
  5  6  2  0  0  0  0
  5  7  1  0  0  0  0
  7  8  1  0  0  0  0
  7  9  1  0  0  0  0
  9 10  1  0  0  0  0
  9 11  1  0  0  0  0
  9 26  1  0  0  0  0
 11 12  1  0  0  0  0
 11 13  1  0  0  0  0
 11 14  1  0  0  0  0
 14 15  2  0  0  0  0
 14 24  1  0  0  0  0
 15 16  1  0  0  0  0
 15 17  1  0  0  0  0
 17 18  1  0  0  0  0
 17 19  2  0  0  0  0
 19 20  1  0  0  0  0
 19 22  1  0  0  0  0
 20 21  1  0  0  0  0
 22 23  1  0  0  0  0
 22 24  2  0  0  0  0
 24 25  1  0  0  0  0
 26 27  2  0  0  0  0
 26 28  1  0  0  0  0
 28 29  1  0  0  0  0
 28 30  1  0  0  0  0
 30 31  1  0  0  0  0
 30 32  1  0  0  0  0
 30 33  1  0  0  0  0
M  END
$$$$

  -OEChem-04042216043D

 33 33  0     1  0  0  0  0  0999 V2000
   -3.9208   -4.0324    1.4730 H   0  0  0  0  0  0  0  0  0  0  0  0
   -3.8552   -3.1446    0.8380 C   0  0  0  0  0  0  0  0  0  0  0  0
   -4.6278   -2.4348    1.1432 H   0  0  0  0  0  0  0  0  0  0  0  0
   -4.0310   -3.4404   -0.1991 H   0  0  0  0  0  0  0  0  0  0  0  0
   -2.4842   -2.5084    0.9699 C   0  0  0  0  0  0  0  0  0  0  0  0
   -1.6618   -2.9899    1.7321 O   0  0  0  0  0  0  0  0  0  0  0  0
   -2.1845   -1.3776    0.2390 N   0  0  0  0  0  0  0  0  0  0  0  0
   -2.9365   -0.9527   -0.3010 H   0  0  0  0  0  0  0  0  0  0  0  0
   -0.9148   -0.6387    0.3156 C   0  0  1  0  0  0  0  0  0  0  0  0
   -0.3684   -0.9157    1.2233 H   0  0  0  0  0  0  0  0  0  0  0  0
   -0.0618   -0.9613   -0.9295 C   0  0  0  0  0  0  0  0  0  0  0  0
   -0.6894   -1.3871   -1.7194 H   0  0  0  0  0  0  0  0  0  0  0  0
    0.3694   -0.0407   -1.3376 H   0  0  0  0  0  0  0  0  0  0  0  0
    1.0711   -1.9006   -0.5918 C   0  0  0  0  0  0  0  0  0  0  0  0
    2.2011   -1.4366    0.0990 C   0  0  0  0  0  0  0  0  0  0  0  0
    2.2752   -0.3904    0.3793 H   0  0  0  0  0  0  0  0  0  0  0  0
    3.2429   -2.3136    0.4244 C   0  0  0  0  0  0  0  0  0  0  0  0
    4.1119   -1.9385    0.9532 H   0  0  0  0  0  0  0  0  0  0  0  0
    3.1627   -3.6618    0.0684 C   0  0  0  0  0  0  0  0  0  0  0  0
    4.1729   -4.5253    0.3805 O   0  0  0  0  0  0  0  0  0  0  0  0
    4.8552   -4.0665    0.8936 H   0  0  0  0  0  0  0  0  0  0  0  0
    2.0387   -4.1296   -0.6095 C   0  0  0  0  0  0  0  0  0  0  0  0
    1.9799   -5.1799   -0.8749 H   0  0  0  0  0  0  0  0  0  0  0  0
    0.9943   -3.2576   -0.9364 C   0  0  0  0  0  0  0  0  0  0  0  0
    0.1197   -3.6420   -1.4525 H   0  0  0  0  0  0  0  0  0  0  0  0
   -1.1881    0.8744    0.3923 C   0  0  0  0  0  0  0  0  0  0  0  0
   -2.0315    1.3806   -0.3392 O   0  0  0  0  0  0  0  0  0  0  0  0
   -0.5069    1.6657    1.2987 N   0  0  0  0  0  0  0  0  0  0  0  0
    0.1192    1.1993    1.9492 H   0  0  0  0  0  0  0  0  0  0  0  0
   -0.7674    3.0900    1.4689 C   0  0  0  0  0  0  0  0  0  0  0  0
   -1.8055    3.2557    1.7760 H   0  0  0  0  0  0  0  0  0  0  0  0
   -0.1085    3.5060    2.2372 H   0  0  0  0  0  0  0  0  0  0  0  0
   -0.5868    3.6274    0.5318 H   0  0  0  0  0  0  0  0  0  0  0  0
  1  2  1  0  0  0  0
  2  3  1  0  0  0  0
  2  4  1  0  0  0  0
  2  5  1  0  0  0  0
  5  6  2  0  0  0  0
  5  7  1  0  0  0  0
  7  8  1  0  0  0  0
  7  9  1  0  0  0  0
  9 10  1  0  0  0  0
  9 11  1  0  0  0  0
  9 26  1  0  0  0  0
 11 12  1  0  0  0  0
 11 13  1  0  0  0  0
 11 14  1  0  0  0  0
 14 15  2  0  0  0  0
 14 24  1  0  0  0  0
 15 16  1  0  0  0  0
 15 17  1  0  0  0  0
 17 18  1  0  0  0  0
 17 19  2  0  0  0  0
 19 20  1  0  0  0  0
 19 22  1  0  0  0  0
 20 21  1  0  0  0  0
 22 23  1  0  0  0  0
 22 24  2  0  0  0  0
 24 25  1  0  0  0  0
 26 27  2  0  0  0  0
 26 28  1  0  0  0  0
 28 29  1  0  0  0  0
 28 30  1  0  0  0  0
 30 31  1  0  0  0  0
 30 32  1  0  0  0  0
 30 33  1  0  0  0  0
M  END
$$$$

  -OEChem-04042216043D

 33 33  0     1  0  0  0  0  0999 V2000
   -3.9392   -4.0290    1.4714 H   0  0  0  0  0  0  0  0  0  0  0  0
   -3.8654   -3.1439    0.8332 C   0  0  0  0  0  0  0  0  0  0  0  0
   -4.6494   -2.4379    1.1172 H   0  0  0  0  0  0  0  0  0  0  0  0
   -4.0154   -3.4464   -0.2060 H   0  0  0  0  0  0  0  0  0  0  0  0
   -2.5024   -2.4965    0.9917 C   0  0  0  0  0  0  0  0  0  0  0  0
   -1.6987   -2.9579    1.7859 O   0  0  0  0  0  0  0  0  0  0  0  0
   -2.1908   -1.3733    0.2539 N   0  0  0  0  0  0  0  0  0  0  0  0
   -2.9286   -0.9631   -0.3160 H   0  0  0  0  0  0  0  0  0  0  0  0
   -0.9218   -0.6349    0.3439 C   0  0  1  0  0  0  0  0  0  0  0  0
   -0.3926   -0.9037    1.2631 H   0  0  0  0  0  0  0  0  0  0  0  0
   -0.0558   -0.9662   -0.8930 C   0  0  0  0  0  0  0  0  0  0  0  0
   -0.6843   -1.3824   -1.6873 H   0  0  0  0  0  0  0  0  0  0  0  0
    0.3829   -0.0465   -1.2949 H   0  0  0  0  0  0  0  0  0  0  0  0
    1.0828   -1.9078   -0.5701 C   0  0  0  0  0  0  0  0  0  0  0  0
    2.0680   -1.5615    0.3691 C   0  0  0  0  0  0  0  0  0  0  0  0
    2.0324   -0.5978    0.8670 H   0  0  0  0  0  0  0  0  0  0  0  0
    3.1100   -2.4482    0.6667 C   0  0  0  0  0  0  0  0  0  0  0  0
    3.8633   -2.1634    1.3925 H   0  0  0  0  0  0  0  0  0  0  0  0
    3.1783   -3.6897    0.0313 C   0  0  0  0  0  0  0  0  0  0  0  0
    4.1900   -4.5618    0.3137 O   0  0  0  0  0  0  0  0  0  0  0  0
    4.7491   -4.2033    1.0197 H   0  0  0  0  0  0  0  0  0  0  0  0
    2.2033   -4.0410   -0.8997 C   0  0  0  0  0  0  0  0  0  0  0  0
    2.2610   -5.0091   -1.3861 H   0  0  0  0  0  0  0  0  0  0  0  0
    1.1589   -3.1594   -1.1989 C   0  0  0  0  0  0  0  0  0  0  0  0
    0.4044   -3.4568   -1.9209 H   0  0  0  0  0  0  0  0  0  0  0  0
   -1.1978    0.8791    0.4011 C   0  0  0  0  0  0  0  0  0  0  0  0
   -2.0251    1.3767   -0.3542 O   0  0  0  0  0  0  0  0  0  0  0  0
   -0.5337    1.6825    1.3099 N   0  0  0  0  0  0  0  0  0  0  0  0
    0.0808    1.2269    1.9783 H   0  0  0  0  0  0  0  0  0  0  0  0
   -0.7869    3.1120    1.4456 C   0  0  0  0  0  0  0  0  0  0  0  0
   -1.8340    3.2925    1.7107 H   0  0  0  0  0  0  0  0  0  0  0  0
   -0.1532    3.5363    2.2304 H   0  0  0  0  0  0  0  0  0  0  0  0
   -0.5667    3.6311    0.5067 H   0  0  0  0  0  0  0  0  0  0  0  0
  1  2  1  0  0  0  0
  2  3  1  0  0  0  0
  2  4  1  0  0  0  0
  2  5  1  0  0  0  0
  5  6  2  0  0  0  0
  5  7  1  0  0  0  0
  7  8  1  0  0  0  0
  7  9  1  0  0  0  0
  9 10  1  0  0  0  0
  9 11  1  0  0  0  0
  9 26  1  0  0  0  0
 11 12  1  0  0  0  0
 11 13  1  0  0  0  0
 11 14  1  0  0  0  0
 14 15  2  0  0  0  0
 14 24  1  0  0  0  0
 15 16  1  0  0  0  0
 15 17  1  0  0  0  0
 17 18  1  0  0  0  0
 17 19  2  0  0  0  0
 19 20  1  0  0  0  0
 19 22  1  0  0  0  0
 20 21  1  0  0  0  0
 22 23  1  0  0  0  0
 22 24  2  0  0  0  0
 24 25  1  0  0  0  0
 26 27  2  0  0  0  0
 26 28  1  0  0  0  0
 28 29  1  0  0  0  0
 28 30  1  0  0  0  0
 30 31  1  0  0  0  0
 30 32  1  0  0  0  0
 30 33  1  0  0  0  0
M  END
$$$$

  -OEChem-04042216043D

 33 33  0     1  0  0  0  0  0999 V2000
   -3.9773   -4.0126    1.4657 H   0  0  0  0  0  0  0  0  0  0  0  0
   -3.8920   -3.1301    0.8255 C   0  0  0  0  0  0  0  0  0  0  0  0
   -4.6836   -2.4246    1.0892 H   0  0  0  0  0  0  0  0  0  0  0  0
   -4.0182   -3.4374   -0.2154 H   0  0  0  0  0  0  0  0  0  0  0  0
   -2.5345   -2.4790    1.0113 C   0  0  0  0  0  0  0  0  0  0  0  0
   -1.7526   -2.9258    1.8355 O   0  0  0  0  0  0  0  0  0  0  0  0
   -2.2041   -1.3673    0.2646 N   0  0  0  0  0  0  0  0  0  0  0  0
   -2.9254   -0.9682   -0.3336 H   0  0  0  0  0  0  0  0  0  0  0  0
   -0.9366   -0.6296    0.3741 C   0  0  1  0  0  0  0  0  0  0  0  0
   -0.4391   -0.8838    1.3131 H   0  0  0  0  0  0  0  0  0  0  0  0
   -0.0430   -0.9780   -0.8415 C   0  0  0  0  0  0  0  0  0  0  0  0
   -0.6650   -1.3942   -1.6408 H   0  0  0  0  0  0  0  0  0  0  0  0
    0.3988   -0.0590   -1.2413 H   0  0  0  0  0  0  0  0  0  0  0  0
    1.1059   -1.9190   -0.5321 C   0  0  0  0  0  0  0  0  0  0  0  0
    1.9288   -1.7575    0.5973 C   0  0  0  0  0  0  0  0  0  0  0  0
    1.7749   -0.9297    1.2812 H   0  0  0  0  0  0  0  0  0  0  0  0
    2.9731   -2.6541    0.8535 C   0  0  0  0  0  0  0  0  0  0  0  0
    3.5954   -2.5120    1.7301 H   0  0  0  0  0  0  0  0  0  0  0  0
    3.2117   -3.7217   -0.0131 C   0  0  0  0  0  0  0  0  0  0  0  0
    4.2280   -4.6003    0.2286 O   0  0  0  0  0  0  0  0  0  0  0  0
    4.6584   -4.3855    1.0703 H   0  0  0  0  0  0  0  0  0  0  0  0
    2.4049   -3.8893   -1.1357 C   0  0  0  0  0  0  0  0  0  0  0  0
    2.5953   -4.7225   -1.8042 H   0  0  0  0  0  0  0  0  0  0  0  0
    1.3588   -2.9973   -1.3953 C   0  0  0  0  0  0  0  0  0  0  0  0
    0.7406   -3.1512   -2.2748 H   0  0  0  0  0  0  0  0  0  0  0  0
   -1.2142    0.8854    0.4024 C   0  0  0  0  0  0  0  0  0  0  0  0
   -2.0265    1.3713   -0.3766 O   0  0  0  0  0  0  0  0  0  0  0  0
   -0.5723    1.7026    1.3145 N   0  0  0  0  0  0  0  0  0  0  0  0
    0.0452    1.2614    1.9896 H   0  0  0  0  0  0  0  0  0  0  0  0
   -0.8200    3.1357    1.4166 C   0  0  0  0  0  0  0  0  0  0  0  0
   -1.8746    3.3274    1.6407 H   0  0  0  0  0  0  0  0  0  0  0  0
   -0.2122    3.5689    2.2166 H   0  0  0  0  0  0  0  0  0  0  0  0
   -0.5624    3.6368    0.4776 H   0  0  0  0  0  0  0  0  0  0  0  0
  1  2  1  0  0  0  0
  2  3  1  0  0  0  0
  2  4  1  0  0  0  0
  2  5  1  0  0  0  0
  5  6  2  0  0  0  0
  5  7  1  0  0  0  0
  7  8  1  0  0  0  0
  7  9  1  0  0  0  0
  9 10  1  0  0  0  0
  9 11  1  0  0  0  0
  9 26  1  0  0  0  0
 11 12  1  0  0  0  0
 11 13  1  0  0  0  0
 11 14  1  0  0  0  0
 14 15  2  0  0  0  0
 14 24  1  0  0  0  0
 15 16  1  0  0  0  0
 15 17  1  0  0  0  0
 17 18  1  0  0  0  0
 17 19  2  0  0  0  0
 19 20  1  0  0  0  0
 19 22  1  0  0  0  0
 20 21  1  0  0  0  0
 22 23  1  0  0  0  0
 22 24  2  0  0  0  0
 24 25  1  0  0  0  0
 26 27  2  0  0  0  0
 26 28  1  0  0  0  0
 28 29  1  0  0  0  0
 28 30  1  0  0  0  0
 30 31  1  0  0  0  0
 30 32  1  0  0  0  0
 30 33  1  0  0  0  0
M  END
$$$$

  -OEChem-04042216043D

 33 33  0     1  0  0  0  0  0999 V2000
   -4.0380   -3.9805    1.4641 H   0  0  0  0  0  0  0  0  0  0  0  0
   -3.9348   -3.1034    0.8191 C   0  0  0  0  0  0  0  0  0  0  0  0
   -4.7285   -2.3922    1.0605 H   0  0  0  0  0  0  0  0  0  0  0  0
   -4.0404   -3.4182   -0.2220 H   0  0  0  0  0  0  0  0  0  0  0  0
   -2.5782   -2.4572    1.0286 C   0  0  0  0  0  0  0  0  0  0  0  0
   -1.8209   -2.8919    1.8824 O   0  0  0  0  0  0  0  0  0  0  0  0
   -2.2204   -1.3614    0.2707 N   0  0  0  0  0  0  0  0  0  0  0  0
   -2.9229   -0.9670   -0.3527 H   0  0  0  0  0  0  0  0  0  0  0  0
   -0.9533   -0.6279    0.4074 C   0  0  1  0  0  0  0  0  0  0  0  0
   -0.4956   -0.8586    1.3692 H   0  0  0  0  0  0  0  0  0  0  0  0
   -0.0236   -0.9952   -0.7776 C   0  0  0  0  0  0  0  0  0  0  0  0
   -0.6328   -1.4143   -1.5854 H   0  0  0  0  0  0  0  0  0  0  0  0
    0.4239   -0.0775   -1.1739 H   0  0  0  0  0  0  0  0  0  0  0  0
    1.1317   -1.9377   -0.4768 C   0  0  0  0  0  0  0  0  0  0  0  0
    1.7826   -2.0175    0.7702 C   0  0  0  0  0  0  0  0  0  0  0  0
    1.4986   -1.3855    1.6029 H   0  0  0  0  0  0  0  0  0  0  0  0
    2.8357   -2.9182    0.9716 C   0  0  0  0  0  0  0  0  0  0  0  0
    3.3173   -2.9643    1.9421 H   0  0  0  0  0  0  0  0  0  0  0  0
    3.2614   -3.7487   -0.0651 C   0  0  0  0  0  0  0  0  0  0  0  0
    4.2853   -4.6315    0.1236 O   0  0  0  0  0  0  0  0  0  0  0  0
    4.5732   -4.6121    1.0492 H   0  0  0  0  0  0  0  0  0  0  0  0
    2.6339   -3.6731   -1.3048 C   0  0  0  0  0  0  0  0  0  0  0  0
    2.9703   -4.3200   -2.1083 H   0  0  0  0  0  0  0  0  0  0  0  0
    1.5794   -2.7776   -1.5103 C   0  0  0  0  0  0  0  0  0  0  0  0
    1.1050   -2.7413   -2.4867 H   0  0  0  0  0  0  0  0  0  0  0  0
   -1.2297    0.8880    0.3977 C   0  0  0  0  0  0  0  0  0  0  0  0
   -2.0192    1.3590   -0.4134 O   0  0  0  0  0  0  0  0  0  0  0  0
   -0.6167    1.7225    1.3140 N   0  0  0  0  0  0  0  0  0  0  0  0
   -0.0037    1.2977    2.0037 H   0  0  0  0  0  0  0  0  0  0  0  0
   -0.8582    3.1590    1.3738 C   0  0  0  0  0  0  0  0  0  0  0  0
   -1.9174    3.3623    1.5632 H   0  0  0  0  0  0  0  0  0  0  0  0
   -0.2704    3.6084    2.1800 H   0  0  0  0  0  0  0  0  0  0  0  0
   -0.5711    3.6349    0.4303 H   0  0  0  0  0  0  0  0  0  0  0  0
  1  2  1  0  0  0  0
  2  3  1  0  0  0  0
  2  4  1  0  0  0  0
  2  5  1  0  0  0  0
  5  6  2  0  0  0  0
  5  7  1  0  0  0  0
  7  8  1  0  0  0  0
  7  9  1  0  0  0  0
  9 10  1  0  0  0  0
  9 11  1  0  0  0  0
  9 26  1  0  0  0  0
 11 12  1  0  0  0  0
 11 13  1  0  0  0  0
 11 14  1  0  0  0  0
 14 15  2  0  0  0  0
 14 24  1  0  0  0  0
 15 16  1  0  0  0  0
 15 17  1  0  0  0  0
 17 18  1  0  0  0  0
 17 19  2  0  0  0  0
 19 20  1  0  0  0  0
 19 22  1  0  0  0  0
 20 21  1  0  0  0  0
 22 23  1  0  0  0  0
 22 24  2  0  0  0  0
 24 25  1  0  0  0  0
 26 27  2  0  0  0  0
 26 28  1  0  0  0  0
 28 29  1  0  0  0  0
 28 30  1  0  0  0  0
 30 31  1  0  0  0  0
 30 32  1  0  0  0  0
 30 33  1  0  0  0  0
M  END
$$$$

  -OEChem-04042216043D

 33 33  0     1  0  0  0  0  0999 V2000
   -4.1129   -3.9329    1.4746 H   0  0  0  0  0  0  0  0  0  0  0  0
   -3.9902   -3.0646    0.8211 C   0  0  0  0  0  0  0  0  0  0  0  0
   -4.7723   -2.3369    1.0505 H   0  0  0  0  0  0  0  0  0  0  0  0
   -4.0961   -3.3884   -0.2171 H   0  0  0  0  0  0  0  0  0  0  0  0
   -2.6235   -2.4400    1.0317 C   0  0  0  0  0  0  0  0  0  0  0  0
   -1.8779   -2.8796    1.8938 O   0  0  0  0  0  0  0  0  0  0  0  0
   -2.2404   -1.3576    0.2672 N   0  0  0  0  0  0  0  0  0  0  0  0
   -2.9310   -0.9531   -0.3631 H   0  0  0  0  0  0  0  0  0  0  0  0
   -0.9677   -0.6384    0.4236 C   0  0  1  0  0  0  0  0  0  0  0  0
   -0.5323   -0.8474    1.3990 H   0  0  0  0  0  0  0  0  0  0  0  0
   -0.0147   -1.0192   -0.7387 C   0  0  0  0  0  0  0  0  0  0  0  0
   -0.6119   -1.4364   -1.5566 H   0  0  0  0  0  0  0  0  0  0  0  0
    0.4437   -0.1040   -1.1283 H   0  0  0  0  0  0  0  0  0  0  0  0
    1.1350   -1.9718   -0.4404 C   0  0  0  0  0  0  0  0  0  0  0  0
    1.5986   -2.3126    0.8476 C   0  0  0  0  0  0  0  0  0  0  0  0
    1.1436   -1.9268    1.7513 H   0  0  0  0  0  0  0  0  0  0  0  0
    2.6753   -3.1930    1.0104 C   0  0  0  0  0  0  0  0  0  0  0  0
    3.0064   -3.4457    2.0116 H   0  0  0  0  0  0  0  0  0  0  0  0
    3.3126   -3.7435   -0.1007 C   0  0  0  0  0  0  0  0  0  0  0  0
    4.3597   -4.6053    0.0527 O   0  0  0  0  0  0  0  0  0  0  0  0
    4.5035   -4.7861    0.9943 H   0  0  0  0  0  0  0  0  0  0  0  0
    2.8721   -3.4095   -1.3771 C   0  0  0  0  0  0  0  0  0  0  0  0
    3.3722   -3.8390   -2.2389 H   0  0  0  0  0  0  0  0  0  0  0  0
    1.7958   -2.5328   -1.5461 C   0  0  0  0  0  0  0  0  0  0  0  0
    1.4725   -2.2872   -2.5536 H   0  0  0  0  0  0  0  0  0  0  0  0
   -1.2344    0.8794    0.3898 C   0  0  0  0  0  0  0  0  0  0  0  0
   -2.0106    1.3450   -0.4372 O   0  0  0  0  0  0  0  0  0  0  0  0
   -0.6357    1.7202    1.3098 N   0  0  0  0  0  0  0  0  0  0  0  0
   -0.0194    1.3019    2.0008 H   0  0  0  0  0  0  0  0  0  0  0  0
   -0.8614    3.1599    1.3439 C   0  0  0  0  0  0  0  0  0  0  0  0
   -1.9217    3.3783    1.5100 H   0  0  0  0  0  0  0  0  0  0  0  0
   -0.2840    3.6142    2.1548 H   0  0  0  0  0  0  0  0  0  0  0  0
   -0.5504    3.6186    0.3993 H   0  0  0  0  0  0  0  0  0  0  0  0
  1  2  1  0  0  0  0
  2  3  1  0  0  0  0
  2  4  1  0  0  0  0
  2  5  1  0  0  0  0
  5  6  2  0  0  0  0
  5  7  1  0  0  0  0
  7  8  1  0  0  0  0
  7  9  1  0  0  0  0
  9 10  1  0  0  0  0
  9 11  1  0  0  0  0
  9 26  1  0  0  0  0
 11 12  1  0  0  0  0
 11 13  1  0  0  0  0
 11 14  1  0  0  0  0
 14 15  2  0  0  0  0
 14 24  1  0  0  0  0
 15 16  1  0  0  0  0
 15 17  1  0  0  0  0
 17 18  1  0  0  0  0
 17 19  2  0  0  0  0
 19 20  1  0  0  0  0
 19 22  1  0  0  0  0
 20 21  1  0  0  0  0
 22 23  1  0  0  0  0
 22 24  2  0  0  0  0
 24 25  1  0  0  0  0
 26 27  2  0  0  0  0
 26 28  1  0  0  0  0
 28 29  1  0  0  0  0
 28 30  1  0  0  0  0
 30 31  1  0  0  0  0
 30 32  1  0  0  0  0
 30 33  1  0  0  0  0
M  END
$$$$

  -OEChem-04042216043D

 33 33  0     1  0  0  0  0  0999 V2000
   -4.1443   -3.9250    1.4626 H   0  0  0  0  0  0  0  0  0  0  0  0
   -4.0172   -3.0493    0.8201 C   0  0  0  0  0  0  0  0  0  0  0  0
   -4.7923   -2.3182    1.0622 H   0  0  0  0  0  0  0  0  0  0  0  0
   -4.1296   -3.3587   -0.2218 H   0  0  0  0  0  0  0  0  0  0  0  0
   -2.6447   -2.4389    1.0334 C   0  0  0  0  0  0  0  0  0  0  0  0
   -1.9024   -2.8907    1.8921 O   0  0  0  0  0  0  0  0  0  0  0  0
   -2.2515   -1.3580    0.2723 N   0  0  0  0  0  0  0  0  0  0  0  0
   -2.9383   -0.9466   -0.3578 H   0  0  0  0  0  0  0  0  0  0  0  0
   -0.9712   -0.6518    0.4255 C   0  0  1  0  0  0  0  0  0  0  0  0
   -0.5238   -0.8593    1.3971 H   0  0  0  0  0  0  0  0  0  0  0  0
   -0.0261   -1.0298   -0.7436 C   0  0  0  0  0  0  0  0  0  0  0  0
   -0.6255   -1.4416   -1.5624 H   0  0  0  0  0  0  0  0  0  0  0  0
    0.4340   -0.1129   -1.1285 H   0  0  0  0  0  0  0  0  0  0  0  0
    1.1158   -1.9938   -0.4553 C   0  0  0  0  0  0  0  0  0  0  0  0
    1.3880   -2.5809    0.7982 C   0  0  0  0  0  0  0  0  0  0  0  0
    0.7533   -2.4257    1.6629 H   0  0  0  0  0  0  0  0  0  0  0  0
    2.4843   -3.4355    0.9644 C   0  0  0  0  0  0  0  0  0  0  0  0
    2.6633   -3.8825    1.9361 H   0  0  0  0  0  0  0  0  0  0  0  0
    3.3301   -3.7164   -0.1079 C   0  0  0  0  0  0  0  0  0  0  0  0
    4.3991   -4.5503    0.0484 O   0  0  0  0  0  0  0  0  0  0  0  0
    4.4126   -4.9034    0.9513 H   0  0  0  0  0  0  0  0  0  0  0  0
    3.0753   -3.1428   -1.3494 C   0  0  0  0  0  0  0  0  0  0  0  0
    3.7358   -3.3658   -2.1808 H   0  0  0  0  0  0  0  0  0  0  0  0
    1.9802   -2.2902   -1.5222 C   0  0  0  0  0  0  0  0  0  0  0  0
    1.8037   -1.8523   -2.5005 H   0  0  0  0  0  0  0  0  0  0  0  0
   -1.2290    0.8681    0.3966 C   0  0  0  0  0  0  0  0  0  0  0  0
   -2.0035    1.3407   -0.4283 O   0  0  0  0  0  0  0  0  0  0  0  0
   -0.6216    1.7032    1.3162 N   0  0  0  0  0  0  0  0  0  0  0  0
    0.0019    1.2802    1.9982 H   0  0  0  0  0  0  0  0  0  0  0  0
   -0.8227    3.1470    1.3432 C   0  0  0  0  0  0  0  0  0  0  0  0
   -1.8796    3.3844    1.5031 H   0  0  0  0  0  0  0  0  0  0  0  0
   -0.2416    3.5950    2.1550 H   0  0  0  0  0  0  0  0  0  0  0  0
   -0.4993    3.5962    0.3984 H   0  0  0  0  0  0  0  0  0  0  0  0
  1  2  1  0  0  0  0
  2  3  1  0  0  0  0
  2  4  1  0  0  0  0
  2  5  1  0  0  0  0
  5  6  2  0  0  0  0
  5  7  1  0  0  0  0
  7  8  1  0  0  0  0
  7  9  1  0  0  0  0
  9 10  1  0  0  0  0
  9 11  1  0  0  0  0
  9 26  1  0  0  0  0
 11 12  1  0  0  0  0
 11 13  1  0  0  0  0
 11 14  1  0  0  0  0
 14 15  2  0  0  0  0
 14 24  1  0  0  0  0
 15 16  1  0  0  0  0
 15 17  1  0  0  0  0
 17 18  1  0  0  0  0
 17 19  2  0  0  0  0
 19 20  1  0  0  0  0
 19 22  1  0  0  0  0
 20 21  1  0  0  0  0
 22 23  1  0  0  0  0
 22 24  2  0  0  0  0
 24 25  1  0  0  0  0
 26 27  2  0  0  0  0
 26 28  1  0  0  0  0
 28 29  1  0  0  0  0
 28 30  1  0  0  0  0
 30 31  1  0  0  0  0
 30 32  1  0  0  0  0
 30 33  1  0  0  0  0
M  END
$$$$

  -OEChem-04042216043D

 33 33  0     1  0  0  0  0  0999 V2000
   -4.1606   -3.9409    1.4344 H   0  0  0  0  0  0  0  0  0  0  0  0
   -4.0195   -3.0635    0.7968 C   0  0  0  0  0  0  0  0  0  0  0  0
   -4.8048   -2.3365    1.0173 H   0  0  0  0  0  0  0  0  0  0  0  0
   -4.1014   -3.3717   -0.2483 H   0  0  0  0  0  0  0  0  0  0  0  0
   -2.6569   -2.4463    1.0502 C   0  0  0  0  0  0  0  0  0  0  0  0
   -1.9497   -2.8833    1.9438 O   0  0  0  0  0  0  0  0  0  0  0  0
   -2.2494   -1.3639    0.2991 N   0  0  0  0  0  0  0  0  0  0  0  0
   -2.9233   -0.9713   -0.3565 H   0  0  0  0  0  0  0  0  0  0  0  0
   -0.9647   -0.6566    0.4322 C   0  0  1  0  0  0  0  0  0  0  0  0
   -0.4896   -0.8797    1.3902 H   0  0  0  0  0  0  0  0  0  0  0  0
   -0.0354   -1.0222   -0.7549 C   0  0  0  0  0  0  0  0  0  0  0  0
   -0.6416   -1.4377   -1.5663 H   0  0  0  0  0  0  0  0  0  0  0  0
    0.4104   -0.0995   -1.1434 H   0  0  0  0  0  0  0  0  0  0  0  0
    1.1123   -1.9810   -0.4798 C   0  0  0  0  0  0  0  0  0  0  0  0
    1.2200   -2.7883    0.6690 C   0  0  0  0  0  0  0  0  0  0  0  0
    0.4587   -2.7900    1.4394 H   0  0  0  0  0  0  0  0  0  0  0  0
    2.3174   -3.6386    0.8467 C   0  0  0  0  0  0  0  0  0  0  0  0
    2.3713   -4.2517    1.7398 H   0  0  0  0  0  0  0  0  0  0  0  0
    3.3245   -3.7007   -0.1159 C   0  0  0  0  0  0  0  0  0  0  0  0
    4.3948   -4.5311    0.0500 O   0  0  0  0  0  0  0  0  0  0  0  0
    4.2923   -5.0414    0.8682 H   0  0  0  0  0  0  0  0  0  0  0  0
    3.2304   -2.9104   -1.2577 C   0  0  0  0  0  0  0  0  0  0  0  0
    4.0154   -2.9648   -2.0050 H   0  0  0  0  0  0  0  0  0  0  0  0
    2.1348   -2.0598   -1.4399 C   0  0  0  0  0  0  0  0  0  0  0  0
    2.0827   -1.4541   -2.3402 H   0  0  0  0  0  0  0  0  0  0  0  0
   -1.2204    0.8634    0.4108 C   0  0  0  0  0  0  0  0  0  0  0  0
   -2.0026    1.3409   -0.4039 O   0  0  0  0  0  0  0  0  0  0  0  0
   -0.5948    1.6929    1.3227 N   0  0  0  0  0  0  0  0  0  0  0  0
    0.0349    1.2642    1.9954 H   0  0  0  0  0  0  0  0  0  0  0  0
   -0.7932    3.1364    1.3613 C   0  0  0  0  0  0  0  0  0  0  0  0
   -1.8483    3.3740    1.5330 H   0  0  0  0  0  0  0  0  0  0  0  0
   -0.2036    3.5774    2.1708 H   0  0  0  0  0  0  0  0  0  0  0  0
   -0.4780    3.5913    0.4163 H   0  0  0  0  0  0  0  0  0  0  0  0
  1  2  1  0  0  0  0
  2  3  1  0  0  0  0
  2  4  1  0  0  0  0
  2  5  1  0  0  0  0
  5  6  2  0  0  0  0
  5  7  1  0  0  0  0
  7  8  1  0  0  0  0
  7  9  1  0  0  0  0
  9 10  1  0  0  0  0
  9 11  1  0  0  0  0
  9 26  1  0  0  0  0
 11 12  1  0  0  0  0
 11 13  1  0  0  0  0
 11 14  1  0  0  0  0
 14 15  2  0  0  0  0
 14 24  1  0  0  0  0
 15 16  1  0  0  0  0
 15 17  1  0  0  0  0
 17 18  1  0  0  0  0
 17 19  2  0  0  0  0
 19 20  1  0  0  0  0
 19 22  1  0  0  0  0
 20 21  1  0  0  0  0
 22 23  1  0  0  0  0
 22 24  2  0  0  0  0
 24 25  1  0  0  0  0
 26 27  2  0  0  0  0
 26 28  1  0  0  0  0
 28 29  1  0  0  0  0
 28 30  1  0  0  0  0
 30 31  1  0  0  0  0
 30 32  1  0  0  0  0
 30 33  1  0  0  0  0
M  END
$$$$

  -OEChem-04042216043D

 33 33  0     1  0  0  0  0  0999 V2000
   -4.1565   -3.9675    1.4166 H   0  0  0  0  0  0  0  0  0  0  0  0
   -4.0115   -3.0867    0.7849 C   0  0  0  0  0  0  0  0  0  0  0  0
   -4.8147   -2.3732    0.9846 H   0  0  0  0  0  0  0  0  0  0  0  0
   -4.0586   -3.3945   -0.2624 H   0  0  0  0  0  0  0  0  0  0  0  0
   -2.6670   -2.4476    1.0774 C   0  0  0  0  0  0  0  0  0  0  0  0
   -1.9948   -2.8534    2.0113 O   0  0  0  0  0  0  0  0  0  0  0  0
   -2.2520   -1.3666    0.3285 N   0  0  0  0  0  0  0  0  0  0  0  0
   -2.9134   -0.9975   -0.3529 H   0  0  0  0  0  0  0  0  0  0  0  0
   -0.9607   -0.6640    0.4366 C   0  0  1  0  0  0  0  0  0  0  0  0
   -0.4593   -0.9103    1.3776 H   0  0  0  0  0  0  0  0  0  0  0  0
   -0.0495   -1.0116   -0.7715 C   0  0  0  0  0  0  0  0  0  0  0  0
   -0.6658   -1.4280   -1.5750 H   0  0  0  0  0  0  0  0  0  0  0  0
    0.3811   -0.0835   -1.1638 H   0  0  0  0  0  0  0  0  0  0  0  0
    1.1010   -1.9690   -0.5110 C   0  0  0  0  0  0  0  0  0  0  0  0
    1.0687   -2.9829    0.4613 C   0  0  0  0  0  0  0  0  0  0  0  0
    0.1948   -3.1381    1.0789 H   0  0  0  0  0  0  0  0  0  0  0  0
    2.1673   -3.8284    0.6540 C   0  0  0  0  0  0  0  0  0  0  0  0
    2.1136   -4.6010    1.4132 H   0  0  0  0  0  0  0  0  0  0  0  0
    3.3157   -3.6789   -0.1231 C   0  0  0  0  0  0  0  0  0  0  0  0
    4.3908   -4.4996    0.0586 O   0  0  0  0  0  0  0  0  0  0  0  0
    4.1971   -5.1480    0.7532 H   0  0  0  0  0  0  0  0  0  0  0  0
    3.3598   -2.6831   -1.0947 C   0  0  0  0  0  0  0  0  0  0  0  0
    4.2544   -2.5734   -1.6990 H   0  0  0  0  0  0  0  0  0  0  0  0
    2.2632   -1.8366   -1.2899 C   0  0  0  0  0  0  0  0  0  0  0  0
    2.3224   -1.0697   -2.0568 H   0  0  0  0  0  0  0  0  0  0  0  0
   -1.2096    0.8573    0.4226 C   0  0  0  0  0  0  0  0  0  0  0  0
   -1.9966    1.3424   -0.3832 O   0  0  0  0  0  0  0  0  0  0  0  0
   -0.5609    1.6805    1.3239 N   0  0  0  0  0  0  0  0  0  0  0  0
    0.0671    1.2437    1.9931 H   0  0  0  0  0  0  0  0  0  0  0  0
   -0.7565    3.1237    1.3759 C   0  0  0  0  0  0  0  0  0  0  0  0
   -1.8091    3.3613    1.5627 H   0  0  0  0  0  0  0  0  0  0  0  0
   -0.1563    3.5578    2.1813 H   0  0  0  0  0  0  0  0  0  0  0  0
   -0.4528    3.5857    0.4306 H   0  0  0  0  0  0  0  0  0  0  0  0
  1  2  1  0  0  0  0
  2  3  1  0  0  0  0
  2  4  1  0  0  0  0
  2  5  1  0  0  0  0
  5  6  2  0  0  0  0
  5  7  1  0  0  0  0
  7  8  1  0  0  0  0
  7  9  1  0  0  0  0
  9 10  1  0  0  0  0
  9 11  1  0  0  0  0
  9 26  1  0  0  0  0
 11 12  1  0  0  0  0
 11 13  1  0  0  0  0
 11 14  1  0  0  0  0
 14 15  2  0  0  0  0
 14 24  1  0  0  0  0
 15 16  1  0  0  0  0
 15 17  1  0  0  0  0
 17 18  1  0  0  0  0
 17 19  2  0  0  0  0
 19 20  1  0  0  0  0
 19 22  1  0  0  0  0
 20 21  1  0  0  0  0
 22 23  1  0  0  0  0
 22 24  2  0  0  0  0
 24 25  1  0  0  0  0
 26 27  2  0  0  0  0
 26 28  1  0  0  0  0
 28 29  1  0  0  0  0
 28 30  1  0  0  0  0
 30 31  1  0  0  0  0
 30 32  1  0  0  0  0
 30 33  1  0  0  0  0
M  END
$$$$

  -OEChem-04042216043D

 33 33  0     1  0  0  0  0  0999 V2000
   -4.1198   -3.9818    1.4599 H   0  0  0  0  0  0  0  0  0  0  0  0
   -3.9900   -3.1036    0.8213 C   0  0  0  0  0  0  0  0  0  0  0  0
   -4.7806   -2.3838    1.0469 H   0  0  0  0  0  0  0  0  0  0  0  0
   -4.0759   -3.4129   -0.2232 H   0  0  0  0  0  0  0  0  0  0  0  0
   -2.6314   -2.4741    1.0666 C   0  0  0  0  0  0  0  0  0  0  0  0
   -1.9197   -2.9002    1.9617 O   0  0  0  0  0  0  0  0  0  0  0  0
   -2.2440   -1.3804    0.3212 N   0  0  0  0  0  0  0  0  0  0  0  0
   -2.9324   -0.9923   -0.3218 H   0  0  0  0  0  0  0  0  0  0  0  0
   -0.9517   -0.6761    0.4051 C   0  0  1  0  0  0  0  0  0  0  0  0
   -0.4246   -0.9411    1.3275 H   0  0  0  0  0  0  0  0  0  0  0  0
   -0.0607   -0.9914   -0.8263 C   0  0  0  0  0  0  0  0  0  0  0  0
   -0.6843   -1.4085   -1.6233 H   0  0  0  0  0  0  0  0  0  0  0  0
    0.3538   -0.0564   -1.2192 H   0  0  0  0  0  0  0  0  0  0  0  0
    1.0904   -1.9462   -0.5694 C   0  0  0  0  0  0  0  0  0  0  0  0
    0.9409   -3.1322    0.1659 C   0  0  0  0  0  0  0  0  0  0  0  0
   -0.0267   -3.4242    0.5512 H   0  0  0  0  0  0  0  0  0  0  0  0
    2.0333   -3.9753    0.3994 C   0  0  0  0  0  0  0  0  0  0  0  0
    1.8856   -4.8858    0.9699 H   0  0  0  0  0  0  0  0  0  0  0  0
    3.2939   -3.6467   -0.0993 C   0  0  0  0  0  0  0  0  0  0  0  0
    4.3654   -4.4625    0.1232 O   0  0  0  0  0  0  0  0  0  0  0  0
    4.0922   -5.2303    0.6488 H   0  0  0  0  0  0  0  0  0  0  0  0
    3.4557   -2.4755   -0.8347 C   0  0  0  0  0  0  0  0  0  0  0  0
    4.4381   -2.2268   -1.2223 H   0  0  0  0  0  0  0  0  0  0  0  0
    2.3653   -1.6307   -1.0699 C   0  0  0  0  0  0  0  0  0  0  0  0
    2.5208   -0.7236   -1.6467 H   0  0  0  0  0  0  0  0  0  0  0  0
   -1.2066    0.8439    0.4221 C   0  0  0  0  0  0  0  0  0  0  0  0
   -2.0169    1.3378   -0.3547 O   0  0  0  0  0  0  0  0  0  0  0  0
   -0.5365    1.6557    1.3182 N   0  0  0  0  0  0  0  0  0  0  0  0
    0.1085    1.2103    1.9654 H   0  0  0  0  0  0  0  0  0  0  0  0
   -0.7286    3.0986    1.3927 C   0  0  0  0  0  0  0  0  0  0  0  0
   -1.7761    3.3359    1.6058 H   0  0  0  0  0  0  0  0  0  0  0  0
   -0.1097    3.5215    2.1900 H   0  0  0  0  0  0  0  0  0  0  0  0
   -0.4449    3.5715    0.4468 H   0  0  0  0  0  0  0  0  0  0  0  0
  1  2  1  0  0  0  0
  2  3  1  0  0  0  0
  2  4  1  0  0  0  0
  2  5  1  0  0  0  0
  5  6  2  0  0  0  0
  5  7  1  0  0  0  0
  7  8  1  0  0  0  0
  7  9  1  0  0  0  0
  9 10  1  0  0  0  0
  9 11  1  0  0  0  0
  9 26  1  0  0  0  0
 11 12  1  0  0  0  0
 11 13  1  0  0  0  0
 11 14  1  0  0  0  0
 14 15  2  0  0  0  0
 14 24  1  0  0  0  0
 15 16  1  0  0  0  0
 15 17  1  0  0  0  0
 17 18  1  0  0  0  0
 17 19  2  0  0  0  0
 19 20  1  0  0  0  0
 19 22  1  0  0  0  0
 20 21  1  0  0  0  0
 22 23  1  0  0  0  0
 22 24  2  0  0  0  0
 24 25  1  0  0  0  0
 26 27  2  0  0  0  0
 26 28  1  0  0  0  0
 28 29  1  0  0  0  0
 28 30  1  0  0  0  0
 30 31  1  0  0  0  0
 30 32  1  0  0  0  0
 30 33  1  0  0  0  0
M  END
$$$$

  -OEChem-04042216043D

 33 33  0     1  0  0  0  0  0999 V2000
   -4.0433   -3.9953    1.5054 H   0  0  0  0  0  0  0  0  0  0  0  0
   -3.9408   -3.1190    0.8593 C   0  0  0  0  0  0  0  0  0  0  0  0
   -4.7043   -2.3873    1.1345 H   0  0  0  0  0  0  0  0  0  0  0  0
   -4.0971   -3.4259   -0.1776 H   0  0  0  0  0  0  0  0  0  0  0  0
   -2.5596   -2.5110    1.0173 C   0  0  0  0  0  0  0  0  0  0  0  0
   -1.7745   -2.9908    1.8192 O   0  0  0  0  0  0  0  0  0  0  0  0
   -2.2195   -1.3949    0.2818 N   0  0  0  0  0  0  0  0  0  0  0  0
   -2.9521   -0.9719   -0.2861 H   0  0  0  0  0  0  0  0  0  0  0  0
   -0.9363   -0.6743    0.3456 C   0  0  1  0  0  0  0  0  0  0  0  0
   -0.3881   -0.9512    1.2524 H   0  0  0  0  0  0  0  0  0  0  0  0
   -0.0664   -0.9718   -0.9006 C   0  0  0  0  0  0  0  0  0  0  0  0
   -0.6917   -1.4022   -1.6896 H   0  0  0  0  0  0  0  0  0  0  0  0
    0.3359   -0.0355   -1.3026 H   0  0  0  0  0  0  0  0  0  0  0  0
    1.0843   -1.9145   -0.6193 C   0  0  0  0  0  0  0  0  0  0  0  0
    0.8677   -3.2158   -0.1428 C   0  0  0  0  0  0  0  0  0  0  0  0
   -0.1416   -3.5825    0.0057 H   0  0  0  0  0  0  0  0  0  0  0  0
    1.9458   -4.0629    0.1374 C   0  0  0  0  0  0  0  0  0  0  0  0
    1.7508   -5.0634    0.5074 H   0  0  0  0  0  0  0  0  0  0  0  0
    3.2551   -3.6206   -0.0568 C   0  0  0  0  0  0  0  0  0  0  0  0
    4.3127   -4.4396    0.2143 O   0  0  0  0  0  0  0  0  0  0  0  0
    3.9918   -5.2946    0.5405 H   0  0  0  0  0  0  0  0  0  0  0  0
    3.4817   -2.3309   -0.5319 C   0  0  0  0  0  0  0  0  0  0  0  0
    4.5027   -1.9950   -0.6806 H   0  0  0  0  0  0  0  0  0  0  0  0
    2.4063   -1.4805   -0.8118 C   0  0  0  0  0  0  0  0  0  0  0  0
    2.6087   -0.4784   -1.1781 H   0  0  0  0  0  0  0  0  0  0  0  0
   -1.2013    0.8420    0.4040 C   0  0  0  0  0  0  0  0  0  0  0  0
   -2.0450    1.3449   -0.3299 O   0  0  0  0  0  0  0  0  0  0  0  0
   -0.5117    1.6379    1.2995 N   0  0  0  0  0  0  0  0  0  0  0  0
    0.1530    1.1817    1.9187 H   0  0  0  0  0  0  0  0  0  0  0  0
   -0.7267    3.0735    1.4287 C   0  0  0  0  0  0  0  0  0  0  0  0
   -1.7704    3.2839    1.6846 H   0  0  0  0  0  0  0  0  0  0  0  0
   -0.0886    3.4812    2.2187 H   0  0  0  0  0  0  0  0  0  0  0  0
   -0.4835    3.5823    0.4901 H   0  0  0  0  0  0  0  0  0  0  0  0
  1  2  1  0  0  0  0
  2  3  1  0  0  0  0
  2  4  1  0  0  0  0
  2  5  1  0  0  0  0
  5  6  2  0  0  0  0
  5  7  1  0  0  0  0
  7  8  1  0  0  0  0
  7  9  1  0  0  0  0
  9 10  1  0  0  0  0
  9 11  1  0  0  0  0
  9 26  1  0  0  0  0
 11 12  1  0  0  0  0
 11 13  1  0  0  0  0
 11 14  1  0  0  0  0
 14 15  2  0  0  0  0
 14 24  1  0  0  0  0
 15 16  1  0  0  0  0
 15 17  1  0  0  0  0
 17 18  1  0  0  0  0
 17 19  2  0  0  0  0
 19 20  1  0  0  0  0
 19 22  1  0  0  0  0
 20 21  1  0  0  0  0
 22 23  1  0  0  0  0
 22 24  2  0  0  0  0
 24 25  1  0  0  0  0
 26 27  2  0  0  0  0
 26 28  1  0  0  0  0
 28 29  1  0  0  0  0
 28 30  1  0  0  0  0
 30 31  1  0  0  0  0
 30 32  1  0  0  0  0
 30 33  1  0  0  0  0
M  END
$$$$

  -OEChem-04042216043D

 33 33  0     1  0  0  0  0  0999 V2000
   -3.9571   -4.0192    1.5087 H   0  0  0  0  0  0  0  0  0  0  0  0
   -3.8835   -3.1343    0.8702 C   0  0  0  0  0  0  0  0  0  0  0  0
   -4.6248   -2.4014    1.1978 H   0  0  0  0  0  0  0  0  0  0  0  0
   -4.0994   -3.4247   -0.1607 H   0  0  0  0  0  0  0  0  0  0  0  0
   -2.4912   -2.5381    0.9594 C   0  0  0  0  0  0  0  0  0  0  0  0
   -1.6523   -3.0603    1.6753 O   0  0  0  0  0  0  0  0  0  0  0  0
   -2.1921   -1.4016    0.2377 N   0  0  0  0  0  0  0  0  0  0  0  0
   -2.9580   -0.9541   -0.2637 H   0  0  0  0  0  0  0  0  0  0  0  0
   -0.9212   -0.6608    0.2968 C   0  0  1  0  0  0  0  0  0  0  0  0
   -0.3624   -0.9441    1.1956 H   0  0  0  0  0  0  0  0  0  0  0  0
   -0.0679   -0.9576   -0.9557 C   0  0  0  0  0  0  0  0  0  0  0  0
   -0.6919   -1.3986   -1.7401 H   0  0  0  0  0  0  0  0  0  0  0  0
    0.3336   -0.0248   -1.3664 H   0  0  0  0  0  0  0  0  0  0  0  0
    1.0789   -1.8879   -0.6378 C   0  0  0  0  0  0  0  0  0  0  0  0
    0.8566   -3.2568   -0.4323 C   0  0  0  0  0  0  0  0  0  0  0  0
   -0.1494   -3.6599   -0.4991 H   0  0  0  0  0  0  0  0  0  0  0  0
    1.9216   -4.1110   -0.1242 C   0  0  0  0  0  0  0  0  0  0  0  0
    1.7249   -5.1646    0.0402 H   0  0  0  0  0  0  0  0  0  0  0  0
    3.2196   -3.6068   -0.0233 C   0  0  0  0  0  0  0  0  0  0  0  0
    4.2639   -4.4321    0.2786 O   0  0  0  0  0  0  0  0  0  0  0  0
    3.9384   -5.3339    0.4241 H   0  0  0  0  0  0  0  0  0  0  0  0
    3.4490   -2.2479   -0.2302 C   0  0  0  0  0  0  0  0  0  0  0  0
    4.4612   -1.8653   -0.1500 H   0  0  0  0  0  0  0  0  0  0  0  0
    2.3869   -1.3893   -0.5347 C   0  0  0  0  0  0  0  0  0  0  0  0
    2.5865   -0.3334   -0.6910 H   0  0  0  0  0  0  0  0  0  0  0  0
   -1.1950    0.8511    0.3896 C   0  0  0  0  0  0  0  0  0  0  0  0
   -2.0628    1.3588   -0.3119 O   0  0  0  0  0  0  0  0  0  0  0  0
   -0.4971    1.6347    1.2897 N   0  0  0  0  0  0  0  0  0  0  0  0
    0.1801    1.1716    1.8901 H   0  0  0  0  0  0  0  0  0  0  0  0
   -0.7380    3.0615    1.4651 C   0  0  0  0  0  0  0  0  0  0  0  0
   -1.7775    3.2411    1.7587 H   0  0  0  0  0  0  0  0  0  0  0  0
   -0.0844    3.4625    2.2458 H   0  0  0  0  0  0  0  0  0  0  0  0
   -0.5358    3.6014    0.5341 H   0  0  0  0  0  0  0  0  0  0  0  0
  1  2  1  0  0  0  0
  2  3  1  0  0  0  0
  2  4  1  0  0  0  0
  2  5  1  0  0  0  0
  5  6  2  0  0  0  0
  5  7  1  0  0  0  0
  7  8  1  0  0  0  0
  7  9  1  0  0  0  0
  9 10  1  0  0  0  0
  9 11  1  0  0  0  0
  9 26  1  0  0  0  0
 11 12  1  0  0  0  0
 11 13  1  0  0  0  0
 11 14  1  0  0  0  0
 14 15  2  0  0  0  0
 14 24  1  0  0  0  0
 15 16  1  0  0  0  0
 15 17  1  0  0  0  0
 17 18  1  0  0  0  0
 17 19  2  0  0  0  0
 19 20  1  0  0  0  0
 19 22  1  0  0  0  0
 20 21  1  0  0  0  0
 22 23  1  0  0  0  0
 22 24  2  0  0  0  0
 24 25  1  0  0  0  0
 26 27  2  0  0  0  0
 26 28  1  0  0  0  0
 28 29  1  0  0  0  0
 28 30  1  0  0  0  0
 30 31  1  0  0  0  0
 30 32  1  0  0  0  0
 30 33  1  0  0  0  0
M  END
$$$$

  -OEChem-04042216043D

 33 33  0     1  0  0  0  0  0999 V2000
   -3.9048   -4.0356    1.4933 H   0  0  0  0  0  0  0  0  0  0  0  0
   -3.8485   -3.1437    0.8629 C   0  0  0  0  0  0  0  0  0  0  0  0
   -4.5874   -2.4185    1.2123 H   0  0  0  0  0  0  0  0  0  0  0  0
   -4.0820   -3.4247   -0.1669 H   0  0  0  0  0  0  0  0  0  0  0  0
   -2.4579   -2.5408    0.9327 C   0  0  0  0  0  0  0  0  0  0  0  0
   -1.6016   -3.0678    1.6238 O   0  0  0  0  0  0  0  0  0  0  0  0
   -2.1767   -1.3966    0.2161 N   0  0  0  0  0  0  0  0  0  0  0  0
   -2.9526   -0.9465   -0.2670 H   0  0  0  0  0  0  0  0  0  0  0  0
   -0.9117   -0.6471    0.2777 C   0  0  1  0  0  0  0  0  0  0  0  0
   -0.3516   -0.9317    1.1752 H   0  0  0  0  0  0  0  0  0  0  0  0
   -0.0664   -0.9522   -0.9759 C   0  0  0  0  0  0  0  0  0  0  0  0
   -0.6910   -1.3947   -1.7591 H   0  0  0  0  0  0  0  0  0  0  0  0
    0.3437   -0.0247   -1.3901 H   0  0  0  0  0  0  0  0  0  0  0  0
    1.0750   -1.8786   -0.6364 C   0  0  0  0  0  0  0  0  0  0  0  0
    0.9122   -3.2685   -0.7155 C   0  0  0  0  0  0  0  0  0  0  0  0
   -0.0476   -3.6867   -1.0040 H   0  0  0  0  0  0  0  0  0  0  0  0
    1.9730   -4.1249   -0.3988 C   0  0  0  0  0  0  0  0  0  0  0  0
    1.8238   -5.1975   -0.4540 H   0  0  0  0  0  0  0  0  0  0  0  0
    3.2063   -3.5995   -0.0072 C   0  0  0  0  0  0  0  0  0  0  0  0
    4.2454   -4.4262    0.3082 O   0  0  0  0  0  0  0  0  0  0  0  0
    3.9562   -5.3506    0.2624 H   0  0  0  0  0  0  0  0  0  0  0  0
    3.3761   -2.2182    0.0657 C   0  0  0  0  0  0  0  0  0  0  0  0
    4.3386   -1.8201    0.3691 H   0  0  0  0  0  0  0  0  0  0  0  0
    2.3178   -1.3580   -0.2459 C   0  0  0  0  0  0  0  0  0  0  0  0
    2.4683   -0.2844   -0.1849 H   0  0  0  0  0  0  0  0  0  0  0  0
   -1.1887    0.8630    0.3824 C   0  0  0  0  0  0  0  0  0  0  0  0
   -2.0635    1.3724   -0.3089 O   0  0  0  0  0  0  0  0  0  0  0  0
   -0.4906    1.6421    1.2864 N   0  0  0  0  0  0  0  0  0  0  0  0
    0.1793    1.1739    1.8908 H   0  0  0  0  0  0  0  0  0  0  0  0
   -0.7503    3.0625    1.4862 C   0  0  0  0  0  0  0  0  0  0  0  0
   -1.7866    3.2211    1.8025 H   0  0  0  0  0  0  0  0  0  0  0  0
   -0.0877    3.4642    2.2589 H   0  0  0  0  0  0  0  0  0  0  0  0
   -0.5758    3.6179    0.5588 H   0  0  0  0  0  0  0  0  0  0  0  0
  1  2  1  0  0  0  0
  2  3  1  0  0  0  0
  2  4  1  0  0  0  0
  2  5  1  0  0  0  0
  5  6  2  0  0  0  0
  5  7  1  0  0  0  0
  7  8  1  0  0  0  0
  7  9  1  0  0  0  0
  9 10  1  0  0  0  0
  9 11  1  0  0  0  0
  9 26  1  0  0  0  0
 11 12  1  0  0  0  0
 11 13  1  0  0  0  0
 11 14  1  0  0  0  0
 14 15  2  0  0  0  0
 14 24  1  0  0  0  0
 15 16  1  0  0  0  0
 15 17  1  0  0  0  0
 17 18  1  0  0  0  0
 17 19  2  0  0  0  0
 19 20  1  0  0  0  0
 19 22  1  0  0  0  0
 20 21  1  0  0  0  0
 22 23  1  0  0  0  0
 22 24  2  0  0  0  0
 24 25  1  0  0  0  0
 26 27  2  0  0  0  0
 26 28  1  0  0  0  0
 28 29  1  0  0  0  0
 28 30  1  0  0  0  0
 30 31  1  0  0  0  0
 30 32  1  0  0  0  0
 30 33  1  0  0  0  0
M  END
$$$$

  -OEChem-04042216043D

 33 33  0     1  0  0  0  0  0999 V2000
   -3.8979   -4.0360    1.4807 H   0  0  0  0  0  0  0  0  0  0  0  0
   -3.8395   -3.1447    0.8496 C   0  0  0  0  0  0  0  0  0  0  0  0
   -4.5914   -2.4259    1.1843 H   0  0  0  0  0  0  0  0  0  0  0  0
   -4.0522   -3.4300   -0.1834 H   0  0  0  0  0  0  0  0  0  0  0  0
   -2.4568   -2.5276    0.9420 C   0  0  0  0  0  0  0  0  0  0  0  0
   -1.6121   -3.0359    1.6611 O   0  0  0  0  0  0  0  0  0  0  0  0
   -2.1714   -1.3877    0.2199 N   0  0  0  0  0  0  0  0  0  0  0  0
   -2.9390   -0.9480   -0.2853 H   0  0  0  0  0  0  0  0  0  0  0  0
   -0.9073   -0.6390    0.2931 C   0  0  1  0  0  0  0  0  0  0  0  0
   -0.3558   -0.9191    1.1972 H   0  0  0  0  0  0  0  0  0  0  0  0
   -0.0573   -0.9504   -0.9561 C   0  0  0  0  0  0  0  0  0  0  0  0
   -0.6828   -1.3817   -1.7444 H   0  0  0  0  0  0  0  0  0  0  0  0
    0.3655   -0.0256   -1.3639 H   0  0  0  0  0  0  0  0  0  0  0  0
    1.0811   -1.8810   -0.6158 C   0  0  0  0  0  0  0  0  0  0  0  0
    1.0302   -3.2325   -0.9860 C   0  0  0  0  0  0  0  0  0  0  0  0
    0.1561   -3.6232   -1.4985 H   0  0  0  0  0  0  0  0  0  0  0  0
    2.0924   -4.0912   -0.6804 C   0  0  0  0  0  0  0  0  0  0  0  0
    2.0303   -5.1357   -0.9642 H   0  0  0  0  0  0  0  0  0  0  0  0
    3.2178   -3.6051   -0.0115 C   0  0  0  0  0  0  0  0  0  0  0  0
    4.2574   -4.4354    0.2932 O   0  0  0  0  0  0  0  0  0  0  0  0
    4.0400   -5.3442    0.0345 H   0  0  0  0  0  0  0  0  0  0  0  0
    3.2796   -2.2599    0.3478 C   0  0  0  0  0  0  0  0  0  0  0  0
    4.1602   -1.8916    0.8637 H   0  0  0  0  0  0  0  0  0  0  0  0
    2.2193   -1.3979    0.0478 C   0  0  0  0  0  0  0  0  0  0  0  0
    2.2861   -0.3518    0.3301 H   0  0  0  0  0  0  0  0  0  0  0  0
   -1.1890    0.8713    0.3859 C   0  0  0  0  0  0  0  0  0  0  0  0
   -2.0505    1.3760   -0.3254 O   0  0  0  0  0  0  0  0  0  0  0  0
   -0.5050    1.6581    1.2939 N   0  0  0  0  0  0  0  0  0  0  0  0
    0.1415    1.1925    1.9249 H   0  0  0  0  0  0  0  0  0  0  0  0
   -0.7747    3.0782    1.4817 C   0  0  0  0  0  0  0  0  0  0  0  0
   -1.8109    3.2321    1.8009 H   0  0  0  0  0  0  0  0  0  0  0  0
   -0.1115    3.4918    2.2475 H   0  0  0  0  0  0  0  0  0  0  0  0
   -0.6078    3.6262    0.5483 H   0  0  0  0  0  0  0  0  0  0  0  0
  1  2  1  0  0  0  0
  2  3  1  0  0  0  0
  2  4  1  0  0  0  0
  2  5  1  0  0  0  0
  5  6  2  0  0  0  0
  5  7  1  0  0  0  0
  7  8  1  0  0  0  0
  7  9  1  0  0  0  0
  9 10  1  0  0  0  0
  9 11  1  0  0  0  0
  9 26  1  0  0  0  0
 11 12  1  0  0  0  0
 11 13  1  0  0  0  0
 11 14  1  0  0  0  0
 14 15  2  0  0  0  0
 14 24  1  0  0  0  0
 15 16  1  0  0  0  0
 15 17  1  0  0  0  0
 17 18  1  0  0  0  0
 17 19  2  0  0  0  0
 19 20  1  0  0  0  0
 19 22  1  0  0  0  0
 20 21  1  0  0  0  0
 22 23  1  0  0  0  0
 22 24  2  0  0  0  0
 24 25  1  0  0  0  0
 26 27  2  0  0  0  0
 26 28  1  0  0  0  0
 28 29  1  0  0  0  0
 28 30  1  0  0  0  0
 30 31  1  0  0  0  0
 30 32  1  0  0  0  0
 30 33  1  0  0  0  0
M  END
$$$$

  -OEChem-04042216043D

 33 33  0     1  0  0  0  0  0999 V2000
   -3.9348   -4.0298    1.4659 H   0  0  0  0  0  0  0  0  0  0  0  0
   -3.8643   -3.1427    0.8301 C   0  0  0  0  0  0  0  0  0  0  0  0
   -4.6332   -2.4286    1.1349 H   0  0  0  0  0  0  0  0  0  0  0  0
   -4.0410   -3.4379   -0.2069 H   0  0  0  0  0  0  0  0  0  0  0  0
   -2.4903   -2.5128    0.9621 C   0  0  0  0  0  0  0  0  0  0  0  0
   -1.6699   -3.0007    1.7223 O   0  0  0  0  0  0  0  0  0  0  0  0
   -2.1860   -1.3815    0.2337 N   0  0  0  0  0  0  0  0  0  0  0  0
   -2.9358   -0.9541   -0.3073 H   0  0  0  0  0  0  0  0  0  0  0  0
   -0.9205   -0.6372    0.3267 C   0  0  1  0  0  0  0  0  0  0  0  0
   -0.3902   -0.9110    1.2443 H   0  0  0  0  0  0  0  0  0  0  0  0
   -0.0508   -0.9594   -0.9088 C   0  0  0  0  0  0  0  0  0  0  0  0
   -0.6730   -1.3804   -1.7056 H   0  0  0  0  0  0  0  0  0  0  0  0
    0.3836   -0.0364   -1.3080 H   0  0  0  0  0  0  0  0  0  0  0  0
    1.0886   -1.8951   -0.5748 C   0  0  0  0  0  0  0  0  0  0  0  0
    1.1905   -3.1416   -1.2104 C   0  0  0  0  0  0  0  0  0  0  0  0
    0.4281   -3.4563   -1.9166 H   0  0  0  0  0  0  0  0  0  0  0  0
    2.2642   -3.9962   -0.9326 C   0  0  0  0  0  0  0  0  0  0  0  0
    2.3188   -4.9608   -1.4250 H   0  0  0  0  0  0  0  0  0  0  0  0
    3.2547   -3.6077   -0.0283 C   0  0  0  0  0  0  0  0  0  0  0  0
    4.3059   -4.4331    0.2494 O   0  0  0  0  0  0  0  0  0  0  0  0
    4.1979   -5.2748   -0.2194 H   0  0  0  0  0  0  0  0  0  0  0  0
    3.1711   -2.3631    0.5925 C   0  0  0  0  0  0  0  0  0  0  0  0
    3.9488   -2.0677    1.2891 H   0  0  0  0  0  0  0  0  0  0  0  0
    2.0990   -1.5067    0.3196 C   0  0  0  0  0  0  0  0  0  0  0  0
    2.0593   -0.5364    0.8040 H   0  0  0  0  0  0  0  0  0  0  0  0
   -1.1998    0.8754    0.3979 C   0  0  0  0  0  0  0  0  0  0  0  0
   -2.0342    1.3768   -0.3471 O   0  0  0  0  0  0  0  0  0  0  0  0
   -0.5342    1.6712    1.3121 N   0  0  0  0  0  0  0  0  0  0  0  0
    0.0948    1.2121    1.9649 H   0  0  0  0  0  0  0  0  0  0  0  0
   -0.7874    3.0990    1.4626 C   0  0  0  0  0  0  0  0  0  0  0  0
   -1.8354    3.2769    1.7260 H   0  0  0  0  0  0  0  0  0  0  0  0
   -0.1568    3.5139    2.2546 H   0  0  0  0  0  0  0  0  0  0  0  0
   -0.5633    3.6284    0.5305 H   0  0  0  0  0  0  0  0  0  0  0  0
  1  2  1  0  0  0  0
  2  3  1  0  0  0  0
  2  4  1  0  0  0  0
  2  5  1  0  0  0  0
  5  6  2  0  0  0  0
  5  7  1  0  0  0  0
  7  8  1  0  0  0  0
  7  9  1  0  0  0  0
  9 10  1  0  0  0  0
  9 11  1  0  0  0  0
  9 26  1  0  0  0  0
 11 12  1  0  0  0  0
 11 13  1  0  0  0  0
 11 14  1  0  0  0  0
 14 15  2  0  0  0  0
 14 24  1  0  0  0  0
 15 16  1  0  0  0  0
 15 17  1  0  0  0  0
 17 18  1  0  0  0  0
 17 19  2  0  0  0  0
 19 20  1  0  0  0  0
 19 22  1  0  0  0  0
 20 21  1  0  0  0  0
 22 23  1  0  0  0  0
 22 24  2  0  0  0  0
 24 25  1  0  0  0  0
 26 27  2  0  0  0  0
 26 28  1  0  0  0  0
 28 29  1  0  0  0  0
 28 30  1  0  0  0  0
 30 31  1  0  0  0  0
 30 32  1  0  0  0  0
 30 33  1  0  0  0  0
M  END
$$$$

  -OEChem-04042216043D

 33 33  0     1  0  0  0  0  0999 V2000
   -3.9968   -4.0188    1.4378 H   0  0  0  0  0  0  0  0  0  0  0  0
   -3.9086   -3.1285    0.8088 C   0  0  0  0  0  0  0  0  0  0  0  0
   -4.6881   -2.4173    1.0925 H   0  0  0  0  0  0  0  0  0  0  0  0
   -4.0524   -3.4193   -0.2345 H   0  0  0  0  0  0  0  0  0  0  0  0
   -2.5410   -2.4958    0.9861 C   0  0  0  0  0  0  0  0  0  0  0  0
   -1.7558   -2.9626    1.7955 O   0  0  0  0  0  0  0  0  0  0  0  0
   -2.2068   -1.3780    0.2501 N   0  0  0  0  0  0  0  0  0  0  0  0
   -2.9331   -0.9626   -0.3310 H   0  0  0  0  0  0  0  0  0  0  0  0
   -0.9396   -0.6403    0.3687 C   0  0  1  0  0  0  0  0  0  0  0  0
   -0.4434   -0.9040    1.3065 H   0  0  0  0  0  0  0  0  0  0  0  0
   -0.0385   -0.9762   -0.8435 C   0  0  0  0  0  0  0  0  0  0  0  0
   -0.6526   -1.3910   -1.6496 H   0  0  0  0  0  0  0  0  0  0  0  0
    0.4051   -0.0544   -1.2349 H   0  0  0  0  0  0  0  0  0  0  0  0
    1.1058   -1.9163   -0.5214 C   0  0  0  0  0  0  0  0  0  0  0  0
    1.3822   -2.9897   -1.3830 C   0  0  0  0  0  0  0  0  0  0  0  0
    0.7453   -3.1741   -2.2432 H   0  0  0  0  0  0  0  0  0  0  0  0
    2.4698   -3.8382   -1.1439 C   0  0  0  0  0  0  0  0  0  0  0  0
    2.6564   -4.6679   -1.8166 H   0  0  0  0  0  0  0  0  0  0  0  0
    3.3078   -3.6134   -0.0508 C   0  0  0  0  0  0  0  0  0  0  0  0
    4.3716   -4.4339    0.1904 O   0  0  0  0  0  0  0  0  0  0  0  0
    4.3794   -5.1625   -0.4489 H   0  0  0  0  0  0  0  0  0  0  0  0
    3.0602   -2.5351    0.7950 C   0  0  0  0  0  0  0  0  0  0  0  0
    3.7236   -2.3614    1.6358 H   0  0  0  0  0  0  0  0  0  0  0  0
    1.9737   -1.6851    0.5606 C   0  0  0  0  0  0  0  0  0  0  0  0
    1.8205   -0.8415    1.2248 H   0  0  0  0  0  0  0  0  0  0  0  0
   -1.2161    0.8741    0.4082 C   0  0  0  0  0  0  0  0  0  0  0  0
   -2.0250    1.3667   -0.3703 O   0  0  0  0  0  0  0  0  0  0  0  0
   -0.5758    1.6834    1.3284 N   0  0  0  0  0  0  0  0  0  0  0  0
    0.0449    1.2378    1.9980 H   0  0  0  0  0  0  0  0  0  0  0  0
   -0.8086    3.1189    1.4289 C   0  0  0  0  0  0  0  0  0  0  0  0
   -1.8642    3.3233    1.6370 H   0  0  0  0  0  0  0  0  0  0  0  0
   -0.2081    3.5433    2.2392 H   0  0  0  0  0  0  0  0  0  0  0  0
   -0.5303    3.6177    0.4945 H   0  0  0  0  0  0  0  0  0  0  0  0
  1  2  1  0  0  0  0
  2  3  1  0  0  0  0
  2  4  1  0  0  0  0
  2  5  1  0  0  0  0
  5  6  2  0  0  0  0
  5  7  1  0  0  0  0
  7  8  1  0  0  0  0
  7  9  1  0  0  0  0
  9 10  1  0  0  0  0
  9 11  1  0  0  0  0
  9 26  1  0  0  0  0
 11 12  1  0  0  0  0
 11 13  1  0  0  0  0
 11 14  1  0  0  0  0
 14 15  2  0  0  0  0
 14 24  1  0  0  0  0
 15 16  1  0  0  0  0
 15 17  1  0  0  0  0
 17 18  1  0  0  0  0
 17 19  2  0  0  0  0
 19 20  1  0  0  0  0
 19 22  1  0  0  0  0
 20 21  1  0  0  0  0
 22 23  1  0  0  0  0
 22 24  2  0  0  0  0
 24 25  1  0  0  0  0
 26 27  2  0  0  0  0
 26 28  1  0  0  0  0
 28 29  1  0  0  0  0
 28 30  1  0  0  0  0
 30 31  1  0  0  0  0
 30 32  1  0  0  0  0
 30 33  1  0  0  0  0
M  END
$$$$

  -OEChem-04042216043D

 33 33  0     1  0  0  0  0  0999 V2000
   -4.0473   -3.9830    1.4390 H   0  0  0  0  0  0  0  0  0  0  0  0
   -3.9402   -3.1041    0.7970 C   0  0  0  0  0  0  0  0  0  0  0  0
   -4.7244   -2.3861    1.0482 H   0  0  0  0  0  0  0  0  0  0  0  0
   -4.0576   -3.4130   -0.2444 H   0  0  0  0  0  0  0  0  0  0  0  0
   -2.5758   -2.4721    0.9987 C   0  0  0  0  0  0  0  0  0  0  0  0
   -1.8137   -2.9251    1.8378 O   0  0  0  0  0  0  0  0  0  0  0  0
   -2.2174   -1.3688    0.2522 N   0  0  0  0  0  0  0  0  0  0  0  0
   -2.9257   -0.9587   -0.3543 H   0  0  0  0  0  0  0  0  0  0  0  0
   -0.9512   -0.6349    0.3980 C   0  0  1  0  0  0  0  0  0  0  0  0
   -0.4948   -0.8777    1.3583 H   0  0  0  0  0  0  0  0  0  0  0  0
   -0.0166   -0.9920   -0.7855 C   0  0  0  0  0  0  0  0  0  0  0  0
   -0.6194   -1.4087   -1.5993 H   0  0  0  0  0  0  0  0  0  0  0  0
    0.4331   -0.0722   -1.1749 H   0  0  0  0  0  0  0  0  0  0  0  0
    1.1341   -1.9342   -0.4727 C   0  0  0  0  0  0  0  0  0  0  0  0
    1.5951   -2.7796   -1.4955 C   0  0  0  0  0  0  0  0  0  0  0  0
    1.0993   -2.7812   -2.4618 H   0  0  0  0  0  0  0  0  0  0  0  0
    2.6855   -3.6327   -1.2909 C   0  0  0  0  0  0  0  0  0  0  0  0
    3.0122   -4.2829   -2.0948 H   0  0  0  0  0  0  0  0  0  0  0  0
    3.3478   -3.6406   -0.0635 C   0  0  0  0  0  0  0  0  0  0  0  0
    4.4138   -4.4666    0.1476 O   0  0  0  0  0  0  0  0  0  0  0  0
    4.5629   -5.0211   -0.6334 H   0  0  0  0  0  0  0  0  0  0  0  0
    2.9216   -2.7880    0.9508 C   0  0  0  0  0  0  0  0  0  0  0  0
    3.4488   -2.7929    1.8991 H   0  0  0  0  0  0  0  0  0  0  0  0
    1.8318   -1.9330    0.7510 C   0  0  0  0  0  0  0  0  0  0  0  0
    1.5564   -1.2718    1.5642 H   0  0  0  0  0  0  0  0  0  0  0  0
   -1.2269    0.8807    0.4021 C   0  0  0  0  0  0  0  0  0  0  0  0
   -2.0172    1.3584   -0.4044 O   0  0  0  0  0  0  0  0  0  0  0  0
   -0.6153    1.7062    1.3275 N   0  0  0  0  0  0  0  0  0  0  0  0
   -0.0001    1.2752    2.0116 H   0  0  0  0  0  0  0  0  0  0  0  0
   -0.8531    3.1426    1.3983 C   0  0  0  0  0  0  0  0  0  0  0  0
   -1.9116    3.3471    1.5910 H   0  0  0  0  0  0  0  0  0  0  0  0
   -0.2627    3.5843    2.2068 H   0  0  0  0  0  0  0  0  0  0  0  0
   -0.5664    3.6246    0.4577 H   0  0  0  0  0  0  0  0  0  0  0  0
  1  2  1  0  0  0  0
  2  3  1  0  0  0  0
  2  4  1  0  0  0  0
  2  5  1  0  0  0  0
  5  6  2  0  0  0  0
  5  7  1  0  0  0  0
  7  8  1  0  0  0  0
  7  9  1  0  0  0  0
  9 10  1  0  0  0  0
  9 11  1  0  0  0  0
  9 26  1  0  0  0  0
 11 12  1  0  0  0  0
 11 13  1  0  0  0  0
 11 14  1  0  0  0  0
 14 15  2  0  0  0  0
 14 24  1  0  0  0  0
 15 16  1  0  0  0  0
 15 17  1  0  0  0  0
 17 18  1  0  0  0  0
 17 19  2  0  0  0  0
 19 20  1  0  0  0  0
 19 22  1  0  0  0  0
 20 21  1  0  0  0  0
 22 23  1  0  0  0  0
 22 24  2  0  0  0  0
 24 25  1  0  0  0  0
 26 27  2  0  0  0  0
 26 28  1  0  0  0  0
 28 29  1  0  0  0  0
 28 30  1  0  0  0  0
 30 31  1  0  0  0  0
 30 32  1  0  0  0  0
 30 33  1  0  0  0  0
M  END
$$$$

  -OEChem-04042216043D

 33 33  0     1  0  0  0  0  0999 V2000
   -4.0666   -3.9495    1.4657 H   0  0  0  0  0  0  0  0  0  0  0  0
   -3.9482   -3.0834    0.8086 C   0  0  0  0  0  0  0  0  0  0  0  0
   -4.7369   -2.3608    1.0314 H   0  0  0  0  0  0  0  0  0  0  0  0
   -4.0473   -3.4128   -0.2285 H   0  0  0  0  0  0  0  0  0  0  0  0
   -2.5875   -2.4473    1.0225 C   0  0  0  0  0  0  0  0  0  0  0  0
   -1.8408   -2.8807    1.8860 O   0  0  0  0  0  0  0  0  0  0  0  0
   -2.2138   -1.3594    0.2610 N   0  0  0  0  0  0  0  0  0  0  0  0
   -2.9077   -0.9614   -0.3699 H   0  0  0  0  0  0  0  0  0  0  0  0
   -0.9513   -0.6235    0.4245 C   0  0  1  0  0  0  0  0  0  0  0  0
   -0.5186   -0.8292    1.4020 H   0  0  0  0  0  0  0  0  0  0  0  0
    0.0132   -0.9903   -0.7328 C   0  0  0  0  0  0  0  0  0  0  0  0
   -0.5743   -1.4151   -1.5535 H   0  0  0  0  0  0  0  0  0  0  0  0
    0.4605   -0.0681   -1.1196 H   0  0  0  0  0  0  0  0  0  0  0  0
    1.1746   -1.9272   -0.4291 C   0  0  0  0  0  0  0  0  0  0  0  0
    1.8335   -2.4992   -1.5306 C   0  0  0  0  0  0  0  0  0  0  0  0
    1.5012   -2.2657   -2.5381 H   0  0  0  0  0  0  0  0  0  0  0  0
    2.9175   -3.3673   -1.3587 C   0  0  0  0  0  0  0  0  0  0  0  0
    3.4049   -3.7915   -2.2296 H   0  0  0  0  0  0  0  0  0  0  0  0
    3.3641   -3.6826   -0.0765 C   0  0  0  0  0  0  0  0  0  0  0  0
    4.4190   -4.5295    0.1060 O   0  0  0  0  0  0  0  0  0  0  0  0
    4.7291   -4.8621   -0.7501 H   0  0  0  0  0  0  0  0  0  0  0  0
    2.7235   -3.1271    1.0267 C   0  0  0  0  0  0  0  0  0  0  0  0
    3.0718   -3.3829    2.0219 H   0  0  0  0  0  0  0  0  0  0  0  0
    1.6396   -2.2571    0.8611 C   0  0  0  0  0  0  0  0  0  0  0  0
    1.1849   -1.8702    1.7645 H   0  0  0  0  0  0  0  0  0  0  0  0
   -1.2372    0.8909    0.3903 C   0  0  0  0  0  0  0  0  0  0  0  0
   -2.0134    1.3471   -0.4423 O   0  0  0  0  0  0  0  0  0  0  0  0
   -0.6540    1.7387    1.3140 N   0  0  0  0  0  0  0  0  0  0  0  0
   -0.0351    1.3272    2.0070 H   0  0  0  0  0  0  0  0  0  0  0  0
   -0.8982    3.1756    1.3502 C   0  0  0  0  0  0  0  0  0  0  0  0
   -1.9614    3.3802    1.5144 H   0  0  0  0  0  0  0  0  0  0  0  0
   -0.3284    3.6354    2.1633 H   0  0  0  0  0  0  0  0  0  0  0  0
   -0.5909    3.6403    0.4074 H   0  0  0  0  0  0  0  0  0  0  0  0
  1  2  1  0  0  0  0
  2  3  1  0  0  0  0
  2  4  1  0  0  0  0
  2  5  1  0  0  0  0
  5  6  2  0  0  0  0
  5  7  1  0  0  0  0
  7  8  1  0  0  0  0
  7  9  1  0  0  0  0
  9 10  1  0  0  0  0
  9 11  1  0  0  0  0
  9 26  1  0  0  0  0
 11 12  1  0  0  0  0
 11 13  1  0  0  0  0
 11 14  1  0  0  0  0
 14 15  2  0  0  0  0
 14 24  1  0  0  0  0
 15 16  1  0  0  0  0
 15 17  1  0  0  0  0
 17 18  1  0  0  0  0
 17 19  2  0  0  0  0
 19 20  1  0  0  0  0
 19 22  1  0  0  0  0
 20 21  1  0  0  0  0
 22 23  1  0  0  0  0
 22 24  2  0  0  0  0
 24 25  1  0  0  0  0
 26 27  2  0  0  0  0
 26 28  1  0  0  0  0
 28 29  1  0  0  0  0
 28 30  1  0  0  0  0
 30 31  1  0  0  0  0
 30 32  1  0  0  0  0
 30 33  1  0  0  0  0
M  END
$$$$

  -OEChem-04042216043D

 33 33  0     1  0  0  0  0  0999 V2000
   -4.1449   -3.9471    1.4375 H   0  0  0  0  0  0  0  0  0  0  0  0
   -4.0002   -3.0697    0.8011 C   0  0  0  0  0  0  0  0  0  0  0  0
   -4.8150   -2.3643    0.9808 H   0  0  0  0  0  0  0  0  0  0  0  0
   -4.0252   -3.3867   -0.2442 H   0  0  0  0  0  0  0  0  0  0  0  0
   -2.6688   -2.4121    1.1117 C   0  0  0  0  0  0  0  0  0  0  0  0
   -2.0230   -2.7783    2.0802 O   0  0  0  0  0  0  0  0  0  0  0  0
   -2.2344   -1.3561    0.3384 N   0  0  0  0  0  0  0  0  0  0  0  0
   -2.8667   -1.0180   -0.3849 H   0  0  0  0  0  0  0  0  0  0  0  0
   -0.9504   -0.6499    0.4827 C   0  0  1  0  0  0  0  0  0  0  0  0
   -0.4829   -0.8552    1.4489 H   0  0  0  0  0  0  0  0  0  0  0  0
   -0.0098   -1.0310   -0.6869 C   0  0  0  0  0  0  0  0  0  0  0  0
   -0.6157   -1.1807   -1.5870 H   0  0  0  0  0  0  0  0  0  0  0  0
    0.6459   -0.1765   -0.8873 H   0  0  0  0  0  0  0  0  0  0  0  0
    0.9066   -2.2311   -0.5114 C   0  0  0  0  0  0  0  0  0  0  0  0
    1.7504   -2.5576   -1.5861 C   0  0  0  0  0  0  0  0  0  0  0  0
    1.7175   -1.9648   -2.4958 H   0  0  0  0  0  0  0  0  0  0  0  0
    2.6371   -3.6377   -1.5085 C   0  0  0  0  0  0  0  0  0  0  0  0
    3.2758   -3.8665   -2.3546 H   0  0  0  0  0  0  0  0  0  0  0  0
    2.6966   -4.4118   -0.3500 C   0  0  0  0  0  0  0  0  0  0  0  0
    3.5574   -5.4675   -0.2604 O   0  0  0  0  0  0  0  0  0  0  0  0
    4.0569   -5.5595   -1.0859 H   0  0  0  0  0  0  0  0  0  0  0  0
    1.8692   -4.0998    0.7248 C   0  0  0  0  0  0  0  0  0  0  0  0
    1.9176   -4.7052    1.6241 H   0  0  0  0  0  0  0  0  0  0  0  0
    0.9824   -3.0199    0.6521 C   0  0  0  0  0  0  0  0  0  0  0  0
    0.3680   -2.8232    1.5215 H   0  0  0  0  0  0  0  0  0  0  0  0
   -1.2019    0.8689    0.4063 C   0  0  0  0  0  0  0  0  0  0  0  0
   -1.9414    1.3250   -0.4592 O   0  0  0  0  0  0  0  0  0  0  0  0
   -0.5985    1.7258    1.3080 N   0  0  0  0  0  0  0  0  0  0  0  0
   -0.0248    1.3131    2.0384 H   0  0  0  0  0  0  0  0  0  0  0  0
   -0.8059    3.1687    1.3043 C   0  0  0  0  0  0  0  0  0  0  0  0
   -1.8629    3.4046    1.4656 H   0  0  0  0  0  0  0  0  0  0  0  0
   -0.2213    3.6365    2.1022 H   0  0  0  0  0  0  0  0  0  0  0  0
   -0.4904    3.5986    0.3479 H   0  0  0  0  0  0  0  0  0  0  0  0
  1  2  1  0  0  0  0
  2  3  1  0  0  0  0
  2  4  1  0  0  0  0
  2  5  1  0  0  0  0
  5  6  2  0  0  0  0
  5  7  1  0  0  0  0
  7  8  1  0  0  0  0
  7  9  1  0  0  0  0
  9 10  1  0  0  0  0
  9 11  1  0  0  0  0
  9 26  1  0  0  0  0
 11 12  1  0  0  0  0
 11 13  1  0  0  0  0
 11 14  1  0  0  0  0
 14 15  2  0  0  0  0
 14 24  1  0  0  0  0
 15 16  1  0  0  0  0
 15 17  1  0  0  0  0
 17 18  1  0  0  0  0
 17 19  2  0  0  0  0
 19 20  1  0  0  0  0
 19 22  1  0  0  0  0
 20 21  1  0  0  0  0
 22 23  1  0  0  0  0
 22 24  2  0  0  0  0
 24 25  1  0  0  0  0
 26 27  2  0  0  0  0
 26 28  1  0  0  0  0
 28 29  1  0  0  0  0
 28 30  1  0  0  0  0
 30 31  1  0  0  0  0
 30 32  1  0  0  0  0
 30 33  1  0  0  0  0
M  END
$$$$

  -OEChem-04042216043D

 33 33  0     1  0  0  0  0  0999 V2000
   -4.1931   -3.9439    1.4174 H   0  0  0  0  0  0  0  0  0  0  0  0
   -4.0281   -3.0713    0.7794 C   0  0  0  0  0  0  0  0  0  0  0  0
   -4.8601   -2.3749    0.9097 H   0  0  0  0  0  0  0  0  0  0  0  0
   -3.9965   -3.3995   -0.2623 H   0  0  0  0  0  0  0  0  0  0  0  0
   -2.7231   -2.3922    1.1498 C   0  0  0  0  0  0  0  0  0  0  0  0
   -2.1457   -2.7087    2.1770 O   0  0  0  0  0  0  0  0  0  0  0  0
   -2.2558   -1.3511    0.3759 N   0  0  0  0  0  0  0  0  0  0  0  0
   -2.8512   -1.0482   -0.3926 H   0  0  0  0  0  0  0  0  0  0  0  0
   -0.9595   -0.6628    0.5133 C   0  0  1  0  0  0  0  0  0  0  0  0
   -0.4840   -0.8852    1.4738 H   0  0  0  0  0  0  0  0  0  0  0  0
   -0.0211   -1.0391   -0.6636 C   0  0  0  0  0  0  0  0  0  0  0  0
   -0.6290   -1.1770   -1.5639 H   0  0  0  0  0  0  0  0  0  0  0  0
    0.6344   -0.1821   -0.8562 H   0  0  0  0  0  0  0  0  0  0  0  0
    0.8930   -2.2435   -0.5136 C   0  0  0  0  0  0  0  0  0  0  0  0
    1.9449   -2.3761   -1.4358 C   0  0  0  0  0  0  0  0  0  0  0  0
    2.0662   -1.6399   -2.2252 H   0  0  0  0  0  0  0  0  0  0  0  0
    2.8421   -3.4478   -1.3614 C   0  0  0  0  0  0  0  0  0  0  0  0
    3.6424   -3.5259   -2.0889 H   0  0  0  0  0  0  0  0  0  0  0  0
    2.7055   -4.4057   -0.3571 C   0  0  0  0  0  0  0  0  0  0  0  0
    3.5746   -5.4550   -0.2714 O   0  0  0  0  0  0  0  0  0  0  0  0
    4.2305   -5.4019   -0.9832 H   0  0  0  0  0  0  0  0  0  0  0  0
    1.6732   -4.2837    0.5686 C   0  0  0  0  0  0  0  0  0  0  0  0
    1.5729   -5.0274    1.3527 H   0  0  0  0  0  0  0  0  0  0  0  0
    0.7750   -3.2132    0.4961 C   0  0  0  0  0  0  0  0  0  0  0  0
    0.0009   -3.1574    1.2470 H   0  0  0  0  0  0  0  0  0  0  0  0
   -1.1951    0.8583    0.4226 C   0  0  0  0  0  0  0  0  0  0  0  0
   -1.9173    1.3158   -0.4568 O   0  0  0  0  0  0  0  0  0  0  0  0
   -0.5819    1.7169    1.3160 N   0  0  0  0  0  0  0  0  0  0  0  0
   -0.0304    1.3033    2.0629 H   0  0  0  0  0  0  0  0  0  0  0  0
   -0.7704    3.1622    1.2949 C   0  0  0  0  0  0  0  0  0  0  0  0
   -1.8225    3.4141    1.4646 H   0  0  0  0  0  0  0  0  0  0  0  0
   -0.1706    3.6332    2.0795 H   0  0  0  0  0  0  0  0  0  0  0  0
   -0.4599    3.5751    0.3293 H   0  0  0  0  0  0  0  0  0  0  0  0
  1  2  1  0  0  0  0
  2  3  1  0  0  0  0
  2  4  1  0  0  0  0
  2  5  1  0  0  0  0
  5  6  2  0  0  0  0
  5  7  1  0  0  0  0
  7  8  1  0  0  0  0
  7  9  1  0  0  0  0
  9 10  1  0  0  0  0
  9 11  1  0  0  0  0
  9 26  1  0  0  0  0
 11 12  1  0  0  0  0
 11 13  1  0  0  0  0
 11 14  1  0  0  0  0
 14 15  2  0  0  0  0
 14 24  1  0  0  0  0
 15 16  1  0  0  0  0
 15 17  1  0  0  0  0
 17 18  1  0  0  0  0
 17 19  2  0  0  0  0
 19 20  1  0  0  0  0
 19 22  1  0  0  0  0
 20 21  1  0  0  0  0
 22 23  1  0  0  0  0
 22 24  2  0  0  0  0
 24 25  1  0  0  0  0
 26 27  2  0  0  0  0
 26 28  1  0  0  0  0
 28 29  1  0  0  0  0
 28 30  1  0  0  0  0
 30 31  1  0  0  0  0
 30 32  1  0  0  0  0
 30 33  1  0  0  0  0
M  END
$$$$

  -OEChem-04042216043D

 33 33  0     1  0  0  0  0  0999 V2000
   -4.2355   -3.8908    1.4975 H   0  0  0  0  0  0  0  0  0  0  0  0
   -4.0504   -3.0497    0.8234 C   0  0  0  0  0  0  0  0  0  0  0  0
   -4.8664   -2.3299    0.9246 H   0  0  0  0  0  0  0  0  0  0  0  0
   -4.0263   -3.4217   -0.2037 H   0  0  0  0  0  0  0  0  0  0  0  0
   -2.7298   -2.3863    1.1653 C   0  0  0  0  0  0  0  0  0  0  0  0
   -2.1273   -2.7173    2.1740 O   0  0  0  0  0  0  0  0  0  0  0  0
   -2.2644   -1.3498    0.3839 N   0  0  0  0  0  0  0  0  0  0  0  0
   -2.8740   -1.0295   -0.3666 H   0  0  0  0  0  0  0  0  0  0  0  0
   -0.9604   -0.6724    0.5070 C   0  0  1  0  0  0  0  0  0  0  0  0
   -0.4799   -0.9034    1.4633 H   0  0  0  0  0  0  0  0  0  0  0  0
   -0.0098   -1.0303   -0.6679 C   0  0  0  0  0  0  0  0  0  0  0  0
   -0.6126   -1.1722   -1.5708 H   0  0  0  0  0  0  0  0  0  0  0  0
    0.6341   -0.1637   -0.8555 H   0  0  0  0  0  0  0  0  0  0  0  0
    0.9078   -2.2324   -0.5167 C   0  0  0  0  0  0  0  0  0  0  0  0
    2.1418   -2.2074   -1.1908 C   0  0  0  0  0  0  0  0  0  0  0  0
    2.4186   -1.3409   -1.7844 H   0  0  0  0  0  0  0  0  0  0  0  0
    3.0319   -3.2849   -1.1127 C   0  0  0  0  0  0  0  0  0  0  0  0
    3.9789   -3.2348   -1.6387 H   0  0  0  0  0  0  0  0  0  0  0  0
    2.6987   -4.4146   -0.3660 C   0  0  0  0  0  0  0  0  0  0  0  0
    3.5573   -5.4725   -0.2803 O   0  0  0  0  0  0  0  0  0  0  0  0
    4.3679   -5.2836   -0.7770 H   0  0  0  0  0  0  0  0  0  0  0  0
    1.4732   -4.4616    0.2921 C   0  0  0  0  0  0  0  0  0  0  0  0
    1.2128   -5.3448    0.8665 H   0  0  0  0  0  0  0  0  0  0  0  0
    0.5825   -3.3853    0.2149 C   0  0  0  0  0  0  0  0  0  0  0  0
   -0.3596   -3.4764    0.7318 H   0  0  0  0  0  0  0  0  0  0  0  0
   -1.1933    0.8495    0.4178 C   0  0  0  0  0  0  0  0  0  0  0  0
   -1.9263    1.3094   -0.4515 O   0  0  0  0  0  0  0  0  0  0  0  0
   -0.5671    1.7054    1.3047 N   0  0  0  0  0  0  0  0  0  0  0  0
   -0.0166    1.2882    2.0504 H   0  0  0  0  0  0  0  0  0  0  0  0
   -0.7700    3.1486    1.3013 C   0  0  0  0  0  0  0  0  0  0  0  0
   -1.8224    3.3873    1.4868 H   0  0  0  0  0  0  0  0  0  0  0  0
   -0.1656    3.6179    2.0833 H   0  0  0  0  0  0  0  0  0  0  0  0
   -0.4759    3.5744    0.3363 H   0  0  0  0  0  0  0  0  0  0  0  0
  1  2  1  0  0  0  0
  2  3  1  0  0  0  0
  2  4  1  0  0  0  0
  2  5  1  0  0  0  0
  5  6  2  0  0  0  0
  5  7  1  0  0  0  0
  7  8  1  0  0  0  0
  7  9  1  0  0  0  0
  9 10  1  0  0  0  0
  9 11  1  0  0  0  0
  9 26  1  0  0  0  0
 11 12  1  0  0  0  0
 11 13  1  0  0  0  0
 11 14  1  0  0  0  0
 14 15  2  0  0  0  0
 14 24  1  0  0  0  0
 15 16  1  0  0  0  0
 15 17  1  0  0  0  0
 17 18  1  0  0  0  0
 17 19  2  0  0  0  0
 19 20  1  0  0  0  0
 19 22  1  0  0  0  0
 20 21  1  0  0  0  0
 22 23  1  0  0  0  0
 22 24  2  0  0  0  0
 24 25  1  0  0  0  0
 26 27  2  0  0  0  0
 26 28  1  0  0  0  0
 28 29  1  0  0  0  0
 28 30  1  0  0  0  0
 30 31  1  0  0  0  0
 30 32  1  0  0  0  0
 30 33  1  0  0  0  0
M  END
$$$$

  -OEChem-04042216043D

 33 33  0     1  0  0  0  0  0999 V2000
   -4.1913   -3.9163    1.5237 H   0  0  0  0  0  0  0  0  0  0  0  0
   -4.0430   -3.0492    0.8741 C   0  0  0  0  0  0  0  0  0  0  0  0
   -4.8316   -2.3197    1.0732 H   0  0  0  0  0  0  0  0  0  0  0  0
   -4.1110   -3.3744   -0.1668 H   0  0  0  0  0  0  0  0  0  0  0  0
   -2.6847   -2.4265    1.1352 C   0  0  0  0  0  0  0  0  0  0  0  0
   -1.9964   -2.8328    2.0575 O   0  0  0  0  0  0  0  0  0  0  0  0
   -2.2595   -1.3686    0.3593 N   0  0  0  0  0  0  0  0  0  0  0  0
   -2.9219   -0.9941   -0.3179 H   0  0  0  0  0  0  0  0  0  0  0  0
   -0.9615   -0.6787    0.4646 C   0  0  1  0  0  0  0  0  0  0  0  0
   -0.4671   -0.9191    1.4116 H   0  0  0  0  0  0  0  0  0  0  0  0
   -0.0134   -1.0130   -0.7165 C   0  0  0  0  0  0  0  0  0  0  0  0
   -0.6156   -1.1733   -1.6166 H   0  0  0  0  0  0  0  0  0  0  0  0
    0.6156   -0.1380   -0.9145 H   0  0  0  0  0  0  0  0  0  0  0  0
    0.9039   -2.2084   -0.5320 C   0  0  0  0  0  0  0  0  0  0  0  0
    2.2556   -2.0866   -0.8996 C   0  0  0  0  0  0  0  0  0  0  0  0
    2.6382   -1.1393   -1.2683 H   0  0  0  0  0  0  0  0  0  0  0  0
    3.1331   -3.1717   -0.7921 C   0  0  0  0  0  0  0  0  0  0  0  0
    4.1739   -3.0453   -1.0692 H   0  0  0  0  0  0  0  0  0  0  0  0
    2.6684   -4.4056   -0.3370 C   0  0  0  0  0  0  0  0  0  0  0  0
    3.5132   -5.4726   -0.2317 O   0  0  0  0  0  0  0  0  0  0  0  0
    4.4079   -5.2159   -0.5019 H   0  0  0  0  0  0  0  0  0  0  0  0
    1.3255   -4.5492   -0.0007 C   0  0  0  0  0  0  0  0  0  0  0  0
    0.9641   -5.5137    0.3407 H   0  0  0  0  0  0  0  0  0  0  0  0
    0.4466   -3.4659   -0.1076 C   0  0  0  0  0  0  0  0  0  0  0  0
   -0.5947   -3.6299    0.1312 H   0  0  0  0  0  0  0  0  0  0  0  0
   -1.2081    0.8420    0.4120 C   0  0  0  0  0  0  0  0  0  0  0  0
   -1.9746    1.3116   -0.4221 O   0  0  0  0  0  0  0  0  0  0  0  0
   -0.5669    1.6850    1.3007 N   0  0  0  0  0  0  0  0  0  0  0  0
    0.0203    1.2585    2.0123 H   0  0  0  0  0  0  0  0  0  0  0  0
   -0.7616    3.1294    1.3177 C   0  0  0  0  0  0  0  0  0  0  0  0
   -1.8099    3.3730    1.5195 H   0  0  0  0  0  0  0  0  0  0  0  0
   -0.1440    3.5849    2.0977 H   0  0  0  0  0  0  0  0  0  0  0  0
   -0.4773    3.5653    0.3542 H   0  0  0  0  0  0  0  0  0  0  0  0
  1  2  1  0  0  0  0
  2  3  1  0  0  0  0
  2  4  1  0  0  0  0
  2  5  1  0  0  0  0
  5  6  2  0  0  0  0
  5  7  1  0  0  0  0
  7  8  1  0  0  0  0
  7  9  1  0  0  0  0
  9 10  1  0  0  0  0
  9 11  1  0  0  0  0
  9 26  1  0  0  0  0
 11 12  1  0  0  0  0
 11 13  1  0  0  0  0
 11 14  1  0  0  0  0
 14 15  2  0  0  0  0
 14 24  1  0  0  0  0
 15 16  1  0  0  0  0
 15 17  1  0  0  0  0
 17 18  1  0  0  0  0
 17 19  2  0  0  0  0
 19 20  1  0  0  0  0
 19 22  1  0  0  0  0
 20 21  1  0  0  0  0
 22 23  1  0  0  0  0
 22 24  2  0  0  0  0
 24 25  1  0  0  0  0
 26 27  2  0  0  0  0
 26 28  1  0  0  0  0
 28 29  1  0  0  0  0
 28 30  1  0  0  0  0
 30 31  1  0  0  0  0
 30 32  1  0  0  0  0
 30 33  1  0  0  0  0
M  END
$$$$

  -OEChem-04042216043D

 33 33  0     1  0  0  0  0  0999 V2000
   -4.0974   -3.9569    1.5346 H   0  0  0  0  0  0  0  0  0  0  0  0
   -3.9817   -3.0839    0.8862 C   0  0  0  0  0  0  0  0  0  0  0  0
   -4.7570   -2.3551    1.1341 H   0  0  0  0  0  0  0  0  0  0  0  0
   -4.1053   -3.3990   -0.1527 H   0  0  0  0  0  0  0  0  0  0  0  0
   -2.6099   -2.4663    1.0810 C   0  0  0  0  0  0  0  0  0  0  0  0
   -1.8573   -2.9162    1.9294 O   0  0  0  0  0  0  0  0  0  0  0  0
   -2.2355   -1.3800    0.3177 N   0  0  0  0  0  0  0  0  0  0  0  0
   -2.9401   -0.9762   -0.2976 H   0  0  0  0  0  0  0  0  0  0  0  0
   -0.9480   -0.6703    0.4080 C   0  0  1  0  0  0  0  0  0  0  0  0
   -0.4310   -0.9243    1.3396 H   0  0  0  0  0  0  0  0  0  0  0  0
   -0.0281   -0.9912   -0.7939 C   0  0  0  0  0  0  0  0  0  0  0  0
   -0.6430   -1.1642   -1.6833 H   0  0  0  0  0  0  0  0  0  0  0  0
    0.5958   -0.1175   -1.0113 H   0  0  0  0  0  0  0  0  0  0  0  0
    0.8790   -2.1849   -0.5779 C   0  0  0  0  0  0  0  0  0  0  0  0
    2.2732   -2.0202   -0.6354 C   0  0  0  0  0  0  0  0  0  0  0  0
    2.7016   -1.0352   -0.7952 H   0  0  0  0  0  0  0  0  0  0  0  0
    3.1305   -3.1161   -0.4813 C   0  0  0  0  0  0  0  0  0  0  0  0
    4.2034   -2.9633   -0.5167 H   0  0  0  0  0  0  0  0  0  0  0  0
    2.6059   -4.3950   -0.2880 C   0  0  0  0  0  0  0  0  0  0  0  0
    3.4324   -5.4712   -0.1394 O   0  0  0  0  0  0  0  0  0  0  0  0
    4.3580   -5.1849   -0.1642 H   0  0  0  0  0  0  0  0  0  0  0  0
    1.2252   -4.5732   -0.2566 C   0  0  0  0  0  0  0  0  0  0  0  0
    0.8216   -5.5702   -0.1136 H   0  0  0  0  0  0  0  0  0  0  0  0
    0.3659   -3.4798   -0.4092 C   0  0  0  0  0  0  0  0  0  0  0  0
   -0.7038   -3.6520   -0.4016 H   0  0  0  0  0  0  0  0  0  0  0  0
   -1.2072    0.8481    0.4036 C   0  0  0  0  0  0  0  0  0  0  0  0
   -2.0072    1.3320   -0.3896 O   0  0  0  0  0  0  0  0  0  0  0  0
   -0.5497    1.6719    1.2982 N   0  0  0  0  0  0  0  0  0  0  0  0
    0.0642    1.2319    1.9784 H   0  0  0  0  0  0  0  0  0  0  0  0
   -0.7624    3.1124    1.3658 C   0  0  0  0  0  0  0  0  0  0  0  0
   -1.8119    3.3356    1.5853 H   0  0  0  0  0  0  0  0  0  0  0  0
   -0.1435    3.5496    2.1553 H   0  0  0  0  0  0  0  0  0  0  0  0
   -0.4930    3.5840    0.4149 H   0  0  0  0  0  0  0  0  0  0  0  0
  1  2  1  0  0  0  0
  2  3  1  0  0  0  0
  2  4  1  0  0  0  0
  2  5  1  0  0  0  0
  5  6  2  0  0  0  0
  5  7  1  0  0  0  0
  7  8  1  0  0  0  0
  7  9  1  0  0  0  0
  9 10  1  0  0  0  0
  9 11  1  0  0  0  0
  9 26  1  0  0  0  0
 11 12  1  0  0  0  0
 11 13  1  0  0  0  0
 11 14  1  0  0  0  0
 14 15  2  0  0  0  0
 14 24  1  0  0  0  0
 15 16  1  0  0  0  0
 15 17  1  0  0  0  0
 17 18  1  0  0  0  0
 17 19  2  0  0  0  0
 19 20  1  0  0  0  0
 19 22  1  0  0  0  0
 20 21  1  0  0  0  0
 22 23  1  0  0  0  0
 22 24  2  0  0  0  0
 24 25  1  0  0  0  0
 26 27  2  0  0  0  0
 26 28  1  0  0  0  0
 28 29  1  0  0  0  0
 28 30  1  0  0  0  0
 30 31  1  0  0  0  0
 30 32  1  0  0  0  0
 30 33  1  0  0  0  0
M  END
$$$$

  -OEChem-04042216043D

 33 33  0     1  0  0  0  0  0999 V2000
   -4.0055   -4.0021    1.5074 H   0  0  0  0  0  0  0  0  0  0  0  0
   -3.9130   -3.1222    0.8645 C   0  0  0  0  0  0  0  0  0  0  0  0
   -4.6917   -2.4048    1.1348 H   0  0  0  0  0  0  0  0  0  0  0  0
   -4.0540   -3.4294   -0.1745 H   0  0  0  0  0  0  0  0  0  0  0  0
   -2.5443   -2.4907    1.0364 C   0  0  0  0  0  0  0  0  0  0  0  0
   -1.7634   -2.9487    1.8542 O   0  0  0  0  0  0  0  0  0  0  0  0
   -2.2055   -1.3842    0.2856 N   0  0  0  0  0  0  0  0  0  0  0  0
   -2.9302   -0.9766   -0.3028 H   0  0  0  0  0  0  0  0  0  0  0  0
   -0.9277   -0.6582    0.3704 C   0  0  1  0  0  0  0  0  0  0  0  0
   -0.3922   -0.9218    1.2888 H   0  0  0  0  0  0  0  0  0  0  0  0
   -0.0412   -0.9750   -0.8525 C   0  0  0  0  0  0  0  0  0  0  0  0
   -0.6713   -1.1488   -1.7312 H   0  0  0  0  0  0  0  0  0  0  0  0
    0.5870   -0.1080   -1.0839 H   0  0  0  0  0  0  0  0  0  0  0  0
    0.8555   -2.1699   -0.6215 C   0  0  0  0  0  0  0  0  0  0  0  0
    2.2270   -1.9917   -0.3797 C   0  0  0  0  0  0  0  0  0  0  0  0
    2.6486   -0.9918   -0.3390 H   0  0  0  0  0  0  0  0  0  0  0  0
    3.0653   -3.0970   -0.1890 C   0  0  0  0  0  0  0  0  0  0  0  0
    4.1213   -2.9398    0.0001 H   0  0  0  0  0  0  0  0  0  0  0  0
    2.5441   -4.3913   -0.2461 C   0  0  0  0  0  0  0  0  0  0  0  0
    3.3525   -5.4765   -0.0651 O   0  0  0  0  0  0  0  0  0  0  0  0
    4.2554   -5.1880    0.1367 H   0  0  0  0  0  0  0  0  0  0  0  0
    1.1858   -4.5756   -0.4949 C   0  0  0  0  0  0  0  0  0  0  0  0
    0.7869   -5.5837   -0.5369 H   0  0  0  0  0  0  0  0  0  0  0  0
    0.3444   -3.4741   -0.6848 C   0  0  0  0  0  0  0  0  0  0  0  0
   -0.7103   -3.6380   -0.8794 H   0  0  0  0  0  0  0  0  0  0  0  0
   -1.1970    0.8577    0.3999 C   0  0  0  0  0  0  0  0  0  0  0  0
   -2.0146    1.3494   -0.3700 O   0  0  0  0  0  0  0  0  0  0  0  0
   -0.5325    1.6701    1.3000 N   0  0  0  0  0  0  0  0  0  0  0  0
    0.0859    1.2208    1.9699 H   0  0  0  0  0  0  0  0  0  0  0  0
   -0.7685    3.1044    1.4100 C   0  0  0  0  0  0  0  0  0  0  0  0
   -1.8167    3.3035    1.6570 H   0  0  0  0  0  0  0  0  0  0  0  0
   -0.1408    3.5312    2.1982 H   0  0  0  0  0  0  0  0  0  0  0  0
   -0.5270    3.6053    0.4666 H   0  0  0  0  0  0  0  0  0  0  0  0
  1  2  1  0  0  0  0
  2  3  1  0  0  0  0
  2  4  1  0  0  0  0
  2  5  1  0  0  0  0
  5  6  2  0  0  0  0
  5  7  1  0  0  0  0
  7  8  1  0  0  0  0
  7  9  1  0  0  0  0
  9 10  1  0  0  0  0
  9 11  1  0  0  0  0
  9 26  1  0  0  0  0
 11 12  1  0  0  0  0
 11 13  1  0  0  0  0
 11 14  1  0  0  0  0
 14 15  2  0  0  0  0
 14 24  1  0  0  0  0
 15 16  1  0  0  0  0
 15 17  1  0  0  0  0
 17 18  1  0  0  0  0
 17 19  2  0  0  0  0
 19 20  1  0  0  0  0
 19 22  1  0  0  0  0
 20 21  1  0  0  0  0
 22 23  1  0  0  0  0
 22 24  2  0  0  0  0
 24 25  1  0  0  0  0
 26 27  2  0  0  0  0
 26 28  1  0  0  0  0
 28 29  1  0  0  0  0
 28 30  1  0  0  0  0
 30 31  1  0  0  0  0
 30 32  1  0  0  0  0
 30 33  1  0  0  0  0
M  END
$$$$

  -OEChem-04042216043D

 33 33  0     1  0  0  0  0  0999 V2000
   -3.9333   -4.0383    1.4769 H   0  0  0  0  0  0  0  0  0  0  0  0
   -3.8574   -3.1534    0.8388 C   0  0  0  0  0  0  0  0  0  0  0  0
   -4.6457   -2.4493    1.1161 H   0  0  0  0  0  0  0  0  0  0  0  0
   -3.9977   -3.4565   -0.2015 H   0  0  0  0  0  0  0  0  0  0  0  0
   -2.4982   -2.5020    1.0090 C   0  0  0  0  0  0  0  0  0  0  0  0
   -1.7043   -2.9555    1.8171 O   0  0  0  0  0  0  0  0  0  0  0  0
   -2.1820   -1.3833    0.2666 N   0  0  0  0  0  0  0  0  0  0  0  0
   -2.9158   -0.9786   -0.3122 H   0  0  0  0  0  0  0  0  0  0  0  0
   -0.9108   -0.6478    0.3505 C   0  0  1  0  0  0  0  0  0  0  0  0
   -0.3633   -0.9171    1.2600 H   0  0  0  0  0  0  0  0  0  0  0  0
   -0.0494   -0.9625   -0.8878 C   0  0  0  0  0  0  0  0  0  0  0  0
   -0.6909   -1.1282   -1.7600 H   0  0  0  0  0  0  0  0  0  0  0  0
    0.5870   -0.1028   -1.1237 H   0  0  0  0  0  0  0  0  0  0  0  0
    0.8392   -2.1601   -0.6519 C   0  0  0  0  0  0  0  0  0  0  0  0
    2.1280   -1.9998   -0.1209 C   0  0  0  0  0  0  0  0  0  0  0  0
    2.4963   -1.0085    0.1251 H   0  0  0  0  0  0  0  0  0  0  0  0
    2.9500   -3.1130    0.0938 C   0  0  0  0  0  0  0  0  0  0  0  0
    3.9437   -2.9719    0.5043 H   0  0  0  0  0  0  0  0  0  0  0  0
    2.4920   -4.3948   -0.2192 C   0  0  0  0  0  0  0  0  0  0  0  0
    3.2866   -5.4863   -0.0160 O   0  0  0  0  0  0  0  0  0  0  0  0
    4.1240   -5.2159    0.3903 H   0  0  0  0  0  0  0  0  0  0  0  0
    1.2117   -4.5600   -0.7434 C   0  0  0  0  0  0  0  0  0  0  0  0
    0.8601   -5.5595   -0.9763 H   0  0  0  0  0  0  0  0  0  0  0  0
    0.3864   -3.4510   -0.9591 C   0  0  0  0  0  0  0  0  0  0  0  0
   -0.6116   -3.5969   -1.3603 H   0  0  0  0  0  0  0  0  0  0  0  0
   -1.1880    0.8659    0.4012 C   0  0  0  0  0  0  0  0  0  0  0  0
   -2.0126    1.3624   -0.3580 O   0  0  0  0  0  0  0  0  0  0  0  0
   -0.5216    1.6715    1.3059 N   0  0  0  0  0  0  0  0  0  0  0  0
    0.0975    1.2173    1.9716 H   0  0  0  0  0  0  0  0  0  0  0  0
   -0.7708    3.1018    1.4366 C   0  0  0  0  0  0  0  0  0  0  0  0
   -1.8179    3.2867    1.6990 H   0  0  0  0  0  0  0  0  0  0  0  0
   -0.1374    3.5256    2.2218 H   0  0  0  0  0  0  0  0  0  0  0  0
   -0.5469    3.6165    0.4963 H   0  0  0  0  0  0  0  0  0  0  0  0
  1  2  1  0  0  0  0
  2  3  1  0  0  0  0
  2  4  1  0  0  0  0
  2  5  1  0  0  0  0
  5  6  2  0  0  0  0
  5  7  1  0  0  0  0
  7  8  1  0  0  0  0
  7  9  1  0  0  0  0
  9 10  1  0  0  0  0
  9 11  1  0  0  0  0
  9 26  1  0  0  0  0
 11 12  1  0  0  0  0
 11 13  1  0  0  0  0
 11 14  1  0  0  0  0
 14 15  2  0  0  0  0
 14 24  1  0  0  0  0
 15 16  1  0  0  0  0
 15 17  1  0  0  0  0
 17 18  1  0  0  0  0
 17 19  2  0  0  0  0
 19 20  1  0  0  0  0
 19 22  1  0  0  0  0
 20 21  1  0  0  0  0
 22 23  1  0  0  0  0
 22 24  2  0  0  0  0
 24 25  1  0  0  0  0
 26 27  2  0  0  0  0
 26 28  1  0  0  0  0
 28 29  1  0  0  0  0
 28 30  1  0  0  0  0
 30 31  1  0  0  0  0
 30 32  1  0  0  0  0
 30 33  1  0  0  0  0
M  END
$$$$

  -OEChem-04042216043D

 33 33  0     1  0  0  0  0  0999 V2000
   -3.9080   -4.0506    1.4662 H   0  0  0  0  0  0  0  0  0  0  0  0
   -3.8364   -3.1658    0.8275 C   0  0  0  0  0  0  0  0  0  0  0  0
   -4.6349   -2.4702    1.0968 H   0  0  0  0  0  0  0  0  0  0  0  0
   -3.9642   -3.4722   -0.2134 H   0  0  0  0  0  0  0  0  0  0  0  0
   -2.4859   -2.4992    1.0081 C   0  0  0  0  0  0  0  0  0  0  0  0
   -1.6960   -2.9395    1.8279 O   0  0  0  0  0  0  0  0  0  0  0  0
   -2.1740   -1.3793    0.2656 N   0  0  0  0  0  0  0  0  0  0  0  0
   -2.9037   -0.9841   -0.3246 H   0  0  0  0  0  0  0  0  0  0  0  0
   -0.9047   -0.6420    0.3533 C   0  0  1  0  0  0  0  0  0  0  0  0
   -0.3587   -0.9098    1.2638 H   0  0  0  0  0  0  0  0  0  0  0  0
   -0.0501   -0.9595   -0.8891 C   0  0  0  0  0  0  0  0  0  0  0  0
   -0.6952   -1.1125   -1.7608 H   0  0  0  0  0  0  0  0  0  0  0  0
    0.5940   -0.1045   -1.1207 H   0  0  0  0  0  0  0  0  0  0  0  0
    0.8375   -2.1595   -0.6604 C   0  0  0  0  0  0  0  0  0  0  0  0
    1.9879   -2.0602    0.1370 C   0  0  0  0  0  0  0  0  0  0  0  0
    2.2547   -1.1113    0.5917 H   0  0  0  0  0  0  0  0  0  0  0  0
    2.8009   -3.1800    0.3515 C   0  0  0  0  0  0  0  0  0  0  0  0
    3.6871   -3.0860    0.9690 H   0  0  0  0  0  0  0  0  0  0  0  0
    2.4711   -4.4082   -0.2257 C   0  0  0  0  0  0  0  0  0  0  0  0
    3.2577   -5.5055   -0.0235 O   0  0  0  0  0  0  0  0  0  0  0  0
    3.9739   -5.2905    0.5932 H   0  0  0  0  0  0  0  0  0  0  0  0
    1.3271   -4.5140   -1.0140 C   0  0  0  0  0  0  0  0  0  0  0  0
    1.0742   -5.4736   -1.4526 H   0  0  0  0  0  0  0  0  0  0  0  0
    0.5109   -3.3983   -1.2306 C   0  0  0  0  0  0  0  0  0  0  0  0
   -0.3815   -3.5006   -1.8405 H   0  0  0  0  0  0  0  0  0  0  0  0
   -1.1853    0.8712    0.4046 C   0  0  0  0  0  0  0  0  0  0  0  0
   -2.0069    1.3664   -0.3588 O   0  0  0  0  0  0  0  0  0  0  0  0
   -0.5238    1.6789    1.3109 N   0  0  0  0  0  0  0  0  0  0  0  0
    0.0920    1.2268    1.9808 H   0  0  0  0  0  0  0  0  0  0  0  0
   -0.7770    3.1089    1.4395 C   0  0  0  0  0  0  0  0  0  0  0  0
   -1.8248    3.2915    1.7008 H   0  0  0  0  0  0  0  0  0  0  0  0
   -0.1454    3.5356    2.2247 H   0  0  0  0  0  0  0  0  0  0  0  0
   -0.5534    3.6238    0.4991 H   0  0  0  0  0  0  0  0  0  0  0  0
  1  2  1  0  0  0  0
  2  3  1  0  0  0  0
  2  4  1  0  0  0  0
  2  5  1  0  0  0  0
  5  6  2  0  0  0  0
  5  7  1  0  0  0  0
  7  8  1  0  0  0  0
  7  9  1  0  0  0  0
  9 10  1  0  0  0  0
  9 11  1  0  0  0  0
  9 26  1  0  0  0  0
 11 12  1  0  0  0  0
 11 13  1  0  0  0  0
 11 14  1  0  0  0  0
 14 15  2  0  0  0  0
 14 24  1  0  0  0  0
 15 16  1  0  0  0  0
 15 17  1  0  0  0  0
 17 18  1  0  0  0  0
 17 19  2  0  0  0  0
 19 20  1  0  0  0  0
 19 22  1  0  0  0  0
 20 21  1  0  0  0  0
 22 23  1  0  0  0  0
 22 24  2  0  0  0  0
 24 25  1  0  0  0  0
 26 27  2  0  0  0  0
 26 28  1  0  0  0  0
 28 29  1  0  0  0  0
 28 30  1  0  0  0  0
 30 31  1  0  0  0  0
 30 32  1  0  0  0  0
 30 33  1  0  0  0  0
M  END
$$$$

  -OEChem-04042216043D

 33 33  0     1  0  0  0  0  0999 V2000
   -3.9210   -4.0511    1.4670 H   0  0  0  0  0  0  0  0  0  0  0  0
   -3.8486   -3.1645    0.8309 C   0  0  0  0  0  0  0  0  0  0  0  0
   -4.6494   -2.4710    1.0991 H   0  0  0  0  0  0  0  0  0  0  0  0
   -3.9721   -3.4689   -0.2113 H   0  0  0  0  0  0  0  0  0  0  0  0
   -2.5003   -2.4948    1.0187 C   0  0  0  0  0  0  0  0  0  0  0  0
   -1.7172   -2.9256    1.8506 O   0  0  0  0  0  0  0  0  0  0  0  0
   -2.1840   -1.3785    0.2723 N   0  0  0  0  0  0  0  0  0  0  0  0
   -2.9069   -0.9912   -0.3314 H   0  0  0  0  0  0  0  0  0  0  0  0
   -0.9165   -0.6398    0.3695 C   0  0  1  0  0  0  0  0  0  0  0  0
   -0.3859   -0.8993    1.2904 H   0  0  0  0  0  0  0  0  0  0  0  0
   -0.0513   -0.9656   -0.8655 C   0  0  0  0  0  0  0  0  0  0  0  0
   -0.6948   -1.1142   -1.7391 H   0  0  0  0  0  0  0  0  0  0  0  0
    0.5955   -0.1114   -1.0926 H   0  0  0  0  0  0  0  0  0  0  0  0
    0.8453   -2.1643   -0.6486 C   0  0  0  0  0  0  0  0  0  0  0  0
    1.8112   -2.1781    0.3710 C   0  0  0  0  0  0  0  0  0  0  0  0
    1.9365   -1.3157    1.0177 H   0  0  0  0  0  0  0  0  0  0  0  0
    2.6226   -3.3019    0.5669 C   0  0  0  0  0  0  0  0  0  0  0  0
    3.3593   -3.2959    1.3625 H   0  0  0  0  0  0  0  0  0  0  0  0
    2.4810   -4.4219   -0.2547 C   0  0  0  0  0  0  0  0  0  0  0  0
    3.2657   -5.5236   -0.0711 O   0  0  0  0  0  0  0  0  0  0  0  0
    3.8199   -5.4073    0.7157 H   0  0  0  0  0  0  0  0  0  0  0  0
    1.5274   -4.4150   -1.2702 C   0  0  0  0  0  0  0  0  0  0  0  0
    1.4225   -5.2904   -1.9025 H   0  0  0  0  0  0  0  0  0  0  0  0
    0.7103   -3.2964   -1.4665 C   0  0  0  0  0  0  0  0  0  0  0  0
   -0.0335   -3.3160   -2.2573 H   0  0  0  0  0  0  0  0  0  0  0  0
   -1.1956    0.8741    0.4098 C   0  0  0  0  0  0  0  0  0  0  0  0
   -2.0081    1.3661   -0.3652 O   0  0  0  0  0  0  0  0  0  0  0  0
   -0.5423    1.6861    1.3188 N   0  0  0  0  0  0  0  0  0  0  0  0
    0.0774    1.2401    1.9892 H   0  0  0  0  0  0  0  0  0  0  0  0
   -0.7767    3.1214    1.4208 C   0  0  0  0  0  0  0  0  0  0  0  0
   -1.8318    3.3239    1.6336 H   0  0  0  0  0  0  0  0  0  0  0  0
   -0.1737    3.5474    2.2287 H   0  0  0  0  0  0  0  0  0  0  0  0
   -0.5032    3.6210    0.4854 H   0  0  0  0  0  0  0  0  0  0  0  0
  1  2  1  0  0  0  0
  2  3  1  0  0  0  0
  2  4  1  0  0  0  0
  2  5  1  0  0  0  0
  5  6  2  0  0  0  0
  5  7  1  0  0  0  0
  7  8  1  0  0  0  0
  7  9  1  0  0  0  0
  9 10  1  0  0  0  0
  9 11  1  0  0  0  0
  9 26  1  0  0  0  0
 11 12  1  0  0  0  0
 11 13  1  0  0  0  0
 11 14  1  0  0  0  0
 14 15  2  0  0  0  0
 14 24  1  0  0  0  0
 15 16  1  0  0  0  0
 15 17  1  0  0  0  0
 17 18  1  0  0  0  0
 17 19  2  0  0  0  0
 19 20  1  0  0  0  0
 19 22  1  0  0  0  0
 20 21  1  0  0  0  0
 22 23  1  0  0  0  0
 22 24  2  0  0  0  0
 24 25  1  0  0  0  0
 26 27  2  0  0  0  0
 26 28  1  0  0  0  0
 28 29  1  0  0  0  0
 28 30  1  0  0  0  0
 30 31  1  0  0  0  0
 30 32  1  0  0  0  0
 30 33  1  0  0  0  0
M  END
$$$$

  -OEChem-04042216043D

 33 33  0     1  0  0  0  0  0999 V2000
   -3.9574   -4.0285    1.4715 H   0  0  0  0  0  0  0  0  0  0  0  0
   -3.8761   -3.1435    0.8344 C   0  0  0  0  0  0  0  0  0  0  0  0
   -4.6838   -2.4519    1.0855 H   0  0  0  0  0  0  0  0  0  0  0  0
   -3.9800   -3.4513   -0.2089 H   0  0  0  0  0  0  0  0  0  0  0  0
   -2.5330   -2.4703    1.0451 C   0  0  0  0  0  0  0  0  0  0  0  0
   -1.7732   -2.8843    1.9071 O   0  0  0  0  0  0  0  0  0  0  0  0
   -2.1945   -1.3695    0.2857 N   0  0  0  0  0  0  0  0  0  0  0  0
   -2.8980   -0.9944   -0.3480 H   0  0  0  0  0  0  0  0  0  0  0  0
   -0.9268   -0.6348    0.4026 C   0  0  1  0  0  0  0  0  0  0  0  0
   -0.4271   -0.8723    1.3441 H   0  0  0  0  0  0  0  0  0  0  0  0
   -0.0361   -0.9805   -0.8116 C   0  0  0  0  0  0  0  0  0  0  0  0
   -0.6699   -1.1246   -1.6931 H   0  0  0  0  0  0  0  0  0  0  0  0
    0.6150   -0.1270   -1.0289 H   0  0  0  0  0  0  0  0  0  0  0  0
    0.8705   -2.1795   -0.6083 C   0  0  0  0  0  0  0  0  0  0  0  0
    1.6237   -2.3720    0.5641 C   0  0  0  0  0  0  0  0  0  0  0  0
    1.5938   -1.6486    1.3712 H   0  0  0  0  0  0  0  0  0  0  0  0
    2.4348   -3.5032    0.7135 C   0  0  0  0  0  0  0  0  0  0  0  0
    3.0016   -3.6347    1.6285 H   0  0  0  0  0  0  0  0  0  0  0  0
    2.5094   -4.4547   -0.3045 C   0  0  0  0  0  0  0  0  0  0  0  0
    3.2938   -5.5632   -0.1664 O   0  0  0  0  0  0  0  0  0  0  0  0
    3.6825   -5.5837    0.7214 H   0  0  0  0  0  0  0  0  0  0  0  0
    1.7739   -4.2707   -1.4721 C   0  0  0  0  0  0  0  0  0  0  0  0
    1.8363   -5.0153   -2.2589 H   0  0  0  0  0  0  0  0  0  0  0  0
    0.9590   -3.1441   -1.6250 C   0  0  0  0  0  0  0  0  0  0  0  0
    0.3906   -3.0269   -2.5428 H   0  0  0  0  0  0  0  0  0  0  0  0
   -1.2059    0.8802    0.4073 C   0  0  0  0  0  0  0  0  0  0  0  0
   -1.9987    1.3576   -0.3968 O   0  0  0  0  0  0  0  0  0  0  0  0
   -0.5768    1.7099    1.3174 N   0  0  0  0  0  0  0  0  0  0  0  0
    0.0378    1.2795    2.0024 H   0  0  0  0  0  0  0  0  0  0  0  0
   -0.8099    3.1477    1.3826 C   0  0  0  0  0  0  0  0  0  0  0  0
   -1.8675    3.3569    1.5747 H   0  0  0  0  0  0  0  0  0  0  0  0
   -0.2181    3.5914    2.1890 H   0  0  0  0  0  0  0  0  0  0  0  0
   -0.5218    3.6249    0.4400 H   0  0  0  0  0  0  0  0  0  0  0  0
  1  2  1  0  0  0  0
  2  3  1  0  0  0  0
  2  4  1  0  0  0  0
  2  5  1  0  0  0  0
  5  6  2  0  0  0  0
  5  7  1  0  0  0  0
  7  8  1  0  0  0  0
  7  9  1  0  0  0  0
  9 10  1  0  0  0  0
  9 11  1  0  0  0  0
  9 26  1  0  0  0  0
 11 12  1  0  0  0  0
 11 13  1  0  0  0  0
 11 14  1  0  0  0  0
 14 15  2  0  0  0  0
 14 24  1  0  0  0  0
 15 16  1  0  0  0  0
 15 17  1  0  0  0  0
 17 18  1  0  0  0  0
 17 19  2  0  0  0  0
 19 20  1  0  0  0  0
 19 22  1  0  0  0  0
 20 21  1  0  0  0  0
 22 23  1  0  0  0  0
 22 24  2  0  0  0  0
 24 25  1  0  0  0  0
 26 27  2  0  0  0  0
 26 28  1  0  0  0  0
 28 29  1  0  0  0  0
 28 30  1  0  0  0  0
 30 31  1  0  0  0  0
 30 32  1  0  0  0  0
 30 33  1  0  0  0  0
M  END
$$$$

  -OEChem-04042216043D

 33 33  0     1  0  0  0  0  0999 V2000
   -4.0265   -3.9839    1.4824 H   0  0  0  0  0  0  0  0  0  0  0  0
   -3.9266   -3.1038    0.8411 C   0  0  0  0  0  0  0  0  0  0  0  0
   -4.7333   -2.4043    1.0732 H   0  0  0  0  0  0  0  0  0  0  0  0
   -4.0140   -3.4182   -0.2017 H   0  0  0  0  0  0  0  0  0  0  0  0
   -2.5823   -2.4393    1.0705 C   0  0  0  0  0  0  0  0  0  0  0  0
   -1.8440   -2.8464    1.9547 O   0  0  0  0  0  0  0  0  0  0  0  0
   -2.2132   -1.3580    0.2975 N   0  0  0  0  0  0  0  0  0  0  0  0
   -2.8966   -0.9869   -0.3603 H   0  0  0  0  0  0  0  0  0  0  0  0
   -0.9409   -0.6354    0.4339 C   0  0  1  0  0  0  0  0  0  0  0  0
   -0.4702   -0.8477    1.3941 H   0  0  0  0  0  0  0  0  0  0  0  0
   -0.0254   -1.0075   -0.7552 C   0  0  0  0  0  0  0  0  0  0  0  0
   -0.6474   -1.1531   -1.6448 H   0  0  0  0  0  0  0  0  0  0  0  0
    0.6321   -0.1580   -0.9683 H   0  0  0  0  0  0  0  0  0  0  0  0
    0.8827   -2.2110   -0.5605 C   0  0  0  0  0  0  0  0  0  0  0  0
    1.4046   -2.6149    0.6843 C   0  0  0  0  0  0  0  0  0  0  0  0
    1.1815   -2.0794    1.5994 H   0  0  0  0  0  0  0  0  0  0  0  0
    2.2320   -3.7400    0.7814 C   0  0  0  0  0  0  0  0  0  0  0  0
    2.6126   -4.0358    1.7527 H   0  0  0  0  0  0  0  0  0  0  0  0
    2.5592   -4.4753   -0.3574 C   0  0  0  0  0  0  0  0  0  0  0  0
    3.3622   -5.5753   -0.2692 O   0  0  0  0  0  0  0  0  0  0  0  0
    3.5775   -5.7528    0.6593 H   0  0  0  0  0  0  0  0  0  0  0  0
    2.0586   -4.0816   -1.5946 C   0  0  0  0  0  0  0  0  0  0  0  0
    2.3175   -4.6574   -2.4771 H   0  0  0  0  0  0  0  0  0  0  0  0
    1.2284   -2.9608   -1.6970 C   0  0  0  0  0  0  0  0  0  0  0  0
    0.8497   -2.6762   -2.6741 H   0  0  0  0  0  0  0  0  0  0  0  0
   -1.2112    0.8815    0.4001 C   0  0  0  0  0  0  0  0  0  0  0  0
   -1.9828    1.3462   -0.4317 O   0  0  0  0  0  0  0  0  0  0  0  0
   -0.6023    1.7271    1.3092 N   0  0  0  0  0  0  0  0  0  0  0  0
   -0.0019    1.3092    2.0142 H   0  0  0  0  0  0  0  0  0  0  0  0
   -0.8291    3.1670    1.3389 C   0  0  0  0  0  0  0  0  0  0  0  0
   -1.8882    3.3851    1.5120 H   0  0  0  0  0  0  0  0  0  0  0  0
   -0.2457    3.6257    2.1431 H   0  0  0  0  0  0  0  0  0  0  0  0
   -0.5262    3.6215    0.3897 H   0  0  0  0  0  0  0  0  0  0  0  0
  1  2  1  0  0  0  0
  2  3  1  0  0  0  0
  2  4  1  0  0  0  0
  2  5  1  0  0  0  0
  5  6  2  0  0  0  0
  5  7  1  0  0  0  0
  7  8  1  0  0  0  0
  7  9  1  0  0  0  0
  9 10  1  0  0  0  0
  9 11  1  0  0  0  0
  9 26  1  0  0  0  0
 11 12  1  0  0  0  0
 11 13  1  0  0  0  0
 11 14  1  0  0  0  0
 14 15  2  0  0  0  0
 14 24  1  0  0  0  0
 15 16  1  0  0  0  0
 15 17  1  0  0  0  0
 17 18  1  0  0  0  0
 17 19  2  0  0  0  0
 19 20  1  0  0  0  0
 19 22  1  0  0  0  0
 20 21  1  0  0  0  0
 22 23  1  0  0  0  0
 22 24  2  0  0  0  0
 24 25  1  0  0  0  0
 26 27  2  0  0  0  0
 26 28  1  0  0  0  0
 28 29  1  0  0  0  0
 28 30  1  0  0  0  0
 30 31  1  0  0  0  0
 30 32  1  0  0  0  0
 30 33  1  0  0  0  0
M  END
$$$$

  -OEChem-04042216043D

 33 33  0     1  0  0  0  0  0999 V2000
   -4.1234   -3.9176    1.5157 H   0  0  0  0  0  0  0  0  0  0  0  0
   -3.9890   -3.0610    0.8491 C   0  0  0  0  0  0  0  0  0  0  0  0
   -4.7828   -2.3354    1.0422 H   0  0  0  0  0  0  0  0  0  0  0  0
   -4.0629   -3.4056   -0.1852 H   0  0  0  0  0  0  0  0  0  0  0  0
   -2.6339   -2.4213    1.0855 C   0  0  0  0  0  0  0  0  0  0  0  0
   -1.9158   -2.8309    1.9849 O   0  0  0  0  0  0  0  0  0  0  0  0
   -2.2360   -1.3542    0.3071 N   0  0  0  0  0  0  0  0  0  0  0  0
   -2.9072   -0.9770   -0.3599 H   0  0  0  0  0  0  0  0  0  0  0  0
   -0.9539   -0.6485    0.4471 C   0  0  1  0  0  0  0  0  0  0  0  0
   -0.4889   -0.8497    1.4129 H   0  0  0  0  0  0  0  0  0  0  0  0
   -0.0256   -1.0319   -0.7289 C   0  0  0  0  0  0  0  0  0  0  0  0
   -0.6391   -1.1770   -1.6248 H   0  0  0  0  0  0  0  0  0  0  0  0
    0.6366   -0.1844   -0.9354 H   0  0  0  0  0  0  0  0  0  0  0  0
    0.8794   -2.2403   -0.5438 C   0  0  0  0  0  0  0  0  0  0  0  0
    1.1618   -2.8531    0.6940 C   0  0  0  0  0  0  0  0  0  0  0  0
    0.7193   -2.5107    1.6224 H   0  0  0  0  0  0  0  0  0  0  0  0
    2.0169   -3.9595    0.7648 C   0  0  0  0  0  0  0  0  0  0  0  0
    2.2065   -4.4202    1.7281 H   0  0  0  0  0  0  0  0  0  0  0  0
    2.6120   -4.4676   -0.3896 C   0  0  0  0  0  0  0  0  0  0  0  0
    3.4426   -5.5488   -0.3273 O   0  0  0  0  0  0  0  0  0  0  0  0
    3.4754   -5.8871    0.5808 H   0  0  0  0  0  0  0  0  0  0  0  0
    2.3513   -3.8653   -1.6163 C   0  0  0  0  0  0  0  0  0  0  0  0
    2.8193   -4.2634   -2.5107 H   0  0  0  0  0  0  0  0  0  0  0  0
    1.4938   -2.7633   -1.6937 C   0  0  0  0  0  0  0  0  0  0  0  0
    1.3060   -2.3109   -2.6630 H   0  0  0  0  0  0  0  0  0  0  0  0
   -1.2093    0.8705    0.3930 C   0  0  0  0  0  0  0  0  0  0  0  0
   -1.9742    1.3330   -0.4464 O   0  0  0  0  0  0  0  0  0  0  0  0
   -0.5992    1.7191    1.2984 N   0  0  0  0  0  0  0  0  0  0  0  0
    0.0014    1.3033    2.0048 H   0  0  0  0  0  0  0  0  0  0  0  0
   -0.8181    3.1601    1.3181 C   0  0  0  0  0  0  0  0  0  0  0  0
   -1.8750    3.3850    1.4953 H   0  0  0  0  0  0  0  0  0  0  0  0
   -0.2281    3.6214    2.1158 H   0  0  0  0  0  0  0  0  0  0  0  0
   -0.5176    3.6062    0.3641 H   0  0  0  0  0  0  0  0  0  0  0  0
  1  2  1  0  0  0  0
  2  3  1  0  0  0  0
  2  4  1  0  0  0  0
  2  5  1  0  0  0  0
  5  6  2  0  0  0  0
  5  7  1  0  0  0  0
  7  8  1  0  0  0  0
  7  9  1  0  0  0  0
  9 10  1  0  0  0  0
  9 11  1  0  0  0  0
  9 26  1  0  0  0  0
 11 12  1  0  0  0  0
 11 13  1  0  0  0  0
 11 14  1  0  0  0  0
 14 15  2  0  0  0  0
 14 24  1  0  0  0  0
 15 16  1  0  0  0  0
 15 17  1  0  0  0  0
 17 18  1  0  0  0  0
 17 19  2  0  0  0  0
 19 20  1  0  0  0  0
 19 22  1  0  0  0  0
 20 21  1  0  0  0  0
 22 23  1  0  0  0  0
 22 24  2  0  0  0  0
 24 25  1  0  0  0  0
 26 27  2  0  0  0  0
 26 28  1  0  0  0  0
 28 29  1  0  0  0  0
 28 30  1  0  0  0  0
 30 31  1  0  0  0  0
 30 32  1  0  0  0  0
 30 33  1  0  0  0  0
M  END
$$$$

  -OEChem-04042216043D

 33 33  0     1  0  0  0  0  0999 V2000
   -4.1504   -3.9454    1.4423 H   0  0  0  0  0  0  0  0  0  0  0  0
   -4.0056   -3.0675    0.8067 C   0  0  0  0  0  0  0  0  0  0  0  0
   -4.8208   -2.3625    0.9861 H   0  0  0  0  0  0  0  0  0  0  0  0
   -4.0296   -3.3836   -0.2390 H   0  0  0  0  0  0  0  0  0  0  0  0
   -2.6747   -2.4095    1.1181 C   0  0  0  0  0  0  0  0  0  0  0  0
   -2.0234   -2.7837    2.0803 O   0  0  0  0  0  0  0  0  0  0  0  0
   -2.2423   -1.3524    0.3454 N   0  0  0  0  0  0  0  0  0  0  0  0
   -2.8774   -1.0130   -0.3749 H   0  0  0  0  0  0  0  0  0  0  0  0
   -0.9545   -0.6514    0.4785 C   0  0  1  0  0  0  0  0  0  0  0  0
   -0.4771   -0.8611    1.4389 H   0  0  0  0  0  0  0  0  0  0  0  0
   -0.0313   -1.0372   -0.7033 C   0  0  0  0  0  0  0  0  0  0  0  0
   -0.6483   -1.1827   -1.5964 H   0  0  0  0  0  0  0  0  0  0  0  0
    0.6269   -0.1865   -0.9115 H   0  0  0  0  0  0  0  0  0  0  0  0
    0.8794   -2.2429   -0.5383 C   0  0  0  0  0  0  0  0  0  0  0  0
    0.9501   -3.0438    0.6174 C   0  0  0  0  0  0  0  0  0  0  0  0
    0.3491   -2.8374    1.4939 H   0  0  0  0  0  0  0  0  0  0  0  0
    1.8135   -4.1440    0.6746 C   0  0  0  0  0  0  0  0  0  0  0  0
    1.8452   -4.7438    1.5776 H   0  0  0  0  0  0  0  0  0  0  0  0
    2.6211   -4.4643   -0.4163 C   0  0  0  0  0  0  0  0  0  0  0  0
    3.4641   -5.5365   -0.3666 O   0  0  0  0  0  0  0  0  0  0  0  0
    3.3663   -5.9937    0.4829 H   0  0  0  0  0  0  0  0  0  0  0  0
    2.5623   -3.6808   -1.5651 C   0  0  0  0  0  0  0  0  0  0  0  0
    3.1918   -3.9349   -2.4116 H   0  0  0  0  0  0  0  0  0  0  0  0
    1.6993   -2.5817   -1.6271 C   0  0  0  0  0  0  0  0  0  0  0  0
    1.6670   -1.9867   -2.5353 H   0  0  0  0  0  0  0  0  0  0  0  0
   -1.2015    0.8685    0.4097 C   0  0  0  0  0  0  0  0  0  0  0  0
   -1.9518    1.3295   -0.4437 O   0  0  0  0  0  0  0  0  0  0  0  0
   -0.5861    1.7211    1.3077 N   0  0  0  0  0  0  0  0  0  0  0  0
   -0.0019    1.3059    2.0283 H   0  0  0  0  0  0  0  0  0  0  0  0
   -0.7923    3.1642    1.3107 C   0  0  0  0  0  0  0  0  0  0  0  0
   -1.8486    3.4003    1.4763 H   0  0  0  0  0  0  0  0  0  0  0  0
   -0.2050    3.6287    2.1086 H   0  0  0  0  0  0  0  0  0  0  0  0
   -0.4799    3.5976    0.3549 H   0  0  0  0  0  0  0  0  0  0  0  0
  1  2  1  0  0  0  0
  2  3  1  0  0  0  0
  2  4  1  0  0  0  0
  2  5  1  0  0  0  0
  5  6  2  0  0  0  0
  5  7  1  0  0  0  0
  7  8  1  0  0  0  0
  7  9  1  0  0  0  0
  9 10  1  0  0  0  0
  9 11  1  0  0  0  0
  9 26  1  0  0  0  0
 11 12  1  0  0  0  0
 11 13  1  0  0  0  0
 11 14  1  0  0  0  0
 14 15  2  0  0  0  0
 14 24  1  0  0  0  0
 15 16  1  0  0  0  0
 15 17  1  0  0  0  0
 17 18  1  0  0  0  0
 17 19  2  0  0  0  0
 19 20  1  0  0  0  0
 19 22  1  0  0  0  0
 20 21  1  0  0  0  0
 22 23  1  0  0  0  0
 22 24  2  0  0  0  0
 24 25  1  0  0  0  0
 26 27  2  0  0  0  0
 26 28  1  0  0  0  0
 28 29  1  0  0  0  0
 28 30  1  0  0  0  0
 30 31  1  0  0  0  0
 30 32  1  0  0  0  0
 30 33  1  0  0  0  0
M  END
$$$$

  -OEChem-04042216043D

 33 33  0     1  0  0  0  0  0999 V2000
   -4.1901   -3.9466    1.4222 H   0  0  0  0  0  0  0  0  0  0  0  0
   -4.0285   -3.0701    0.7884 C   0  0  0  0  0  0  0  0  0  0  0  0
   -4.8587   -2.3736    0.9290 H   0  0  0  0  0  0  0  0  0  0  0  0
   -4.0049   -3.3922   -0.2555 H   0  0  0  0  0  0  0  0  0  0  0  0
   -2.7203   -2.3944    1.1525 C   0  0  0  0  0  0  0  0  0  0  0  0
   -2.1325   -2.7224    2.1704 O   0  0  0  0  0  0  0  0  0  0  0  0
   -2.2585   -1.3506    0.3791 N   0  0  0  0  0  0  0  0  0  0  0  0
   -2.8633   -1.0411   -0.3796 H   0  0  0  0  0  0  0  0  0  0  0  0
   -0.9607   -0.6624    0.5046 C   0  0  1  0  0  0  0  0  0  0  0  0
   -0.4760   -0.8878    1.4595 H   0  0  0  0  0  0  0  0  0  0  0  0
   -0.0339   -1.0390   -0.6814 C   0  0  0  0  0  0  0  0  0  0  0  0
   -0.6515   -1.1796   -1.5747 H   0  0  0  0  0  0  0  0  0  0  0  0
    0.6192   -0.1824   -0.8835 H   0  0  0  0  0  0  0  0  0  0  0  0
    0.8809   -2.2436   -0.5382 C   0  0  0  0  0  0  0  0  0  0  0  0
    0.7554   -3.2273    0.4570 C   0  0  0  0  0  0  0  0  0  0  0  0
   -0.0048   -3.1614    1.2206 H   0  0  0  0  0  0  0  0  0  0  0  0
    1.6290   -4.3199    0.5032 C   0  0  0  0  0  0  0  0  0  0  0  0
    1.5091   -5.0593    1.2876 H   0  0  0  0  0  0  0  0  0  0  0  0
    2.6410   -4.4523   -0.4471 C   0  0  0  0  0  0  0  0  0  0  0  0
    3.4963   -5.5152   -0.4096 O   0  0  0  0  0  0  0  0  0  0  0  0
    3.2653   -6.0988    0.3295 H   0  0  0  0  0  0  0  0  0  0  0  0
    2.7754   -3.4888   -1.4423 C   0  0  0  0  0  0  0  0  0  0  0  0
    3.5627   -3.5978   -2.1811 H   0  0  0  0  0  0  0  0  0  0  0  0
    1.9033   -2.3959   -1.4899 C   0  0  0  0  0  0  0  0  0  0  0  0
    2.0237   -1.6606   -2.2804 H   0  0  0  0  0  0  0  0  0  0  0  0
   -1.1950    0.8591    0.4217 C   0  0  0  0  0  0  0  0  0  0  0  0
   -1.9335    1.3199   -0.4421 O   0  0  0  0  0  0  0  0  0  0  0  0
   -0.5707    1.7134    1.3114 N   0  0  0  0  0  0  0  0  0  0  0  0
   -0.0028    1.2971    2.0443 H   0  0  0  0  0  0  0  0  0  0  0  0
   -0.7645    3.1582    1.3029 C   0  0  0  0  0  0  0  0  0  0  0  0
   -1.8180    3.4044    1.4727 H   0  0  0  0  0  0  0  0  0  0  0  0
   -0.1684    3.6246    2.0931 H   0  0  0  0  0  0  0  0  0  0  0  0
   -0.4537    3.5806    0.3415 H   0  0  0  0  0  0  0  0  0  0  0  0
  1  2  1  0  0  0  0
  2  3  1  0  0  0  0
  2  4  1  0  0  0  0
  2  5  1  0  0  0  0
  5  6  2  0  0  0  0
  5  7  1  0  0  0  0
  7  8  1  0  0  0  0
  7  9  1  0  0  0  0
  9 10  1  0  0  0  0
  9 11  1  0  0  0  0
  9 26  1  0  0  0  0
 11 12  1  0  0  0  0
 11 13  1  0  0  0  0
 11 14  1  0  0  0  0
 14 15  2  0  0  0  0
 14 24  1  0  0  0  0
 15 16  1  0  0  0  0
 15 17  1  0  0  0  0
 17 18  1  0  0  0  0
 17 19  2  0  0  0  0
 19 20  1  0  0  0  0
 19 22  1  0  0  0  0
 20 21  1  0  0  0  0
 22 23  1  0  0  0  0
 22 24  2  0  0  0  0
 24 25  1  0  0  0  0
 26 27  2  0  0  0  0
 26 28  1  0  0  0  0
 28 29  1  0  0  0  0
 28 30  1  0  0  0  0
 30 31  1  0  0  0  0
 30 32  1  0  0  0  0
 30 33  1  0  0  0  0
M  END
$$$$

  -OEChem-04042216043D

 33 33  0     1  0  0  0  0  0999 V2000
   -4.2521   -3.9082    1.4672 H   0  0  0  0  0  0  0  0  0  0  0  0
   -4.0778   -3.0437    0.8203 C   0  0  0  0  0  0  0  0  0  0  0  0
   -4.8858   -2.3232    0.9686 H   0  0  0  0  0  0  0  0  0  0  0  0
   -4.0824   -3.3766   -0.2205 H   0  0  0  0  0  0  0  0  0  0  0  0
   -2.7446   -2.4009    1.1535 C   0  0  0  0  0  0  0  0  0  0  0  0
   -2.1318   -2.7558    2.1479 O   0  0  0  0  0  0  0  0  0  0  0  0
   -2.2802   -1.3579    0.3803 N   0  0  0  0  0  0  0  0  0  0  0  0
   -2.9012   -1.0182   -0.3523 H   0  0  0  0  0  0  0  0  0  0  0  0
   -0.9710   -0.6877    0.4916 C   0  0  1  0  0  0  0  0  0  0  0  0
   -0.4793   -0.9316    1.4390 H   0  0  0  0  0  0  0  0  0  0  0  0
   -0.0384   -1.0386   -0.7003 C   0  0  0  0  0  0  0  0  0  0  0  0
   -0.6541   -1.1672   -1.5965 H   0  0  0  0  0  0  0  0  0  0  0  0
    0.6077   -0.1733   -0.8874 H   0  0  0  0  0  0  0  0  0  0  0  0
    0.8769   -2.2459   -0.5761 C   0  0  0  0  0  0  0  0  0  0  0  0
    0.5804   -3.3870    0.1854 C   0  0  0  0  0  0  0  0  0  0  0  0
   -0.3430   -3.4667    0.7359 H   0  0  0  0  0  0  0  0  0  0  0  0
    1.4738   -4.4623    0.2522 C   0  0  0  0  0  0  0  0  0  0  0  0
    1.2166   -5.3272    0.8541 H   0  0  0  0  0  0  0  0  0  0  0  0
    2.6788   -4.4201   -0.4481 C   0  0  0  0  0  0  0  0  0  0  0  0
    3.5551   -5.4647   -0.3900 O   0  0  0  0  0  0  0  0  0  0  0  0
    3.1974   -6.1637    0.1789 H   0  0  0  0  0  0  0  0  0  0  0  0
    2.9839   -3.3008   -1.2167 C   0  0  0  0  0  0  0  0  0  0  0  0
    3.9205   -3.2743   -1.7640 H   0  0  0  0  0  0  0  0  0  0  0  0
    2.0924   -2.2245   -1.2827 C   0  0  0  0  0  0  0  0  0  0  0  0
    2.3544   -1.3652   -1.8933 H   0  0  0  0  0  0  0  0  0  0  0  0
   -1.1965    0.8363    0.4229 C   0  0  0  0  0  0  0  0  0  0  0  0
   -1.9470    1.3087   -0.4244 O   0  0  0  0  0  0  0  0  0  0  0  0
   -0.5526    1.6797    1.3092 N   0  0  0  0  0  0  0  0  0  0  0  0
    0.0264    1.2542    2.0282 H   0  0  0  0  0  0  0  0  0  0  0  0
   -0.7329    3.1263    1.3127 C   0  0  0  0  0  0  0  0  0  0  0  0
   -1.7806    3.3815    1.5039 H   0  0  0  0  0  0  0  0  0  0  0  0
   -0.1173    3.5825    2.0940 H   0  0  0  0  0  0  0  0  0  0  0  0
   -0.4366    3.5517    0.3480 H   0  0  0  0  0  0  0  0  0  0  0  0
  1  2  1  0  0  0  0
  2  3  1  0  0  0  0
  2  4  1  0  0  0  0
  2  5  1  0  0  0  0
  5  6  2  0  0  0  0
  5  7  1  0  0  0  0
  7  8  1  0  0  0  0
  7  9  1  0  0  0  0
  9 10  1  0  0  0  0
  9 11  1  0  0  0  0
  9 26  1  0  0  0  0
 11 12  1  0  0  0  0
 11 13  1  0  0  0  0
 11 14  1  0  0  0  0
 14 15  2  0  0  0  0
 14 24  1  0  0  0  0
 15 16  1  0  0  0  0
 15 17  1  0  0  0  0
 17 18  1  0  0  0  0
 17 19  2  0  0  0  0
 19 20  1  0  0  0  0
 19 22  1  0  0  0  0
 20 21  1  0  0  0  0
 22 23  1  0  0  0  0
 22 24  2  0  0  0  0
 24 25  1  0  0  0  0
 26 27  2  0  0  0  0
 26 28  1  0  0  0  0
 28 29  1  0  0  0  0
 28 30  1  0  0  0  0
 30 31  1  0  0  0  0
 30 32  1  0  0  0  0
 30 33  1  0  0  0  0
M  END
$$$$

  -OEChem-04042216043D

 33 33  0     1  0  0  0  0  0999 V2000
   -4.2248   -3.9082    1.5196 H   0  0  0  0  0  0  0  0  0  0  0  0
   -4.0707   -3.0409    0.8714 C   0  0  0  0  0  0  0  0  0  0  0  0
   -4.8418   -2.2975    1.0880 H   0  0  0  0  0  0  0  0  0  0  0  0
   -4.1636   -3.3592   -0.1698 H   0  0  0  0  0  0  0  0  0  0  0  0
   -2.6961   -2.4451    1.1109 C   0  0  0  0  0  0  0  0  0  0  0  0
   -1.9947   -2.8792    2.0108 O   0  0  0  0  0  0  0  0  0  0  0  0
   -2.2738   -1.3777    0.3465 N   0  0  0  0  0  0  0  0  0  0  0  0
   -2.9484   -0.9806   -0.3058 H   0  0  0  0  0  0  0  0  0  0  0  0
   -0.9661   -0.7023    0.4327 C   0  0  1  0  0  0  0  0  0  0  0  0
   -0.4520   -0.9647    1.3632 H   0  0  0  0  0  0  0  0  0  0  0  0
   -0.0471   -1.0179   -0.7778 C   0  0  0  0  0  0  0  0  0  0  0  0
   -0.6727   -1.1520   -1.6663 H   0  0  0  0  0  0  0  0  0  0  0  0
    0.5823   -0.1421   -0.9711 H   0  0  0  0  0  0  0  0  0  0  0  0
    0.8692   -2.2229   -0.6510 C   0  0  0  0  0  0  0  0  0  0  0  0
    0.4455   -3.4638   -0.1514 C   0  0  0  0  0  0  0  0  0  0  0  0
   -0.5845   -3.6260    0.1295 H   0  0  0  0  0  0  0  0  0  0  0  0
    1.3390   -4.5338   -0.0272 C   0  0  0  0  0  0  0  0  0  0  0  0
    0.9812   -5.4794    0.3653 H   0  0  0  0  0  0  0  0  0  0  0  0
    2.6726   -4.3833   -0.4060 C   0  0  0  0  0  0  0  0  0  0  0  0
    3.5512   -5.4209   -0.2870 O   0  0  0  0  0  0  0  0  0  0  0  0
    3.1023   -6.1899    0.0969 H   0  0  0  0  0  0  0  0  0  0  0  0
    3.1065   -3.1621   -0.9130 C   0  0  0  0  0  0  0  0  0  0  0  0
    4.1442   -3.0523   -1.2104 H   0  0  0  0  0  0  0  0  0  0  0  0
    2.2156   -2.0903   -1.0349 C   0  0  0  0  0  0  0  0  0  0  0  0
    2.5844   -1.1489   -1.4313 H   0  0  0  0  0  0  0  0  0  0  0  0
   -1.2027    0.8208    0.4134 C   0  0  0  0  0  0  0  0  0  0  0  0
   -1.9944    1.3095   -0.3855 O   0  0  0  0  0  0  0  0  0  0  0  0
   -0.5339    1.6426    1.3014 N   0  0  0  0  0  0  0  0  0  0  0  0
    0.0816    1.2006    1.9791 H   0  0  0  0  0  0  0  0  0  0  0  0
   -0.7178    3.0876    1.3521 C   0  0  0  0  0  0  0  0  0  0  0  0
   -1.7622    3.3342    1.5705 H   0  0  0  0  0  0  0  0  0  0  0  0
   -0.0891    3.5211    2.1357 H   0  0  0  0  0  0  0  0  0  0  0  0
   -0.4402    3.5426    0.3954 H   0  0  0  0  0  0  0  0  0  0  0  0
  1  2  1  0  0  0  0
  2  3  1  0  0  0  0
  2  4  1  0  0  0  0
  2  5  1  0  0  0  0
  5  6  2  0  0  0  0
  5  7  1  0  0  0  0
  7  8  1  0  0  0  0
  7  9  1  0  0  0  0
  9 10  1  0  0  0  0
  9 11  1  0  0  0  0
  9 26  1  0  0  0  0
 11 12  1  0  0  0  0
 11 13  1  0  0  0  0
 11 14  1  0  0  0  0
 14 15  2  0  0  0  0
 14 24  1  0  0  0  0
 15 16  1  0  0  0  0
 15 17  1  0  0  0  0
 17 18  1  0  0  0  0
 17 19  2  0  0  0  0
 19 20  1  0  0  0  0
 19 22  1  0  0  0  0
 20 21  1  0  0  0  0
 22 23  1  0  0  0  0
 22 24  2  0  0  0  0
 24 25  1  0  0  0  0
 26 27  2  0  0  0  0
 26 28  1  0  0  0  0
 28 29  1  0  0  0  0
 28 30  1  0  0  0  0
 30 31  1  0  0  0  0
 30 32  1  0  0  0  0
 30 33  1  0  0  0  0
M  END
$$$$

  -OEChem-04042216043D

 33 33  0     1  0  0  0  0  0999 V2000
   -4.1058   -3.9569    1.5354 H   0  0  0  0  0  0  0  0  0  0  0  0
   -3.9888   -3.0837    0.8874 C   0  0  0  0  0  0  0  0  0  0  0  0
   -4.7439   -2.3414    1.1570 H   0  0  0  0  0  0  0  0  0  0  0  0
   -4.1438   -3.3910   -0.1495 H   0  0  0  0  0  0  0  0  0  0  0  0
   -2.6007   -2.4936    1.0505 C   0  0  0  0  0  0  0  0  0  0  0  0
   -1.8273   -2.9780    1.8606 O   0  0  0  0  0  0  0  0  0  0  0  0
   -2.2362   -1.3944    0.3013 N   0  0  0  0  0  0  0  0  0  0  0  0
   -2.9582   -0.9648   -0.2752 H   0  0  0  0  0  0  0  0  0  0  0  0
   -0.9431   -0.6918    0.3716 C   0  0  1  0  0  0  0  0  0  0  0  0
   -0.4042   -0.9654    1.2849 H   0  0  0  0  0  0  0  0  0  0  0  0
   -0.0511   -0.9847   -0.8593 C   0  0  0  0  0  0  0  0  0  0  0  0
   -0.6886   -1.1358   -1.7367 H   0  0  0  0  0  0  0  0  0  0  0  0
    0.5666   -0.1051   -1.0713 H   0  0  0  0  0  0  0  0  0  0  0  0
    0.8637   -2.1829   -0.7031 C   0  0  0  0  0  0  0  0  0  0  0  0
    0.3673   -3.4739   -0.4681 C   0  0  0  0  0  0  0  0  0  0  0  0
   -0.7005   -3.6518   -0.4292 H   0  0  0  0  0  0  0  0  0  0  0  0
    1.2382   -4.5559   -0.2949 C   0  0  0  0  0  0  0  0  0  0  0  0
    0.8279   -5.5428   -0.1114 H   0  0  0  0  0  0  0  0  0  0  0  0
    2.6187   -4.3631   -0.3555 C   0  0  0  0  0  0  0  0  0  0  0  0
    3.4755   -5.4116   -0.1844 O   0  0  0  0  0  0  0  0  0  0  0  0
    2.9734   -6.2174    0.0125 H   0  0  0  0  0  0  0  0  0  0  0  0
    3.1236   -3.0874   -0.5934 C   0  0  0  0  0  0  0  0  0  0  0  0
    4.1981   -2.9455   -0.6406 H   0  0  0  0  0  0  0  0  0  0  0  0
    2.2559   -2.0034   -0.7653 C   0  0  0  0  0  0  0  0  0  0  0  0
    2.6765   -1.0184   -0.9448 H   0  0  0  0  0  0  0  0  0  0  0  0
   -1.2007    0.8269    0.4034 C   0  0  0  0  0  0  0  0  0  0  0  0
   -2.0295    1.3240   -0.3513 O   0  0  0  0  0  0  0  0  0  0  0  0
   -0.5191    1.6331    1.2961 N   0  0  0  0  0  0  0  0  0  0  0  0
    0.1258    1.1823    1.9396 H   0  0  0  0  0  0  0  0  0  0  0  0
   -0.7306    3.0715    1.4012 C   0  0  0  0  0  0  0  0  0  0  0  0
   -1.7772    3.2893    1.6391 H   0  0  0  0  0  0  0  0  0  0  0  0
   -0.1023    3.4886    2.1942 H   0  0  0  0  0  0  0  0  0  0  0  0
   -0.4721    3.5661    0.4590 H   0  0  0  0  0  0  0  0  0  0  0  0
  1  2  1  0  0  0  0
  2  3  1  0  0  0  0
  2  4  1  0  0  0  0
  2  5  1  0  0  0  0
  5  6  2  0  0  0  0
  5  7  1  0  0  0  0
  7  8  1  0  0  0  0
  7  9  1  0  0  0  0
  9 10  1  0  0  0  0
  9 11  1  0  0  0  0
  9 26  1  0  0  0  0
 11 12  1  0  0  0  0
 11 13  1  0  0  0  0
 11 14  1  0  0  0  0
 14 15  2  0  0  0  0
 14 24  1  0  0  0  0
 15 16  1  0  0  0  0
 15 17  1  0  0  0  0
 17 18  1  0  0  0  0
 17 19  2  0  0  0  0
 19 20  1  0  0  0  0
 19 22  1  0  0  0  0
 20 21  1  0  0  0  0
 22 23  1  0  0  0  0
 22 24  2  0  0  0  0
 24 25  1  0  0  0  0
 26 27  2  0  0  0  0
 26 28  1  0  0  0  0
 28 29  1  0  0  0  0
 28 30  1  0  0  0  0
 30 31  1  0  0  0  0
 30 32  1  0  0  0  0
 30 33  1  0  0  0  0
M  END
$$$$

  -OEChem-04042216043D

 33 33  0     1  0  0  0  0  0999 V2000
   -3.9880   -4.0065    1.5117 H   0  0  0  0  0  0  0  0  0  0  0  0
   -3.8991   -3.1248    0.8707 C   0  0  0  0  0  0  0  0  0  0  0  0
   -4.6539   -2.3938    1.1706 H   0  0  0  0  0  0  0  0  0  0  0  0
   -4.0813   -3.4224   -0.1648 H   0  0  0  0  0  0  0  0  0  0  0  0
   -2.5134   -2.5204    0.9999 C   0  0  0  0  0  0  0  0  0  0  0  0
   -1.7046   -3.0171    1.7663 O   0  0  0  0  0  0  0  0  0  0  0  0
   -2.1901   -1.4002    0.2632 N   0  0  0  0  0  0  0  0  0  0  0  0
   -2.9365   -0.9658   -0.2773 H   0  0  0  0  0  0  0  0  0  0  0  0
   -0.9134   -0.6703    0.3338 C   0  0  1  0  0  0  0  0  0  0  0  0
   -0.3606   -0.9460    1.2381 H   0  0  0  0  0  0  0  0  0  0  0  0
   -0.0441   -0.9602   -0.9080 C   0  0  0  0  0  0  0  0  0  0  0  0
   -0.6868   -1.1238   -1.7794 H   0  0  0  0  0  0  0  0  0  0  0  0
    0.5744   -0.0849   -1.1348 H   0  0  0  0  0  0  0  0  0  0  0  0
    0.8641   -2.1523   -0.7115 C   0  0  0  0  0  0  0  0  0  0  0  0
    0.3576   -3.4592   -0.7477 C   0  0  0  0  0  0  0  0  0  0  0  0
   -0.7000   -3.6266   -0.9225 H   0  0  0  0  0  0  0  0  0  0  0  0
    1.2041   -4.5563   -0.5518 C   0  0  0  0  0  0  0  0  0  0  0  0
    0.7899   -5.5578   -0.5768 H   0  0  0  0  0  0  0  0  0  0  0  0
    2.5666   -4.3594   -0.3204 C   0  0  0  0  0  0  0  0  0  0  0  0
    3.3995   -5.4232   -0.1268 O   0  0  0  0  0  0  0  0  0  0  0  0
    2.8870   -6.2463   -0.1290 H   0  0  0  0  0  0  0  0  0  0  0  0
    3.0785   -3.0641   -0.2845 C   0  0  0  0  0  0  0  0  0  0  0  0
    4.1384   -2.9203   -0.1022 H   0  0  0  0  0  0  0  0  0  0  0  0
    2.2353   -1.9641   -0.4765 C   0  0  0  0  0  0  0  0  0  0  0  0
    2.6547   -0.9632   -0.4409 H   0  0  0  0  0  0  0  0  0  0  0  0
   -1.1909    0.8430    0.3942 C   0  0  0  0  0  0  0  0  0  0  0  0
   -2.0382    1.3385   -0.3405 O   0  0  0  0  0  0  0  0  0  0  0  0
   -0.5130    1.6451    1.2934 N   0  0  0  0  0  0  0  0  0  0  0  0
    0.1389    1.1926    1.9286 H   0  0  0  0  0  0  0  0  0  0  0  0
   -0.7657    3.0733    1.4399 C   0  0  0  0  0  0  0  0  0  0  0  0
   -1.8084    3.2502    1.7239 H   0  0  0  0  0  0  0  0  0  0  0  0
   -0.1195    3.4943    2.2162 H   0  0  0  0  0  0  0  0  0  0  0  0
   -0.5625    3.5973    0.5000 H   0  0  0  0  0  0  0  0  0  0  0  0
  1  2  1  0  0  0  0
  2  3  1  0  0  0  0
  2  4  1  0  0  0  0
  2  5  1  0  0  0  0
  5  6  2  0  0  0  0
  5  7  1  0  0  0  0
  7  8  1  0  0  0  0
  7  9  1  0  0  0  0
  9 10  1  0  0  0  0
  9 11  1  0  0  0  0
  9 26  1  0  0  0  0
 11 12  1  0  0  0  0
 11 13  1  0  0  0  0
 11 14  1  0  0  0  0
 14 15  2  0  0  0  0
 14 24  1  0  0  0  0
 15 16  1  0  0  0  0
 15 17  1  0  0  0  0
 17 18  1  0  0  0  0
 17 19  2  0  0  0  0
 19 20  1  0  0  0  0
 19 22  1  0  0  0  0
 20 21  1  0  0  0  0
 22 23  1  0  0  0  0
 22 24  2  0  0  0  0
 24 25  1  0  0  0  0
 26 27  2  0  0  0  0
 26 28  1  0  0  0  0
 28 29  1  0  0  0  0
 28 30  1  0  0  0  0
 30 31  1  0  0  0  0
 30 32  1  0  0  0  0
 30 33  1  0  0  0  0
M  END
$$$$

  -OEChem-04042216043D

 33 33  0     1  0  0  0  0  0999 V2000
   -3.8970   -4.0500    1.4827 H   0  0  0  0  0  0  0  0  0  0  0  0
   -3.8300   -3.1622    0.8475 C   0  0  0  0  0  0  0  0  0  0  0  0
   -4.5998   -2.4500    1.1544 H   0  0  0  0  0  0  0  0  0  0  0  0
   -4.0079   -3.4564   -0.1896 H   0  0  0  0  0  0  0  0  0  0  0  0
   -2.4576   -2.5288    0.9770 C   0  0  0  0  0  0  0  0  0  0  0  0
   -1.6357   -3.0136    1.7374 O   0  0  0  0  0  0  0  0  0  0  0  0
   -2.1599   -1.3979    0.2458 N   0  0  0  0  0  0  0  0  0  0  0  0
   -2.9143   -0.9735   -0.2912 H   0  0  0  0  0  0  0  0  0  0  0  0
   -0.8941   -0.6517    0.3218 C   0  0  1  0  0  0  0  0  0  0  0  0
   -0.3345   -0.9262    1.2225 H   0  0  0  0  0  0  0  0  0  0  0  0
   -0.0427   -0.9443   -0.9281 C   0  0  0  0  0  0  0  0  0  0  0  0
   -0.6903   -1.1074   -1.7961 H   0  0  0  0  0  0  0  0  0  0  0  0
    0.5831   -0.0758   -1.1604 H   0  0  0  0  0  0  0  0  0  0  0  0
    0.8580   -2.1352   -0.7087 C   0  0  0  0  0  0  0  0  0  0  0  0
    0.4153   -3.4277   -1.0237 C   0  0  0  0  0  0  0  0  0  0  0  0
   -0.5846   -3.5756   -1.4199 H   0  0  0  0  0  0  0  0  0  0  0  0
    1.2484   -4.5332   -0.8162 C   0  0  0  0  0  0  0  0  0  0  0  0
    0.8855   -5.5259   -1.0581 H   0  0  0  0  0  0  0  0  0  0  0  0
    2.5323   -4.3560   -0.2961 C   0  0  0  0  0  0  0  0  0  0  0  0
    3.3512   -5.4281   -0.0886 O   0  0  0  0  0  0  0  0  0  0  0  0
    2.8740   -6.2492   -0.2837 H   0  0  0  0  0  0  0  0  0  0  0  0
    2.9795   -3.0736    0.0161 C   0  0  0  0  0  0  0  0  0  0  0  0
    3.9778   -2.9470    0.4214 H   0  0  0  0  0  0  0  0  0  0  0  0
    2.1492   -1.9657   -0.1866 C   0  0  0  0  0  0  0  0  0  0  0  0
    2.5135   -0.9742    0.0643 H   0  0  0  0  0  0  0  0  0  0  0  0
   -1.1849    0.8581    0.3954 C   0  0  0  0  0  0  0  0  0  0  0  0
   -2.0339    1.3521   -0.3383 O   0  0  0  0  0  0  0  0  0  0  0  0
   -0.5145    1.6600    1.3003 N   0  0  0  0  0  0  0  0  0  0  0  0
    0.1330    1.2078    1.9401 H   0  0  0  0  0  0  0  0  0  0  0  0
   -0.7825    3.0844    1.4562 C   0  0  0  0  0  0  0  0  0  0  0  0
   -1.8272    3.2485    1.7402 H   0  0  0  0  0  0  0  0  0  0  0  0
   -0.1418    3.5072    2.2358 H   0  0  0  0  0  0  0  0  0  0  0  0
   -0.5838    3.6161    0.5198 H   0  0  0  0  0  0  0  0  0  0  0  0
  1  2  1  0  0  0  0
  2  3  1  0  0  0  0
  2  4  1  0  0  0  0
  2  5  1  0  0  0  0
  5  6  2  0  0  0  0
  5  7  1  0  0  0  0
  7  8  1  0  0  0  0
  7  9  1  0  0  0  0
  9 10  1  0  0  0  0
  9 11  1  0  0  0  0
  9 26  1  0  0  0  0
 11 12  1  0  0  0  0
 11 13  1  0  0  0  0
 11 14  1  0  0  0  0
 14 15  2  0  0  0  0
 14 24  1  0  0  0  0
 15 16  1  0  0  0  0
 15 17  1  0  0  0  0
 17 18  1  0  0  0  0
 17 19  2  0  0  0  0
 19 20  1  0  0  0  0
 19 22  1  0  0  0  0
 20 21  1  0  0  0  0
 22 23  1  0  0  0  0
 22 24  2  0  0  0  0
 24 25  1  0  0  0  0
 26 27  2  0  0  0  0
 26 28  1  0  0  0  0
 28 29  1  0  0  0  0
 28 30  1  0  0  0  0
 30 31  1  0  0  0  0
 30 32  1  0  0  0  0
 30 33  1  0  0  0  0
M  END
$$$$

  -OEChem-04042216043D

 33 33  0     1  0  0  0  0  0999 V2000
   -3.8905   -4.0549    1.4660 H   0  0  0  0  0  0  0  0  0  0  0  0
   -3.8236   -3.1677    0.8303 C   0  0  0  0  0  0  0  0  0  0  0  0
   -4.6059   -2.4637    1.1239 H   0  0  0  0  0  0  0  0  0  0  0  0
   -3.9815   -3.4662   -0.2088 H   0  0  0  0  0  0  0  0  0  0  0  0
   -2.4603   -2.5197    0.9804 C   0  0  0  0  0  0  0  0  0  0  0  0
   -1.6497   -2.9861    1.7642 O   0  0  0  0  0  0  0  0  0  0  0  0
   -2.1602   -1.3909    0.2470 N   0  0  0  0  0  0  0  0  0  0  0  0
   -2.9065   -0.9775   -0.3091 H   0  0  0  0  0  0  0  0  0  0  0  0
   -0.8967   -0.6435    0.3333 C   0  0  1  0  0  0  0  0  0  0  0  0
   -0.3458   -0.9142    1.2401 H   0  0  0  0  0  0  0  0  0  0  0  0
   -0.0426   -0.9481   -0.9120 C   0  0  0  0  0  0  0  0  0  0  0  0
   -0.6881   -1.1059   -1.7824 H   0  0  0  0  0  0  0  0  0  0  0  0
    0.5930   -0.0863   -1.1426 H   0  0  0  0  0  0  0  0  0  0  0  0
    0.8547   -2.1408   -0.6851 C   0  0  0  0  0  0  0  0  0  0  0  0
    0.5521   -3.3793   -1.2689 C   0  0  0  0  0  0  0  0  0  0  0  0
   -0.3434   -3.4898   -1.8727 H   0  0  0  0  0  0  0  0  0  0  0  0
    1.3918   -4.4816   -1.0699 C   0  0  0  0  0  0  0  0  0  0  0  0
    1.1382   -5.4330   -1.5236 H   0  0  0  0  0  0  0  0  0  0  0  0
    2.5445   -4.3544   -0.2921 C   0  0  0  0  0  0  0  0  0  0  0  0
    3.3707   -5.4226   -0.0934 O   0  0  0  0  0  0  0  0  0  0  0  0
    2.9878   -6.2153   -0.4990 H   0  0  0  0  0  0  0  0  0  0  0  0
    2.8545   -3.1247    0.2850 C   0  0  0  0  0  0  0  0  0  0  0  0
    3.7519   -3.0360    0.8883 H   0  0  0  0  0  0  0  0  0  0  0  0
    2.0171   -2.0207    0.0915 C   0  0  0  0  0  0  0  0  0  0  0  0
    2.2755   -1.0703    0.5475 H   0  0  0  0  0  0  0  0  0  0  0  0
   -1.1870    0.8668    0.3993 C   0  0  0  0  0  0  0  0  0  0  0  0
   -2.0235    1.3608   -0.3484 O   0  0  0  0  0  0  0  0  0  0  0  0
   -0.5246    1.6703    1.3087 N   0  0  0  0  0  0  0  0  0  0  0  0
    0.1071    1.2175    1.9634 H   0  0  0  0  0  0  0  0  0  0  0  0
   -0.7848    3.0975    1.4521 C   0  0  0  0  0  0  0  0  0  0  0  0
   -1.8346    3.2724    1.7100 H   0  0  0  0  0  0  0  0  0  0  0  0
   -0.1593    3.5180    2.2455 H   0  0  0  0  0  0  0  0  0  0  0  0
   -0.5587    3.6231    0.5184 H   0  0  0  0  0  0  0  0  0  0  0  0
  1  2  1  0  0  0  0
  2  3  1  0  0  0  0
  2  4  1  0  0  0  0
  2  5  1  0  0  0  0
  5  6  2  0  0  0  0
  5  7  1  0  0  0  0
  7  8  1  0  0  0  0
  7  9  1  0  0  0  0
  9 10  1  0  0  0  0
  9 11  1  0  0  0  0
  9 26  1  0  0  0  0
 11 12  1  0  0  0  0
 11 13  1  0  0  0  0
 11 14  1  0  0  0  0
 14 15  2  0  0  0  0
 14 24  1  0  0  0  0
 15 16  1  0  0  0  0
 15 17  1  0  0  0  0
 17 18  1  0  0  0  0
 17 19  2  0  0  0  0
 19 20  1  0  0  0  0
 19 22  1  0  0  0  0
 20 21  1  0  0  0  0
 22 23  1  0  0  0  0
 22 24  2  0  0  0  0
 24 25  1  0  0  0  0
 26 27  2  0  0  0  0
 26 28  1  0  0  0  0
 28 29  1  0  0  0  0
 28 30  1  0  0  0  0
 30 31  1  0  0  0  0
 30 32  1  0  0  0  0
 30 33  1  0  0  0  0
M  END
$$$$

  -OEChem-04042216043D

 33 33  0     1  0  0  0  0  0999 V2000
   -3.9269   -4.0399    1.4616 H   0  0  0  0  0  0  0  0  0  0  0  0
   -3.8485   -3.1564    0.8218 C   0  0  0  0  0  0  0  0  0  0  0  0
   -4.6399   -2.4531    1.0923 H   0  0  0  0  0  0  0  0  0  0  0  0
   -3.9819   -3.4622   -0.2186 H   0  0  0  0  0  0  0  0  0  0  0  0
   -2.4914   -2.5015    0.9981 C   0  0  0  0  0  0  0  0  0  0  0  0
   -1.7025   -2.9492    1.8148 O   0  0  0  0  0  0  0  0  0  0  0  0
   -2.1736   -1.3827    0.2562 N   0  0  0  0  0  0  0  0  0  0  0  0
   -2.9022   -0.9835   -0.3329 H   0  0  0  0  0  0  0  0  0  0  0  0
   -0.9081   -0.6406    0.3579 C   0  0  1  0  0  0  0  0  0  0  0  0
   -0.3791   -0.9014    1.2796 H   0  0  0  0  0  0  0  0  0  0  0  0
   -0.0368   -0.9611   -0.8734 C   0  0  0  0  0  0  0  0  0  0  0  0
   -0.6753   -1.1113   -1.7505 H   0  0  0  0  0  0  0  0  0  0  0  0
    0.6080   -0.1042   -1.0958 H   0  0  0  0  0  0  0  0  0  0  0  0
    0.8615   -2.1567   -0.6497 C   0  0  0  0  0  0  0  0  0  0  0  0
    0.7481   -3.2873   -1.4729 C   0  0  0  0  0  0  0  0  0  0  0  0
   -0.0075   -3.3195   -2.2521 H   0  0  0  0  0  0  0  0  0  0  0  0
    1.5986   -4.3854   -1.2956 C   0  0  0  0  0  0  0  0  0  0  0  0
    1.4901   -5.2531   -1.9366 H   0  0  0  0  0  0  0  0  0  0  0  0
    2.5783   -4.3608   -0.3011 C   0  0  0  0  0  0  0  0  0  0  0  0
    3.4142   -5.4249   -0.1205 O   0  0  0  0  0  0  0  0  0  0  0  0
    3.1687   -6.1441   -0.7222 H   0  0  0  0  0  0  0  0  0  0  0  0
    2.7057   -3.2369    0.5121 C   0  0  0  0  0  0  0  0  0  0  0  0
    3.4703   -3.2259    1.2818 H   0  0  0  0  0  0  0  0  0  0  0  0
    1.8578   -2.1376    0.3395 C   0  0  0  0  0  0  0  0  0  0  0  0
    1.9808   -1.2700    0.9795 H   0  0  0  0  0  0  0  0  0  0  0  0
   -1.1914    0.8723    0.4008 C   0  0  0  0  0  0  0  0  0  0  0  0
   -2.0082    1.3628   -0.3708 O   0  0  0  0  0  0  0  0  0  0  0  0
   -0.5420    1.6831    1.3135 N   0  0  0  0  0  0  0  0  0  0  0  0
    0.0808    1.2358    1.9805 H   0  0  0  0  0  0  0  0  0  0  0  0
   -0.7961    3.1134    1.4357 C   0  0  0  0  0  0  0  0  0  0  0  0
   -1.8492    3.2969    1.6736 H   0  0  0  0  0  0  0  0  0  0  0  0
   -0.1820    3.5396    2.2347 H   0  0  0  0  0  0  0  0  0  0  0  0
   -0.5510    3.6278    0.5006 H   0  0  0  0  0  0  0  0  0  0  0  0
  1  2  1  0  0  0  0
  2  3  1  0  0  0  0
  2  4  1  0  0  0  0
  2  5  1  0  0  0  0
  5  6  2  0  0  0  0
  5  7  1  0  0  0  0
  7  8  1  0  0  0  0
  7  9  1  0  0  0  0
  9 10  1  0  0  0  0
  9 11  1  0  0  0  0
  9 26  1  0  0  0  0
 11 12  1  0  0  0  0
 11 13  1  0  0  0  0
 11 14  1  0  0  0  0
 14 15  2  0  0  0  0
 14 24  1  0  0  0  0
 15 16  1  0  0  0  0
 15 17  1  0  0  0  0
 17 18  1  0  0  0  0
 17 19  2  0  0  0  0
 19 20  1  0  0  0  0
 19 22  1  0  0  0  0
 20 21  1  0  0  0  0
 22 23  1  0  0  0  0
 22 24  2  0  0  0  0
 24 25  1  0  0  0  0
 26 27  2  0  0  0  0
 26 28  1  0  0  0  0
 28 29  1  0  0  0  0
 28 30  1  0  0  0  0
 30 31  1  0  0  0  0
 30 32  1  0  0  0  0
 30 33  1  0  0  0  0
M  END
$$$$

  -OEChem-04042216043D

 33 33  0     1  0  0  0  0  0999 V2000
   -3.9825   -4.0221    1.4460 H   0  0  0  0  0  0  0  0  0  0  0  0
   -3.8927   -3.1337    0.8148 C   0  0  0  0  0  0  0  0  0  0  0  0
   -4.6915   -2.4346    1.0736 H   0  0  0  0  0  0  0  0  0  0  0  0
   -4.0026   -3.4327   -0.2304 H   0  0  0  0  0  0  0  0  0  0  0  0
   -2.5416   -2.4769    1.0260 C   0  0  0  0  0  0  0  0  0  0  0  0
   -1.7835   -2.9057    1.8813 O   0  0  0  0  0  0  0  0  0  0  0  0
   -2.1947   -1.3747    0.2729 N   0  0  0  0  0  0  0  0  0  0  0  0
   -2.9001   -0.9860   -0.3503 H   0  0  0  0  0  0  0  0  0  0  0  0
   -0.9265   -0.6416    0.3977 C   0  0  1  0  0  0  0  0  0  0  0  0
   -0.4312   -0.8858    1.3405 H   0  0  0  0  0  0  0  0  0  0  0  0
   -0.0269   -0.9834   -0.8100 C   0  0  0  0  0  0  0  0  0  0  0  0
   -0.6537   -1.1280   -1.6960 H   0  0  0  0  0  0  0  0  0  0  0  0
    0.6255   -0.1294   -1.0219 H   0  0  0  0  0  0  0  0  0  0  0  0
    0.8767   -2.1818   -0.5974 C   0  0  0  0  0  0  0  0  0  0  0  0
    0.9860   -3.1461   -1.6120 C   0  0  0  0  0  0  0  0  0  0  0  0
    0.3939   -3.0514   -2.5174 H   0  0  0  0  0  0  0  0  0  0  0  0
    1.8486   -4.2396   -1.4720 C   0  0  0  0  0  0  0  0  0  0  0  0
    1.9088   -4.9761   -2.2655 H   0  0  0  0  0  0  0  0  0  0  0  0
    2.6262   -4.3763   -0.3214 C   0  0  0  0  0  0  0  0  0  0  0  0
    3.4730   -5.4372   -0.1759 O   0  0  0  0  0  0  0  0  0  0  0  0
    3.3890   -6.0338   -0.9353 H   0  0  0  0  0  0  0  0  0  0  0  0
    2.5420   -3.4152    0.6829 C   0  0  0  0  0  0  0  0  0  0  0  0
    3.1535   -3.5257    1.5724 H   0  0  0  0  0  0  0  0  0  0  0  0
    1.6809   -2.3207    0.5476 C   0  0  0  0  0  0  0  0  0  0  0  0
    1.6535   -1.5842    1.3430 H   0  0  0  0  0  0  0  0  0  0  0  0
   -1.2029    0.8736    0.4049 C   0  0  0  0  0  0  0  0  0  0  0  0
   -1.9946    1.3539   -0.3988 O   0  0  0  0  0  0  0  0  0  0  0  0
   -0.5763    1.6991    1.3202 N   0  0  0  0  0  0  0  0  0  0  0  0
    0.0371    1.2659    2.0046 H   0  0  0  0  0  0  0  0  0  0  0  0
   -0.8125    3.1357    1.3937 C   0  0  0  0  0  0  0  0  0  0  0  0
   -1.8709    3.3413    1.5853 H   0  0  0  0  0  0  0  0  0  0  0  0
   -0.2229    3.5753    2.2040 H   0  0  0  0  0  0  0  0  0  0  0  0
   -0.5237    3.6191    0.4544 H   0  0  0  0  0  0  0  0  0  0  0  0
  1  2  1  0  0  0  0
  2  3  1  0  0  0  0
  2  4  1  0  0  0  0
  2  5  1  0  0  0  0
  5  6  2  0  0  0  0
  5  7  1  0  0  0  0
  7  8  1  0  0  0  0
  7  9  1  0  0  0  0
  9 10  1  0  0  0  0
  9 11  1  0  0  0  0
  9 26  1  0  0  0  0
 11 12  1  0  0  0  0
 11 13  1  0  0  0  0
 11 14  1  0  0  0  0
 14 15  2  0  0  0  0
 14 24  1  0  0  0  0
 15 16  1  0  0  0  0
 15 17  1  0  0  0  0
 17 18  1  0  0  0  0
 17 19  2  0  0  0  0
 19 20  1  0  0  0  0
 19 22  1  0  0  0  0
 20 21  1  0  0  0  0
 22 23  1  0  0  0  0
 22 24  2  0  0  0  0
 24 25  1  0  0  0  0
 26 27  2  0  0  0  0
 26 28  1  0  0  0  0
 28 29  1  0  0  0  0
 28 30  1  0  0  0  0
 30 31  1  0  0  0  0
 30 32  1  0  0  0  0
 30 33  1  0  0  0  0
M  END
$$$$

  -OEChem-04042216043D

 33 33  0     1  0  0  0  0  0999 V2000
   -4.0297   -3.9822    1.4721 H   0  0  0  0  0  0  0  0  0  0  0  0
   -3.9248   -3.1052    0.8273 C   0  0  0  0  0  0  0  0  0  0  0  0
   -4.7264   -2.3994    1.0578 H   0  0  0  0  0  0  0  0  0  0  0  0
   -4.0153   -3.4224   -0.2144 H   0  0  0  0  0  0  0  0  0  0  0  0
   -2.5755   -2.4490    1.0527 C   0  0  0  0  0  0  0  0  0  0  0  0
   -1.8375   -2.8611    1.9341 O   0  0  0  0  0  0  0  0  0  0  0  0
   -2.2060   -1.3649    0.2839 N   0  0  0  0  0  0  0  0  0  0  0  0
   -2.8931   -0.9868   -0.3657 H   0  0  0  0  0  0  0  0  0  0  0  0
   -0.9369   -0.6374    0.4272 C   0  0  1  0  0  0  0  0  0  0  0  0
   -0.4709   -0.8517    1.3894 H   0  0  0  0  0  0  0  0  0  0  0  0
   -0.0080   -0.9998   -0.7543 C   0  0  0  0  0  0  0  0  0  0  0  0
   -0.6222   -1.1477   -1.6490 H   0  0  0  0  0  0  0  0  0  0  0  0
    0.6452   -0.1449   -0.9596 H   0  0  0  0  0  0  0  0  0  0  0  0
    0.9070   -2.1974   -0.5534 C   0  0  0  0  0  0  0  0  0  0  0  0
    1.2638   -2.9509   -1.6842 C   0  0  0  0  0  0  0  0  0  0  0  0
    0.8676   -2.6844   -2.6596 H   0  0  0  0  0  0  0  0  0  0  0  0
    2.1279   -4.0470   -1.5794 C   0  0  0  0  0  0  0  0  0  0  0  0
    2.3833   -4.6126   -2.4687 H   0  0  0  0  0  0  0  0  0  0  0  0
    2.6569   -4.4052   -0.3397 C   0  0  0  0  0  0  0  0  0  0  0  0
    3.5032   -5.4702   -0.2240 O   0  0  0  0  0  0  0  0  0  0  0  0
    3.6191   -5.8968   -1.0865 H   0  0  0  0  0  0  0  0  0  0  0  0
    2.3198   -3.6637    0.7889 C   0  0  0  0  0  0  0  0  0  0  0  0
    2.7335   -3.9491    1.7505 H   0  0  0  0  0  0  0  0  0  0  0  0
    1.4579   -2.5658    0.6895 C   0  0  0  0  0  0  0  0  0  0  0  0
    1.2350   -2.0228    1.6003 H   0  0  0  0  0  0  0  0  0  0  0  0
   -1.2107    0.8788    0.3952 C   0  0  0  0  0  0  0  0  0  0  0  0
   -1.9800    1.3440   -0.4385 O   0  0  0  0  0  0  0  0  0  0  0  0
   -0.6064    1.7218    1.3097 N   0  0  0  0  0  0  0  0  0  0  0  0
   -0.0072    1.3014    2.0147 H   0  0  0  0  0  0  0  0  0  0  0  0
   -0.8383    3.1604    1.3482 C   0  0  0  0  0  0  0  0  0  0  0  0
   -1.8978    3.3738    1.5243 H   0  0  0  0  0  0  0  0  0  0  0  0
   -0.2553    3.6157    2.1545 H   0  0  0  0  0  0  0  0  0  0  0  0
   -0.5377    3.6217    0.4016 H   0  0  0  0  0  0  0  0  0  0  0  0
  1  2  1  0  0  0  0
  2  3  1  0  0  0  0
  2  4  1  0  0  0  0
  2  5  1  0  0  0  0
  5  6  2  0  0  0  0
  5  7  1  0  0  0  0
  7  8  1  0  0  0  0
  7  9  1  0  0  0  0
  9 10  1  0  0  0  0
  9 11  1  0  0  0  0
  9 26  1  0  0  0  0
 11 12  1  0  0  0  0
 11 13  1  0  0  0  0
 11 14  1  0  0  0  0
 14 15  2  0  0  0  0
 14 24  1  0  0  0  0
 15 16  1  0  0  0  0
 15 17  1  0  0  0  0
 17 18  1  0  0  0  0
 17 19  2  0  0  0  0
 19 20  1  0  0  0  0
 19 22  1  0  0  0  0
 20 21  1  0  0  0  0
 22 23  1  0  0  0  0
 22 24  2  0  0  0  0
 24 25  1  0  0  0  0
 26 27  2  0  0  0  0
 26 28  1  0  0  0  0
 28 29  1  0  0  0  0
 28 30  1  0  0  0  0
 30 31  1  0  0  0  0
 30 32  1  0  0  0  0
 30 33  1  0  0  0  0
M  END
$$$$

  -OEChem-04042216043D

 33 33  0     1  0  0  0  0  0999 V2000
   -4.0693   -3.9600    1.4761 H   0  0  0  0  0  0  0  0  0  0  0  0
   -3.9526   -3.0834    0.8328 C   0  0  0  0  0  0  0  0  0  0  0  0
   -4.7579   -2.3771    1.0489 H   0  0  0  0  0  0  0  0  0  0  0  0
   -4.0253   -3.4013   -0.2101 H   0  0  0  0  0  0  0  0  0  0  0  0
   -2.6074   -2.4275    1.0816 C   0  0  0  0  0  0  0  0  0  0  0  0
   -1.8966   -2.8217    1.9930 O   0  0  0  0  0  0  0  0  0  0  0  0
   -2.2141   -1.3586    0.3039 N   0  0  0  0  0  0  0  0  0  0  0  0
   -2.8814   -0.9952   -0.3742 H   0  0  0  0  0  0  0  0  0  0  0  0
   -0.9413   -0.6374    0.4523 C   0  0  1  0  0  0  0  0  0  0  0  0
   -0.4811   -0.8323    1.4219 H   0  0  0  0  0  0  0  0  0  0  0  0
    0.0027   -1.0115   -0.7140 C   0  0  0  0  0  0  0  0  0  0  0  0
   -0.6026   -1.1657   -1.6139 H   0  0  0  0  0  0  0  0  0  0  0  0
    0.6559   -0.1555   -0.9163 H   0  0  0  0  0  0  0  0  0  0  0  0
    0.9233   -2.2072   -0.5209 C   0  0  0  0  0  0  0  0  0  0  0  0
    1.5350   -2.7398   -1.6682 C   0  0  0  0  0  0  0  0  0  0  0  0
    1.3376   -2.2953   -2.6395 H   0  0  0  0  0  0  0  0  0  0  0  0
    2.4042   -3.8335   -1.5847 C   0  0  0  0  0  0  0  0  0  0  0  0
    2.8643   -4.2198   -2.4874 H   0  0  0  0  0  0  0  0  0  0  0  0
    2.6741   -4.4193   -0.3485 C   0  0  0  0  0  0  0  0  0  0  0  0
    3.5203   -5.4861   -0.2521 O   0  0  0  0  0  0  0  0  0  0  0  0
    3.8407   -5.7364   -1.1319 H   0  0  0  0  0  0  0  0  0  0  0  0
    2.0689   -3.9106    0.7969 C   0  0  0  0  0  0  0  0  0  0  0  0
    2.2726   -4.3776    1.7550 H   0  0  0  0  0  0  0  0  0  0  0  0
    1.2001   -2.8165    0.7195 C   0  0  0  0  0  0  0  0  0  0  0  0
    0.7500   -2.4791    1.6458 H   0  0  0  0  0  0  0  0  0  0  0  0
   -1.2096    0.8789    0.3917 C   0  0  0  0  0  0  0  0  0  0  0  0
   -1.9654    1.3339   -0.4600 O   0  0  0  0  0  0  0  0  0  0  0  0
   -0.6136    1.7334    1.3008 N   0  0  0  0  0  0  0  0  0  0  0  0
   -0.0208    1.3216    2.0162 H   0  0  0  0  0  0  0  0  0  0  0  0
   -0.8379    3.1737    1.3136 C   0  0  0  0  0  0  0  0  0  0  0  0
   -1.8983    3.3956    1.4735 H   0  0  0  0  0  0  0  0  0  0  0  0
   -0.2621    3.6381    2.1198 H   0  0  0  0  0  0  0  0  0  0  0  0
   -0.5235    3.6190    0.3639 H   0  0  0  0  0  0  0  0  0  0  0  0
  1  2  1  0  0  0  0
  2  3  1  0  0  0  0
  2  4  1  0  0  0  0
  2  5  1  0  0  0  0
  5  6  2  0  0  0  0
  5  7  1  0  0  0  0
  7  8  1  0  0  0  0
  7  9  1  0  0  0  0
  9 10  1  0  0  0  0
  9 11  1  0  0  0  0
  9 26  1  0  0  0  0
 11 12  1  0  0  0  0
 11 13  1  0  0  0  0
 11 14  1  0  0  0  0
 14 15  2  0  0  0  0
 14 24  1  0  0  0  0
 15 16  1  0  0  0  0
 15 17  1  0  0  0  0
 17 18  1  0  0  0  0
 17 19  2  0  0  0  0
 19 20  1  0  0  0  0
 19 22  1  0  0  0  0
 20 21  1  0  0  0  0
 22 23  1  0  0  0  0
 22 24  2  0  0  0  0
 24 25  1  0  0  0  0
 26 27  2  0  0  0  0
 26 28  1  0  0  0  0
 28 29  1  0  0  0  0
 28 30  1  0  0  0  0
 30 31  1  0  0  0  0
 30 32  1  0  0  0  0
 30 33  1  0  0  0  0
M  END
$$$$

  -OEChem-04042216043D

 33 33  0     1  0  0  0  0  0999 V2000
   -4.2540   -3.8896    1.5116 H   0  0  0  0  0  0  0  0  0  0  0  0
   -4.0515   -3.0723    0.8139 C   0  0  0  0  0  0  0  0  0  0  0  0
   -4.8836   -2.3648    0.8467 H   0  0  0  0  0  0  0  0  0  0  0  0
   -3.9714   -3.4836   -0.1953 H   0  0  0  0  0  0  0  0  0  0  0  0
   -2.7602   -2.3719    1.1915 C   0  0  0  0  0  0  0  0  0  0  0  0
   -2.1982   -2.6573    2.2368 O   0  0  0  0  0  0  0  0  0  0  0  0
   -2.2853   -1.3484    0.3991 N   0  0  0  0  0  0  0  0  0  0  0  0
   -2.8620   -1.0796   -0.3955 H   0  0  0  0  0  0  0  0  0  0  0  0
   -0.9802   -0.6753    0.5232 C   0  0  1  0  0  0  0  0  0  0  0  0
   -0.5026   -0.9010    1.4815 H   0  0  0  0  0  0  0  0  0  0  0  0
   -0.0575   -1.0785   -0.6540 C   0  0  0  0  0  0  0  0  0  0  0  0
   -0.6252   -0.9662   -1.5842 H   0  0  0  0  0  0  0  0  0  0  0  0
    0.7653   -0.3561   -0.6926 H   0  0  0  0  0  0  0  0  0  0  0  0
    0.5822   -2.4562   -0.6595 C   0  0  0  0  0  0  0  0  0  0  0  0
    1.4074   -2.7773   -1.7502 C   0  0  0  0  0  0  0  0  0  0  0  0
    1.5248   -2.0669   -2.5638 H   0  0  0  0  0  0  0  0  0  0  0  0
    2.0728   -4.0068   -1.8183 C   0  0  0  0  0  0  0  0  0  0  0  0
    2.6905   -4.2328   -2.6806 H   0  0  0  0  0  0  0  0  0  0  0  0
    1.9436   -4.9298   -0.7810 C   0  0  0  0  0  0  0  0  0  0  0  0
    2.5857   -6.1331   -0.8344 O   0  0  0  0  0  0  0  0  0  0  0  0
    3.0875   -6.2059   -1.6606 H   0  0  0  0  0  0  0  0  0  0  0  0
    1.1630   -4.6096    0.3260 C   0  0  0  0  0  0  0  0  0  0  0  0
    1.0835   -5.3209    1.1419 H   0  0  0  0  0  0  0  0  0  0  0  0
    0.4982   -3.3801    0.3964 C   0  0  0  0  0  0  0  0  0  0  0  0
   -0.0579   -3.1631    1.2974 H   0  0  0  0  0  0  0  0  0  0  0  0
   -1.1799    0.8494    0.4131 C   0  0  0  0  0  0  0  0  0  0  0  0
   -1.8879    1.3140   -0.4740 O   0  0  0  0  0  0  0  0  0  0  0  0
   -0.5444    1.7046    1.2944 N   0  0  0  0  0  0  0  0  0  0  0  0
   -0.0195    1.2867    2.0579 H   0  0  0  0  0  0  0  0  0  0  0  0
   -0.7118    3.1526    1.2641 C   0  0  0  0  0  0  0  0  0  0  0  0
   -1.7566    3.4213    1.4520 H   0  0  0  0  0  0  0  0  0  0  0  0
   -0.0897    3.6219    2.0322 H   0  0  0  0  0  0  0  0  0  0  0  0
   -0.4149    3.5523    0.2887 H   0  0  0  0  0  0  0  0  0  0  0  0
  1  2  1  0  0  0  0
  2  3  1  0  0  0  0
  2  4  1  0  0  0  0
  2  5  1  0  0  0  0
  5  6  2  0  0  0  0
  5  7  1  0  0  0  0
  7  8  1  0  0  0  0
  7  9  1  0  0  0  0
  9 10  1  0  0  0  0
  9 11  1  0  0  0  0
  9 26  1  0  0  0  0
 11 12  1  0  0  0  0
 11 13  1  0  0  0  0
 11 14  1  0  0  0  0
 14 15  2  0  0  0  0
 14 24  1  0  0  0  0
 15 16  1  0  0  0  0
 15 17  1  0  0  0  0
 17 18  1  0  0  0  0
 17 19  2  0  0  0  0
 19 20  1  0  0  0  0
 19 22  1  0  0  0  0
 20 21  1  0  0  0  0
 22 23  1  0  0  0  0
 22 24  2  0  0  0  0
 24 25  1  0  0  0  0
 26 27  2  0  0  0  0
 26 28  1  0  0  0  0
 28 29  1  0  0  0  0
 28 30  1  0  0  0  0
 30 31  1  0  0  0  0
 30 32  1  0  0  0  0
 30 33  1  0  0  0  0
M  END
$$$$

  -OEChem-04042216043D

 33 33  0     1  0  0  0  0  0999 V2000
   -4.3376   -3.8139    1.6515 H   0  0  0  0  0  0  0  0  0  0  0  0
   -4.1249   -3.0139    0.9368 C   0  0  0  0  0  0  0  0  0  0  0  0
   -4.9363   -2.2827    0.9727 H   0  0  0  0  0  0  0  0  0  0  0  0
   -4.0745   -3.4434   -0.0668 H   0  0  0  0  0  0  0  0  0  0  0  0
   -2.8082   -2.3433    1.2791 C   0  0  0  0  0  0  0  0  0  0  0  0
   -2.2342   -2.6243    2.3195 O   0  0  0  0  0  0  0  0  0  0  0  0
   -2.3187   -1.3464    0.4623 N   0  0  0  0  0  0  0  0  0  0  0  0
   -2.9065   -1.0690   -0.3215 H   0  0  0  0  0  0  0  0  0  0  0  0
   -0.9959   -0.7001    0.5490 C   0  0  1  0  0  0  0  0  0  0  0  0
   -0.5085   -0.9246    1.5033 H   0  0  0  0  0  0  0  0  0  0  0  0
   -0.0699   -1.1041   -0.6310 C   0  0  0  0  0  0  0  0  0  0  0  0
   -0.6412   -0.9865   -1.5583 H   0  0  0  0  0  0  0  0  0  0  0  0
    0.7455   -0.3728   -0.6655 H   0  0  0  0  0  0  0  0  0  0  0  0
    0.5865   -2.4757   -0.6744 C   0  0  0  0  0  0  0  0  0  0  0  0
    1.6440   -2.6492   -1.5848 C   0  0  0  0  0  0  0  0  0  0  0  0
    1.9329   -1.8310   -2.2383 H   0  0  0  0  0  0  0  0  0  0  0  0
    2.3308   -3.8654   -1.6790 C   0  0  0  0  0  0  0  0  0  0  0  0
    3.1346   -3.9715   -2.3994 H   0  0  0  0  0  0  0  0  0  0  0  0
    1.9824   -4.9301   -0.8489 C   0  0  0  0  0  0  0  0  0  0  0  0
    2.6428   -6.1224   -0.9267 O   0  0  0  0  0  0  0  0  0  0  0  0
    3.3321   -6.0770   -1.6067 H   0  0  0  0  0  0  0  0  0  0  0  0
    0.9554   -4.7669    0.0753 C   0  0  0  0  0  0  0  0  0  0  0  0
    0.6980   -5.5912    0.7324 H   0  0  0  0  0  0  0  0  0  0  0  0
    0.2682   -3.5519    0.1690 C   0  0  0  0  0  0  0  0  0  0  0  0
   -0.4949   -3.4732    0.9247 H   0  0  0  0  0  0  0  0  0  0  0  0
   -1.1814    0.8248    0.4129 C   0  0  0  0  0  0  0  0  0  0  0  0
   -1.9066    1.2819   -0.4643 O   0  0  0  0  0  0  0  0  0  0  0  0
   -0.5182    1.6878    1.2655 N   0  0  0  0  0  0  0  0  0  0  0  0
    0.0153    1.2769    2.0268 H   0  0  0  0  0  0  0  0  0  0  0  0
   -0.6793    3.1360    1.2198 C   0  0  0  0  0  0  0  0  0  0  0  0
   -1.7197    3.4125    1.4209 H   0  0  0  0  0  0  0  0  0  0  0  0
   -0.0428    3.6110    1.9725 H   0  0  0  0  0  0  0  0  0  0  0  0
   -0.3957    3.5228    0.2352 H   0  0  0  0  0  0  0  0  0  0  0  0
  1  2  1  0  0  0  0
  2  3  1  0  0  0  0
  2  4  1  0  0  0  0
  2  5  1  0  0  0  0
  5  6  2  0  0  0  0
  5  7  1  0  0  0  0
  7  8  1  0  0  0  0
  7  9  1  0  0  0  0
  9 10  1  0  0  0  0
  9 11  1  0  0  0  0
  9 26  1  0  0  0  0
 11 12  1  0  0  0  0
 11 13  1  0  0  0  0
 11 14  1  0  0  0  0
 14 15  2  0  0  0  0
 14 24  1  0  0  0  0
 15 16  1  0  0  0  0
 15 17  1  0  0  0  0
 17 18  1  0  0  0  0
 17 19  2  0  0  0  0
 19 20  1  0  0  0  0
 19 22  1  0  0  0  0
 20 21  1  0  0  0  0
 22 23  1  0  0  0  0
 22 24  2  0  0  0  0
 24 25  1  0  0  0  0
 26 27  2  0  0  0  0
 26 28  1  0  0  0  0
 28 29  1  0  0  0  0
 28 30  1  0  0  0  0
 30 31  1  0  0  0  0
 30 32  1  0  0  0  0
 30 33  1  0  0  0  0
M  END
$$$$

  -OEChem-04042216043D

 33 33  0     1  0  0  0  0  0999 V2000
   -4.4177   -3.7551    1.6342 H   0  0  0  0  0  0  0  0  0  0  0  0
   -4.2100   -2.9297    0.9473 C   0  0  0  0  0  0  0  0  0  0  0  0
   -4.9692   -2.1561    1.0850 H   0  0  0  0  0  0  0  0  0  0  0  0
   -4.2625   -3.3034   -0.0781 H   0  0  0  0  0  0  0  0  0  0  0  0
   -2.8326   -2.3561    1.2205 C   0  0  0  0  0  0  0  0  0  0  0  0
   -2.1894   -2.7481    2.1812 O   0  0  0  0  0  0  0  0  0  0  0  0
   -2.3363   -1.3538    0.4132 N   0  0  0  0  0  0  0  0  0  0  0  0
   -2.9590   -0.9856   -0.3042 H   0  0  0  0  0  0  0  0  0  0  0  0
   -1.0086   -0.7219    0.5213 C   0  0  1  0  0  0  0  0  0  0  0  0
   -0.5503   -0.9517    1.4886 H   0  0  0  0  0  0  0  0  0  0  0  0
   -0.0217   -1.0999   -0.6180 C   0  0  0  0  0  0  0  0  0  0  0  0
   -0.5505   -0.9829   -1.5699 H   0  0  0  0  0  0  0  0  0  0  0  0
    0.7811   -0.3544   -0.6083 H   0  0  0  0  0  0  0  0  0  0  0  0
    0.6460   -2.4679   -0.6381 C   0  0  0  0  0  0  0  0  0  0  0  0
    1.9237   -2.5556   -1.2208 C   0  0  0  0  0  0  0  0  0  0  0  0
    2.4046   -1.6633   -1.6107 H   0  0  0  0  0  0  0  0  0  0  0  0
    2.5997   -3.7777   -1.3114 C   0  0  0  0  0  0  0  0  0  0  0  0
    3.5867   -3.8106   -1.7595 H   0  0  0  0  0  0  0  0  0  0  0  0
    2.0034   -4.9436   -0.8334 C   0  0  0  0  0  0  0  0  0  0  0  0
    2.6495   -6.1433   -0.9169 O   0  0  0  0  0  0  0  0  0  0  0  0
    3.5235   -6.0225   -1.3183 H   0  0  0  0  0  0  0  0  0  0  0  0
    0.7305   -4.8793   -0.2758 C   0  0  0  0  0  0  0  0  0  0  0  0
    0.2640   -5.7896    0.0864 H   0  0  0  0  0  0  0  0  0  0  0  0
    0.0539   -3.6579   -0.1857 C   0  0  0  0  0  0  0  0  0  0  0  0
   -0.9379   -3.6732    0.2331 H   0  0  0  0  0  0  0  0  0  0  0  0
   -1.1924    0.8041    0.3998 C   0  0  0  0  0  0  0  0  0  0  0  0
   -1.9256    1.2702   -0.4658 O   0  0  0  0  0  0  0  0  0  0  0  0
   -0.5366    1.6565    1.2684 N   0  0  0  0  0  0  0  0  0  0  0  0
    0.0084    1.2368    2.0167 H   0  0  0  0  0  0  0  0  0  0  0  0
   -0.6947    3.1051    1.2381 C   0  0  0  0  0  0  0  0  0  0  0  0
   -1.7348    3.3814    1.4409 H   0  0  0  0  0  0  0  0  0  0  0  0
   -0.0579    3.5708    1.9965 H   0  0  0  0  0  0  0  0  0  0  0  0
   -0.4090    3.5010    0.2578 H   0  0  0  0  0  0  0  0  0  0  0  0
  1  2  1  0  0  0  0
  2  3  1  0  0  0  0
  2  4  1  0  0  0  0
  2  5  1  0  0  0  0
  5  6  2  0  0  0  0
  5  7  1  0  0  0  0
  7  8  1  0  0  0  0
  7  9  1  0  0  0  0
  9 10  1  0  0  0  0
  9 11  1  0  0  0  0
  9 26  1  0  0  0  0
 11 12  1  0  0  0  0
 11 13  1  0  0  0  0
 11 14  1  0  0  0  0
 14 15  2  0  0  0  0
 14 24  1  0  0  0  0
 15 16  1  0  0  0  0
 15 17  1  0  0  0  0
 17 18  1  0  0  0  0
 17 19  2  0  0  0  0
 19 20  1  0  0  0  0
 19 22  1  0  0  0  0
 20 21  1  0  0  0  0
 22 23  1  0  0  0  0
 22 24  2  0  0  0  0
 24 25  1  0  0  0  0
 26 27  2  0  0  0  0
 26 28  1  0  0  0  0
 28 29  1  0  0  0  0
 28 30  1  0  0  0  0
 30 31  1  0  0  0  0
 30 32  1  0  0  0  0
 30 33  1  0  0  0  0
M  END
$$$$

  -OEChem-04042216043D

 33 33  0     1  0  0  0  0  0999 V2000
   -4.2857   -3.8357    1.6400 H   0  0  0  0  0  0  0  0  0  0  0  0
   -4.1326   -2.9779    0.9790 C   0  0  0  0  0  0  0  0  0  0  0  0
   -4.8887   -2.2213    1.2021 H   0  0  0  0  0  0  0  0  0  0  0  0
   -4.2508   -3.3069   -0.0562 H   0  0  0  0  0  0  0  0  0  0  0  0
   -2.7447   -2.4004    1.1840 C   0  0  0  0  0  0  0  0  0  0  0  0
   -2.0277   -2.8398    2.0680 O   0  0  0  0  0  0  0  0  0  0  0  0
   -2.3097   -1.3649    0.3823 N   0  0  0  0  0  0  0  0  0  0  0  0
   -2.9826   -0.9639   -0.2692 H   0  0  0  0  0  0  0  0  0  0  0  0
   -0.9947   -0.7062    0.4687 C   0  0  1  0  0  0  0  0  0  0  0  0
   -0.5124   -0.9449    1.4222 H   0  0  0  0  0  0  0  0  0  0  0  0
   -0.0248   -1.0648   -0.6874 C   0  0  0  0  0  0  0  0  0  0  0  0
   -0.5697   -0.9719   -1.6328 H   0  0  0  0  0  0  0  0  0  0  0  0
    0.7684   -0.3097   -0.7054 H   0  0  0  0  0  0  0  0  0  0  0  0
    0.6330   -2.4354   -0.6608 C   0  0  0  0  0  0  0  0  0  0  0  0
    2.0105   -2.5256   -0.9308 C   0  0  0  0  0  0  0  0  0  0  0  0
    2.5935   -1.6245   -1.0954 H   0  0  0  0  0  0  0  0  0  0  0  0
    2.6589   -3.7653   -0.9824 C   0  0  0  0  0  0  0  0  0  0  0  0
    3.7252   -3.8029   -1.1762 H   0  0  0  0  0  0  0  0  0  0  0  0
    1.9348   -4.9419   -0.7927 C   0  0  0  0  0  0  0  0  0  0  0  0
    2.5538   -6.1578   -0.8408 O   0  0  0  0  0  0  0  0  0  0  0  0
    3.5066   -6.0405   -0.9744 H   0  0  0  0  0  0  0  0  0  0  0  0
    0.5630   -4.8716   -0.5710 C   0  0  0  0  0  0  0  0  0  0  0  0
   -0.0004   -5.7900   -0.4449 H   0  0  0  0  0  0  0  0  0  0  0  0
   -0.0863   -3.6334   -0.5220 C   0  0  0  0  0  0  0  0  0  0  0  0
   -1.1590   -3.6306   -0.3952 H   0  0  0  0  0  0  0  0  0  0  0  0
   -1.2029    0.8192    0.3943 C   0  0  0  0  0  0  0  0  0  0  0  0
   -1.9763    1.2951   -0.4296 O   0  0  0  0  0  0  0  0  0  0  0  0
   -0.5344    1.6591    1.2660 N   0  0  0  0  0  0  0  0  0  0  0  0
    0.0478    1.2288    1.9792 H   0  0  0  0  0  0  0  0  0  0  0  0
   -0.7135    3.1058    1.2809 C   0  0  0  0  0  0  0  0  0  0  0  0
   -1.7558    3.3612    1.4994 H   0  0  0  0  0  0  0  0  0  0  0  0
   -0.0784    3.5574    2.0492 H   0  0  0  0  0  0  0  0  0  0  0  0
   -0.4404    3.5355    0.3113 H   0  0  0  0  0  0  0  0  0  0  0  0
  1  2  1  0  0  0  0
  2  3  1  0  0  0  0
  2  4  1  0  0  0  0
  2  5  1  0  0  0  0
  5  6  2  0  0  0  0
  5  7  1  0  0  0  0
  7  8  1  0  0  0  0
  7  9  1  0  0  0  0
  9 10  1  0  0  0  0
  9 11  1  0  0  0  0
  9 26  1  0  0  0  0
 11 12  1  0  0  0  0
 11 13  1  0  0  0  0
 11 14  1  0  0  0  0
 14 15  2  0  0  0  0
 14 24  1  0  0  0  0
 15 16  1  0  0  0  0
 15 17  1  0  0  0  0
 17 18  1  0  0  0  0
 17 19  2  0  0  0  0
 19 20  1  0  0  0  0
 19 22  1  0  0  0  0
 20 21  1  0  0  0  0
 22 23  1  0  0  0  0
 22 24  2  0  0  0  0
 24 25  1  0  0  0  0
 26 27  2  0  0  0  0
 26 28  1  0  0  0  0
 28 29  1  0  0  0  0
 28 30  1  0  0  0  0
 30 31  1  0  0  0  0
 30 32  1  0  0  0  0
 30 33  1  0  0  0  0
M  END
$$$$

  -OEChem-04042216043D

 33 33  0     1  0  0  0  0  0999 V2000
   -4.1515   -3.9126    1.6080 H   0  0  0  0  0  0  0  0  0  0  0  0
   -4.0287   -3.0495    0.9477 C   0  0  0  0  0  0  0  0  0  0  0  0
   -4.7951   -2.3088    1.1883 H   0  0  0  0  0  0  0  0  0  0  0  0
   -4.1598   -3.3770   -0.0864 H   0  0  0  0  0  0  0  0  0  0  0  0
   -2.6494   -2.4444    1.1292 C   0  0  0  0  0  0  0  0  0  0  0  0
   -1.8994   -2.8875    1.9836 O   0  0  0  0  0  0  0  0  0  0  0  0
   -2.2645   -1.3762    0.3446 N   0  0  0  0  0  0  0  0  0  0  0  0
   -2.9640   -0.9730   -0.2764 H   0  0  0  0  0  0  0  0  0  0  0  0
   -0.9658   -0.6872    0.4246 C   0  0  1  0  0  0  0  0  0  0  0  0
   -0.4575   -0.9391    1.3611 H   0  0  0  0  0  0  0  0  0  0  0  0
   -0.0314   -1.0268   -0.7596 C   0  0  0  0  0  0  0  0  0  0  0  0
   -0.5981   -0.9433   -1.6930 H   0  0  0  0  0  0  0  0  0  0  0  0
    0.7631   -0.2744   -0.8048 H   0  0  0  0  0  0  0  0  0  0  0  0
    0.6058   -2.4010   -0.6998 C   0  0  0  0  0  0  0  0  0  0  0  0
    2.0056   -2.5170   -0.6643 C   0  0  0  0  0  0  0  0  0  0  0  0
    2.6262   -1.6270   -0.6230 H   0  0  0  0  0  0  0  0  0  0  0  0
    2.6215   -3.7742   -0.6712 C   0  0  0  0  0  0  0  0  0  0  0  0
    3.7030   -3.8392   -0.6282 H   0  0  0  0  0  0  0  0  0  0  0  0
    1.8478   -4.9336   -0.7400 C   0  0  0  0  0  0  0  0  0  0  0  0
    2.4376   -6.1649   -0.7505 O   0  0  0  0  0  0  0  0  0  0  0  0
    3.3973   -6.0737   -0.6499 H   0  0  0  0  0  0  0  0  0  0  0  0
    0.4613   -4.8299   -0.8135 C   0  0  0  0  0  0  0  0  0  0  0  0
   -0.1339   -5.7344   -0.8810 H   0  0  0  0  0  0  0  0  0  0  0  0
   -0.1566   -3.5749   -0.8071 C   0  0  0  0  0  0  0  0  0  0  0  0
   -1.2348   -3.5250   -0.8990 H   0  0  0  0  0  0  0  0  0  0  0  0
   -1.1991    0.8350    0.3965 C   0  0  0  0  0  0  0  0  0  0  0  0
   -1.9936    1.3191   -0.4021 O   0  0  0  0  0  0  0  0  0  0  0  0
   -0.5289    1.6628    1.2779 N   0  0  0  0  0  0  0  0  0  0  0  0
    0.0673    1.2234    1.9740 H   0  0  0  0  0  0  0  0  0  0  0  0
   -0.7377    3.1045    1.3366 C   0  0  0  0  0  0  0  0  0  0  0  0
   -1.7816    3.3316    1.5773 H   0  0  0  0  0  0  0  0  0  0  0  0
   -0.1005    3.5479    2.1079 H   0  0  0  0  0  0  0  0  0  0  0  0
   -0.4892    3.5670    0.3755 H   0  0  0  0  0  0  0  0  0  0  0  0
  1  2  1  0  0  0  0
  2  3  1  0  0  0  0
  2  4  1  0  0  0  0
  2  5  1  0  0  0  0
  5  6  2  0  0  0  0
  5  7  1  0  0  0  0
  7  8  1  0  0  0  0
  7  9  1  0  0  0  0
  9 10  1  0  0  0  0
  9 11  1  0  0  0  0
  9 26  1  0  0  0  0
 11 12  1  0  0  0  0
 11 13  1  0  0  0  0
 11 14  1  0  0  0  0
 14 15  2  0  0  0  0
 14 24  1  0  0  0  0
 15 16  1  0  0  0  0
 15 17  1  0  0  0  0
 17 18  1  0  0  0  0
 17 19  2  0  0  0  0
 19 20  1  0  0  0  0
 19 22  1  0  0  0  0
 20 21  1  0  0  0  0
 22 23  1  0  0  0  0
 22 24  2  0  0  0  0
 24 25  1  0  0  0  0
 26 27  2  0  0  0  0
 26 28  1  0  0  0  0
 28 29  1  0  0  0  0
 28 30  1  0  0  0  0
 30 31  1  0  0  0  0
 30 32  1  0  0  0  0
 30 33  1  0  0  0  0
M  END
$$$$

  -OEChem-04042216043D

 33 33  0     1  0  0  0  0  0999 V2000
   -4.0230   -4.0000    1.5366 H   0  0  0  0  0  0  0  0  0  0  0  0
   -3.9295   -3.1226    0.8904 C   0  0  0  0  0  0  0  0  0  0  0  0
   -4.7195   -2.4114    1.1433 H   0  0  0  0  0  0  0  0  0  0  0  0
   -4.0505   -3.4369   -0.1490 H   0  0  0  0  0  0  0  0  0  0  0  0
   -2.5710   -2.4756    1.0809 C   0  0  0  0  0  0  0  0  0  0  0  0
   -1.8070   -2.9046    1.9304 O   0  0  0  0  0  0  0  0  0  0  0  0
   -2.2248   -1.3825    0.3136 N   0  0  0  0  0  0  0  0  0  0  0  0
   -2.9367   -0.9917   -0.3008 H   0  0  0  0  0  0  0  0  0  0  0  0
   -0.9405   -0.6691    0.3927 C   0  0  1  0  0  0  0  0  0  0  0  0
   -0.4091   -0.9320    1.3134 H   0  0  0  0  0  0  0  0  0  0  0  0
   -0.0438   -0.9954   -0.8188 C   0  0  0  0  0  0  0  0  0  0  0  0
   -0.6324   -0.9128   -1.7388 H   0  0  0  0  0  0  0  0  0  0  0  0
    0.7558   -0.2501   -0.8858 H   0  0  0  0  0  0  0  0  0  0  0  0
    0.5768   -2.3721   -0.7419 C   0  0  0  0  0  0  0  0  0  0  0  0
    1.9339   -2.5207   -0.4152 C   0  0  0  0  0  0  0  0  0  0  0  0
    2.5379   -1.6490   -0.1820 H   0  0  0  0  0  0  0  0  0  0  0  0
    2.5221   -3.7909   -0.3788 C   0  0  0  0  0  0  0  0  0  0  0  0
    3.5695   -3.8866   -0.1149 H   0  0  0  0  0  0  0  0  0  0  0  0
    1.7652   -4.9239   -0.6843 C   0  0  0  0  0  0  0  0  0  0  0  0
    2.3296   -6.1665   -0.6547 O   0  0  0  0  0  0  0  0  0  0  0  0
    3.2459   -6.1071   -0.3442 H   0  0  0  0  0  0  0  0  0  0  0  0
    0.4233   -4.7826   -1.0304 C   0  0  0  0  0  0  0  0  0  0  0  0
   -0.1561   -5.6673   -1.2723 H   0  0  0  0  0  0  0  0  0  0  0  0
   -0.1687   -3.5158   -1.0656 C   0  0  0  0  0  0  0  0  0  0  0  0
   -1.2121   -3.4244   -1.3487 H   0  0  0  0  0  0  0  0  0  0  0  0
   -1.1927    0.8497    0.4024 C   0  0  0  0  0  0  0  0  0  0  0  0
   -1.9985    1.3414   -0.3801 O   0  0  0  0  0  0  0  0  0  0  0  0
   -0.5219    1.6666    1.2937 N   0  0  0  0  0  0  0  0  0  0  0  0
    0.0824    1.2193    1.9776 H   0  0  0  0  0  0  0  0  0  0  0  0
   -0.7443    3.1046    1.3818 C   0  0  0  0  0  0  0  0  0  0  0  0
   -1.7903    3.3167    1.6265 H   0  0  0  0  0  0  0  0  0  0  0  0
   -0.1116    3.5382    2.1620 H   0  0  0  0  0  0  0  0  0  0  0  0
   -0.5000    3.5887    0.4305 H   0  0  0  0  0  0  0  0  0  0  0  0
  1  2  1  0  0  0  0
  2  3  1  0  0  0  0
  2  4  1  0  0  0  0
  2  5  1  0  0  0  0
  5  6  2  0  0  0  0
  5  7  1  0  0  0  0
  7  8  1  0  0  0  0
  7  9  1  0  0  0  0
  9 10  1  0  0  0  0
  9 11  1  0  0  0  0
  9 26  1  0  0  0  0
 11 12  1  0  0  0  0
 11 13  1  0  0  0  0
 11 14  1  0  0  0  0
 14 15  2  0  0  0  0
 14 24  1  0  0  0  0
 15 16  1  0  0  0  0
 15 17  1  0  0  0  0
 17 18  1  0  0  0  0
 17 19  2  0  0  0  0
 19 20  1  0  0  0  0
 19 22  1  0  0  0  0
 20 21  1  0  0  0  0
 22 23  1  0  0  0  0
 22 24  2  0  0  0  0
 24 25  1  0  0  0  0
 26 27  2  0  0  0  0
 26 28  1  0  0  0  0
 28 29  1  0  0  0  0
 28 30  1  0  0  0  0
 30 31  1  0  0  0  0
 30 32  1  0  0  0  0
 30 33  1  0  0  0  0
M  END
$$$$

  -OEChem-04042216043D

 33 33  0     1  0  0  0  0  0999 V2000
   -3.9360   -4.0520    1.4869 H   0  0  0  0  0  0  0  0  0  0  0  0
   -3.8602   -3.1704    0.8444 C   0  0  0  0  0  0  0  0  0  0  0  0
   -4.6669   -2.4783    1.0973 H   0  0  0  0  0  0  0  0  0  0  0  0
   -3.9704   -3.4838   -0.1964 H   0  0  0  0  0  0  0  0  0  0  0  0
   -2.5169   -2.4944    1.0422 C   0  0  0  0  0  0  0  0  0  0  0  0
   -1.7448   -2.9137    1.8897 O   0  0  0  0  0  0  0  0  0  0  0  0
   -2.1955   -1.3846    0.2879 N   0  0  0  0  0  0  0  0  0  0  0  0
   -2.9117   -1.0068   -0.3293 H   0  0  0  0  0  0  0  0  0  0  0  0
   -0.9207   -0.6557    0.3695 C   0  0  1  0  0  0  0  0  0  0  0  0
   -0.3759   -0.9261    1.2800 H   0  0  0  0  0  0  0  0  0  0  0  0
   -0.0509   -0.9741   -0.8607 C   0  0  0  0  0  0  0  0  0  0  0  0
   -0.6527   -0.8841   -1.7715 H   0  0  0  0  0  0  0  0  0  0  0  0
    0.7557   -0.2373   -0.9378 H   0  0  0  0  0  0  0  0  0  0  0  0
    0.5598   -2.3531   -0.7771 C   0  0  0  0  0  0  0  0  0  0  0  0
    1.8121   -2.5440   -0.1746 C   0  0  0  0  0  0  0  0  0  0  0  0
    2.3480   -1.6994    0.2473 H   0  0  0  0  0  0  0  0  0  0  0  0
    2.3786   -3.8226   -0.1068 C   0  0  0  0  0  0  0  0  0  0  0  0
    3.3451   -3.9535    0.3665 H   0  0  0  0  0  0  0  0  0  0  0  0
    1.7024   -4.9200   -0.6450 C   0  0  0  0  0  0  0  0  0  0  0  0
    2.2459   -6.1709   -0.5846 O   0  0  0  0  0  0  0  0  0  0  0  0
    3.0704   -6.1486   -0.0754 H   0  0  0  0  0  0  0  0  0  0  0  0
    0.4615   -4.7353   -1.2510 C   0  0  0  0  0  0  0  0  0  0  0  0
   -0.0572   -5.5932   -1.6656 H   0  0  0  0  0  0  0  0  0  0  0  0
   -0.1095   -3.4601   -1.3195 C   0  0  0  0  0  0  0  0  0  0  0  0
   -1.0778   -3.3322   -1.7930 H   0  0  0  0  0  0  0  0  0  0  0  0
   -1.1844    0.8605    0.4051 C   0  0  0  0  0  0  0  0  0  0  0  0
   -1.9958    1.3586   -0.3672 O   0  0  0  0  0  0  0  0  0  0  0  0
   -0.5143    1.6688    1.3045 N   0  0  0  0  0  0  0  0  0  0  0  0
    0.0920    1.2151    1.9820 H   0  0  0  0  0  0  0  0  0  0  0  0
   -0.7471    3.1035    1.4164 C   0  0  0  0  0  0  0  0  0  0  0  0
   -1.7940    3.3040    1.6670 H   0  0  0  0  0  0  0  0  0  0  0  0
   -0.1159    3.5289    2.2024 H   0  0  0  0  0  0  0  0  0  0  0  0
   -0.5081    3.6046    0.4726 H   0  0  0  0  0  0  0  0  0  0  0  0
  1  2  1  0  0  0  0
  2  3  1  0  0  0  0
  2  4  1  0  0  0  0
  2  5  1  0  0  0  0
  5  6  2  0  0  0  0
  5  7  1  0  0  0  0
  7  8  1  0  0  0  0
  7  9  1  0  0  0  0
  9 10  1  0  0  0  0
  9 11  1  0  0  0  0
  9 26  1  0  0  0  0
 11 12  1  0  0  0  0
 11 13  1  0  0  0  0
 11 14  1  0  0  0  0
 14 15  2  0  0  0  0
 14 24  1  0  0  0  0
 15 16  1  0  0  0  0
 15 17  1  0  0  0  0
 17 18  1  0  0  0  0
 17 19  2  0  0  0  0
 19 20  1  0  0  0  0
 19 22  1  0  0  0  0
 20 21  1  0  0  0  0
 22 23  1  0  0  0  0
 22 24  2  0  0  0  0
 24 25  1  0  0  0  0
 26 27  2  0  0  0  0
 26 28  1  0  0  0  0
 28 29  1  0  0  0  0
 28 30  1  0  0  0  0
 30 31  1  0  0  0  0
 30 32  1  0  0  0  0
 30 33  1  0  0  0  0
M  END
$$$$

  -OEChem-04042216043D

 33 33  0     1  0  0  0  0  0999 V2000
   -3.9011   -4.0710    1.4652 H   0  0  0  0  0  0  0  0  0  0  0  0
   -3.8295   -3.1901    0.8211 C   0  0  0  0  0  0  0  0  0  0  0  0
   -4.6465   -2.5067    1.0651 H   0  0  0  0  0  0  0  0  0  0  0  0
   -3.9264   -3.5072   -0.2201 H   0  0  0  0  0  0  0  0  0  0  0  0
   -2.4953   -2.4988    1.0287 C   0  0  0  0  0  0  0  0  0  0  0  0
   -1.7233   -2.9104    1.8806 O   0  0  0  0  0  0  0  0  0  0  0  0
   -2.1817   -1.3837    0.2791 N   0  0  0  0  0  0  0  0  0  0  0  0
   -2.8948   -1.0165   -0.3477 H   0  0  0  0  0  0  0  0  0  0  0  0
   -0.9114   -0.6485    0.3658 C   0  0  1  0  0  0  0  0  0  0  0  0
   -0.3652   -0.9187    1.2750 H   0  0  0  0  0  0  0  0  0  0  0  0
   -0.0522   -0.9665   -0.8711 C   0  0  0  0  0  0  0  0  0  0  0  0
   -0.6583   -0.8666   -1.7779 H   0  0  0  0  0  0  0  0  0  0  0  0
    0.7603   -0.2361   -0.9474 H   0  0  0  0  0  0  0  0  0  0  0  0
    0.5566   -2.3468   -0.7908 C   0  0  0  0  0  0  0  0  0  0  0  0
    1.6431   -2.6042    0.0587 C   0  0  0  0  0  0  0  0  0  0  0  0
    2.0585   -1.8074    0.6677 H   0  0  0  0  0  0  0  0  0  0  0  0
    2.1960   -3.8884    0.1332 C   0  0  0  0  0  0  0  0  0  0  0  0
    3.0332   -4.0703    0.7977 H   0  0  0  0  0  0  0  0  0  0  0  0
    1.6695   -4.9260   -0.6391 C   0  0  0  0  0  0  0  0  0  0  0  0
    2.2004   -6.1818   -0.5712 O   0  0  0  0  0  0  0  0  0  0  0  0
    2.8918   -6.2113    0.1077 H   0  0  0  0  0  0  0  0  0  0  0  0
    0.5905   -4.6767   -1.4846 C   0  0  0  0  0  0  0  0  0  0  0  0
    0.1850   -5.4895   -2.0778 H   0  0  0  0  0  0  0  0  0  0  0  0
    0.0334   -3.3956   -1.5619 C   0  0  0  0  0  0  0  0  0  0  0  0
   -0.8109   -3.2196   -2.2215 H   0  0  0  0  0  0  0  0  0  0  0  0
   -1.1798    0.8669    0.4083 C   0  0  0  0  0  0  0  0  0  0  0  0
   -1.9893    1.3663   -0.3652 O   0  0  0  0  0  0  0  0  0  0  0  0
   -0.5137    1.6743    1.3120 N   0  0  0  0  0  0  0  0  0  0  0  0
    0.0936    1.2207    1.9888 H   0  0  0  0  0  0  0  0  0  0  0  0
   -0.7510    3.1082    1.4274 C   0  0  0  0  0  0  0  0  0  0  0  0
   -1.7984    3.3047    1.6795 H   0  0  0  0  0  0  0  0  0  0  0  0
   -0.1201    3.5342    2.2134 H   0  0  0  0  0  0  0  0  0  0  0  0
   -0.5152    3.6125    0.4844 H   0  0  0  0  0  0  0  0  0  0  0  0
  1  2  1  0  0  0  0
  2  3  1  0  0  0  0
  2  4  1  0  0  0  0
  2  5  1  0  0  0  0
  5  6  2  0  0  0  0
  5  7  1  0  0  0  0
  7  8  1  0  0  0  0
  7  9  1  0  0  0  0
  9 10  1  0  0  0  0
  9 11  1  0  0  0  0
  9 26  1  0  0  0  0
 11 12  1  0  0  0  0
 11 13  1  0  0  0  0
 11 14  1  0  0  0  0
 14 15  2  0  0  0  0
 14 24  1  0  0  0  0
 15 16  1  0  0  0  0
 15 17  1  0  0  0  0
 17 18  1  0  0  0  0
 17 19  2  0  0  0  0
 19 20  1  0  0  0  0
 19 22  1  0  0  0  0
 20 21  1  0  0  0  0
 22 23  1  0  0  0  0
 22 24  2  0  0  0  0
 24 25  1  0  0  0  0
 26 27  2  0  0  0  0
 26 28  1  0  0  0  0
 28 29  1  0  0  0  0
 28 30  1  0  0  0  0
 30 31  1  0  0  0  0
 30 32  1  0  0  0  0
 30 33  1  0  0  0  0
M  END
$$$$

  -OEChem-04042216043D

 33 33  0     1  0  0  0  0  0999 V2000
   -3.9086   -4.0679    1.4684 H   0  0  0  0  0  0  0  0  0  0  0  0
   -3.8366   -3.1847    0.8274 C   0  0  0  0  0  0  0  0  0  0  0  0
   -4.6553   -2.5033    1.0707 H   0  0  0  0  0  0  0  0  0  0  0  0
   -3.9298   -3.4982   -0.2150 H   0  0  0  0  0  0  0  0  0  0  0  0
   -2.5046   -2.4910    1.0411 C   0  0  0  0  0  0  0  0  0  0  0  0
   -1.7412   -2.8930    1.9059 O   0  0  0  0  0  0  0  0  0  0  0  0
   -2.1847   -1.3810    0.2863 N   0  0  0  0  0  0  0  0  0  0  0  0
   -2.8899   -1.0209   -0.3536 H   0  0  0  0  0  0  0  0  0  0  0  0
   -0.9154   -0.6459    0.3813 C   0  0  1  0  0  0  0  0  0  0  0  0
   -0.3812   -0.9063    1.2996 H   0  0  0  0  0  0  0  0  0  0  0  0
   -0.0509   -0.9735   -0.8510 C   0  0  0  0  0  0  0  0  0  0  0  0
   -0.6559   -0.8676   -1.7579 H   0  0  0  0  0  0  0  0  0  0  0  0
    0.7643   -0.2462   -0.9235 H   0  0  0  0  0  0  0  0  0  0  0  0
    0.5640   -2.3541   -0.7811 C   0  0  0  0  0  0  0  0  0  0  0  0
    1.4310   -2.7146    0.2630 C   0  0  0  0  0  0  0  0  0  0  0  0
    1.6786   -2.0002    1.0414 H   0  0  0  0  0  0  0  0  0  0  0  0
    1.9799   -4.0012    0.3188 C   0  0  0  0  0  0  0  0  0  0  0  0
    2.6415   -4.2625    1.1372 H   0  0  0  0  0  0  0  0  0  0  0  0
    1.6728   -4.9392   -0.6686 C   0  0  0  0  0  0  0  0  0  0  0  0
    2.2006   -6.1970   -0.6212 O   0  0  0  0  0  0  0  0  0  0  0  0
    2.7070   -6.3107    0.1977 H   0  0  0  0  0  0  0  0  0  0  0  0
    0.8177   -4.5878   -1.7106 C   0  0  0  0  0  0  0  0  0  0  0  0
    0.5845   -5.3234   -2.4732 H   0  0  0  0  0  0  0  0  0  0  0  0
    0.2630   -3.3048   -1.7688 C   0  0  0  0  0  0  0  0  0  0  0  0
   -0.4057   -3.0532   -2.5865 H   0  0  0  0  0  0  0  0  0  0  0  0
   -1.1845    0.8700    0.4108 C   0  0  0  0  0  0  0  0  0  0  0  0
   -1.9857    1.3638   -0.3748 O   0  0  0  0  0  0  0  0  0  0  0  0
   -0.5283    1.6842    1.3157 N   0  0  0  0  0  0  0  0  0  0  0  0
    0.0791    1.2378    1.9969 H   0  0  0  0  0  0  0  0  0  0  0  0
   -0.7575    3.1209    1.4102 C   0  0  0  0  0  0  0  0  0  0  0  0
   -1.8101    3.3289    1.6304 H   0  0  0  0  0  0  0  0  0  0  0  0
   -0.1461    3.5497    2.2100 H   0  0  0  0  0  0  0  0  0  0  0  0
   -0.4906    3.6136    0.4693 H   0  0  0  0  0  0  0  0  0  0  0  0
  1  2  1  0  0  0  0
  2  3  1  0  0  0  0
  2  4  1  0  0  0  0
  2  5  1  0  0  0  0
  5  6  2  0  0  0  0
  5  7  1  0  0  0  0
  7  8  1  0  0  0  0
  7  9  1  0  0  0  0
  9 10  1  0  0  0  0
  9 11  1  0  0  0  0
  9 26  1  0  0  0  0
 11 12  1  0  0  0  0
 11 13  1  0  0  0  0
 11 14  1  0  0  0  0
 14 15  2  0  0  0  0
 14 24  1  0  0  0  0
 15 16  1  0  0  0  0
 15 17  1  0  0  0  0
 17 18  1  0  0  0  0
 17 19  2  0  0  0  0
 19 20  1  0  0  0  0
 19 22  1  0  0  0  0
 20 21  1  0  0  0  0
 22 23  1  0  0  0  0
 22 24  2  0  0  0  0
 24 25  1  0  0  0  0
 26 27  2  0  0  0  0
 26 28  1  0  0  0  0
 28 29  1  0  0  0  0
 28 30  1  0  0  0  0
 30 31  1  0  0  0  0
 30 32  1  0  0  0  0
 30 33  1  0  0  0  0
M  END
$$$$

  -OEChem-04042216043D

 33 33  0     1  0  0  0  0  0999 V2000
   -3.9403   -4.0515    1.4751 H   0  0  0  0  0  0  0  0  0  0  0  0
   -3.8679   -3.1626    0.8423 C   0  0  0  0  0  0  0  0  0  0  0  0
   -4.6938   -2.4890    1.0829 H   0  0  0  0  0  0  0  0  0  0  0  0
   -3.9487   -3.4692   -0.2034 H   0  0  0  0  0  0  0  0  0  0  0  0
   -2.5423   -2.4623    1.0751 C   0  0  0  0  0  0  0  0  0  0  0  0
   -1.7978   -2.8492    1.9634 O   0  0  0  0  0  0  0  0  0  0  0  0
   -2.2013   -1.3693    0.3048 N   0  0  0  0  0  0  0  0  0  0  0  0
   -2.8870   -1.0258   -0.3647 H   0  0  0  0  0  0  0  0  0  0  0  0
   -0.9284   -0.6416    0.4089 C   0  0  1  0  0  0  0  0  0  0  0  0
   -0.4162   -0.8795    1.3442 H   0  0  0  0  0  0  0  0  0  0  0  0
   -0.0471   -0.9938   -0.8065 C   0  0  0  0  0  0  0  0  0  0  0  0
   -0.6451   -0.8891   -1.7181 H   0  0  0  0  0  0  0  0  0  0  0  0
    0.7700   -0.2683   -0.8749 H   0  0  0  0  0  0  0  0  0  0  0  0
    0.5775   -2.3745   -0.7476 C   0  0  0  0  0  0  0  0  0  0  0  0
    1.1889   -2.8796    0.4137 C   0  0  0  0  0  0  0  0  0  0  0  0
    1.2367   -2.2890    1.3222 H   0  0  0  0  0  0  0  0  0  0  0  0
    1.7408   -4.1658    0.4269 C   0  0  0  0  0  0  0  0  0  0  0  0
    2.1968   -4.5383    1.3374 H   0  0  0  0  0  0  0  0  0  0  0  0
    1.6980   -4.9617   -0.7183 C   0  0  0  0  0  0  0  0  0  0  0  0
    2.2316   -6.2178   -0.7122 O   0  0  0  0  0  0  0  0  0  0  0  0
    2.5564   -6.4326    0.1757 H   0  0  0  0  0  0  0  0  0  0  0  0
    1.1043   -4.4676   -1.8768 C   0  0  0  0  0  0  0  0  0  0  0  0
    1.0758   -5.0916   -2.7640 H   0  0  0  0  0  0  0  0  0  0  0  0
    0.5475   -3.1845   -1.8941 C   0  0  0  0  0  0  0  0  0  0  0  0
    0.0877   -2.8219   -2.8085 H   0  0  0  0  0  0  0  0  0  0  0  0
   -1.1885    0.8765    0.4042 C   0  0  0  0  0  0  0  0  0  0  0  0
   -1.9759    1.3600   -0.4015 O   0  0  0  0  0  0  0  0  0  0  0  0
   -0.5432    1.7034    1.3053 N   0  0  0  0  0  0  0  0  0  0  0  0
    0.0645    1.2676    1.9932 H   0  0  0  0  0  0  0  0  0  0  0  0
   -0.7696    3.1420    1.3747 C   0  0  0  0  0  0  0  0  0  0  0  0
   -1.8273    3.3554    1.5627 H   0  0  0  0  0  0  0  0  0  0  0  0
   -0.1797    3.5786    2.1864 H   0  0  0  0  0  0  0  0  0  0  0  0
   -0.4745    3.6227    0.4359 H   0  0  0  0  0  0  0  0  0  0  0  0
  1  2  1  0  0  0  0
  2  3  1  0  0  0  0
  2  4  1  0  0  0  0
  2  5  1  0  0  0  0
  5  6  2  0  0  0  0
  5  7  1  0  0  0  0
  7  8  1  0  0  0  0
  7  9  1  0  0  0  0
  9 10  1  0  0  0  0
  9 11  1  0  0  0  0
  9 26  1  0  0  0  0
 11 12  1  0  0  0  0
 11 13  1  0  0  0  0
 11 14  1  0  0  0  0
 14 15  2  0  0  0  0
 14 24  1  0  0  0  0
 15 16  1  0  0  0  0
 15 17  1  0  0  0  0
 17 18  1  0  0  0  0
 17 19  2  0  0  0  0
 19 20  1  0  0  0  0
 19 22  1  0  0  0  0
 20 21  1  0  0  0  0
 22 23  1  0  0  0  0
 22 24  2  0  0  0  0
 24 25  1  0  0  0  0
 26 27  2  0  0  0  0
 26 28  1  0  0  0  0
 28 29  1  0  0  0  0
 28 30  1  0  0  0  0
 30 31  1  0  0  0  0
 30 32  1  0  0  0  0
 30 33  1  0  0  0  0
M  END
$$$$

  -OEChem-04042216043D

 33 33  0     1  0  0  0  0  0999 V2000
   -4.0528   -3.9698    1.5361 H   0  0  0  0  0  0  0  0  0  0  0  0
   -3.9326   -3.1181    0.8608 C   0  0  0  0  0  0  0  0  0  0  0  0
   -4.7536   -2.4166    1.0274 H   0  0  0  0  0  0  0  0  0  0  0  0
   -3.9735   -3.4788   -0.1699 H   0  0  0  0  0  0  0  0  0  0  0  0
   -2.6040   -2.4317    1.1165 C   0  0  0  0  0  0  0  0  0  0  0  0
   -1.8937   -2.8048    2.0381 O   0  0  0  0  0  0  0  0  0  0  0  0
   -2.2258   -1.3608    0.3331 N   0  0  0  0  0  0  0  0  0  0  0  0
   -2.8883   -1.0259   -0.3637 H   0  0  0  0  0  0  0  0  0  0  0  0
   -0.9441   -0.6491    0.4454 C   0  0  1  0  0  0  0  0  0  0  0  0
   -0.4476   -0.8691    1.3932 H   0  0  0  0  0  0  0  0  0  0  0  0
   -0.0458   -1.0234   -0.7528 C   0  0  0  0  0  0  0  0  0  0  0  0
   -0.6334   -0.9175   -1.6712 H   0  0  0  0  0  0  0  0  0  0  0  0
    0.7736   -0.2993   -0.8118 H   0  0  0  0  0  0  0  0  0  0  0  0
    0.5858   -2.4048   -0.7131 C   0  0  0  0  0  0  0  0  0  0  0  0
    0.9252   -3.0740    0.4781 C   0  0  0  0  0  0  0  0  0  0  0  0
    0.7409   -2.6303    1.4505 H   0  0  0  0  0  0  0  0  0  0  0  0
    1.4995   -4.3501    0.4424 C   0  0  0  0  0  0  0  0  0  0  0  0
    1.7375   -4.8482    1.3759 H   0  0  0  0  0  0  0  0  0  0  0  0
    1.7556   -4.9736   -0.7787 C   0  0  0  0  0  0  0  0  0  0  0  0
    2.3122   -6.2190   -0.8217 O   0  0  0  0  0  0  0  0  0  0  0  0
    2.4274   -6.5599    0.0787 H   0  0  0  0  0  0  0  0  0  0  0  0
    1.4381   -4.3166   -1.9639 C   0  0  0  0  0  0  0  0  0  0  0  0
    1.6438   -4.8055   -2.9104 H   0  0  0  0  0  0  0  0  0  0  0  0
    0.8580   -3.0439   -1.9338 C   0  0  0  0  0  0  0  0  0  0  0  0
    0.6176   -2.5525   -2.8720 H   0  0  0  0  0  0  0  0  0  0  0  0
   -1.1916    0.8713    0.4024 C   0  0  0  0  0  0  0  0  0  0  0  0
   -1.9592    1.3439   -0.4287 O   0  0  0  0  0  0  0  0  0  0  0  0
   -0.5563    1.7131    1.2967 N   0  0  0  0  0  0  0  0  0  0  0  0
    0.0343    1.2886    2.0061 H   0  0  0  0  0  0  0  0  0  0  0  0
   -0.7703    3.1549    1.3278 C   0  0  0  0  0  0  0  0  0  0  0  0
   -1.8210    3.3821    1.5370 H   0  0  0  0  0  0  0  0  0  0  0  0
   -0.1552    3.6121    2.1090 H   0  0  0  0  0  0  0  0  0  0  0  0
   -0.4972    3.6034    0.3667 H   0  0  0  0  0  0  0  0  0  0  0  0
  1  2  1  0  0  0  0
  2  3  1  0  0  0  0
  2  4  1  0  0  0  0
  2  5  1  0  0  0  0
  5  6  2  0  0  0  0
  5  7  1  0  0  0  0
  7  8  1  0  0  0  0
  7  9  1  0  0  0  0
  9 10  1  0  0  0  0
  9 11  1  0  0  0  0
  9 26  1  0  0  0  0
 11 12  1  0  0  0  0
 11 13  1  0  0  0  0
 11 14  1  0  0  0  0
 14 15  2  0  0  0  0
 14 24  1  0  0  0  0
 15 16  1  0  0  0  0
 15 17  1  0  0  0  0
 17 18  1  0  0  0  0
 17 19  2  0  0  0  0
 19 20  1  0  0  0  0
 19 22  1  0  0  0  0
 20 21  1  0  0  0  0
 22 23  1  0  0  0  0
 22 24  2  0  0  0  0
 24 25  1  0  0  0  0
 26 27  2  0  0  0  0
 26 28  1  0  0  0  0
 28 29  1  0  0  0  0
 28 30  1  0  0  0  0
 30 31  1  0  0  0  0
 30 32  1  0  0  0  0
 30 33  1  0  0  0  0
M  END
$$$$

  -OEChem-04042216043D

 33 33  0     1  0  0  0  0  0999 V2000
   -4.1635   -3.9128    1.5528 H   0  0  0  0  0  0  0  0  0  0  0  0
   -3.9864   -3.0965    0.8470 C   0  0  0  0  0  0  0  0  0  0  0  0
   -4.8101   -2.3822    0.9199 H   0  0  0  0  0  0  0  0  0  0  0  0
   -3.9573   -3.5074   -0.1651 H   0  0  0  0  0  0  0  0  0  0  0  0
   -2.6728   -2.4065    1.1634 C   0  0  0  0  0  0  0  0  0  0  0  0
   -2.0356   -2.7395    2.1506 O   0  0  0  0  0  0  0  0  0  0  0  0
   -2.2472   -1.3580    0.3746 N   0  0  0  0  0  0  0  0  0  0  0  0
   -2.8687   -1.0587   -0.3743 H   0  0  0  0  0  0  0  0  0  0  0  0
   -0.9566   -0.6582    0.4874 C   0  0  1  0  0  0  0  0  0  0  0  0
   -0.4656   -0.8754    1.4396 H   0  0  0  0  0  0  0  0  0  0  0  0
   -0.0464   -1.0446   -0.7016 C   0  0  0  0  0  0  0  0  0  0  0  0
   -0.6273   -0.9402   -1.6247 H   0  0  0  0  0  0  0  0  0  0  0  0
    0.7708   -0.3173   -0.7548 H   0  0  0  0  0  0  0  0  0  0  0  0
    0.5988   -2.4198   -0.6860 C   0  0  0  0  0  0  0  0  0  0  0  0
    0.6796   -3.2435    0.4517 C   0  0  0  0  0  0  0  0  0  0  0  0
    0.3025   -2.9194    1.4141 H   0  0  0  0  0  0  0  0  0  0  0  0
    1.2683   -4.5112    0.3775 C   0  0  0  0  0  0  0  0  0  0  0  0
    1.3129   -5.1263    1.2697 H   0  0  0  0  0  0  0  0  0  0  0  0
    1.7907   -4.9756   -0.8294 C   0  0  0  0  0  0  0  0  0  0  0  0
    2.3644   -6.2113   -0.9092 O   0  0  0  0  0  0  0  0  0  0  0  0
    2.3147   -6.6546   -0.0482 H   0  0  0  0  0  0  0  0  0  0  0  0
    1.7256   -4.1675   -1.9609 C   0  0  0  0  0  0  0  0  0  0  0  0
    2.1360   -4.5328   -2.8964 H   0  0  0  0  0  0  0  0  0  0  0  0
    1.1353   -2.9011   -1.8915 C   0  0  0  0  0  0  0  0  0  0  0  0
    1.0916   -2.2891   -2.7880 H   0  0  0  0  0  0  0  0  0  0  0  0
   -1.1874    0.8635    0.4076 C   0  0  0  0  0  0  0  0  0  0  0  0
   -1.9365    1.3266   -0.4455 O   0  0  0  0  0  0  0  0  0  0  0  0
   -0.5533    1.7167    1.2920 N   0  0  0  0  0  0  0  0  0  0  0  0
    0.0184    1.2995    2.0213 H   0  0  0  0  0  0  0  0  0  0  0  0
   -0.7514    3.1609    1.2910 C   0  0  0  0  0  0  0  0  0  0  0  0
   -1.7987    3.4039    1.4982 H   0  0  0  0  0  0  0  0  0  0  0  0
   -0.1288    3.6285    2.0597 H   0  0  0  0  0  0  0  0  0  0  0  0
   -0.4763    3.5848    0.3195 H   0  0  0  0  0  0  0  0  0  0  0  0
  1  2  1  0  0  0  0
  2  3  1  0  0  0  0
  2  4  1  0  0  0  0
  2  5  1  0  0  0  0
  5  6  2  0  0  0  0
  5  7  1  0  0  0  0
  7  8  1  0  0  0  0
  7  9  1  0  0  0  0
  9 10  1  0  0  0  0
  9 11  1  0  0  0  0
  9 26  1  0  0  0  0
 11 12  1  0  0  0  0
 11 13  1  0  0  0  0
 11 14  1  0  0  0  0
 14 15  2  0  0  0  0
 14 24  1  0  0  0  0
 15 16  1  0  0  0  0
 15 17  1  0  0  0  0
 17 18  1  0  0  0  0
 17 19  2  0  0  0  0
 19 20  1  0  0  0  0
 19 22  1  0  0  0  0
 20 21  1  0  0  0  0
 22 23  1  0  0  0  0
 22 24  2  0  0  0  0
 24 25  1  0  0  0  0
 26 27  2  0  0  0  0
 26 28  1  0  0  0  0
 28 29  1  0  0  0  0
 28 30  1  0  0  0  0
 30 31  1  0  0  0  0
 30 32  1  0  0  0  0
 30 33  1  0  0  0  0
M  END
$$$$

  -OEChem-04042216043D

 33 33  0     1  0  0  0  0  0999 V2000
   -4.2663   -3.8638    1.5652 H   0  0  0  0  0  0  0  0  0  0  0  0
   -4.0468   -3.0691    0.8469 C   0  0  0  0  0  0  0  0  0  0  0  0
   -4.8720   -2.3528    0.8498 H   0  0  0  0  0  0  0  0  0  0  0  0
   -3.9587   -3.5096   -0.1490 H   0  0  0  0  0  0  0  0  0  0  0  0
   -2.7529   -2.3701    1.2183 C   0  0  0  0  0  0  0  0  0  0  0  0
   -2.1871   -2.6553    2.2620 O   0  0  0  0  0  0  0  0  0  0  0  0
   -2.2803   -1.3495    0.4208 N   0  0  0  0  0  0  0  0  0  0  0  0
   -2.8651   -1.0791   -0.3675 H   0  0  0  0  0  0  0  0  0  0  0  0
   -0.9756   -0.6718    0.5295 C   0  0  1  0  0  0  0  0  0  0  0  0
   -0.4923   -0.8929    1.4861 H   0  0  0  0  0  0  0  0  0  0  0  0
   -0.0509   -1.0704   -0.6496 C   0  0  0  0  0  0  0  0  0  0  0  0
   -0.6238   -0.9638   -1.5776 H   0  0  0  0  0  0  0  0  0  0  0  0
    0.7649   -0.3403   -0.6936 H   0  0  0  0  0  0  0  0  0  0  0  0
    0.6048   -2.4408   -0.6609 C   0  0  0  0  0  0  0  0  0  0  0  0
    0.4460   -3.4139    0.3395 C   0  0  0  0  0  0  0  0  0  0  0  0
   -0.1207   -3.2105    1.2357 H   0  0  0  0  0  0  0  0  0  0  0  0
    1.0591   -4.6672    0.2281 C   0  0  0  0  0  0  0  0  0  0  0  0
    0.9250   -5.3945    1.0216 H   0  0  0  0  0  0  0  0  0  0  0  0
    1.8397   -4.9718   -0.8867 C   0  0  0  0  0  0  0  0  0  0  0  0
    2.4426   -6.1907   -1.0029 O   0  0  0  0  0  0  0  0  0  0  0  0
    2.2387   -6.7359   -0.2274 H   0  0  0  0  0  0  0  0  0  0  0  0
    2.0073   -4.0179   -1.8861 C   0  0  0  0  0  0  0  0  0  0  0  0
    2.6167   -4.2592   -2.7509 H   0  0  0  0  0  0  0  0  0  0  0  0
    1.3953   -2.7649   -1.7759 C   0  0  0  0  0  0  0  0  0  0  0  0
    1.5351   -2.0387   -2.5715 H   0  0  0  0  0  0  0  0  0  0  0  0
   -1.1829    0.8515    0.4130 C   0  0  0  0  0  0  0  0  0  0  0  0
   -1.9155    1.3070   -0.4585 O   0  0  0  0  0  0  0  0  0  0  0  0
   -0.5430    1.7146    1.2833 N   0  0  0  0  0  0  0  0  0  0  0  0
    0.0091    1.3051    2.0319 H   0  0  0  0  0  0  0  0  0  0  0  0
   -0.7229    3.1608    1.2499 C   0  0  0  0  0  0  0  0  0  0  0  0
   -1.7693    3.4206    1.4415 H   0  0  0  0  0  0  0  0  0  0  0  0
   -0.1018    3.6376    2.0143 H   0  0  0  0  0  0  0  0  0  0  0  0
   -0.4336    3.5605    0.2722 H   0  0  0  0  0  0  0  0  0  0  0  0
  1  2  1  0  0  0  0
  2  3  1  0  0  0  0
  2  4  1  0  0  0  0
  2  5  1  0  0  0  0
  5  6  2  0  0  0  0
  5  7  1  0  0  0  0
  7  8  1  0  0  0  0
  7  9  1  0  0  0  0
  9 10  1  0  0  0  0
  9 11  1  0  0  0  0
  9 26  1  0  0  0  0
 11 12  1  0  0  0  0
 11 13  1  0  0  0  0
 11 14  1  0  0  0  0
 14 15  2  0  0  0  0
 14 24  1  0  0  0  0
 15 16  1  0  0  0  0
 15 17  1  0  0  0  0
 17 18  1  0  0  0  0
 17 19  2  0  0  0  0
 19 20  1  0  0  0  0
 19 22  1  0  0  0  0
 20 21  1  0  0  0  0
 22 23  1  0  0  0  0
 22 24  2  0  0  0  0
 24 25  1  0  0  0  0
 26 27  2  0  0  0  0
 26 28  1  0  0  0  0
 28 29  1  0  0  0  0
 28 30  1  0  0  0  0
 30 31  1  0  0  0  0
 30 32  1  0  0  0  0
 30 33  1  0  0  0  0
M  END
$$$$

  -OEChem-04042216043D

 33 33  0     1  0  0  0  0  0999 V2000
   -4.3620   -3.7858    1.6875 H   0  0  0  0  0  0  0  0  0  0  0  0
   -4.1429   -2.9937    0.9660 C   0  0  0  0  0  0  0  0  0  0  0  0
   -4.9380   -2.2454    1.0111 H   0  0  0  0  0  0  0  0  0  0  0  0
   -4.1171   -3.4283   -0.0363 H   0  0  0  0  0  0  0  0  0  0  0  0
   -2.8075   -2.3487    1.2855 C   0  0  0  0  0  0  0  0  0  0  0  0
   -2.2137   -2.6541    2.3080 O   0  0  0  0  0  0  0  0  0  0  0  0
   -2.3205   -1.3508    0.4678 N   0  0  0  0  0  0  0  0  0  0  0  0
   -2.9246   -1.0513   -0.2957 H   0  0  0  0  0  0  0  0  0  0  0  0
   -0.9973   -0.7029    0.5453 C   0  0  1  0  0  0  0  0  0  0  0  0
   -0.5071   -0.9256    1.4986 H   0  0  0  0  0  0  0  0  0  0  0  0
   -0.0682   -1.1011   -0.6347 C   0  0  0  0  0  0  0  0  0  0  0  0
   -0.6404   -0.9865   -1.5618 H   0  0  0  0  0  0  0  0  0  0  0  0
    0.7431   -0.3654   -0.6694 H   0  0  0  0  0  0  0  0  0  0  0  0
    0.5971   -2.4678   -0.6812 C   0  0  0  0  0  0  0  0  0  0  0  0
    0.2406   -3.5726    0.1080 C   0  0  0  0  0  0  0  0  0  0  0  0
   -0.5288   -3.5032    0.8577 H   0  0  0  0  0  0  0  0  0  0  0  0
    0.8980   -4.8008   -0.0291 C   0  0  0  0  0  0  0  0  0  0  0  0
    0.6052   -5.6311    0.6042 H   0  0  0  0  0  0  0  0  0  0  0  0
    1.9203   -4.9512   -0.9651 C   0  0  0  0  0  0  0  0  0  0  0  0
    2.5682   -6.1444   -1.1050 O   0  0  0  0  0  0  0  0  0  0  0  0
    2.2143   -6.7888   -0.4727 H   0  0  0  0  0  0  0  0  0  0  0  0
    2.2811   -3.8694   -1.7621 C   0  0  0  0  0  0  0  0  0  0  0  0
    3.0753   -3.9914   -2.4915 H   0  0  0  0  0  0  0  0  0  0  0  0
    1.6255   -2.6415   -1.6240 C   0  0  0  0  0  0  0  0  0  0  0  0
    1.9214   -1.8151   -2.2640 H   0  0  0  0  0  0  0  0  0  0  0  0
   -1.1870    0.8218    0.4109 C   0  0  0  0  0  0  0  0  0  0  0  0
   -1.9324    1.2768   -0.4502 O   0  0  0  0  0  0  0  0  0  0  0  0
   -0.5190    1.6859    1.2586 N   0  0  0  0  0  0  0  0  0  0  0  0
    0.0387    1.2764    2.0029 H   0  0  0  0  0  0  0  0  0  0  0  0
   -0.6847    3.1336    1.2176 C   0  0  0  0  0  0  0  0  0  0  0  0
   -1.7255    3.4057    1.4224 H   0  0  0  0  0  0  0  0  0  0  0  0
   -0.0479    3.6087    1.9702 H   0  0  0  0  0  0  0  0  0  0  0  0
   -0.4052    3.5239    0.2332 H   0  0  0  0  0  0  0  0  0  0  0  0
  1  2  1  0  0  0  0
  2  3  1  0  0  0  0
  2  4  1  0  0  0  0
  2  5  1  0  0  0  0
  5  6  2  0  0  0  0
  5  7  1  0  0  0  0
  7  8  1  0  0  0  0
  7  9  1  0  0  0  0
  9 10  1  0  0  0  0
  9 11  1  0  0  0  0
  9 26  1  0  0  0  0
 11 12  1  0  0  0  0
 11 13  1  0  0  0  0
 11 14  1  0  0  0  0
 14 15  2  0  0  0  0
 14 24  1  0  0  0  0
 15 16  1  0  0  0  0
 15 17  1  0  0  0  0
 17 18  1  0  0  0  0
 17 19  2  0  0  0  0
 19 20  1  0  0  0  0
 19 22  1  0  0  0  0
 20 21  1  0  0  0  0
 22 23  1  0  0  0  0
 22 24  2  0  0  0  0
 24 25  1  0  0  0  0
 26 27  2  0  0  0  0
 26 28  1  0  0  0  0
 28 29  1  0  0  0  0
 28 30  1  0  0  0  0
 30 31  1  0  0  0  0
 30 32  1  0  0  0  0
 30 33  1  0  0  0  0
M  END
$$$$

  -OEChem-04042216043D

 33 33  0     1  0  0  0  0  0999 V2000
   -4.4317   -3.7715    1.5939 H   0  0  0  0  0  0  0  0  0  0  0  0
   -4.2310   -2.9242    0.9322 C   0  0  0  0  0  0  0  0  0  0  0  0
   -4.9864   -2.1539    1.1057 H   0  0  0  0  0  0  0  0  0  0  0  0
   -4.2981   -3.2643   -0.1042 H   0  0  0  0  0  0  0  0  0  0  0  0
   -2.8484   -2.3630    1.2055 C   0  0  0  0  0  0  0  0  0  0  0  0
   -2.2013   -2.7757    2.1550 O   0  0  0  0  0  0  0  0  0  0  0  0
   -2.3515   -1.3531    0.4084 N   0  0  0  0  0  0  0  0  0  0  0  0
   -2.9799   -0.9695   -0.2958 H   0  0  0  0  0  0  0  0  0  0  0  0
   -1.0177   -0.7316    0.5050 C   0  0  1  0  0  0  0  0  0  0  0  0
   -0.5449   -0.9788    1.4610 H   0  0  0  0  0  0  0  0  0  0  0  0
   -0.0549   -1.0996   -0.6583 C   0  0  0  0  0  0  0  0  0  0  0  0
   -0.6003   -0.9626   -1.5981 H   0  0  0  0  0  0  0  0  0  0  0  0
    0.7537   -0.3601   -0.6508 H   0  0  0  0  0  0  0  0  0  0  0  0
    0.6045   -2.4708   -0.7173 C   0  0  0  0  0  0  0  0  0  0  0  0
    0.0494   -3.6570   -0.2111 C   0  0  0  0  0  0  0  0  0  0  0  0
   -0.9215   -3.6716    0.2532 H   0  0  0  0  0  0  0  0  0  0  0  0
    0.7351   -4.8740   -0.3031 C   0  0  0  0  0  0  0  0  0  0  0  0
    0.2789   -5.7701    0.1033 H   0  0  0  0  0  0  0  0  0  0  0  0
    1.9887   -4.9321   -0.9102 C   0  0  0  0  0  0  0  0  0  0  0  0
    2.6653   -6.1140   -1.0015 O   0  0  0  0  0  0  0  0  0  0  0  0
    2.1583   -6.8190   -0.5700 H   0  0  0  0  0  0  0  0  0  0  0  0
    2.5497   -3.7696   -1.4288 C   0  0  0  0  0  0  0  0  0  0  0  0
    3.5237   -3.8190   -1.9045 H   0  0  0  0  0  0  0  0  0  0  0  0
    1.8657   -2.5529   -1.3356 C   0  0  0  0  0  0  0  0  0  0  0  0
    2.3287   -1.6630   -1.7521 H   0  0  0  0  0  0  0  0  0  0  0  0
   -1.1938    0.7978    0.4073 C   0  0  0  0  0  0  0  0  0  0  0  0
   -1.9427    1.2776   -0.4372 O   0  0  0  0  0  0  0  0  0  0  0  0
   -0.5210    1.6379    1.2755 N   0  0  0  0  0  0  0  0  0  0  0  0
    0.0469    1.2083    2.0008 H   0  0  0  0  0  0  0  0  0  0  0  0
   -0.6656    3.0887    1.2602 C   0  0  0  0  0  0  0  0  0  0  0  0
   -1.7007    3.3735    1.4755 H   0  0  0  0  0  0  0  0  0  0  0  0
   -0.0174    3.5410    2.0169 H   0  0  0  0  0  0  0  0  0  0  0  0
   -0.3855    3.4919    0.2813 H   0  0  0  0  0  0  0  0  0  0  0  0
  1  2  1  0  0  0  0
  2  3  1  0  0  0  0
  2  4  1  0  0  0  0
  2  5  1  0  0  0  0
  5  6  2  0  0  0  0
  5  7  1  0  0  0  0
  7  8  1  0  0  0  0
  7  9  1  0  0  0  0
  9 10  1  0  0  0  0
  9 11  1  0  0  0  0
  9 26  1  0  0  0  0
 11 12  1  0  0  0  0
 11 13  1  0  0  0  0
 11 14  1  0  0  0  0
 14 15  2  0  0  0  0
 14 24  1  0  0  0  0
 15 16  1  0  0  0  0
 15 17  1  0  0  0  0
 17 18  1  0  0  0  0
 17 19  2  0  0  0  0
 19 20  1  0  0  0  0
 19 22  1  0  0  0  0
 20 21  1  0  0  0  0
 22 23  1  0  0  0  0
 22 24  2  0  0  0  0
 24 25  1  0  0  0  0
 26 27  2  0  0  0  0
 26 28  1  0  0  0  0
 28 29  1  0  0  0  0
 28 30  1  0  0  0  0
 30 31  1  0  0  0  0
 30 32  1  0  0  0  0
 30 33  1  0  0  0  0
M  END
$$$$

  -OEChem-04042216043D

 33 33  0     1  0  0  0  0  0999 V2000
   -4.3500   -3.7982    1.6368 H   0  0  0  0  0  0  0  0  0  0  0  0
   -4.1798   -2.9468    0.9718 C   0  0  0  0  0  0  0  0  0  0  0  0
   -4.9000   -2.1611    1.2129 H   0  0  0  0  0  0  0  0  0  0  0  0
   -4.3356   -3.2698   -0.0604 H   0  0  0  0  0  0  0  0  0  0  0  0
   -2.7668   -2.4225    1.1434 C   0  0  0  0  0  0  0  0  0  0  0  0
   -2.0347   -2.9130    1.9879 O   0  0  0  0  0  0  0  0  0  0  0  0
   -2.3302   -1.3743    0.3600 N   0  0  0  0  0  0  0  0  0  0  0  0
   -3.0161   -0.9354   -0.2527 H   0  0  0  0  0  0  0  0  0  0  0  0
   -1.0057   -0.7321    0.4305 C   0  0  1  0  0  0  0  0  0  0  0  0
   -0.5058   -0.9978    1.3675 H   0  0  0  0  0  0  0  0  0  0  0  0
   -0.0601   -1.0627   -0.7553 C   0  0  0  0  0  0  0  0  0  0  0  0
   -0.6258   -0.9377   -1.6847 H   0  0  0  0  0  0  0  0  0  0  0  0
    0.7340   -0.3084   -0.7665 H   0  0  0  0  0  0  0  0  0  0  0  0
    0.5996   -2.4327   -0.8013 C   0  0  0  0  0  0  0  0  0  0  0  0
   -0.0774   -3.6375   -0.5537 C   0  0  0  0  0  0  0  0  0  0  0  0
   -1.1406   -3.6509   -0.3681 H   0  0  0  0  0  0  0  0  0  0  0  0
    0.5984   -4.8630   -0.5739 C   0  0  0  0  0  0  0  0  0  0  0  0
    0.0467   -5.7751   -0.3757 H   0  0  0  0  0  0  0  0  0  0  0  0
    1.9645   -4.9085   -0.8488 C   0  0  0  0  0  0  0  0  0  0  0  0
    2.6316   -6.0989   -0.8718 O   0  0  0  0  0  0  0  0  0  0  0  0
    2.0265   -6.8197   -0.6385 H   0  0  0  0  0  0  0  0  0  0  0  0
    2.6496   -3.7252   -1.1065 C   0  0  0  0  0  0  0  0  0  0  0  0
    3.7123   -3.7658   -1.3221 H   0  0  0  0  0  0  0  0  0  0  0  0
    1.9764   -2.4992   -1.0828 C   0  0  0  0  0  0  0  0  0  0  0  0
    2.5412   -1.5936   -1.2828 H   0  0  0  0  0  0  0  0  0  0  0  0
   -1.2053    0.7962    0.3956 C   0  0  0  0  0  0  0  0  0  0  0  0
   -2.0035    1.2946   -0.3908 O   0  0  0  0  0  0  0  0  0  0  0  0
   -0.5104    1.6110    1.2703 N   0  0  0  0  0  0  0  0  0  0  0  0
    0.1003    1.1614    1.9472 H   0  0  0  0  0  0  0  0  0  0  0  0
   -0.6754    3.0585    1.3210 C   0  0  0  0  0  0  0  0  0  0  0  0
   -1.7102    3.3185    1.5671 H   0  0  0  0  0  0  0  0  0  0  0  0
   -0.0200    3.4866    2.0856 H   0  0  0  0  0  0  0  0  0  0  0  0
   -0.4191    3.5077    0.3557 H   0  0  0  0  0  0  0  0  0  0  0  0
  1  2  1  0  0  0  0
  2  3  1  0  0  0  0
  2  4  1  0  0  0  0
  2  5  1  0  0  0  0
  5  6  2  0  0  0  0
  5  7  1  0  0  0  0
  7  8  1  0  0  0  0
  7  9  1  0  0  0  0
  9 10  1  0  0  0  0
  9 11  1  0  0  0  0
  9 26  1  0  0  0  0
 11 12  1  0  0  0  0
 11 13  1  0  0  0  0
 11 14  1  0  0  0  0
 14 15  2  0  0  0  0
 14 24  1  0  0  0  0
 15 16  1  0  0  0  0
 15 17  1  0  0  0  0
 17 18  1  0  0  0  0
 17 19  2  0  0  0  0
 19 20  1  0  0  0  0
 19 22  1  0  0  0  0
 20 21  1  0  0  0  0
 22 23  1  0  0  0  0
 22 24  2  0  0  0  0
 24 25  1  0  0  0  0
 26 27  2  0  0  0  0
 26 28  1  0  0  0  0
 28 29  1  0  0  0  0
 28 30  1  0  0  0  0
 30 31  1  0  0  0  0
 30 32  1  0  0  0  0
 30 33  1  0  0  0  0
M  END
$$$$

  -OEChem-04042216043D

 33 33  0     1  0  0  0  0  0999 V2000
   -4.1729   -3.9099    1.5914 H   0  0  0  0  0  0  0  0  0  0  0  0
   -4.0488   -3.0425    0.9370 C   0  0  0  0  0  0  0  0  0  0  0  0
   -4.7875   -2.2855    1.2115 H   0  0  0  0  0  0  0  0  0  0  0  0
   -4.2222   -3.3533   -0.0960 H   0  0  0  0  0  0  0  0  0  0  0  0
   -2.6489   -2.4753    1.0796 C   0  0  0  0  0  0  0  0  0  0  0  0
   -1.8736   -2.9687    1.8821 O   0  0  0  0  0  0  0  0  0  0  0  0
   -2.2735   -1.3896    0.3151 N   0  0  0  0  0  0  0  0  0  0  0  0
   -2.9930   -0.9490   -0.2563 H   0  0  0  0  0  0  0  0  0  0  0  0
   -0.9694   -0.7078    0.3788 C   0  0  1  0  0  0  0  0  0  0  0  0
   -0.4425   -0.9841    1.2981 H   0  0  0  0  0  0  0  0  0  0  0  0
   -0.0535   -1.0110   -0.8320 C   0  0  0  0  0  0  0  0  0  0  0  0
   -0.6392   -0.8999   -1.7504 H   0  0  0  0  0  0  0  0  0  0  0  0
    0.7352   -0.2520   -0.8682 H   0  0  0  0  0  0  0  0  0  0  0  0
    0.5979   -2.3810   -0.8425 C   0  0  0  0  0  0  0  0  0  0  0  0
   -0.1486   -3.5695   -0.8519 C   0  0  0  0  0  0  0  0  0  0  0  0
   -1.2302   -3.5379   -0.8982 H   0  0  0  0  0  0  0  0  0  0  0  0
    0.4869   -4.8163   -0.8236 C   0  0  0  0  0  0  0  0  0  0  0  0
   -0.1137   -5.7190   -0.8264 H   0  0  0  0  0  0  0  0  0  0  0  0
    1.8795   -4.8938   -0.7904 C   0  0  0  0  0  0  0  0  0  0  0  0
    2.5091   -6.1043   -0.7596 O   0  0  0  0  0  0  0  0  0  0  0  0
    1.8527   -6.8153   -0.6991 H   0  0  0  0  0  0  0  0  0  0  0  0
    2.6322   -3.7227   -0.7893 C   0  0  0  0  0  0  0  0  0  0  0  0
    3.7148   -3.7905   -0.7641 H   0  0  0  0  0  0  0  0  0  0  0  0
    1.9998   -2.4753   -0.8124 C   0  0  0  0  0  0  0  0  0  0  0  0
    2.6123   -1.5789   -0.8030 H   0  0  0  0  0  0  0  0  0  0  0  0
   -1.2009    0.8149    0.3947 C   0  0  0  0  0  0  0  0  0  0  0  0
   -2.0260    1.3181   -0.3599 O   0  0  0  0  0  0  0  0  0  0  0  0
   -0.5057    1.6179    1.2796 N   0  0  0  0  0  0  0  0  0  0  0  0
    0.1276    1.1616    1.9305 H   0  0  0  0  0  0  0  0  0  0  0  0
   -0.7070    3.0579    1.3829 C   0  0  0  0  0  0  0  0  0  0  0  0
   -1.7463    3.2820    1.6453 H   0  0  0  0  0  0  0  0  0  0  0  0
   -0.0570    3.4755    2.1577 H   0  0  0  0  0  0  0  0  0  0  0  0
   -0.4699    3.5471    0.4323 H   0  0  0  0  0  0  0  0  0  0  0  0
  1  2  1  0  0  0  0
  2  3  1  0  0  0  0
  2  4  1  0  0  0  0
  2  5  1  0  0  0  0
  5  6  2  0  0  0  0
  5  7  1  0  0  0  0
  7  8  1  0  0  0  0
  7  9  1  0  0  0  0
  9 10  1  0  0  0  0
  9 11  1  0  0  0  0
  9 26  1  0  0  0  0
 11 12  1  0  0  0  0
 11 13  1  0  0  0  0
 11 14  1  0  0  0  0
 14 15  2  0  0  0  0
 14 24  1  0  0  0  0
 15 16  1  0  0  0  0
 15 17  1  0  0  0  0
 17 18  1  0  0  0  0
 17 19  2  0  0  0  0
 19 20  1  0  0  0  0
 19 22  1  0  0  0  0
 20 21  1  0  0  0  0
 22 23  1  0  0  0  0
 22 24  2  0  0  0  0
 24 25  1  0  0  0  0
 26 27  2  0  0  0  0
 26 28  1  0  0  0  0
 28 29  1  0  0  0  0
 28 30  1  0  0  0  0
 30 31  1  0  0  0  0
 30 32  1  0  0  0  0
 30 33  1  0  0  0  0
M  END
$$$$

  -OEChem-04042216043D

 33 33  0     1  0  0  0  0  0999 V2000
   -4.0087   -4.0125    1.5210 H   0  0  0  0  0  0  0  0  0  0  0  0
   -3.9192   -3.1321    0.8786 C   0  0  0  0  0  0  0  0  0  0  0  0
   -4.6881   -2.4094    1.1623 H   0  0  0  0  0  0  0  0  0  0  0  0
   -4.0786   -3.4357   -0.1588 H   0  0  0  0  0  0  0  0  0  0  0  0
   -2.5434   -2.5110    1.0303 C   0  0  0  0  0  0  0  0  0  0  0  0
   -1.7494   -2.9834    1.8271 O   0  0  0  0  0  0  0  0  0  0  0  0
   -2.2138   -1.3993    0.2824 N   0  0  0  0  0  0  0  0  0  0  0  0
   -2.9499   -0.9769   -0.2808 H   0  0  0  0  0  0  0  0  0  0  0  0
   -0.9314   -0.6796    0.3507 C   0  0  1  0  0  0  0  0  0  0  0  0
   -0.3849   -0.9588    1.2577 H   0  0  0  0  0  0  0  0  0  0  0  0
   -0.0473   -0.9732   -0.8794 C   0  0  0  0  0  0  0  0  0  0  0  0
   -0.6510   -0.8782   -1.7882 H   0  0  0  0  0  0  0  0  0  0  0  0
    0.7423   -0.2168   -0.9431 H   0  0  0  0  0  0  0  0  0  0  0  0
    0.5922   -2.3438   -0.8468 C   0  0  0  0  0  0  0  0  0  0  0  0
   -0.1534   -3.5019   -1.1145 C   0  0  0  0  0  0  0  0  0  0  0  0
   -1.2052   -3.4224   -1.3684 H   0  0  0  0  0  0  0  0  0  0  0  0
    0.4471   -4.7653   -1.0595 C   0  0  0  0  0  0  0  0  0  0  0  0
   -0.1485   -5.6475   -1.2657 H   0  0  0  0  0  0  0  0  0  0  0  0
    1.8001   -4.8852   -0.7378 C   0  0  0  0  0  0  0  0  0  0  0  0
    2.3953   -6.1122   -0.6806 O   0  0  0  0  0  0  0  0  0  0  0  0
    1.7338   -6.8061   -0.8247 H   0  0  0  0  0  0  0  0  0  0  0  0
    2.5489   -3.7408   -0.4734 C   0  0  0  0  0  0  0  0  0  0  0  0
    3.5995   -3.8439   -0.2231 H   0  0  0  0  0  0  0  0  0  0  0  0
    1.9519   -2.4765   -0.5243 C   0  0  0  0  0  0  0  0  0  0  0  0
    2.5537   -1.5991   -0.3081 H   0  0  0  0  0  0  0  0  0  0  0  0
   -1.1915    0.8374    0.3983 C   0  0  0  0  0  0  0  0  0  0  0  0
   -2.0272    1.3378   -0.3463 O   0  0  0  0  0  0  0  0  0  0  0  0
   -0.5069    1.6393    1.2929 N   0  0  0  0  0  0  0  0  0  0  0  0
    0.1344    1.1847    1.9373 H   0  0  0  0  0  0  0  0  0  0  0  0
   -0.7378    3.0730    1.4214 C   0  0  0  0  0  0  0  0  0  0  0  0
   -1.7838    3.2718    1.6778 H   0  0  0  0  0  0  0  0  0  0  0  0
   -0.1038    3.4886    2.2105 H   0  0  0  0  0  0  0  0  0  0  0  0
   -0.5012    3.5840    0.4822 H   0  0  0  0  0  0  0  0  0  0  0  0
  1  2  1  0  0  0  0
  2  3  1  0  0  0  0
  2  4  1  0  0  0  0
  2  5  1  0  0  0  0
  5  6  2  0  0  0  0
  5  7  1  0  0  0  0
  7  8  1  0  0  0  0
  7  9  1  0  0  0  0
  9 10  1  0  0  0  0
  9 11  1  0  0  0  0
  9 26  1  0  0  0  0
 11 12  1  0  0  0  0
 11 13  1  0  0  0  0
 11 14  1  0  0  0  0
 14 15  2  0  0  0  0
 14 24  1  0  0  0  0
 15 16  1  0  0  0  0
 15 17  1  0  0  0  0
 17 18  1  0  0  0  0
 17 19  2  0  0  0  0
 19 20  1  0  0  0  0
 19 22  1  0  0  0  0
 20 21  1  0  0  0  0
 22 23  1  0  0  0  0
 22 24  2  0  0  0  0
 24 25  1  0  0  0  0
 26 27  2  0  0  0  0
 26 28  1  0  0  0  0
 28 29  1  0  0  0  0
 28 30  1  0  0  0  0
 30 31  1  0  0  0  0
 30 32  1  0  0  0  0
 30 33  1  0  0  0  0
M  END
$$$$

  -OEChem-04042216043D

 33 33  0     1  0  0  0  0  0999 V2000
   -3.9093   -4.0653    1.4736 H   0  0  0  0  0  0  0  0  0  0  0  0
   -3.8374   -3.1800    0.8355 C   0  0  0  0  0  0  0  0  0  0  0  0
   -4.6290   -2.4795    1.1126 H   0  0  0  0  0  0  0  0  0  0  0  0
   -3.9756   -3.4834   -0.2050 H   0  0  0  0  0  0  0  0  0  0  0  0
   -2.4813   -2.5221    1.0062 C   0  0  0  0  0  0  0  0  0  0  0  0
   -1.6870   -2.9714    1.8164 O   0  0  0  0  0  0  0  0  0  0  0  0
   -2.1727   -1.4001    0.2651 N   0  0  0  0  0  0  0  0  0  0  0  0
   -2.9105   -0.9965   -0.3089 H   0  0  0  0  0  0  0  0  0  0  0  0
   -0.9038   -0.6601    0.3438 C   0  0  1  0  0  0  0  0  0  0  0  0
   -0.3500   -0.9364    1.2473 H   0  0  0  0  0  0  0  0  0  0  0  0
   -0.0391   -0.9558   -0.8952 C   0  0  0  0  0  0  0  0  0  0  0  0
   -0.6484   -0.8623   -1.8005 H   0  0  0  0  0  0  0  0  0  0  0  0
    0.7586   -0.2090   -0.9693 H   0  0  0  0  0  0  0  0  0  0  0  0
    0.5882   -2.3283   -0.8330 C   0  0  0  0  0  0  0  0  0  0  0  0
   -0.0776   -3.4426   -1.3648 C   0  0  0  0  0  0  0  0  0  0  0  0
   -1.0528   -3.3207   -1.8259 H   0  0  0  0  0  0  0  0  0  0  0  0
    0.5038   -4.7144   -1.3009 C   0  0  0  0  0  0  0  0  0  0  0  0
   -0.0263   -5.5647   -1.7149 H   0  0  0  0  0  0  0  0  0  0  0  0
    1.7560   -4.8836   -0.7065 C   0  0  0  0  0  0  0  0  0  0  0  0
    2.3328   -6.1190   -0.6399 O   0  0  0  0  0  0  0  0  0  0  0  0
    1.7235   -6.7869   -0.9895 H   0  0  0  0  0  0  0  0  0  0  0  0
    2.4225   -3.7808   -0.1761 C   0  0  0  0  0  0  0  0  0  0  0  0
    3.3934   -3.9232    0.2864 H   0  0  0  0  0  0  0  0  0  0  0  0
    1.8444   -2.5081   -0.2352 C   0  0  0  0  0  0  0  0  0  0  0  0
    2.3770   -1.6618    0.1875 H   0  0  0  0  0  0  0  0  0  0  0  0
   -1.1826    0.8528    0.4003 C   0  0  0  0  0  0  0  0  0  0  0  0
   -2.0161    1.3479   -0.3502 O   0  0  0  0  0  0  0  0  0  0  0  0
   -0.5130    1.6587    1.3023 N   0  0  0  0  0  0  0  0  0  0  0  0
    0.1255    1.2081    1.9519 H   0  0  0  0  0  0  0  0  0  0  0  0
   -0.7637    3.0885    1.4367 C   0  0  0  0  0  0  0  0  0  0  0  0
   -1.8111    3.2723    1.6985 H   0  0  0  0  0  0  0  0  0  0  0  0
   -0.1319    3.5105    2.2241 H   0  0  0  0  0  0  0  0  0  0  0  0
   -0.5387    3.6064    0.4984 H   0  0  0  0  0  0  0  0  0  0  0  0
  1  2  1  0  0  0  0
  2  3  1  0  0  0  0
  2  4  1  0  0  0  0
  2  5  1  0  0  0  0
  5  6  2  0  0  0  0
  5  7  1  0  0  0  0
  7  8  1  0  0  0  0
  7  9  1  0  0  0  0
  9 10  1  0  0  0  0
  9 11  1  0  0  0  0
  9 26  1  0  0  0  0
 11 12  1  0  0  0  0
 11 13  1  0  0  0  0
 11 14  1  0  0  0  0
 14 15  2  0  0  0  0
 14 24  1  0  0  0  0
 15 16  1  0  0  0  0
 15 17  1  0  0  0  0
 17 18  1  0  0  0  0
 17 19  2  0  0  0  0
 19 20  1  0  0  0  0
 19 22  1  0  0  0  0
 20 21  1  0  0  0  0
 22 23  1  0  0  0  0
 22 24  2  0  0  0  0
 24 25  1  0  0  0  0
 26 27  2  0  0  0  0
 26 28  1  0  0  0  0
 28 29  1  0  0  0  0
 28 30  1  0  0  0  0
 30 31  1  0  0  0  0
 30 32  1  0  0  0  0
 30 33  1  0  0  0  0
M  END
$$$$

  -OEChem-04042216043D

 33 33  0     1  0  0  0  0  0999 V2000
   -3.8843   -4.0769    1.4554 H   0  0  0  0  0  0  0  0  0  0  0  0
   -3.8143   -3.1928    0.8158 C   0  0  0  0  0  0  0  0  0  0  0  0
   -4.6216   -2.5040    1.0762 H   0  0  0  0  0  0  0  0  0  0  0  0
   -3.9288   -3.5019   -0.2258 H   0  0  0  0  0  0  0  0  0  0  0  0
   -2.4718   -2.5137    1.0086 C   0  0  0  0  0  0  0  0  0  0  0  0
   -1.6897   -2.9401    1.8432 O   0  0  0  0  0  0  0  0  0  0  0  0
   -2.1639   -1.3934    0.2650 N   0  0  0  0  0  0  0  0  0  0  0  0
   -2.8899   -1.0107   -0.3375 H   0  0  0  0  0  0  0  0  0  0  0  0
   -0.8986   -0.6494    0.3521 C   0  0  1  0  0  0  0  0  0  0  0  0
   -0.3500   -0.9206    1.2600 H   0  0  0  0  0  0  0  0  0  0  0  0
   -0.0372   -0.9558   -0.8858 C   0  0  0  0  0  0  0  0  0  0  0  0
   -0.6452   -0.8578   -1.7914 H   0  0  0  0  0  0  0  0  0  0  0  0
    0.7684   -0.2177   -0.9608 H   0  0  0  0  0  0  0  0  0  0  0  0
    0.5844   -2.3305   -0.8126 C   0  0  0  0  0  0  0  0  0  0  0  0
    0.0801   -3.3814   -1.5933 C   0  0  0  0  0  0  0  0  0  0  0  0
   -0.7694   -3.2116   -2.2478 H   0  0  0  0  0  0  0  0  0  0  0  0
    0.6619   -4.6533   -1.5325 C   0  0  0  0  0  0  0  0  0  0  0  0
    0.2581   -5.4543   -2.1413 H   0  0  0  0  0  0  0  0  0  0  0  0
    1.7545   -4.8858   -0.6943 C   0  0  0  0  0  0  0  0  0  0  0  0
    2.3313   -6.1215   -0.6295 O   0  0  0  0  0  0  0  0  0  0  0  0
    1.8349   -6.7474   -1.1784 H   0  0  0  0  0  0  0  0  0  0  0  0
    2.2612   -3.8455    0.0820 C   0  0  0  0  0  0  0  0  0  0  0  0
    3.1076   -4.0366    0.7331 H   0  0  0  0  0  0  0  0  0  0  0  0
    1.6821   -2.5732    0.0265 C   0  0  0  0  0  0  0  0  0  0  0  0
    2.0889   -1.7763    0.6409 H   0  0  0  0  0  0  0  0  0  0  0  0
   -1.1787    0.8633    0.4014 C   0  0  0  0  0  0  0  0  0  0  0  0
   -2.0006    1.3571   -0.3626 O   0  0  0  0  0  0  0  0  0  0  0  0
   -0.5169    1.6716    1.3069 N   0  0  0  0  0  0  0  0  0  0  0  0
    0.1054    1.2209    1.9719 H   0  0  0  0  0  0  0  0  0  0  0  0
   -0.7700    3.1013    1.4355 C   0  0  0  0  0  0  0  0  0  0  0  0
   -1.8192    3.2840    1.6907 H   0  0  0  0  0  0  0  0  0  0  0  0
   -0.1430    3.5264    2.2251 H   0  0  0  0  0  0  0  0  0  0  0  0
   -0.5406    3.6166    0.4968 H   0  0  0  0  0  0  0  0  0  0  0  0
  1  2  1  0  0  0  0
  2  3  1  0  0  0  0
  2  4  1  0  0  0  0
  2  5  1  0  0  0  0
  5  6  2  0  0  0  0
  5  7  1  0  0  0  0
  7  8  1  0  0  0  0
  7  9  1  0  0  0  0
  9 10  1  0  0  0  0
  9 11  1  0  0  0  0
  9 26  1  0  0  0  0
 11 12  1  0  0  0  0
 11 13  1  0  0  0  0
 11 14  1  0  0  0  0
 14 15  2  0  0  0  0
 14 24  1  0  0  0  0
 15 16  1  0  0  0  0
 15 17  1  0  0  0  0
 17 18  1  0  0  0  0
 17 19  2  0  0  0  0
 19 20  1  0  0  0  0
 19 22  1  0  0  0  0
 20 21  1  0  0  0  0
 22 23  1  0  0  0  0
 22 24  2  0  0  0  0
 24 25  1  0  0  0  0
 26 27  2  0  0  0  0
 26 28  1  0  0  0  0
 28 29  1  0  0  0  0
 28 30  1  0  0  0  0
 30 31  1  0  0  0  0
 30 32  1  0  0  0  0
 30 33  1  0  0  0  0
M  END
$$$$

  -OEChem-04042216043D

 33 33  0     1  0  0  0  0  0999 V2000
   -3.9139   -4.0708    1.4520 H   0  0  0  0  0  0  0  0  0  0  0  0
   -3.8413   -3.1798    0.8224 C   0  0  0  0  0  0  0  0  0  0  0  0
   -4.6497   -2.4938    1.0860 H   0  0  0  0  0  0  0  0  0  0  0  0
   -3.9515   -3.4785   -0.2227 H   0  0  0  0  0  0  0  0  0  0  0  0
   -2.4999   -2.5017    1.0291 C   0  0  0  0  0  0  0  0  0  0  0  0
   -1.7348   -2.9150    1.8861 O   0  0  0  0  0  0  0  0  0  0  0  0
   -2.1764   -1.3907    0.2779 N   0  0  0  0  0  0  0  0  0  0  0  0
   -2.8859   -1.0210   -0.3515 H   0  0  0  0  0  0  0  0  0  0  0  0
   -0.9103   -0.6504    0.3795 C   0  0  1  0  0  0  0  0  0  0  0  0
   -0.3802   -0.9105    1.3005 H   0  0  0  0  0  0  0  0  0  0  0  0
   -0.0349   -0.9693   -0.8467 C   0  0  0  0  0  0  0  0  0  0  0  0
   -0.6345   -0.8653   -1.7573 H   0  0  0  0  0  0  0  0  0  0  0  0
    0.7755   -0.2356   -0.9113 H   0  0  0  0  0  0  0  0  0  0  0  0
    0.5903   -2.3448   -0.7792 C   0  0  0  0  0  0  0  0  0  0  0  0
    0.3122   -3.2934   -1.7755 C   0  0  0  0  0  0  0  0  0  0  0  0
   -0.3683   -3.0486   -2.5855 H   0  0  0  0  0  0  0  0  0  0  0  0
    0.9049   -4.5611   -1.7369 C   0  0  0  0  0  0  0  0  0  0  0  0
    0.6759   -5.2807   -2.5148 H   0  0  0  0  0  0  0  0  0  0  0  0
    1.7854   -4.8926   -0.7053 C   0  0  0  0  0  0  0  0  0  0  0  0
    2.3714   -6.1246   -0.6595 O   0  0  0  0  0  0  0  0  0  0  0  0
    2.0378   -6.6770   -1.3825 H   0  0  0  0  0  0  0  0  0  0  0  0
    2.0713   -3.9546    0.2840 C   0  0  0  0  0  0  0  0  0  0  0  0
    2.7546   -4.2207    1.0836 H   0  0  0  0  0  0  0  0  0  0  0  0
    1.4820   -2.6863    0.2497 C   0  0  0  0  0  0  0  0  0  0  0  0
    1.7213   -1.9722    1.0309 H   0  0  0  0  0  0  0  0  0  0  0  0
   -1.1864    0.8640    0.4073 C   0  0  0  0  0  0  0  0  0  0  0  0
   -1.9885    1.3527   -0.3808 O   0  0  0  0  0  0  0  0  0  0  0  0
   -0.5387    1.6812    1.3152 N   0  0  0  0  0  0  0  0  0  0  0  0
    0.0776    1.2391    1.9914 H   0  0  0  0  0  0  0  0  0  0  0  0
   -0.7694    3.1179    1.4047 C   0  0  0  0  0  0  0  0  0  0  0  0
   -1.8258    3.3251    1.6053 H   0  0  0  0  0  0  0  0  0  0  0  0
   -0.1733    3.5473    2.2156 H   0  0  0  0  0  0  0  0  0  0  0  0
   -0.4850    3.6097    0.4686 H   0  0  0  0  0  0  0  0  0  0  0  0
  1  2  1  0  0  0  0
  2  3  1  0  0  0  0
  2  4  1  0  0  0  0
  2  5  1  0  0  0  0
  5  6  2  0  0  0  0
  5  7  1  0  0  0  0
  7  8  1  0  0  0  0
  7  9  1  0  0  0  0
  9 10  1  0  0  0  0
  9 11  1  0  0  0  0
  9 26  1  0  0  0  0
 11 12  1  0  0  0  0
 11 13  1  0  0  0  0
 11 14  1  0  0  0  0
 14 15  2  0  0  0  0
 14 24  1  0  0  0  0
 15 16  1  0  0  0  0
 15 17  1  0  0  0  0
 17 18  1  0  0  0  0
 17 19  2  0  0  0  0
 19 20  1  0  0  0  0
 19 22  1  0  0  0  0
 20 21  1  0  0  0  0
 22 23  1  0  0  0  0
 22 24  2  0  0  0  0
 24 25  1  0  0  0  0
 26 27  2  0  0  0  0
 26 28  1  0  0  0  0
 28 29  1  0  0  0  0
 28 30  1  0  0  0  0
 30 31  1  0  0  0  0
 30 32  1  0  0  0  0
 30 33  1  0  0  0  0
M  END
$$$$

  -OEChem-04042216043D

 33 33  0     1  0  0  0  0  0999 V2000
   -3.9561   -4.0364    1.4775 H   0  0  0  0  0  0  0  0  0  0  0  0
   -3.8700   -3.1584    0.8312 C   0  0  0  0  0  0  0  0  0  0  0  0
   -4.6889   -2.4716    1.0575 H   0  0  0  0  0  0  0  0  0  0  0  0
   -3.9483   -3.4797   -0.2100 H   0  0  0  0  0  0  0  0  0  0  0  0
   -2.5380   -2.4700    1.0609 C   0  0  0  0  0  0  0  0  0  0  0  0
   -1.7979   -2.8602    1.9506 O   0  0  0  0  0  0  0  0  0  0  0  0
   -2.1918   -1.3766    0.2938 N   0  0  0  0  0  0  0  0  0  0  0  0
   -2.8797   -1.0221   -0.3676 H   0  0  0  0  0  0  0  0  0  0  0  0
   -0.9218   -0.6457    0.4092 C   0  0  1  0  0  0  0  0  0  0  0  0
   -0.4165   -0.8844    1.3483 H   0  0  0  0  0  0  0  0  0  0  0  0
   -0.0265   -0.9906   -0.7980 C   0  0  0  0  0  0  0  0  0  0  0  0
   -0.6159   -0.8856   -1.7152 H   0  0  0  0  0  0  0  0  0  0  0  0
    0.7880   -0.2610   -0.8555 H   0  0  0  0  0  0  0  0  0  0  0  0
    0.6048   -2.3680   -0.7383 C   0  0  0  0  0  0  0  0  0  0  0  0
    0.5920   -3.1770   -1.8862 C   0  0  0  0  0  0  0  0  0  0  0  0
    0.1154   -2.8235   -2.7959 H   0  0  0  0  0  0  0  0  0  0  0  0
    1.1902   -4.4425   -1.8779 C   0  0  0  0  0  0  0  0  0  0  0  0
    1.1665   -5.0497   -2.7760 H   0  0  0  0  0  0  0  0  0  0  0  0
    1.8149   -4.9151   -0.7230 C   0  0  0  0  0  0  0  0  0  0  0  0
    2.4028   -6.1471   -0.7046 O   0  0  0  0  0  0  0  0  0  0  0  0
    2.2778   -6.5869   -1.5593 H   0  0  0  0  0  0  0  0  0  0  0  0
    1.8413   -4.1182    0.4187 C   0  0  0  0  0  0  0  0  0  0  0  0
    2.3267   -4.4927    1.3138 H   0  0  0  0  0  0  0  0  0  0  0  0
    1.2476   -2.8512    0.4149 C   0  0  0  0  0  0  0  0  0  0  0  0
    1.2912   -2.2585    1.3223 H   0  0  0  0  0  0  0  0  0  0  0  0
   -1.1874    0.8715    0.4016 C   0  0  0  0  0  0  0  0  0  0  0  0
   -1.9697    1.3512   -0.4117 O   0  0  0  0  0  0  0  0  0  0  0  0
   -0.5538    1.7017    1.3078 N   0  0  0  0  0  0  0  0  0  0  0  0
    0.0446    1.2683    2.0054 H   0  0  0  0  0  0  0  0  0  0  0  0
   -0.7839    3.1398    1.3709 C   0  0  0  0  0  0  0  0  0  0  0  0
   -1.8386    3.3514    1.5757 H   0  0  0  0  0  0  0  0  0  0  0  0
   -0.1808    3.5845    2.1683 H   0  0  0  0  0  0  0  0  0  0  0  0
   -0.5071    3.6133    0.4231 H   0  0  0  0  0  0  0  0  0  0  0  0
  1  2  1  0  0  0  0
  2  3  1  0  0  0  0
  2  4  1  0  0  0  0
  2  5  1  0  0  0  0
  5  6  2  0  0  0  0
  5  7  1  0  0  0  0
  7  8  1  0  0  0  0
  7  9  1  0  0  0  0
  9 10  1  0  0  0  0
  9 11  1  0  0  0  0
  9 26  1  0  0  0  0
 11 12  1  0  0  0  0
 11 13  1  0  0  0  0
 11 14  1  0  0  0  0
 14 15  2  0  0  0  0
 14 24  1  0  0  0  0
 15 16  1  0  0  0  0
 15 17  1  0  0  0  0
 17 18  1  0  0  0  0
 17 19  2  0  0  0  0
 19 20  1  0  0  0  0
 19 22  1  0  0  0  0
 20 21  1  0  0  0  0
 22 23  1  0  0  0  0
 22 24  2  0  0  0  0
 24 25  1  0  0  0  0
 26 27  2  0  0  0  0
 26 28  1  0  0  0  0
 28 29  1  0  0  0  0
 28 30  1  0  0  0  0
 30 31  1  0  0  0  0
 30 32  1  0  0  0  0
 30 33  1  0  0  0  0
M  END
$$$$

  -OEChem-04042216043D

 33 33  0     1  0  0  0  0  0999 V2000
   -4.0223   -3.9993    1.4940 H   0  0  0  0  0  0  0  0  0  0  0  0
   -3.9165   -3.1265    0.8437 C   0  0  0  0  0  0  0  0  0  0  0  0
   -4.7393   -2.4357    1.0427 H   0  0  0  0  0  0  0  0  0  0  0  0
   -3.9686   -3.4558   -0.1968 H   0  0  0  0  0  0  0  0  0  0  0  0
   -2.5890   -2.4394    1.1031 C   0  0  0  0  0  0  0  0  0  0  0  0
   -1.8842   -2.8072    2.0306 O   0  0  0  0  0  0  0  0  0  0  0  0
   -2.2104   -1.3673    0.3217 N   0  0  0  0  0  0  0  0  0  0  0  0
   -2.8712   -1.0336   -0.3773 H   0  0  0  0  0  0  0  0  0  0  0  0
   -0.9338   -0.6482    0.4457 C   0  0  1  0  0  0  0  0  0  0  0  0
   -0.4449   -0.8656    1.3981 H   0  0  0  0  0  0  0  0  0  0  0  0
   -0.0208   -1.0161   -0.7430 C   0  0  0  0  0  0  0  0  0  0  0  0
   -0.6002   -0.9140   -1.6671 H   0  0  0  0  0  0  0  0  0  0  0  0
    0.7945   -0.2869   -0.7934 H   0  0  0  0  0  0  0  0  0  0  0  0
    0.6196   -2.3930   -0.6975 C   0  0  0  0  0  0  0  0  0  0  0  0
    0.8971   -3.0377   -1.9145 C   0  0  0  0  0  0  0  0  0  0  0  0
    0.6404   -2.5561   -2.8537 H   0  0  0  0  0  0  0  0  0  0  0  0
    1.5057   -4.2980   -1.9402 C   0  0  0  0  0  0  0  0  0  0  0  0
    1.7069   -4.7741   -2.8935 H   0  0  0  0  0  0  0  0  0  0  0  0
    1.8507   -4.9334   -0.7472 C   0  0  0  0  0  0  0  0  0  0  0  0
    2.4438   -6.1628   -0.7586 O   0  0  0  0  0  0  0  0  0  0  0  0
    2.5475   -6.4735   -1.6708 H   0  0  0  0  0  0  0  0  0  0  0  0
    1.5881   -4.3033    0.4661 C   0  0  0  0  0  0  0  0  0  0  0  0
    1.8537   -4.8037    1.3918 H   0  0  0  0  0  0  0  0  0  0  0  0
    0.9829   -3.0420    0.4974 C   0  0  0  0  0  0  0  0  0  0  0  0
    0.7974   -2.5950    1.4680 H   0  0  0  0  0  0  0  0  0  0  0  0
   -1.1891    0.8704    0.3991 C   0  0  0  0  0  0  0  0  0  0  0  0
   -1.9495    1.3379   -0.4416 O   0  0  0  0  0  0  0  0  0  0  0  0
   -0.5670    1.7162    1.2989 N   0  0  0  0  0  0  0  0  0  0  0  0
    0.0153    1.2942    2.0170 H   0  0  0  0  0  0  0  0  0  0  0  0
   -0.7854    3.1574    1.3245 C   0  0  0  0  0  0  0  0  0  0  0  0
   -1.8405    3.3824    1.5125 H   0  0  0  0  0  0  0  0  0  0  0  0
   -0.1873    3.6164    2.1175 H   0  0  0  0  0  0  0  0  0  0  0  0
   -0.4942    3.6063    0.3691 H   0  0  0  0  0  0  0  0  0  0  0  0
  1  2  1  0  0  0  0
  2  3  1  0  0  0  0
  2  4  1  0  0  0  0
  2  5  1  0  0  0  0
  5  6  2  0  0  0  0
  5  7  1  0  0  0  0
  7  8  1  0  0  0  0
  7  9  1  0  0  0  0
  9 10  1  0  0  0  0
  9 11  1  0  0  0  0
  9 26  1  0  0  0  0
 11 12  1  0  0  0  0
 11 13  1  0  0  0  0
 11 14  1  0  0  0  0
 14 15  2  0  0  0  0
 14 24  1  0  0  0  0
 15 16  1  0  0  0  0
 15 17  1  0  0  0  0
 17 18  1  0  0  0  0
 17 19  2  0  0  0  0
 19 20  1  0  0  0  0
 19 22  1  0  0  0  0
 20 21  1  0  0  0  0
 22 23  1  0  0  0  0
 22 24  2  0  0  0  0
 24 25  1  0  0  0  0
 26 27  2  0  0  0  0
 26 28  1  0  0  0  0
 28 29  1  0  0  0  0
 28 30  1  0  0  0  0
 30 31  1  0  0  0  0
 30 32  1  0  0  0  0
 30 33  1  0  0  0  0
M  END
$$$$

  -OEChem-04042216043D

 33 33  0     1  0  0  0  0  0999 V2000
   -4.1104   -3.9738    1.4671 H   0  0  0  0  0  0  0  0  0  0  0  0
   -3.9820   -3.0979    0.8250 C   0  0  0  0  0  0  0  0  0  0  0  0
   -4.8158   -2.4117    0.9920 H   0  0  0  0  0  0  0  0  0  0  0  0
   -3.9894   -3.4241   -0.2178 H   0  0  0  0  0  0  0  0  0  0  0  0
   -2.6699   -2.4055    1.1423 C   0  0  0  0  0  0  0  0  0  0  0  0
   -2.0315   -2.7386    2.1282 O   0  0  0  0  0  0  0  0  0  0  0  0
   -2.2442   -1.3559    0.3550 N   0  0  0  0  0  0  0  0  0  0  0  0
   -2.8655   -1.0505   -0.3914 H   0  0  0  0  0  0  0  0  0  0  0  0
   -0.9544   -0.6573    0.4792 C   0  0  1  0  0  0  0  0  0  0  0  0
   -0.4719   -0.8742    1.4357 H   0  0  0  0  0  0  0  0  0  0  0  0
   -0.0369   -1.0482   -0.7016 C   0  0  0  0  0  0  0  0  0  0  0  0
   -0.6116   -0.9465   -1.6289 H   0  0  0  0  0  0  0  0  0  0  0  0
    0.7826   -0.3233   -0.7520 H   0  0  0  0  0  0  0  0  0  0  0  0
    0.6012   -2.4264   -0.6721 C   0  0  0  0  0  0  0  0  0  0  0  0
    1.1603   -2.9116   -1.8655 C   0  0  0  0  0  0  0  0  0  0  0  0
    1.0974   -2.3164   -2.7719 H   0  0  0  0  0  0  0  0  0  0  0  0
    1.7977   -4.1568   -1.9108 C   0  0  0  0  0  0  0  0  0  0  0  0
    2.2138   -4.5096   -2.8478 H   0  0  0  0  0  0  0  0  0  0  0  0
    1.8978   -4.9344   -0.7573 C   0  0  0  0  0  0  0  0  0  0  0  0
    2.5156   -6.1513   -0.7886 O   0  0  0  0  0  0  0  0  0  0  0  0
    2.8199   -6.3463   -1.6880 H   0  0  0  0  0  0  0  0  0  0  0  0
    1.3682   -4.4567    0.4382 C   0  0  0  0  0  0  0  0  0  0  0  0
    1.4554   -5.0606    1.3357 H   0  0  0  0  0  0  0  0  0  0  0  0
    0.7337   -3.2106    0.4888 C   0  0  0  0  0  0  0  0  0  0  0  0
    0.3582   -2.8778    1.4493 H   0  0  0  0  0  0  0  0  0  0  0  0
   -1.1819    0.8647    0.4007 C   0  0  0  0  0  0  0  0  0  0  0  0
   -1.9200    1.3315   -0.4599 O   0  0  0  0  0  0  0  0  0  0  0  0
   -0.5531    1.7145    1.2920 N   0  0  0  0  0  0  0  0  0  0  0  0
    0.0063    1.2931    2.0283 H   0  0  0  0  0  0  0  0  0  0  0  0
   -0.7558    3.1581    1.2997 C   0  0  0  0  0  0  0  0  0  0  0  0
   -1.8093    3.3960    1.4804 H   0  0  0  0  0  0  0  0  0  0  0  0
   -0.1561    3.6197    2.0901 H   0  0  0  0  0  0  0  0  0  0  0  0
   -0.4555    3.5926    0.3403 H   0  0  0  0  0  0  0  0  0  0  0  0
  1  2  1  0  0  0  0
  2  3  1  0  0  0  0
  2  4  1  0  0  0  0
  2  5  1  0  0  0  0
  5  6  2  0  0  0  0
  5  7  1  0  0  0  0
  7  8  1  0  0  0  0
  7  9  1  0  0  0  0
  9 10  1  0  0  0  0
  9 11  1  0  0  0  0
  9 26  1  0  0  0  0
 11 12  1  0  0  0  0
 11 13  1  0  0  0  0
 11 14  1  0  0  0  0
 14 15  2  0  0  0  0
 14 24  1  0  0  0  0
 15 16  1  0  0  0  0
 15 17  1  0  0  0  0
 17 18  1  0  0  0  0
 17 19  2  0  0  0  0
 19 20  1  0  0  0  0
 19 22  1  0  0  0  0
 20 21  1  0  0  0  0
 22 23  1  0  0  0  0
 22 24  2  0  0  0  0
 24 25  1  0  0  0  0
 26 27  2  0  0  0  0
 26 28  1  0  0  0  0
 28 29  1  0  0  0  0
 28 30  1  0  0  0  0
 30 31  1  0  0  0  0
 30 32  1  0  0  0  0
 30 33  1  0  0  0  0
M  END
$$$$

  -OEChem-04042216043D

 33 33  0     1  0  0  0  0  0999 V2000
   -4.3678   -3.8016    1.7117 H   0  0  0  0  0  0  0  0  0  0  0  0
   -4.1581   -3.0177    0.9788 C   0  0  0  0  0  0  0  0  0  0  0  0
   -4.9732   -2.2903    0.9963 H   0  0  0  0  0  0  0  0  0  0  0  0
   -4.1034   -3.4704   -0.0141 H   0  0  0  0  0  0  0  0  0  0  0  0
   -2.8451   -2.3326    1.3069 C   0  0  0  0  0  0  0  0  0  0  0  0
   -2.2613   -2.5990    2.3462 O   0  0  0  0  0  0  0  0  0  0  0  0
   -2.3676   -1.3401    0.4774 N   0  0  0  0  0  0  0  0  0  0  0  0
   -2.9575   -1.0849   -0.3121 H   0  0  0  0  0  0  0  0  0  0  0  0
   -1.0365   -0.7067    0.5292 C   0  0  1  0  0  0  0  0  0  0  0  0
   -0.5361   -0.9437    1.4736 H   0  0  0  0  0  0  0  0  0  0  0  0
   -0.1388   -1.1366   -0.6635 C   0  0  0  0  0  0  0  0  0  0  0  0
   -0.6301   -0.7959   -1.5818 H   0  0  0  0  0  0  0  0  0  0  0  0
    0.8013   -0.5811   -0.5778 H   0  0  0  0  0  0  0  0  0  0  0  0
    0.2315   -2.5943   -0.8868 C   0  0  0  0  0  0  0  0  0  0  0  0
    1.0426   -2.8837   -1.9980 C   0  0  0  0  0  0  0  0  0  0  0  0
    1.3064   -2.0911   -2.6925 H   0  0  0  0  0  0  0  0  0  0  0  0
    1.5006   -4.1829   -2.2462 C   0  0  0  0  0  0  0  0  0  0  0  0
    2.1020   -4.3783   -3.1272 H   0  0  0  0  0  0  0  0  0  0  0  0
    1.1903   -5.2141   -1.3603 C   0  0  0  0  0  0  0  0  0  0  0  0
    1.6279   -6.4871   -1.5874 O   0  0  0  0  0  0  0  0  0  0  0  0
    2.1218   -6.5255   -2.4206 H   0  0  0  0  0  0  0  0  0  0  0  0
    0.4464   -4.9314   -0.2190 C   0  0  0  0  0  0  0  0  0  0  0  0
    0.2402   -5.7267    0.4902 H   0  0  0  0  0  0  0  0  0  0  0  0
   -0.0106   -3.6323    0.0281 C   0  0  0  0  0  0  0  0  0  0  0  0
   -0.5162   -3.4544    0.9638 H   0  0  0  0  0  0  0  0  0  0  0  0
   -1.1856    0.8228    0.4000 C   0  0  0  0  0  0  0  0  0  0  0  0
   -1.9263    1.3030   -0.4512 O   0  0  0  0  0  0  0  0  0  0  0  0
   -0.4775    1.6643    1.2382 N   0  0  0  0  0  0  0  0  0  0  0  0
    0.0657    1.2354    1.9824 H   0  0  0  0  0  0  0  0  0  0  0  0
   -0.6126    3.1156    1.2134 C   0  0  0  0  0  0  0  0  0  0  0  0
   -1.6417    3.4087    1.4467 H   0  0  0  0  0  0  0  0  0  0  0  0
    0.0532    3.5697    1.9535 H   0  0  0  0  0  0  0  0  0  0  0  0
   -0.3490    3.5081    0.2257 H   0  0  0  0  0  0  0  0  0  0  0  0
  1  2  1  0  0  0  0
  2  3  1  0  0  0  0
  2  4  1  0  0  0  0
  2  5  1  0  0  0  0
  5  6  2  0  0  0  0
  5  7  1  0  0  0  0
  7  8  1  0  0  0  0
  7  9  1  0  0  0  0
  9 10  1  0  0  0  0
  9 11  1  0  0  0  0
  9 26  1  0  0  0  0
 11 12  1  0  0  0  0
 11 13  1  0  0  0  0
 11 14  1  0  0  0  0
 14 15  2  0  0  0  0
 14 24  1  0  0  0  0
 15 16  1  0  0  0  0
 15 17  1  0  0  0  0
 17 18  1  0  0  0  0
 17 19  2  0  0  0  0
 19 20  1  0  0  0  0
 19 22  1  0  0  0  0
 20 21  1  0  0  0  0
 22 23  1  0  0  0  0
 22 24  2  0  0  0  0
 24 25  1  0  0  0  0
 26 27  2  0  0  0  0
 26 28  1  0  0  0  0
 28 29  1  0  0  0  0
 28 30  1  0  0  0  0
 30 31  1  0  0  0  0
 30 32  1  0  0  0  0
 30 33  1  0  0  0  0
M  END
$$$$

  -OEChem-04042216043D

 33 33  0     1  0  0  0  0  0999 V2000
   -4.5848   -3.6529    1.7076 H   0  0  0  0  0  0  0  0  0  0  0  0
   -4.3493   -2.8481    1.0055 C   0  0  0  0  0  0  0  0  0  0  0  0
   -5.0932   -2.0552    1.1144 H   0  0  0  0  0  0  0  0  0  0  0  0
   -4.3953   -3.2446   -0.0118 H   0  0  0  0  0  0  0  0  0  0  0  0
   -2.9633   -2.2989    1.2853 C   0  0  0  0  0  0  0  0  0  0  0  0
   -2.3446   -2.6761    2.2682 O   0  0  0  0  0  0  0  0  0  0  0  0
   -2.4295   -1.3328    0.4580 N   0  0  0  0  0  0  0  0  0  0  0  0
   -3.0293   -0.9815   -0.2866 H   0  0  0  0  0  0  0  0  0  0  0  0
   -1.0765   -0.7513    0.5416 C   0  0  1  0  0  0  0  0  0  0  0  0
   -0.6277   -0.9885    1.5116 H   0  0  0  0  0  0  0  0  0  0  0  0
   -0.0957   -1.1820   -0.5879 C   0  0  0  0  0  0  0  0  0  0  0  0
   -0.5208   -0.8273   -1.5335 H   0  0  0  0  0  0  0  0  0  0  0  0
    0.8308   -0.6210   -0.4241 H   0  0  0  0  0  0  0  0  0  0  0  0
    0.3104   -2.6296   -0.8365 C   0  0  0  0  0  0  0  0  0  0  0  0
    1.4320   -2.8282   -1.6625 C   0  0  0  0  0  0  0  0  0  0  0  0
    1.9400   -1.9719   -2.0970 H   0  0  0  0  0  0  0  0  0  0  0  0
    1.9107   -4.1117   -1.9498 C   0  0  0  0  0  0  0  0  0  0  0  0
    2.7737   -4.2285   -2.5962 H   0  0  0  0  0  0  0  0  0  0  0  0
    1.2801   -5.2292   -1.4064 C   0  0  0  0  0  0  0  0  0  0  0  0
    1.7343   -6.4880   -1.6751 O   0  0  0  0  0  0  0  0  0  0  0  0
    2.5113   -6.4450   -2.2531 H   0  0  0  0  0  0  0  0  0  0  0  0
    0.1795   -5.0532   -0.5746 C   0  0  0  0  0  0  0  0  0  0  0  0
   -0.3016   -5.9244   -0.1420 H   0  0  0  0  0  0  0  0  0  0  0  0
   -0.2986   -3.7698   -0.2871 C   0  0  0  0  0  0  0  0  0  0  0  0
   -1.1380   -3.7044    0.3808 H   0  0  0  0  0  0  0  0  0  0  0  0
   -1.1892    0.7802    0.3942 C   0  0  0  0  0  0  0  0  0  0  0  0
   -1.9129    1.2669   -0.4681 O   0  0  0  0  0  0  0  0  0  0  0  0
   -0.4852    1.6161    1.2416 N   0  0  0  0  0  0  0  0  0  0  0  0
    0.0385    1.1841    1.9979 H   0  0  0  0  0  0  0  0  0  0  0  0
   -0.5862    3.0698    1.1964 C   0  0  0  0  0  0  0  0  0  0  0  0
   -1.6099    3.3895    1.4177 H   0  0  0  0  0  0  0  0  0  0  0  0
    0.0846    3.5185    1.9354 H   0  0  0  0  0  0  0  0  0  0  0  0
   -0.3063    3.4434    0.2057 H   0  0  0  0  0  0  0  0  0  0  0  0
  1  2  1  0  0  0  0
  2  3  1  0  0  0  0
  2  4  1  0  0  0  0
  2  5  1  0  0  0  0
  5  6  2  0  0  0  0
  5  7  1  0  0  0  0
  7  8  1  0  0  0  0
  7  9  1  0  0  0  0
  9 10  1  0  0  0  0
  9 11  1  0  0  0  0
  9 26  1  0  0  0  0
 11 12  1  0  0  0  0
 11 13  1  0  0  0  0
 11 14  1  0  0  0  0
 14 15  2  0  0  0  0
 14 24  1  0  0  0  0
 15 16  1  0  0  0  0
 15 17  1  0  0  0  0
 17 18  1  0  0  0  0
 17 19  2  0  0  0  0
 19 20  1  0  0  0  0
 19 22  1  0  0  0  0
 20 21  1  0  0  0  0
 22 23  1  0  0  0  0
 22 24  2  0  0  0  0
 24 25  1  0  0  0  0
 26 27  2  0  0  0  0
 26 28  1  0  0  0  0
 28 29  1  0  0  0  0
 28 30  1  0  0  0  0
 30 31  1  0  0  0  0
 30 32  1  0  0  0  0
 30 33  1  0  0  0  0
M  END
$$$$

  -OEChem-04042216043D

 33 33  0     1  0  0  0  0  0999 V2000
   -4.5018   -3.6627    1.8072 H   0  0  0  0  0  0  0  0  0  0  0  0
   -4.3138   -2.8272    1.1270 C   0  0  0  0  0  0  0  0  0  0  0  0
   -5.0148   -2.0208    1.3556 H   0  0  0  0  0  0  0  0  0  0  0  0
   -4.4796   -3.1652    0.1011 H   0  0  0  0  0  0  0  0  0  0  0  0
   -2.8882   -2.3334    1.2865 C   0  0  0  0  0  0  0  0  0  0  0  0
   -2.1777   -2.7965    2.1641 O   0  0  0  0  0  0  0  0  0  0  0  0
   -2.4085   -1.3478    0.4474 N   0  0  0  0  0  0  0  0  0  0  0  0
   -3.0687   -0.9272   -0.2050 H   0  0  0  0  0  0  0  0  0  0  0  0
   -1.0626   -0.7516    0.5037 C   0  0  1  0  0  0  0  0  0  0  0  0
   -0.6010   -0.9832    1.4690 H   0  0  0  0  0  0  0  0  0  0  0  0
   -0.0714   -1.1655   -0.6210 C   0  0  0  0  0  0  0  0  0  0  0  0
   -0.5022   -0.8336   -1.5721 H   0  0  0  0  0  0  0  0  0  0  0  0
    0.8425   -0.5825   -0.4648 H   0  0  0  0  0  0  0  0  0  0  0  0
    0.3394   -2.6185   -0.8279 C   0  0  0  0  0  0  0  0  0  0  0  0
    1.6260   -2.8539   -1.3478 C   0  0  0  0  0  0  0  0  0  0  0  0
    2.2959   -2.0203   -1.5376 H   0  0  0  0  0  0  0  0  0  0  0  0
    2.0764   -4.1503   -1.6224 C   0  0  0  0  0  0  0  0  0  0  0  0
    3.0795   -4.2968   -2.0072 H   0  0  0  0  0  0  0  0  0  0  0  0
    1.2368   -5.2420   -1.4083 C   0  0  0  0  0  0  0  0  0  0  0  0
    1.6605   -6.5125   -1.6734 O   0  0  0  0  0  0  0  0  0  0  0  0
    2.5800   -6.4986   -1.9799 H   0  0  0  0  0  0  0  0  0  0  0  0
   -0.0536   -5.0262   -0.9368 C   0  0  0  0  0  0  0  0  0  0  0  0
   -0.7120   -5.8762   -0.7912 H   0  0  0  0  0  0  0  0  0  0  0  0
   -0.5046   -3.7301   -0.6637 C   0  0  0  0  0  0  0  0  0  0  0  0
   -1.5283   -3.6255   -0.3466 H   0  0  0  0  0  0  0  0  0  0  0  0
   -1.2028    0.7788    0.3790 C   0  0  0  0  0  0  0  0  0  0  0  0
   -1.9690    1.2623   -0.4475 O   0  0  0  0  0  0  0  0  0  0  0  0
   -0.4907    1.6165    1.2176 N   0  0  0  0  0  0  0  0  0  0  0  0
    0.0756    1.1850    1.9429 H   0  0  0  0  0  0  0  0  0  0  0  0
   -0.6218    3.0682    1.1960 C   0  0  0  0  0  0  0  0  0  0  0  0
   -1.6476    3.3639    1.4395 H   0  0  0  0  0  0  0  0  0  0  0  0
    0.0526    3.5191    1.9303 H   0  0  0  0  0  0  0  0  0  0  0  0
   -0.3669    3.4618    0.2064 H   0  0  0  0  0  0  0  0  0  0  0  0
  1  2  1  0  0  0  0
  2  3  1  0  0  0  0
  2  4  1  0  0  0  0
  2  5  1  0  0  0  0
  5  6  2  0  0  0  0
  5  7  1  0  0  0  0
  7  8  1  0  0  0  0
  7  9  1  0  0  0  0
  9 10  1  0  0  0  0
  9 11  1  0  0  0  0
  9 26  1  0  0  0  0
 11 12  1  0  0  0  0
 11 13  1  0  0  0  0
 11 14  1  0  0  0  0
 14 15  2  0  0  0  0
 14 24  1  0  0  0  0
 15 16  1  0  0  0  0
 15 17  1  0  0  0  0
 17 18  1  0  0  0  0
 17 19  2  0  0  0  0
 19 20  1  0  0  0  0
 19 22  1  0  0  0  0
 20 21  1  0  0  0  0
 22 23  1  0  0  0  0
 22 24  2  0  0  0  0
 24 25  1  0  0  0  0
 26 27  2  0  0  0  0
 26 28  1  0  0  0  0
 28 29  1  0  0  0  0
 28 30  1  0  0  0  0
 30 31  1  0  0  0  0
 30 32  1  0  0  0  0
 30 33  1  0  0  0  0
M  END
$$$$

  -OEChem-04042216043D

 33 33  0     1  0  0  0  0  0999 V2000
   -4.3254   -3.7880    1.7655 H   0  0  0  0  0  0  0  0  0  0  0  0
   -4.1873   -2.9296    1.1020 C   0  0  0  0  0  0  0  0  0  0  0  0
   -4.9112   -2.1562    1.3702 H   0  0  0  0  0  0  0  0  0  0  0  0
   -4.3690   -3.2486    0.0729 H   0  0  0  0  0  0  0  0  0  0  0  0
   -2.7766   -2.3875    1.2360 C   0  0  0  0  0  0  0  0  0  0  0  0
   -2.0286   -2.8449    2.0847 O   0  0  0  0  0  0  0  0  0  0  0  0
   -2.3584   -1.3601    0.4136 N   0  0  0  0  0  0  0  0  0  0  0  0
   -3.0504   -0.9385   -0.2039 H   0  0  0  0  0  0  0  0  0  0  0  0
   -1.0324   -0.7233    0.4634 C   0  0  1  0  0  0  0  0  0  0  0  0
   -0.5468   -0.9648    1.4142 H   0  0  0  0  0  0  0  0  0  0  0  0
   -0.0645   -1.1133   -0.6848 C   0  0  0  0  0  0  0  0  0  0  0  0
   -0.5176   -0.7976   -1.6307 H   0  0  0  0  0  0  0  0  0  0  0  0
    0.8498   -0.5241   -0.5590 H   0  0  0  0  0  0  0  0  0  0  0  0
    0.3205   -2.5766   -0.8442 C   0  0  0  0  0  0  0  0  0  0  0  0
    1.6732   -2.8951   -1.0617 C   0  0  0  0  0  0  0  0  0  0  0  0
    2.4285   -2.1155   -1.0328 H   0  0  0  0  0  0  0  0  0  0  0  0
    2.0783   -4.2134   -1.3018 C   0  0  0  0  0  0  0  0  0  0  0  0
    3.1311   -4.4309   -1.4428 H   0  0  0  0  0  0  0  0  0  0  0  0
    1.1322   -5.2358   -1.3669 C   0  0  0  0  0  0  0  0  0  0  0  0
    1.5133   -6.5255   -1.6020 O   0  0  0  0  0  0  0  0  0  0  0  0
    2.4796   -6.5814   -1.6536 H   0  0  0  0  0  0  0  0  0  0  0  0
   -0.2160   -4.9293   -1.2127 C   0  0  0  0  0  0  0  0  0  0  0  0
   -0.9504   -5.7238   -1.2915 H   0  0  0  0  0  0  0  0  0  0  0  0
   -0.6218   -3.6118   -0.9740 C   0  0  0  0  0  0  0  0  0  0  0  0
   -1.6831   -3.4133   -0.9210 H   0  0  0  0  0  0  0  0  0  0  0  0
   -1.2083    0.8058    0.3900 C   0  0  0  0  0  0  0  0  0  0  0  0
   -2.0010    1.2953   -0.4072 O   0  0  0  0  0  0  0  0  0  0  0  0
   -0.5000    1.6345    1.2406 N   0  0  0  0  0  0  0  0  0  0  0  0
    0.0926    1.1951    1.9397 H   0  0  0  0  0  0  0  0  0  0  0  0
   -0.6572    3.0838    1.2593 C   0  0  0  0  0  0  0  0  0  0  0  0
   -1.6859    3.3549    1.5188 H   0  0  0  0  0  0  0  0  0  0  0  0
    0.0152    3.5274    1.9998 H   0  0  0  0  0  0  0  0  0  0  0  0
   -0.4179    3.5078    0.2785 H   0  0  0  0  0  0  0  0  0  0  0  0
  1  2  1  0  0  0  0
  2  3  1  0  0  0  0
  2  4  1  0  0  0  0
  2  5  1  0  0  0  0
  5  6  2  0  0  0  0
  5  7  1  0  0  0  0
  7  8  1  0  0  0  0
  7  9  1  0  0  0  0
  9 10  1  0  0  0  0
  9 11  1  0  0  0  0
  9 26  1  0  0  0  0
 11 12  1  0  0  0  0
 11 13  1  0  0  0  0
 11 14  1  0  0  0  0
 14 15  2  0  0  0  0
 14 24  1  0  0  0  0
 15 16  1  0  0  0  0
 15 17  1  0  0  0  0
 17 18  1  0  0  0  0
 17 19  2  0  0  0  0
 19 20  1  0  0  0  0
 19 22  1  0  0  0  0
 20 21  1  0  0  0  0
 22 23  1  0  0  0  0
 22 24  2  0  0  0  0
 24 25  1  0  0  0  0
 26 27  2  0  0  0  0
 26 28  1  0  0  0  0
 28 29  1  0  0  0  0
 28 30  1  0  0  0  0
 30 31  1  0  0  0  0
 30 32  1  0  0  0  0
 30 33  1  0  0  0  0
M  END
$$$$

  -OEChem-04042216043D

 33 33  0     1  0  0  0  0  0999 V2000
   -4.1705   -3.9015    1.6811 H   0  0  0  0  0  0  0  0  0  0  0  0
   -4.0613   -3.0393    1.0169 C   0  0  0  0  0  0  0  0  0  0  0  0
   -4.8235   -2.2986    1.2706 H   0  0  0  0  0  0  0  0  0  0  0  0
   -4.2115   -3.3692   -0.0139 H   0  0  0  0  0  0  0  0  0  0  0  0
   -2.6790   -2.4334    1.1712 C   0  0  0  0  0  0  0  0  0  0  0  0
   -1.9167   -2.8699    2.0187 O   0  0  0  0  0  0  0  0  0  0  0  0
   -2.3061   -1.3703    0.3729 N   0  0  0  0  0  0  0  0  0  0  0  0
   -3.0126   -0.9675   -0.2401 H   0  0  0  0  0  0  0  0  0  0  0  0
   -0.9990   -0.6962    0.4261 C   0  0  1  0  0  0  0  0  0  0  0  0
   -0.4893   -0.9522    1.3606 H   0  0  0  0  0  0  0  0  0  0  0  0
   -0.0646   -1.0615   -0.7517 C   0  0  0  0  0  0  0  0  0  0  0  0
   -0.5440   -0.7503   -1.6862 H   0  0  0  0  0  0  0  0  0  0  0  0
    0.8554   -0.4757   -0.6566 H   0  0  0  0  0  0  0  0  0  0  0  0
    0.2919   -2.5306   -0.8794 C   0  0  0  0  0  0  0  0  0  0  0  0
    1.6371   -2.9290   -0.8027 C   0  0  0  0  0  0  0  0  0  0  0  0
    2.4108   -2.2000   -0.5807 H   0  0  0  0  0  0  0  0  0  0  0  0
    2.0011   -4.2675   -0.9936 C   0  0  0  0  0  0  0  0  0  0  0  0
    3.0433   -4.5541   -0.9091 H   0  0  0  0  0  0  0  0  0  0  0  0
    1.0295   -5.2226   -1.2953 C   0  0  0  0  0  0  0  0  0  0  0  0
    1.3729   -6.5305   -1.4824 O   0  0  0  0  0  0  0  0  0  0  0  0
    2.3189   -6.6520   -1.3096 H   0  0  0  0  0  0  0  0  0  0  0  0
   -0.3005   -4.8317   -1.4226 C   0  0  0  0  0  0  0  0  0  0  0  0
   -1.0478   -5.5751   -1.6787 H   0  0  0  0  0  0  0  0  0  0  0  0
   -0.6666   -3.4952   -1.2326 C   0  0  0  0  0  0  0  0  0  0  0  0
   -1.7030   -3.2131   -1.3787 H   0  0  0  0  0  0  0  0  0  0  0  0
   -1.2044    0.8298    0.3997 C   0  0  0  0  0  0  0  0  0  0  0  0
   -2.0082    1.3254   -0.3822 O   0  0  0  0  0  0  0  0  0  0  0  0
   -0.5031    1.6487    1.2656 N   0  0  0  0  0  0  0  0  0  0  0  0
    0.0998    1.2020    1.9511 H   0  0  0  0  0  0  0  0  0  0  0  0
   -0.6845    3.0942    1.3207 C   0  0  0  0  0  0  0  0  0  0  0  0
   -1.7176    3.3411    1.5871 H   0  0  0  0  0  0  0  0  0  0  0  0
   -0.0193    3.5309    2.0718 H   0  0  0  0  0  0  0  0  0  0  0  0
   -0.4537    3.5463    0.3504 H   0  0  0  0  0  0  0  0  0  0  0  0
  1  2  1  0  0  0  0
  2  3  1  0  0  0  0
  2  4  1  0  0  0  0
  2  5  1  0  0  0  0
  5  6  2  0  0  0  0
  5  7  1  0  0  0  0
  7  8  1  0  0  0  0
  7  9  1  0  0  0  0
  9 10  1  0  0  0  0
  9 11  1  0  0  0  0
  9 26  1  0  0  0  0
 11 12  1  0  0  0  0
 11 13  1  0  0  0  0
 11 14  1  0  0  0  0
 14 15  2  0  0  0  0
 14 24  1  0  0  0  0
 15 16  1  0  0  0  0
 15 17  1  0  0  0  0
 17 18  1  0  0  0  0
 17 19  2  0  0  0  0
 19 20  1  0  0  0  0
 19 22  1  0  0  0  0
 20 21  1  0  0  0  0
 22 23  1  0  0  0  0
 22 24  2  0  0  0  0
 24 25  1  0  0  0  0
 26 27  2  0  0  0  0
 26 28  1  0  0  0  0
 28 29  1  0  0  0  0
 28 30  1  0  0  0  0
 30 31  1  0  0  0  0
 30 32  1  0  0  0  0
 30 33  1  0  0  0  0
M  END
$$$$

  -OEChem-04042216043D

 33 33  0     1  0  0  0  0  0999 V2000
   -4.0500   -3.9879    1.5871 H   0  0  0  0  0  0  0  0  0  0  0  0
   -3.9571   -3.1220    0.9259 C   0  0  0  0  0  0  0  0  0  0  0  0
   -4.7513   -2.4100    1.1628 H   0  0  0  0  0  0  0  0  0  0  0  0
   -4.0714   -3.4565   -0.1079 H   0  0  0  0  0  0  0  0  0  0  0  0
   -2.6018   -2.4662    1.1100 C   0  0  0  0  0  0  0  0  0  0  0  0
   -1.8344   -2.8851    1.9623 O   0  0  0  0  0  0  0  0  0  0  0  0
   -2.2604   -1.3773    0.3334 N   0  0  0  0  0  0  0  0  0  0  0  0
   -2.9715   -0.9955   -0.2872 H   0  0  0  0  0  0  0  0  0  0  0  0
   -0.9686   -0.6755    0.3935 C   0  0  1  0  0  0  0  0  0  0  0  0
   -0.4398   -0.9443    1.3135 H   0  0  0  0  0  0  0  0  0  0  0  0
   -0.0658   -1.0213   -0.8096 C   0  0  0  0  0  0  0  0  0  0  0  0
   -0.5653   -0.7070   -1.7324 H   0  0  0  0  0  0  0  0  0  0  0  0
    0.8613   -0.4433   -0.7361 H   0  0  0  0  0  0  0  0  0  0  0  0
    0.2689   -2.4934   -0.9188 C   0  0  0  0  0  0  0  0  0  0  0  0
    1.5433   -2.9588   -0.5599 C   0  0  0  0  0  0  0  0  0  0  0  0
    2.2816   -2.2721   -0.1570 H   0  0  0  0  0  0  0  0  0  0  0  0
    1.8736   -4.3118   -0.7038 C   0  0  0  0  0  0  0  0  0  0  0  0
    2.8590   -4.6546   -0.4088 H   0  0  0  0  0  0  0  0  0  0  0  0
    0.9408   -5.2109   -1.2243 C   0  0  0  0  0  0  0  0  0  0  0  0
    1.2532   -6.5320   -1.3674 O   0  0  0  0  0  0  0  0  0  0  0  0
    2.1343   -6.7042   -1.0018 H   0  0  0  0  0  0  0  0  0  0  0  0
   -0.3173   -4.7526   -1.6084 C   0  0  0  0  0  0  0  0  0  0  0  0
   -1.0329   -5.4560   -2.0208 H   0  0  0  0  0  0  0  0  0  0  0  0
   -0.6509   -3.4017   -1.4666 C   0  0  0  0  0  0  0  0  0  0  0  0
   -1.6292   -3.0588   -1.7874 H   0  0  0  0  0  0  0  0  0  0  0  0
   -1.1945    0.8474    0.4034 C   0  0  0  0  0  0  0  0  0  0  0  0
   -2.0043    1.3500   -0.3677 O   0  0  0  0  0  0  0  0  0  0  0  0
   -0.4987    1.6563    1.2830 N   0  0  0  0  0  0  0  0  0  0  0  0
    0.1063    1.2018    1.9614 H   0  0  0  0  0  0  0  0  0  0  0  0
   -0.7021    3.0972    1.3727 C   0  0  0  0  0  0  0  0  0  0  0  0
   -1.7382    3.3216    1.6470 H   0  0  0  0  0  0  0  0  0  0  0  0
   -0.0421    3.5264    2.1326 H   0  0  0  0  0  0  0  0  0  0  0  0
   -0.4804    3.5755    0.4129 H   0  0  0  0  0  0  0  0  0  0  0  0
  1  2  1  0  0  0  0
  2  3  1  0  0  0  0
  2  4  1  0  0  0  0
  2  5  1  0  0  0  0
  5  6  2  0  0  0  0
  5  7  1  0  0  0  0
  7  8  1  0  0  0  0
  7  9  1  0  0  0  0
  9 10  1  0  0  0  0
  9 11  1  0  0  0  0
  9 26  1  0  0  0  0
 11 12  1  0  0  0  0
 11 13  1  0  0  0  0
 11 14  1  0  0  0  0
 14 15  2  0  0  0  0
 14 24  1  0  0  0  0
 15 16  1  0  0  0  0
 15 17  1  0  0  0  0
 17 18  1  0  0  0  0
 17 19  2  0  0  0  0
 19 20  1  0  0  0  0
 19 22  1  0  0  0  0
 20 21  1  0  0  0  0
 22 23  1  0  0  0  0
 22 24  2  0  0  0  0
 24 25  1  0  0  0  0
 26 27  2  0  0  0  0
 26 28  1  0  0  0  0
 28 29  1  0  0  0  0
 28 30  1  0  0  0  0
 30 31  1  0  0  0  0
 30 32  1  0  0  0  0
 30 33  1  0  0  0  0
M  END
$$$$

  -OEChem-04042216043D

 33 33  0     1  0  0  0  0  0999 V2000
   -3.9491   -4.0609    1.5037 H   0  0  0  0  0  0  0  0  0  0  0  0
   -3.8749   -3.1848    0.8532 C   0  0  0  0  0  0  0  0  0  0  0  0
   -4.6928   -2.4997    1.0887 H   0  0  0  0  0  0  0  0  0  0  0  0
   -3.9674   -3.5104   -0.1857 H   0  0  0  0  0  0  0  0  0  0  0  0
   -2.5416   -2.4917    1.0608 C   0  0  0  0  0  0  0  0  0  0  0  0
   -1.7725   -2.8982    1.9182 O   0  0  0  0  0  0  0  0  0  0  0  0
   -2.2234   -1.3834    0.3020 N   0  0  0  0  0  0  0  0  0  0  0  0
   -2.9321   -1.0230   -0.3334 H   0  0  0  0  0  0  0  0  0  0  0  0
   -0.9435   -0.6613    0.3706 C   0  0  1  0  0  0  0  0  0  0  0  0
   -0.4013   -0.9390    1.2801 H   0  0  0  0  0  0  0  0  0  0  0  0
   -0.0646   -0.9897   -0.8519 C   0  0  0  0  0  0  0  0  0  0  0  0
   -0.5773   -0.6670   -1.7645 H   0  0  0  0  0  0  0  0  0  0  0  0
    0.8689   -0.4205   -0.7903 H   0  0  0  0  0  0  0  0  0  0  0  0
    0.2565   -2.4633   -0.9531 C   0  0  0  0  0  0  0  0  0  0  0  0
    1.3988   -2.9892   -0.3323 C   0  0  0  0  0  0  0  0  0  0  0  0
    2.0532   -2.3413    0.2426 H   0  0  0  0  0  0  0  0  0  0  0  0
    1.6979   -4.3532   -0.4364 C   0  0  0  0  0  0  0  0  0  0  0  0
    2.5801   -4.7445    0.0579 H   0  0  0  0  0  0  0  0  0  0  0  0
    0.8642   -5.2013   -1.1687 C   0  0  0  0  0  0  0  0  0  0  0  0
    1.1452   -6.5330   -1.2740 O   0  0  0  0  0  0  0  0  0  0  0  0
    1.9148   -6.7526   -0.7268 H   0  0  0  0  0  0  0  0  0  0  0  0
   -0.2643   -4.6823   -1.7997 C   0  0  0  0  0  0  0  0  0  0  0  0
   -0.9033   -5.3483   -2.3697 H   0  0  0  0  0  0  0  0  0  0  0  0
   -0.5685   -3.3209   -1.6970 C   0  0  0  0  0  0  0  0  0  0  0  0
   -1.4508   -2.9312   -2.1953 H   0  0  0  0  0  0  0  0  0  0  0  0
   -1.1868    0.8584    0.4088 C   0  0  0  0  0  0  0  0  0  0  0  0
   -1.9974    1.3664   -0.3579 O   0  0  0  0  0  0  0  0  0  0  0  0
   -0.4977    1.6599    1.3004 N   0  0  0  0  0  0  0  0  0  0  0  0
    0.1119    1.2010    1.9716 H   0  0  0  0  0  0  0  0  0  0  0  0
   -0.7109    3.0980    1.4093 C   0  0  0  0  0  0  0  0  0  0  0  0
   -1.7517    3.3131    1.6735 H   0  0  0  0  0  0  0  0  0  0  0  0
   -0.0633    3.5186    2.1843 H   0  0  0  0  0  0  0  0  0  0  0  0
   -0.4788    3.5923    0.4601 H   0  0  0  0  0  0  0  0  0  0  0  0
  1  2  1  0  0  0  0
  2  3  1  0  0  0  0
  2  4  1  0  0  0  0
  2  5  1  0  0  0  0
  5  6  2  0  0  0  0
  5  7  1  0  0  0  0
  7  8  1  0  0  0  0
  7  9  1  0  0  0  0
  9 10  1  0  0  0  0
  9 11  1  0  0  0  0
  9 26  1  0  0  0  0
 11 12  1  0  0  0  0
 11 13  1  0  0  0  0
 11 14  1  0  0  0  0
 14 15  2  0  0  0  0
 14 24  1  0  0  0  0
 15 16  1  0  0  0  0
 15 17  1  0  0  0  0
 17 18  1  0  0  0  0
 17 19  2  0  0  0  0
 19 20  1  0  0  0  0
 19 22  1  0  0  0  0
 20 21  1  0  0  0  0
 22 23  1  0  0  0  0
 22 24  2  0  0  0  0
 24 25  1  0  0  0  0
 26 27  2  0  0  0  0
 26 28  1  0  0  0  0
 28 29  1  0  0  0  0
 28 30  1  0  0  0  0
 30 31  1  0  0  0  0
 30 32  1  0  0  0  0
 30 33  1  0  0  0  0
M  END
$$$$

  -OEChem-04042216043D

 33 33  0     1  0  0  0  0  0999 V2000
   -3.9096   -4.0873    1.4646 H   0  0  0  0  0  0  0  0  0  0  0  0
   -3.8390   -3.2092    0.8168 C   0  0  0  0  0  0  0  0  0  0  0  0
   -4.6674   -2.5343    1.0447 H   0  0  0  0  0  0  0  0  0  0  0  0
   -3.9163   -3.5334   -0.2238 H   0  0  0  0  0  0  0  0  0  0  0  0
   -2.5164   -2.5007    1.0397 C   0  0  0  0  0  0  0  0  0  0  0  0
   -1.7506   -2.8994    1.9044 O   0  0  0  0  0  0  0  0  0  0  0  0
   -2.2060   -1.3852    0.2884 N   0  0  0  0  0  0  0  0  0  0  0  0
   -2.9089   -1.0403   -0.3618 H   0  0  0  0  0  0  0  0  0  0  0  0
   -0.9317   -0.6541    0.3633 C   0  0  1  0  0  0  0  0  0  0  0  0
   -0.3858   -0.9342    1.2696 H   0  0  0  0  0  0  0  0  0  0  0  0
   -0.0647   -0.9779   -0.8676 C   0  0  0  0  0  0  0  0  0  0  0  0
   -0.5831   -0.6467   -1.7740 H   0  0  0  0  0  0  0  0  0  0  0  0
    0.8729   -0.4157   -0.8098 H   0  0  0  0  0  0  0  0  0  0  0  0
    0.2528   -2.4522   -0.9699 C   0  0  0  0  0  0  0  0  0  0  0  0
    1.2027   -3.0387   -0.1213 C   0  0  0  0  0  0  0  0  0  0  0  0
    1.7153   -2.4350    0.6212 H   0  0  0  0  0  0  0  0  0  0  0  0
    1.4850   -4.4068   -0.2116 C   0  0  0  0  0  0  0  0  0  0  0  0
    2.2164   -4.8441    0.4588 H   0  0  0  0  0  0  0  0  0  0  0  0
    0.8242   -5.2000   -1.1519 C   0  0  0  0  0  0  0  0  0  0  0  0
    1.0901   -6.5356   -1.2443 O   0  0  0  0  0  0  0  0  0  0  0  0
    1.7154   -6.7952   -0.5503 H   0  0  0  0  0  0  0  0  0  0  0  0
   -0.1166   -4.6223   -2.0019 C   0  0  0  0  0  0  0  0  0  0  0  0
   -0.6247   -5.2463   -2.7296 H   0  0  0  0  0  0  0  0  0  0  0  0
   -0.4039   -3.2559   -1.9144 C   0  0  0  0  0  0  0  0  0  0  0  0
   -1.1428   -2.8222   -2.5816 H   0  0  0  0  0  0  0  0  0  0  0  0
   -1.1813    0.8643    0.4111 C   0  0  0  0  0  0  0  0  0  0  0  0
   -1.9899    1.3751   -0.3556 O   0  0  0  0  0  0  0  0  0  0  0  0
   -0.4963    1.6622    1.3090 N   0  0  0  0  0  0  0  0  0  0  0  0
    0.1124    1.2007    1.9790 H   0  0  0  0  0  0  0  0  0  0  0  0
   -0.7123    3.0992    1.4257 C   0  0  0  0  0  0  0  0  0  0  0  0
   -1.7559    3.3112    1.6817 H   0  0  0  0  0  0  0  0  0  0  0  0
   -0.0726    3.5153    2.2099 H   0  0  0  0  0  0  0  0  0  0  0  0
   -0.4717    3.5993    0.4816 H   0  0  0  0  0  0  0  0  0  0  0  0
  1  2  1  0  0  0  0
  2  3  1  0  0  0  0
  2  4  1  0  0  0  0
  2  5  1  0  0  0  0
  5  6  2  0  0  0  0
  5  7  1  0  0  0  0
  7  8  1  0  0  0  0
  7  9  1  0  0  0  0
  9 10  1  0  0  0  0
  9 11  1  0  0  0  0
  9 26  1  0  0  0  0
 11 12  1  0  0  0  0
 11 13  1  0  0  0  0
 11 14  1  0  0  0  0
 14 15  2  0  0  0  0
 14 24  1  0  0  0  0
 15 16  1  0  0  0  0
 15 17  1  0  0  0  0
 17 18  1  0  0  0  0
 17 19  2  0  0  0  0
 19 20  1  0  0  0  0
 19 22  1  0  0  0  0
 20 21  1  0  0  0  0
 22 23  1  0  0  0  0
 22 24  2  0  0  0  0
 24 25  1  0  0  0  0
 26 27  2  0  0  0  0
 26 28  1  0  0  0  0
 28 29  1  0  0  0  0
 28 30  1  0  0  0  0
 30 31  1  0  0  0  0
 30 32  1  0  0  0  0
 30 33  1  0  0  0  0
M  END
$$$$

  -OEChem-04042216043D

 33 33  0     1  0  0  0  0  0999 V2000
   -3.9252   -4.0712    1.4835 H   0  0  0  0  0  0  0  0  0  0  0  0
   -3.8399   -3.2113    0.8134 C   0  0  0  0  0  0  0  0  0  0  0  0
   -4.6779   -2.5348    0.9977 H   0  0  0  0  0  0  0  0  0  0  0  0
   -3.8850   -3.5647   -0.2197 H   0  0  0  0  0  0  0  0  0  0  0  0
   -2.5282   -2.4889    1.0550 C   0  0  0  0  0  0  0  0  0  0  0  0
   -1.7781   -2.8694    1.9417 O   0  0  0  0  0  0  0  0  0  0  0  0
   -2.2108   -1.3795    0.2979 N   0  0  0  0  0  0  0  0  0  0  0  0
   -2.8977   -1.0558   -0.3796 H   0  0  0  0  0  0  0  0  0  0  0  0
   -0.9366   -0.6487    0.3760 C   0  0  1  0  0  0  0  0  0  0  0  0
   -0.3970   -0.9200    1.2881 H   0  0  0  0  0  0  0  0  0  0  0  0
   -0.0696   -0.9840   -0.8534 C   0  0  0  0  0  0  0  0  0  0  0  0
   -0.5890   -0.6500   -1.7583 H   0  0  0  0  0  0  0  0  0  0  0  0
    0.8697   -0.4247   -0.7959 H   0  0  0  0  0  0  0  0  0  0  0  0
    0.2541   -2.4583   -0.9636 C   0  0  0  0  0  0  0  0  0  0  0  0
    0.9576   -3.1231    0.0530 C   0  0  0  0  0  0  0  0  0  0  0  0
    1.2784   -2.5847    0.9393 H   0  0  0  0  0  0  0  0  0  0  0  0
    1.2378   -4.4902   -0.0539 C   0  0  0  0  0  0  0  0  0  0  0  0
    1.7742   -4.9861    0.7475 H   0  0  0  0  0  0  0  0  0  0  0  0
    0.8226   -5.2066   -1.1778 C   0  0  0  0  0  0  0  0  0  0  0  0
    1.0871   -6.5409   -1.2886 O   0  0  0  0  0  0  0  0  0  0  0  0
    1.5241   -6.8578   -0.4832 H   0  0  0  0  0  0  0  0  0  0  0  0
    0.1287   -4.5530   -2.1936 C   0  0  0  0  0  0  0  0  0  0  0  0
   -0.1891   -5.1176   -3.0639 H   0  0  0  0  0  0  0  0  0  0  0  0
   -0.1567   -3.1872   -2.0903 C   0  0  0  0  0  0  0  0  0  0  0  0
   -0.7025   -2.6974   -2.8913 H   0  0  0  0  0  0  0  0  0  0  0  0
   -1.1808    0.8711    0.4108 C   0  0  0  0  0  0  0  0  0  0  0  0
   -1.9798    1.3813   -0.3663 O   0  0  0  0  0  0  0  0  0  0  0  0
   -0.4977    1.6711    1.3084 N   0  0  0  0  0  0  0  0  0  0  0  0
    0.1025    1.2102    1.9864 H   0  0  0  0  0  0  0  0  0  0  0  0
   -0.7098    3.1093    1.4188 C   0  0  0  0  0  0  0  0  0  0  0  0
   -1.7480    3.3238    1.6937 H   0  0  0  0  0  0  0  0  0  0  0  0
   -0.0541    3.5302    2.1871 H   0  0  0  0  0  0  0  0  0  0  0  0
   -0.4878    3.6042    0.4675 H   0  0  0  0  0  0  0  0  0  0  0  0
  1  2  1  0  0  0  0
  2  3  1  0  0  0  0
  2  4  1  0  0  0  0
  2  5  1  0  0  0  0
  5  6  2  0  0  0  0
  5  7  1  0  0  0  0
  7  8  1  0  0  0  0
  7  9  1  0  0  0  0
  9 10  1  0  0  0  0
  9 11  1  0  0  0  0
  9 26  1  0  0  0  0
 11 12  1  0  0  0  0
 11 13  1  0  0  0  0
 11 14  1  0  0  0  0
 14 15  2  0  0  0  0
 14 24  1  0  0  0  0
 15 16  1  0  0  0  0
 15 17  1  0  0  0  0
 17 18  1  0  0  0  0
 17 19  2  0  0  0  0
 19 20  1  0  0  0  0
 19 22  1  0  0  0  0
 20 21  1  0  0  0  0
 22 23  1  0  0  0  0
 22 24  2  0  0  0  0
 24 25  1  0  0  0  0
 26 27  2  0  0  0  0
 26 28  1  0  0  0  0
 28 29  1  0  0  0  0
 28 30  1  0  0  0  0
 30 31  1  0  0  0  0
 30 32  1  0  0  0  0
 30 33  1  0  0  0  0
M  END
$$$$

  -OEChem-04042216043D

 33 33  0     1  0  0  0  0  0999 V2000
   -3.9669   -4.0567    1.4915 H   0  0  0  0  0  0  0  0  0  0  0  0
   -3.8812   -3.1801    0.8433 C   0  0  0  0  0  0  0  0  0  0  0  0
   -4.7213   -2.5098    1.0406 H   0  0  0  0  0  0  0  0  0  0  0  0
   -3.9217   -3.5079   -0.1982 H   0  0  0  0  0  0  0  0  0  0  0  0
   -2.5723   -2.4606    1.1073 C   0  0  0  0  0  0  0  0  0  0  0  0
   -1.8543   -2.8199    2.0290 O   0  0  0  0  0  0  0  0  0  0  0  0
   -2.2252   -1.3723    0.3333 N   0  0  0  0  0  0  0  0  0  0  0  0
   -2.8883   -1.0677   -0.3762 H   0  0  0  0  0  0  0  0  0  0  0  0
   -0.9448   -0.6528    0.4150 C   0  0  1  0  0  0  0  0  0  0  0  0
   -0.4185   -0.9058    1.3395 H   0  0  0  0  0  0  0  0  0  0  0  0
   -0.0683   -1.0088   -0.8040 C   0  0  0  0  0  0  0  0  0  0  0  0
   -0.5822   -0.6721   -1.7111 H   0  0  0  0  0  0  0  0  0  0  0  0
    0.8708   -0.4501   -0.7394 H   0  0  0  0  0  0  0  0  0  0  0  0
    0.2693   -2.4814   -0.9363 C   0  0  0  0  0  0  0  0  0  0  0  0
    0.6894   -3.2519    0.1613 C   0  0  0  0  0  0  0  0  0  0  0  0
    0.7842   -2.8068    1.1469 H   0  0  0  0  0  0  0  0  0  0  0  0
    0.9765   -4.6131    0.0090 C   0  0  0  0  0  0  0  0  0  0  0  0
    1.2889   -5.1883    0.8737 H   0  0  0  0  0  0  0  0  0  0  0  0
    0.8535   -5.2219   -1.2406 C   0  0  0  0  0  0  0  0  0  0  0  0
    1.1257   -6.5501   -1.3969 O   0  0  0  0  0  0  0  0  0  0  0  0
    1.3593   -6.9411   -0.5409 H   0  0  0  0  0  0  0  0  0  0  0  0
    0.4458   -4.4655   -2.3368 C   0  0  0  0  0  0  0  0  0  0  0  0
    0.3536   -4.9457   -3.3054 H   0  0  0  0  0  0  0  0  0  0  0  0
    0.1556   -3.1048   -2.1893 C   0  0  0  0  0  0  0  0  0  0  0  0
   -0.1631   -2.5360   -3.0579 H   0  0  0  0  0  0  0  0  0  0  0  0
   -1.1836    0.8688    0.4109 C   0  0  0  0  0  0  0  0  0  0  0  0
   -1.9698    1.3642   -0.3888 O   0  0  0  0  0  0  0  0  0  0  0  0
   -0.5119    1.6875    1.3003 N   0  0  0  0  0  0  0  0  0  0  0  0
    0.0856    1.2423    1.9913 H   0  0  0  0  0  0  0  0  0  0  0  0
   -0.7167    3.1294    1.3694 C   0  0  0  0  0  0  0  0  0  0  0  0
   -1.7646    3.3582    1.5902 H   0  0  0  0  0  0  0  0  0  0  0  0
   -0.0947    3.5620    2.1587 H   0  0  0  0  0  0  0  0  0  0  0  0
   -0.4458    3.6003    0.4186 H   0  0  0  0  0  0  0  0  0  0  0  0
  1  2  1  0  0  0  0
  2  3  1  0  0  0  0
  2  4  1  0  0  0  0
  2  5  1  0  0  0  0
  5  6  2  0  0  0  0
  5  7  1  0  0  0  0
  7  8  1  0  0  0  0
  7  9  1  0  0  0  0
  9 10  1  0  0  0  0
  9 11  1  0  0  0  0
  9 26  1  0  0  0  0
 11 12  1  0  0  0  0
 11 13  1  0  0  0  0
 11 14  1  0  0  0  0
 14 15  2  0  0  0  0
 14 24  1  0  0  0  0
 15 16  1  0  0  0  0
 15 17  1  0  0  0  0
 17 18  1  0  0  0  0
 17 19  2  0  0  0  0
 19 20  1  0  0  0  0
 19 22  1  0  0  0  0
 20 21  1  0  0  0  0
 22 23  1  0  0  0  0
 22 24  2  0  0  0  0
 24 25  1  0  0  0  0
 26 27  2  0  0  0  0
 26 28  1  0  0  0  0
 28 29  1  0  0  0  0
 28 30  1  0  0  0  0
 30 31  1  0  0  0  0
 30 32  1  0  0  0  0
 30 33  1  0  0  0  0
M  END
$$$$

  -OEChem-04042216043D

 33 33  0     1  0  0  0  0  0999 V2000
   -4.0324   -4.0286    1.5007 H   0  0  0  0  0  0  0  0  0  0  0  0
   -3.9282   -3.1532    0.8539 C   0  0  0  0  0  0  0  0  0  0  0  0
   -4.7815   -2.4902    1.0157 H   0  0  0  0  0  0  0  0  0  0  0  0
   -3.9249   -3.4850   -0.1873 H   0  0  0  0  0  0  0  0  0  0  0  0
   -2.6368   -2.4222    1.1686 C   0  0  0  0  0  0  0  0  0  0  0  0
   -1.9827   -2.7390    2.1508 O   0  0  0  0  0  0  0  0  0  0  0  0
   -2.2443   -1.3617    0.3786 N   0  0  0  0  0  0  0  0  0  0  0  0
   -2.8692   -1.0912   -0.3778 H   0  0  0  0  0  0  0  0  0  0  0  0
   -0.9544   -0.6559    0.4596 C   0  0  1  0  0  0  0  0  0  0  0  0
   -0.4389   -0.8954    1.3942 H   0  0  0  0  0  0  0  0  0  0  0  0
   -0.0664   -1.0366   -0.7483 C   0  0  0  0  0  0  0  0  0  0  0  0
   -0.5761   -0.7056   -1.6599 H   0  0  0  0  0  0  0  0  0  0  0  0
    0.8699   -0.4732   -0.6812 H   0  0  0  0  0  0  0  0  0  0  0  0
    0.2915   -2.5043   -0.9041 C   0  0  0  0  0  0  0  0  0  0  0  0
    0.4230   -3.3806    0.1869 C   0  0  0  0  0  0  0  0  0  0  0  0
    0.3155   -3.0221    1.2049 H   0  0  0  0  0  0  0  0  0  0  0  0
    0.7132   -4.7347   -0.0125 C   0  0  0  0  0  0  0  0  0  0  0  0
    0.8055   -5.3878    0.8483 H   0  0  0  0  0  0  0  0  0  0  0  0
    0.8811   -5.2349   -1.3036 C   0  0  0  0  0  0  0  0  0  0  0  0
    1.1612   -6.5551   -1.5071 O   0  0  0  0  0  0  0  0  0  0  0  0
    1.2060   -7.0178   -0.6561 H   0  0  0  0  0  0  0  0  0  0  0  0
    0.7631   -4.3756   -2.3927 C   0  0  0  0  0  0  0  0  0  0  0  0
    0.8968   -4.7704   -3.3944 H   0  0  0  0  0  0  0  0  0  0  0  0
    0.4712   -3.0212   -2.1975 C   0  0  0  0  0  0  0  0  0  0  0  0
    0.3783   -2.3715   -3.0629 H   0  0  0  0  0  0  0  0  0  0  0  0
   -1.1781    0.8678    0.4077 C   0  0  0  0  0  0  0  0  0  0  0  0
   -1.9469    1.3487   -0.4174 O   0  0  0  0  0  0  0  0  0  0  0  0
   -0.5111    1.7039    1.2841 N   0  0  0  0  0  0  0  0  0  0  0  0
    0.0665    1.2712    1.9994 H   0  0  0  0  0  0  0  0  0  0  0  0
   -0.7148    3.1468    1.3213 C   0  0  0  0  0  0  0  0  0  0  0  0
   -1.7645    3.3810    1.5278 H   0  0  0  0  0  0  0  0  0  0  0  0
   -0.0997    3.5953    2.1073 H   0  0  0  0  0  0  0  0  0  0  0  0
   -0.4347    3.5974    0.3634 H   0  0  0  0  0  0  0  0  0  0  0  0
  1  2  1  0  0  0  0
  2  3  1  0  0  0  0
  2  4  1  0  0  0  0
  2  5  1  0  0  0  0
  5  6  2  0  0  0  0
  5  7  1  0  0  0  0
  7  8  1  0  0  0  0
  7  9  1  0  0  0  0
  9 10  1  0  0  0  0
  9 11  1  0  0  0  0
  9 26  1  0  0  0  0
 11 12  1  0  0  0  0
 11 13  1  0  0  0  0
 11 14  1  0  0  0  0
 14 15  2  0  0  0  0
 14 24  1  0  0  0  0
 15 16  1  0  0  0  0
 15 17  1  0  0  0  0
 17 18  1  0  0  0  0
 17 19  2  0  0  0  0
 19 20  1  0  0  0  0
 19 22  1  0  0  0  0
 20 21  1  0  0  0  0
 22 23  1  0  0  0  0
 22 24  2  0  0  0  0
 24 25  1  0  0  0  0
 26 27  2  0  0  0  0
 26 28  1  0  0  0  0
 28 29  1  0  0  0  0
 28 30  1  0  0  0  0
 30 31  1  0  0  0  0
 30 32  1  0  0  0  0
 30 33  1  0  0  0  0
M  END
$$$$

  -OEChem-04042216043D

 33 33  0     1  0  0  0  0  0999 V2000
   -4.2229   -3.8999    1.6229 H   0  0  0  0  0  0  0  0  0  0  0  0
   -4.0311   -3.1007    0.9018 C   0  0  0  0  0  0  0  0  0  0  0  0
   -4.8706   -2.4016    0.9171 H   0  0  0  0  0  0  0  0  0  0  0  0
   -3.9488   -3.5392   -0.0957 H   0  0  0  0  0  0  0  0  0  0  0  0
   -2.7463   -2.3755    1.2541 C   0  0  0  0  0  0  0  0  0  0  0  0
   -2.1588   -2.6468    2.2901 O   0  0  0  0  0  0  0  0  0  0  0  0
   -2.2984   -1.3543    0.4429 N   0  0  0  0  0  0  0  0  0  0  0  0
   -2.8908   -1.1090   -0.3479 H   0  0  0  0  0  0  0  0  0  0  0  0
   -0.9912   -0.6754    0.5166 C   0  0  1  0  0  0  0  0  0  0  0  0
   -0.4919   -0.9053    1.4630 H   0  0  0  0  0  0  0  0  0  0  0  0
   -0.0800   -1.0803   -0.6717 C   0  0  0  0  0  0  0  0  0  0  0  0
   -0.5763   -0.7531   -1.5925 H   0  0  0  0  0  0  0  0  0  0  0  0
    0.8513   -0.5102   -0.5892 H   0  0  0  0  0  0  0  0  0  0  0  0
    0.3063   -2.5379   -0.8603 C   0  0  0  0  0  0  0  0  0  0  0  0
    0.1595   -3.5272    0.1256 C   0  0  0  0  0  0  0  0  0  0  0  0
   -0.1633   -3.2712    1.1254 H   0  0  0  0  0  0  0  0  0  0  0  0
    0.4851   -4.8623   -0.1396 C   0  0  0  0  0  0  0  0  0  0  0  0
    0.3693   -5.6017    0.6454 H   0  0  0  0  0  0  0  0  0  0  0  0
    0.9627   -5.2326   -1.3965 C   0  0  0  0  0  0  0  0  0  0  0  0
    1.2821   -6.5320   -1.6650 O   0  0  0  0  0  0  0  0  0  0  0  0
    1.1332   -7.0786   -0.8780 H   0  0  0  0  0  0  0  0  0  0  0  0
    1.1196   -4.2625   -2.3823 C   0  0  0  0  0  0  0  0  0  0  0  0
    1.4939   -4.5556   -3.3577 H   0  0  0  0  0  0  0  0  0  0  0  0
    0.7951   -2.9274   -2.1185 C   0  0  0  0  0  0  0  0  0  0  0  0
    0.9183   -2.1902   -2.9067 H   0  0  0  0  0  0  0  0  0  0  0  0
   -1.1847    0.8502    0.4078 C   0  0  0  0  0  0  0  0  0  0  0  0
   -1.9351    1.3179   -0.4416 O   0  0  0  0  0  0  0  0  0  0  0  0
   -0.5117    1.7030    1.2633 N   0  0  0  0  0  0  0  0  0  0  0  0
    0.0489    1.2842    2.0003 H   0  0  0  0  0  0  0  0  0  0  0  0
   -0.6770    3.1514    1.2408 C   0  0  0  0  0  0  0  0  0  0  0  0
   -1.7138    3.4220    1.4668 H   0  0  0  0  0  0  0  0  0  0  0  0
   -0.0264    3.6182    1.9865 H   0  0  0  0  0  0  0  0  0  0  0  0
   -0.4146    3.5517    0.2558 H   0  0  0  0  0  0  0  0  0  0  0  0
  1  2  1  0  0  0  0
  2  3  1  0  0  0  0
  2  4  1  0  0  0  0
  2  5  1  0  0  0  0
  5  6  2  0  0  0  0
  5  7  1  0  0  0  0
  7  8  1  0  0  0  0
  7  9  1  0  0  0  0
  9 10  1  0  0  0  0
  9 11  1  0  0  0  0
  9 26  1  0  0  0  0
 11 12  1  0  0  0  0
 11 13  1  0  0  0  0
 11 14  1  0  0  0  0
 14 15  2  0  0  0  0
 14 24  1  0  0  0  0
 15 16  1  0  0  0  0
 15 17  1  0  0  0  0
 17 18  1  0  0  0  0
 17 19  2  0  0  0  0
 19 20  1  0  0  0  0
 19 22  1  0  0  0  0
 20 21  1  0  0  0  0
 22 23  1  0  0  0  0
 22 24  2  0  0  0  0
 24 25  1  0  0  0  0
 26 27  2  0  0  0  0
 26 28  1  0  0  0  0
 28 29  1  0  0  0  0
 28 30  1  0  0  0  0
 30 31  1  0  0  0  0
 30 32  1  0  0  0  0
 30 33  1  0  0  0  0
M  END
$$$$

  -OEChem-04042216043D

 33 33  0     1  0  0  0  0  0999 V2000
   -4.3801   -3.7634    1.8136 H   0  0  0  0  0  0  0  0  0  0  0  0
   -4.1650   -2.9947    1.0662 C   0  0  0  0  0  0  0  0  0  0  0  0
   -4.9629   -2.2483    1.0871 H   0  0  0  0  0  0  0  0  0  0  0  0
   -4.1380   -3.4617    0.0785 H   0  0  0  0  0  0  0  0  0  0  0  0
   -2.8316   -2.3351    1.3621 C   0  0  0  0  0  0  0  0  0  0  0  0
   -2.2224   -2.6214    2.3815 O   0  0  0  0  0  0  0  0  0  0  0  0
   -2.3564   -1.3532    0.5188 N   0  0  0  0  0  0  0  0  0  0  0  0
   -2.9663   -1.0793   -0.2492 H   0  0  0  0  0  0  0  0  0  0  0  0
   -1.0285   -0.7116    0.5559 C   0  0  1  0  0  0  0  0  0  0  0  0
   -0.5292   -0.9279    1.5058 H   0  0  0  0  0  0  0  0  0  0  0  0
   -0.1079   -1.1353   -0.6237 C   0  0  0  0  0  0  0  0  0  0  0  0
   -0.5972   -0.8065   -1.5475 H   0  0  0  0  0  0  0  0  0  0  0  0
    0.8191   -0.5593   -0.5311 H   0  0  0  0  0  0  0  0  0  0  0  0
    0.3040   -2.5821   -0.8518 C   0  0  0  0  0  0  0  0  0  0  0  0
   -0.0748   -3.6739   -0.0551 C   0  0  0  0  0  0  0  0  0  0  0  0
   -0.6282   -3.5354    0.8584 H   0  0  0  0  0  0  0  0  0  0  0  0
    0.3127   -4.9781   -0.3835 C   0  0  0  0  0  0  0  0  0  0  0  0
    0.0145   -5.7966    0.2624 H   0  0  0  0  0  0  0  0  0  0  0  0
    1.0820   -5.2183   -1.5210 C   0  0  0  0  0  0  0  0  0  0  0  0
    1.4649   -6.4865   -1.8489 O   0  0  0  0  0  0  0  0  0  0  0  0
    1.1367   -7.1129   -1.1855 H   0  0  0  0  0  0  0  0  0  0  0  0
    1.4653   -4.1489   -2.3240 C   0  0  0  0  0  0  0  0  0  0  0  0
    2.0630   -4.3402   -3.2092 H   0  0  0  0  0  0  0  0  0  0  0  0
    1.0801   -2.8449   -1.9942 C   0  0  0  0  0  0  0  0  0  0  0  0
    1.3835   -2.0281   -2.6430 H   0  0  0  0  0  0  0  0  0  0  0  0
   -1.1980    0.8139    0.4027 C   0  0  0  0  0  0  0  0  0  0  0  0
   -1.9585    1.2688   -0.4450 O   0  0  0  0  0  0  0  0  0  0  0  0
   -0.4985    1.6803    1.2224 N   0  0  0  0  0  0  0  0  0  0  0  0
    0.0657    1.2741    1.9637 H   0  0  0  0  0  0  0  0  0  0  0  0
   -0.6410    3.1299    1.1594 C   0  0  0  0  0  0  0  0  0  0  0  0
   -1.6695    3.4246    1.3930 H   0  0  0  0  0  0  0  0  0  0  0  0
    0.0289    3.6077    1.8806 H   0  0  0  0  0  0  0  0  0  0  0  0
   -0.3874    3.4968    0.1593 H   0  0  0  0  0  0  0  0  0  0  0  0
  1  2  1  0  0  0  0
  2  3  1  0  0  0  0
  2  4  1  0  0  0  0
  2  5  1  0  0  0  0
  5  6  2  0  0  0  0
  5  7  1  0  0  0  0
  7  8  1  0  0  0  0
  7  9  1  0  0  0  0
  9 10  1  0  0  0  0
  9 11  1  0  0  0  0
  9 26  1  0  0  0  0
 11 12  1  0  0  0  0
 11 13  1  0  0  0  0
 11 14  1  0  0  0  0
 14 15  2  0  0  0  0
 14 24  1  0  0  0  0
 15 16  1  0  0  0  0
 15 17  1  0  0  0  0
 17 18  1  0  0  0  0
 17 19  2  0  0  0  0
 19 20  1  0  0  0  0
 19 22  1  0  0  0  0
 20 21  1  0  0  0  0
 22 23  1  0  0  0  0
 22 24  2  0  0  0  0
 24 25  1  0  0  0  0
 26 27  2  0  0  0  0
 26 28  1  0  0  0  0
 28 29  1  0  0  0  0
 28 30  1  0  0  0  0
 30 31  1  0  0  0  0
 30 32  1  0  0  0  0
 30 33  1  0  0  0  0
M  END
$$$$

  -OEChem-04042216043D

 33 33  0     1  0  0  0  0  0999 V2000
   -4.6194   -3.6008    1.7385 H   0  0  0  0  0  0  0  0  0  0  0  0
   -4.3686   -2.8151    1.0204 C   0  0  0  0  0  0  0  0  0  0  0  0
   -5.0887   -1.9996    1.1244 H   0  0  0  0  0  0  0  0  0  0  0  0
   -4.4375   -3.2266    0.0104 H   0  0  0  0  0  0  0  0  0  0  0  0
   -2.9644   -2.3014    1.2761 C   0  0  0  0  0  0  0  0  0  0  0  0
   -2.3314   -2.7109    2.2369 O   0  0  0  0  0  0  0  0  0  0  0  0
   -2.4306   -1.3331    0.4516 N   0  0  0  0  0  0  0  0  0  0  0  0
   -3.0422   -0.9531   -0.2692 H   0  0  0  0  0  0  0  0  0  0  0  0
   -1.0775   -0.7527    0.5339 C   0  0  1  0  0  0  0  0  0  0  0  0
   -0.6287   -0.9900    1.5037 H   0  0  0  0  0  0  0  0  0  0  0  0
   -0.0945   -1.1790   -0.5953 C   0  0  0  0  0  0  0  0  0  0  0  0
   -0.5203   -0.8226   -1.5397 H   0  0  0  0  0  0  0  0  0  0  0  0
    0.8311   -0.6166   -0.4302 H   0  0  0  0  0  0  0  0  0  0  0  0
    0.3155   -2.6249   -0.8487 C   0  0  0  0  0  0  0  0  0  0  0  0
   -0.3170   -3.7717   -0.3408 C   0  0  0  0  0  0  0  0  0  0  0  0
   -1.1610   -3.7090    0.3216 H   0  0  0  0  0  0  0  0  0  0  0  0
    0.1438   -5.0550   -0.6596 C   0  0  0  0  0  0  0  0  0  0  0  0
   -0.3620   -5.9182   -0.2412 H   0  0  0  0  0  0  0  0  0  0  0  0
    1.2425   -5.2205   -1.5008 C   0  0  0  0  0  0  0  0  0  0  0  0
    1.6999   -6.4675   -1.8150 O   0  0  0  0  0  0  0  0  0  0  0  0
    1.1692   -7.1390   -1.3594 H   0  0  0  0  0  0  0  0  0  0  0  0
    1.8762   -4.0982   -2.0225 C   0  0  0  0  0  0  0  0  0  0  0  0
    2.7290   -4.2301   -2.6803 H   0  0  0  0  0  0  0  0  0  0  0  0
    1.4172   -2.8164   -1.7023 C   0  0  0  0  0  0  0  0  0  0  0  0
    1.9280   -1.9583   -2.1294 H   0  0  0  0  0  0  0  0  0  0  0  0
   -1.1954    0.7789    0.3909 C   0  0  0  0  0  0  0  0  0  0  0  0
   -1.9359    1.2645   -0.4576 O   0  0  0  0  0  0  0  0  0  0  0  0
   -0.4925    1.6162    1.2378 N   0  0  0  0  0  0  0  0  0  0  0  0
    0.0525    1.1853    1.9795 H   0  0  0  0  0  0  0  0  0  0  0  0
   -0.6070    3.0692    1.2010 C   0  0  0  0  0  0  0  0  0  0  0  0
   -1.6344    3.3781    1.4205 H   0  0  0  0  0  0  0  0  0  0  0  0
    0.0570    3.5202    1.9448 H   0  0  0  0  0  0  0  0  0  0  0  0
   -0.3276    3.4511    0.2133 H   0  0  0  0  0  0  0  0  0  0  0  0
  1  2  1  0  0  0  0
  2  3  1  0  0  0  0
  2  4  1  0  0  0  0
  2  5  1  0  0  0  0
  5  6  2  0  0  0  0
  5  7  1  0  0  0  0
  7  8  1  0  0  0  0
  7  9  1  0  0  0  0
  9 10  1  0  0  0  0
  9 11  1  0  0  0  0
  9 26  1  0  0  0  0
 11 12  1  0  0  0  0
 11 13  1  0  0  0  0
 11 14  1  0  0  0  0
 14 15  2  0  0  0  0
 14 24  1  0  0  0  0
 15 16  1  0  0  0  0
 15 17  1  0  0  0  0
 17 18  1  0  0  0  0
 17 19  2  0  0  0  0
 19 20  1  0  0  0  0
 19 22  1  0  0  0  0
 20 21  1  0  0  0  0
 22 23  1  0  0  0  0
 22 24  2  0  0  0  0
 24 25  1  0  0  0  0
 26 27  2  0  0  0  0
 26 28  1  0  0  0  0
 28 29  1  0  0  0  0
 28 30  1  0  0  0  0
 30 31  1  0  0  0  0
 30 32  1  0  0  0  0
 30 33  1  0  0  0  0
M  END
$$$$

  -OEChem-04042216043D

 33 33  0     1  0  0  0  0  0999 V2000
   -4.5463   -3.6453    1.7876 H   0  0  0  0  0  0  0  0  0  0  0  0
   -4.3553   -2.7989    1.1221 C   0  0  0  0  0  0  0  0  0  0  0  0
   -5.0320   -1.9827    1.3862 H   0  0  0  0  0  0  0  0  0  0  0  0
   -4.5534   -3.1087    0.0933 H   0  0  0  0  0  0  0  0  0  0  0  0
   -2.9153   -2.3415    1.2582 C   0  0  0  0  0  0  0  0  0  0  0  0
   -2.1942   -2.8469    2.1033 O   0  0  0  0  0  0  0  0  0  0  0  0
   -2.4351   -1.3434    0.4349 N   0  0  0  0  0  0  0  0  0  0  0  0
   -3.1051   -0.8889   -0.1842 H   0  0  0  0  0  0  0  0  0  0  0  0
   -1.0808   -0.7634    0.4764 C   0  0  1  0  0  0  0  0  0  0  0  0
   -0.6022   -1.0227    1.4263 H   0  0  0  0  0  0  0  0  0  0  0  0
   -0.1160   -1.1550   -0.6800 C   0  0  0  0  0  0  0  0  0  0  0  0
   -0.5620   -0.7904   -1.6116 H   0  0  0  0  0  0  0  0  0  0  0  0
    0.8049   -0.5832   -0.5235 H   0  0  0  0  0  0  0  0  0  0  0  0
    0.2867   -2.6006   -0.9486 C   0  0  0  0  0  0  0  0  0  0  0  0
   -0.5033   -3.7330   -0.6885 C   0  0  0  0  0  0  0  0  0  0  0  0
   -1.5056   -3.6478   -0.3056 H   0  0  0  0  0  0  0  0  0  0  0  0
   -0.0268   -5.0242   -0.9457 C   0  0  0  0  0  0  0  0  0  0  0  0
   -0.6622   -5.8758   -0.7293 H   0  0  0  0  0  0  0  0  0  0  0  0
    1.2486   -5.2118   -1.4756 C   0  0  0  0  0  0  0  0  0  0  0  0
    1.7238   -6.4667   -1.7251 O   0  0  0  0  0  0  0  0  0  0  0  0
    1.0785   -7.1280   -1.4315 H   0  0  0  0  0  0  0  0  0  0  0  0
    2.0405   -4.1033   -1.7541 C   0  0  0  0  0  0  0  0  0  0  0  0
    3.0314   -4.2523   -2.1704 H   0  0  0  0  0  0  0  0  0  0  0  0
    1.5660   -2.8135   -1.4950 C   0  0  0  0  0  0  0  0  0  0  0  0
    2.2109   -1.9698   -1.7219 H   0  0  0  0  0  0  0  0  0  0  0  0
   -1.2099    0.7708    0.3888 C   0  0  0  0  0  0  0  0  0  0  0  0
   -1.9974    1.2776   -0.4030 O   0  0  0  0  0  0  0  0  0  0  0  0
   -0.4736    1.5852    1.2295 N   0  0  0  0  0  0  0  0  0  0  0  0
    0.1210    1.1352    1.9202 H   0  0  0  0  0  0  0  0  0  0  0  0
   -0.5805    3.0391    1.2309 C   0  0  0  0  0  0  0  0  0  0  0  0
   -1.5968    3.3483    1.4966 H   0  0  0  0  0  0  0  0  0  0  0  0
    0.1138    3.4687    1.9594 H   0  0  0  0  0  0  0  0  0  0  0  0
   -0.3362    3.4423    0.2425 H   0  0  0  0  0  0  0  0  0  0  0  0
  1  2  1  0  0  0  0
  2  3  1  0  0  0  0
  2  4  1  0  0  0  0
  2  5  1  0  0  0  0
  5  6  2  0  0  0  0
  5  7  1  0  0  0  0
  7  8  1  0  0  0  0
  7  9  1  0  0  0  0
  9 10  1  0  0  0  0
  9 11  1  0  0  0  0
  9 26  1  0  0  0  0
 11 12  1  0  0  0  0
 11 13  1  0  0  0  0
 11 14  1  0  0  0  0
 14 15  2  0  0  0  0
 14 24  1  0  0  0  0
 15 16  1  0  0  0  0
 15 17  1  0  0  0  0
 17 18  1  0  0  0  0
 17 19  2  0  0  0  0
 19 20  1  0  0  0  0
 19 22  1  0  0  0  0
 20 21  1  0  0  0  0
 22 23  1  0  0  0  0
 22 24  2  0  0  0  0
 24 25  1  0  0  0  0
 26 27  2  0  0  0  0
 26 28  1  0  0  0  0
 28 29  1  0  0  0  0
 28 30  1  0  0  0  0
 30 31  1  0  0  0  0
 30 32  1  0  0  0  0
 30 33  1  0  0  0  0
M  END
$$$$

  -OEChem-04042216043D

 33 33  0     1  0  0  0  0  0999 V2000
   -4.3913   -3.7544    1.7415 H   0  0  0  0  0  0  0  0  0  0  0  0
   -4.2410   -2.8965    1.0802 C   0  0  0  0  0  0  0  0  0  0  0  0
   -4.9276   -2.0993    1.3755 H   0  0  0  0  0  0  0  0  0  0  0  0
   -4.4647   -3.1994    0.0546 H   0  0  0  0  0  0  0  0  0  0  0  0
   -2.8082   -2.4071    1.1764 C   0  0  0  0  0  0  0  0  0  0  0  0
   -2.0410   -2.9285    1.9691 O   0  0  0  0  0  0  0  0  0  0  0  0
   -2.3901   -1.3607    0.3786 N   0  0  0  0  0  0  0  0  0  0  0  0
   -3.0965   -0.8919   -0.1871 H   0  0  0  0  0  0  0  0  0  0  0  0
   -1.0536   -0.7427    0.4118 C   0  0  1  0  0  0  0  0  0  0  0  0
   -0.5499   -1.0208    1.3430 H   0  0  0  0  0  0  0  0  0  0  0  0
   -0.1069   -1.0927   -0.7686 C   0  0  0  0  0  0  0  0  0  0  0  0
   -0.5793   -0.7356   -1.6900 H   0  0  0  0  0  0  0  0  0  0  0  0
    0.8078   -0.5060   -0.6351 H   0  0  0  0  0  0  0  0  0  0  0  0
    0.2866   -2.5427   -1.0167 C   0  0  0  0  0  0  0  0  0  0  0  0
   -0.6151   -3.6199   -1.0018 C   0  0  0  0  0  0  0  0  0  0  0  0
   -1.6759   -3.4569   -0.8796 H   0  0  0  0  0  0  0  0  0  0  0  0
   -0.1727   -4.9349   -1.1895 C   0  0  0  0  0  0  0  0  0  0  0  0
   -0.8925   -5.7455   -1.1714 H   0  0  0  0  0  0  0  0  0  0  0  0
    1.1802   -5.1984   -1.4011 C   0  0  0  0  0  0  0  0  0  0  0  0
    1.6223   -6.4772   -1.5795 O   0  0  0  0  0  0  0  0  0  0  0  0
    0.8887   -7.0993   -1.4584 H   0  0  0  0  0  0  0  0  0  0  0  0
    2.0855   -4.1429   -1.4327 C   0  0  0  0  0  0  0  0  0  0  0  0
    3.1368   -4.3523   -1.6006 H   0  0  0  0  0  0  0  0  0  0  0  0
    1.6457   -2.8291   -1.2416 C   0  0  0  0  0  0  0  0  0  0  0  0
    2.3799   -2.0294   -1.2635 H   0  0  0  0  0  0  0  0  0  0  0  0
   -1.2152    0.7896    0.3907 C   0  0  0  0  0  0  0  0  0  0  0  0
   -2.0333    1.3107   -0.3595 O   0  0  0  0  0  0  0  0  0  0  0  0
   -0.4741    1.5825    1.2476 N   0  0  0  0  0  0  0  0  0  0  0  0
    0.1502    1.1155    1.8997 H   0  0  0  0  0  0  0  0  0  0  0  0
   -0.6111    3.0322    1.3180 C   0  0  0  0  0  0  0  0  0  0  0  0
   -1.6303    3.3072    1.6093 H   0  0  0  0  0  0  0  0  0  0  0  0
    0.0830    3.4417    2.0584 H   0  0  0  0  0  0  0  0  0  0  0  0
   -0.3871    3.4862    0.3468 H   0  0  0  0  0  0  0  0  0  0  0  0
  1  2  1  0  0  0  0
  2  3  1  0  0  0  0
  2  4  1  0  0  0  0
  2  5  1  0  0  0  0
  5  6  2  0  0  0  0
  5  7  1  0  0  0  0
  7  8  1  0  0  0  0
  7  9  1  0  0  0  0
  9 10  1  0  0  0  0
  9 11  1  0  0  0  0
  9 26  1  0  0  0  0
 11 12  1  0  0  0  0
 11 13  1  0  0  0  0
 11 14  1  0  0  0  0
 14 15  2  0  0  0  0
 14 24  1  0  0  0  0
 15 16  1  0  0  0  0
 15 17  1  0  0  0  0
 17 18  1  0  0  0  0
 17 19  2  0  0  0  0
 19 20  1  0  0  0  0
 19 22  1  0  0  0  0
 20 21  1  0  0  0  0
 22 23  1  0  0  0  0
 22 24  2  0  0  0  0
 24 25  1  0  0  0  0
 26 27  2  0  0  0  0
 26 28  1  0  0  0  0
 28 29  1  0  0  0  0
 28 30  1  0  0  0  0
 30 31  1  0  0  0  0
 30 32  1  0  0  0  0
 30 33  1  0  0  0  0
M  END
$$$$

  -OEChem-04042216043D

 33 33  0     1  0  0  0  0  0999 V2000
   -4.1953   -3.8957    1.6475 H   0  0  0  0  0  0  0  0  0  0  0  0
   -4.0824   -3.0291    0.9899 C   0  0  0  0  0  0  0  0  0  0  0  0
   -4.8130   -2.2696    1.2791 H   0  0  0  0  0  0  0  0  0  0  0  0
   -4.2779   -3.3407   -0.0388 H   0  0  0  0  0  0  0  0  0  0  0  0
   -2.6781   -2.4665    1.1030 C   0  0  0  0  0  0  0  0  0  0  0  0
   -1.8888   -2.9619    1.8908 O   0  0  0  0  0  0  0  0  0  0  0  0
   -2.3161   -1.3806    0.3313 N   0  0  0  0  0  0  0  0  0  0  0  0
   -3.0448   -0.9326   -0.2219 H   0  0  0  0  0  0  0  0  0  0  0  0
   -1.0053   -0.7122    0.3709 C   0  0  1  0  0  0  0  0  0  0  0  0
   -0.4777   -0.9985    1.2867 H   0  0  0  0  0  0  0  0  0  0  0  0
   -0.0849   -1.0314   -0.8331 C   0  0  0  0  0  0  0  0  0  0  0  0
   -0.5849   -0.6894   -1.7457 H   0  0  0  0  0  0  0  0  0  0  0  0
    0.8288   -0.4366   -0.7321 H   0  0  0  0  0  0  0  0  0  0  0  0
    0.2937   -2.4874   -1.0407 C   0  0  0  0  0  0  0  0  0  0  0  0
   -0.6594   -3.4933   -1.2703 C   0  0  0  0  0  0  0  0  0  0  0  0
   -1.7089   -3.2413   -1.3642 H   0  0  0  0  0  0  0  0  0  0  0  0
   -0.2723   -4.8311   -1.4122 C   0  0  0  0  0  0  0  0  0  0  0  0
   -1.0276   -5.5880   -1.5913 H   0  0  0  0  0  0  0  0  0  0  0  0
    1.0744   -5.1848   -1.3248 C   0  0  0  0  0  0  0  0  0  0  0  0
    1.4626   -6.4867   -1.4561 O   0  0  0  0  0  0  0  0  0  0  0  0
    0.6826   -7.0575   -1.5310 H   0  0  0  0  0  0  0  0  0  0  0  0
    2.0301   -4.1976   -1.1020 C   0  0  0  0  0  0  0  0  0  0  0  0
    3.0754   -4.4801   -1.0340 H   0  0  0  0  0  0  0  0  0  0  0  0
    1.6460   -2.8601   -0.9585 C   0  0  0  0  0  0  0  0  0  0  0  0
    2.4117   -2.1128   -0.7744 H   0  0  0  0  0  0  0  0  0  0  0  0
   -1.2096    0.8144    0.3974 C   0  0  0  0  0  0  0  0  0  0  0  0
   -2.0447    1.3333   -0.3353 O   0  0  0  0  0  0  0  0  0  0  0  0
   -0.4836    1.6042    1.2699 N   0  0  0  0  0  0  0  0  0  0  0  0
    0.1539    1.1366    1.9086 H   0  0  0  0  0  0  0  0  0  0  0  0
   -0.6583    3.0474    1.3787 C   0  0  0  0  0  0  0  0  0  0  0  0
   -1.6873    3.2890    1.6652 H   0  0  0  0  0  0  0  0  0  0  0  0
    0.0163    3.4535    2.1385 H   0  0  0  0  0  0  0  0  0  0  0  0
   -0.4345    3.5330    0.4230 H   0  0  0  0  0  0  0  0  0  0  0  0
  1  2  1  0  0  0  0
  2  3  1  0  0  0  0
  2  4  1  0  0  0  0
  2  5  1  0  0  0  0
  5  6  2  0  0  0  0
  5  7  1  0  0  0  0
  7  8  1  0  0  0  0
  7  9  1  0  0  0  0
  9 10  1  0  0  0  0
  9 11  1  0  0  0  0
  9 26  1  0  0  0  0
 11 12  1  0  0  0  0
 11 13  1  0  0  0  0
 11 14  1  0  0  0  0
 14 15  2  0  0  0  0
 14 24  1  0  0  0  0
 15 16  1  0  0  0  0
 15 17  1  0  0  0  0
 17 18  1  0  0  0  0
 17 19  2  0  0  0  0
 19 20  1  0  0  0  0
 19 22  1  0  0  0  0
 20 21  1  0  0  0  0
 22 23  1  0  0  0  0
 22 24  2  0  0  0  0
 24 25  1  0  0  0  0
 26 27  2  0  0  0  0
 26 28  1  0  0  0  0
 28 29  1  0  0  0  0
 28 30  1  0  0  0  0
 30 31  1  0  0  0  0
 30 32  1  0  0  0  0
 30 33  1  0  0  0  0
M  END
$$$$

  -OEChem-04042216043D

 33 33  0     1  0  0  0  0  0999 V2000
   -4.0291   -4.0066    1.5550 H   0  0  0  0  0  0  0  0  0  0  0  0
   -3.9437   -3.1331    0.9027 C   0  0  0  0  0  0  0  0  0  0  0  0
   -4.7183   -2.4123    1.1754 H   0  0  0  0  0  0  0  0  0  0  0  0
   -4.0972   -3.4500   -0.1314 H   0  0  0  0  0  0  0  0  0  0  0  0
   -2.5727   -2.5015    1.0519 C   0  0  0  0  0  0  0  0  0  0  0  0
   -1.7801   -2.9577    1.8602 O   0  0  0  0  0  0  0  0  0  0  0  0
   -2.2469   -1.3941    0.2951 N   0  0  0  0  0  0  0  0  0  0  0  0
   -2.9804   -0.9800   -0.2772 H   0  0  0  0  0  0  0  0  0  0  0  0
   -0.9582   -0.6854    0.3513 C   0  0  1  0  0  0  0  0  0  0  0  0
   -0.4175   -0.9702    1.2597 H   0  0  0  0  0  0  0  0  0  0  0  0
   -0.0584   -0.9907   -0.8660 C   0  0  0  0  0  0  0  0  0  0  0  0
   -0.5696   -0.6585   -1.7759 H   0  0  0  0  0  0  0  0  0  0  0  0
    0.8602   -0.4005   -0.7844 H   0  0  0  0  0  0  0  0  0  0  0  0
    0.3015   -2.4526   -1.0264 C   0  0  0  0  0  0  0  0  0  0  0  0
   -0.6312   -3.3844   -1.5090 C   0  0  0  0  0  0  0  0  0  0  0  0
   -1.6232   -3.0551   -1.8006 H   0  0  0  0  0  0  0  0  0  0  0  0
   -0.2924   -4.7373   -1.6283 C   0  0  0  0  0  0  0  0  0  0  0  0
   -1.0267   -5.4405   -2.0044 H   0  0  0  0  0  0  0  0  0  0  0  0
    0.9827   -5.1747   -1.2656 C   0  0  0  0  0  0  0  0  0  0  0  0
    1.3247   -6.4916   -1.3772 O   0  0  0  0  0  0  0  0  0  0  0  0
    0.5550   -7.0104   -1.6561 H   0  0  0  0  0  0  0  0  0  0  0  0
    1.9143   -4.2576   -0.7842 C   0  0  0  0  0  0  0  0  0  0  0  0
    2.9012   -4.6074   -0.5003 H   0  0  0  0  0  0  0  0  0  0  0  0
    1.5786   -2.9050   -0.6604 C   0  0  0  0  0  0  0  0  0  0  0  0
    2.3177   -2.2105   -0.2729 H   0  0  0  0  0  0  0  0  0  0  0  0
   -1.1972    0.8346    0.3975 C   0  0  0  0  0  0  0  0  0  0  0  0
   -2.0327    1.3444   -0.3408 O   0  0  0  0  0  0  0  0  0  0  0  0
   -0.4949    1.6293    1.2843 N   0  0  0  0  0  0  0  0  0  0  0  0
    0.1401    1.1669    1.9290 H   0  0  0  0  0  0  0  0  0  0  0  0
   -0.7065    3.0660    1.4105 C   0  0  0  0  0  0  0  0  0  0  0  0
   -1.7429    3.2778    1.6937 H   0  0  0  0  0  0  0  0  0  0  0  0
   -0.0465    3.4794    2.1792 H   0  0  0  0  0  0  0  0  0  0  0  0
   -0.4900    3.5693    0.4623 H   0  0  0  0  0  0  0  0  0  0  0  0
  1  2  1  0  0  0  0
  2  3  1  0  0  0  0
  2  4  1  0  0  0  0
  2  5  1  0  0  0  0
  5  6  2  0  0  0  0
  5  7  1  0  0  0  0
  7  8  1  0  0  0  0
  7  9  1  0  0  0  0
  9 10  1  0  0  0  0
  9 11  1  0  0  0  0
  9 26  1  0  0  0  0
 11 12  1  0  0  0  0
 11 13  1  0  0  0  0
 11 14  1  0  0  0  0
 14 15  2  0  0  0  0
 14 24  1  0  0  0  0
 15 16  1  0  0  0  0
 15 17  1  0  0  0  0
 17 18  1  0  0  0  0
 17 19  2  0  0  0  0
 19 20  1  0  0  0  0
 19 22  1  0  0  0  0
 20 21  1  0  0  0  0
 22 23  1  0  0  0  0
 22 24  2  0  0  0  0
 24 25  1  0  0  0  0
 26 27  2  0  0  0  0
 26 28  1  0  0  0  0
 28 29  1  0  0  0  0
 28 30  1  0  0  0  0
 30 31  1  0  0  0  0
 30 32  1  0  0  0  0
 30 33  1  0  0  0  0
M  END
$$$$

  -OEChem-04042216043D

 33 33  0     1  0  0  0  0  0999 V2000
   -3.9215   -4.0762    1.4826 H   0  0  0  0  0  0  0  0  0  0  0  0
   -3.8509   -3.1961    0.8373 C   0  0  0  0  0  0  0  0  0  0  0  0
   -4.6588   -2.5058    1.0918 H   0  0  0  0  0  0  0  0  0  0  0  0
   -3.9639   -3.5121   -0.2023 H   0  0  0  0  0  0  0  0  0  0  0  0
   -2.5083   -2.5163    1.0274 C   0  0  0  0  0  0  0  0  0  0  0  0
   -1.7255   -2.9418    1.8620 O   0  0  0  0  0  0  0  0  0  0  0  0
   -2.1997   -1.3986    0.2790 N   0  0  0  0  0  0  0  0  0  0  0  0
   -2.9247   -1.0189   -0.3262 H   0  0  0  0  0  0  0  0  0  0  0  0
   -0.9258   -0.6657    0.3476 C   0  0  1  0  0  0  0  0  0  0  0  0
   -0.3774   -0.9474    1.2523 H   0  0  0  0  0  0  0  0  0  0  0  0
   -0.0463   -0.9703   -0.8803 C   0  0  0  0  0  0  0  0  0  0  0  0
   -0.5657   -0.6417   -1.7871 H   0  0  0  0  0  0  0  0  0  0  0  0
    0.8794   -0.3895   -0.8138 H   0  0  0  0  0  0  0  0  0  0  0  0
    0.2971   -2.4370   -1.0075 C   0  0  0  0  0  0  0  0  0  0  0  0
   -0.5310   -3.3052   -1.7358 C   0  0  0  0  0  0  0  0  0  0  0  0
   -1.4227   -2.9205   -2.2214 H   0  0  0  0  0  0  0  0  0  0  0  0
   -0.2164   -4.6652   -1.8424 C   0  0  0  0  0  0  0  0  0  0  0  0
   -0.8660   -5.3207   -2.4114 H   0  0  0  0  0  0  0  0  0  0  0  0
    0.9268   -5.1708   -1.2199 C   0  0  0  0  0  0  0  0  0  0  0  0
    1.2446   -6.4946   -1.3189 O   0  0  0  0  0  0  0  0  0  0  0  0
    0.5533   -6.9654   -1.8086 H   0  0  0  0  0  0  0  0  0  0  0  0
    1.7501   -4.3155   -0.4904 C   0  0  0  0  0  0  0  0  0  0  0  0
    2.6320   -4.7187   -0.0038 H   0  0  0  0  0  0  0  0  0  0  0  0
    1.4391   -2.9556   -0.3799 C   0  0  0  0  0  0  0  0  0  0  0  0
    2.0874   -2.3068    0.2008 H   0  0  0  0  0  0  0  0  0  0  0  0
   -1.1844    0.8508    0.4005 C   0  0  0  0  0  0  0  0  0  0  0  0
   -2.0120    1.3552   -0.3503 O   0  0  0  0  0  0  0  0  0  0  0  0
   -0.4991    1.6513    1.2956 N   0  0  0  0  0  0  0  0  0  0  0  0
    0.1280    1.1940    1.9516 H   0  0  0  0  0  0  0  0  0  0  0  0
   -0.7314    3.0847    1.4246 C   0  0  0  0  0  0  0  0  0  0  0  0
   -1.7734    3.2816    1.6983 H   0  0  0  0  0  0  0  0  0  0  0  0
   -0.0849    3.5045    2.2013 H   0  0  0  0  0  0  0  0  0  0  0  0
   -0.5122    3.5943    0.4804 H   0  0  0  0  0  0  0  0  0  0  0  0
  1  2  1  0  0  0  0
  2  3  1  0  0  0  0
  2  4  1  0  0  0  0
  2  5  1  0  0  0  0
  5  6  2  0  0  0  0
  5  7  1  0  0  0  0
  7  8  1  0  0  0  0
  7  9  1  0  0  0  0
  9 10  1  0  0  0  0
  9 11  1  0  0  0  0
  9 26  1  0  0  0  0
 11 12  1  0  0  0  0
 11 13  1  0  0  0  0
 11 14  1  0  0  0  0
 14 15  2  0  0  0  0
 14 24  1  0  0  0  0
 15 16  1  0  0  0  0
 15 17  1  0  0  0  0
 17 18  1  0  0  0  0
 17 19  2  0  0  0  0
 19 20  1  0  0  0  0
 19 22  1  0  0  0  0
 20 21  1  0  0  0  0
 22 23  1  0  0  0  0
 22 24  2  0  0  0  0
 24 25  1  0  0  0  0
 26 27  2  0  0  0  0
 26 28  1  0  0  0  0
 28 29  1  0  0  0  0
 28 30  1  0  0  0  0
 30 31  1  0  0  0  0
 30 32  1  0  0  0  0
 30 33  1  0  0  0  0
M  END
$$$$

  -OEChem-04042216043D

 33 33  0     1  0  0  0  0  0999 V2000
   -3.8827   -4.0993    1.4535 H   0  0  0  0  0  0  0  0  0  0  0  0
   -3.8121   -3.2214    0.8054 C   0  0  0  0  0  0  0  0  0  0  0  0
   -4.6411   -2.5471    1.0328 H   0  0  0  0  0  0  0  0  0  0  0  0
   -3.8883   -3.5456   -0.2351 H   0  0  0  0  0  0  0  0  0  0  0  0
   -2.4903   -2.5115    1.0285 C   0  0  0  0  0  0  0  0  0  0  0  0
   -1.7244   -2.9089    1.8927 O   0  0  0  0  0  0  0  0  0  0  0  0
   -2.1834   -1.3946    0.2786 N   0  0  0  0  0  0  0  0  0  0  0  0
   -2.8913   -1.0449   -0.3635 H   0  0  0  0  0  0  0  0  0  0  0  0
   -0.9148   -0.6545    0.3573 C   0  0  1  0  0  0  0  0  0  0  0  0
   -0.3685   -0.9311    1.2644 H   0  0  0  0  0  0  0  0  0  0  0  0
   -0.0425   -0.9671   -0.8727 C   0  0  0  0  0  0  0  0  0  0  0  0
   -0.5621   -0.6351   -1.7781 H   0  0  0  0  0  0  0  0  0  0  0  0
    0.8900   -0.3965   -0.8104 H   0  0  0  0  0  0  0  0  0  0  0  0
    0.2915   -2.4370   -0.9860 C   0  0  0  0  0  0  0  0  0  0  0  0
   -0.3510   -3.2408   -1.9401 C   0  0  0  0  0  0  0  0  0  0  0  0
   -1.0941   -2.8075   -2.6027 H   0  0  0  0  0  0  0  0  0  0  0  0
   -0.0426   -4.6022   -2.0453 C   0  0  0  0  0  0  0  0  0  0  0  0
   -0.5476   -5.2080   -2.7892 H   0  0  0  0  0  0  0  0  0  0  0  0
    0.9101   -5.1731   -1.1987 C   0  0  0  0  0  0  0  0  0  0  0  0
    1.2203   -6.4992   -1.2946 O   0  0  0  0  0  0  0  0  0  0  0  0
    0.6682   -6.9209   -1.9703 H   0  0  0  0  0  0  0  0  0  0  0  0
    1.5493   -4.3807   -0.2473 C   0  0  0  0  0  0  0  0  0  0  0  0
    2.2825   -4.8336    0.4117 H   0  0  0  0  0  0  0  0  0  0  0  0
    1.2437   -3.0197   -0.1371 C   0  0  0  0  0  0  0  0  0  0  0  0
    1.7450   -2.4209    0.6169 H   0  0  0  0  0  0  0  0  0  0  0  0
   -1.1778    0.8614    0.4034 C   0  0  0  0  0  0  0  0  0  0  0  0
   -1.9926    1.3636   -0.3627 O   0  0  0  0  0  0  0  0  0  0  0  0
   -0.5029    1.6656    1.3031 N   0  0  0  0  0  0  0  0  0  0  0  0
    0.1123    1.2103    1.9717 H   0  0  0  0  0  0  0  0  0  0  0  0
   -0.7377    3.0991    1.4241 C   0  0  0  0  0  0  0  0  0  0  0  0
   -1.7794    3.2957    1.6988 H   0  0  0  0  0  0  0  0  0  0  0  0
   -0.0899    3.5241    2.1967 H   0  0  0  0  0  0  0  0  0  0  0  0
   -0.5217    3.6034    0.4763 H   0  0  0  0  0  0  0  0  0  0  0  0
  1  2  1  0  0  0  0
  2  3  1  0  0  0  0
  2  4  1  0  0  0  0
  2  5  1  0  0  0  0
  5  6  2  0  0  0  0
  5  7  1  0  0  0  0
  7  8  1  0  0  0  0
  7  9  1  0  0  0  0
  9 10  1  0  0  0  0
  9 11  1  0  0  0  0
  9 26  1  0  0  0  0
 11 12  1  0  0  0  0
 11 13  1  0  0  0  0
 11 14  1  0  0  0  0
 14 15  2  0  0  0  0
 14 24  1  0  0  0  0
 15 16  1  0  0  0  0
 15 17  1  0  0  0  0
 17 18  1  0  0  0  0
 17 19  2  0  0  0  0
 19 20  1  0  0  0  0
 19 22  1  0  0  0  0
 20 21  1  0  0  0  0
 22 23  1  0  0  0  0
 22 24  2  0  0  0  0
 24 25  1  0  0  0  0
 26 27  2  0  0  0  0
 26 28  1  0  0  0  0
 28 29  1  0  0  0  0
 28 30  1  0  0  0  0
 30 31  1  0  0  0  0
 30 32  1  0  0  0  0
 30 33  1  0  0  0  0
M  END
$$$$

  -OEChem-04042216043D

 33 33  0     1  0  0  0  0  0999 V2000
   -3.9037   -4.0883    1.4704 H   0  0  0  0  0  0  0  0  0  0  0  0
   -3.8301   -3.2154    0.8158 C   0  0  0  0  0  0  0  0  0  0  0  0
   -4.6634   -2.5419    1.0297 H   0  0  0  0  0  0  0  0  0  0  0  0
   -3.8956   -3.5483   -0.2227 H   0  0  0  0  0  0  0  0  0  0  0  0
   -2.5130   -2.4993    1.0472 C   0  0  0  0  0  0  0  0  0  0  0  0
   -1.7621   -2.8795    1.9326 O   0  0  0  0  0  0  0  0  0  0  0  0
   -2.1958   -1.3900    0.2898 N   0  0  0  0  0  0  0  0  0  0  0  0
   -2.8884   -1.0565   -0.3772 H   0  0  0  0  0  0  0  0  0  0  0  0
   -0.9257   -0.6531    0.3759 C   0  0  1  0  0  0  0  0  0  0  0  0
   -0.3908   -0.9204    1.2921 H   0  0  0  0  0  0  0  0  0  0  0  0
   -0.0452   -0.9782   -0.8459 C   0  0  0  0  0  0  0  0  0  0  0  0
   -0.5587   -0.6440   -1.7539 H   0  0  0  0  0  0  0  0  0  0  0  0
    0.8891   -0.4118   -0.7770 H   0  0  0  0  0  0  0  0  0  0  0  0
    0.2933   -2.4487   -0.9620 C   0  0  0  0  0  0  0  0  0  0  0  0
   -0.0921   -3.1743   -2.1001 C   0  0  0  0  0  0  0  0  0  0  0  0
   -0.6407   -2.6837   -2.8985 H   0  0  0  0  0  0  0  0  0  0  0  0
    0.2245   -4.5328   -2.2193 C   0  0  0  0  0  0  0  0  0  0  0  0
   -0.0809   -5.0758   -3.1066 H   0  0  0  0  0  0  0  0  0  0  0  0
    0.9309   -5.1802   -1.2037 C   0  0  0  0  0  0  0  0  0  0  0  0
    1.2441   -6.5048   -1.3091 O   0  0  0  0  0  0  0  0  0  0  0  0
    0.8870   -6.8657   -2.1346 H   0  0  0  0  0  0  0  0  0  0  0  0
    1.3189   -4.4662   -0.0723 C   0  0  0  0  0  0  0  0  0  0  0  0
    1.8616   -4.9767    0.7162 H   0  0  0  0  0  0  0  0  0  0  0  0
    1.0066   -3.1081    0.0508 C   0  0  0  0  0  0  0  0  0  0  0  0
    1.3111   -2.5755    0.9461 H   0  0  0  0  0  0  0  0  0  0  0  0
   -1.1812    0.8647    0.4059 C   0  0  0  0  0  0  0  0  0  0  0  0
   -1.9822    1.3658   -0.3754 O   0  0  0  0  0  0  0  0  0  0  0  0
   -0.5117    1.6733    1.3059 N   0  0  0  0  0  0  0  0  0  0  0  0
    0.1000    1.2222    1.9805 H   0  0  0  0  0  0  0  0  0  0  0  0
   -0.7305    3.1113    1.4036 C   0  0  0  0  0  0  0  0  0  0  0  0
   -1.7757    3.3246    1.6512 H   0  0  0  0  0  0  0  0  0  0  0  0
   -0.0959    3.5386    2.1859 H   0  0  0  0  0  0  0  0  0  0  0  0
   -0.4857    3.6006    0.4551 H   0  0  0  0  0  0  0  0  0  0  0  0
  1  2  1  0  0  0  0
  2  3  1  0  0  0  0
  2  4  1  0  0  0  0
  2  5  1  0  0  0  0
  5  6  2  0  0  0  0
  5  7  1  0  0  0  0
  7  8  1  0  0  0  0
  7  9  1  0  0  0  0
  9 10  1  0  0  0  0
  9 11  1  0  0  0  0
  9 26  1  0  0  0  0
 11 12  1  0  0  0  0
 11 13  1  0  0  0  0
 11 14  1  0  0  0  0
 14 15  2  0  0  0  0
 14 24  1  0  0  0  0
 15 16  1  0  0  0  0
 15 17  1  0  0  0  0
 17 18  1  0  0  0  0
 17 19  2  0  0  0  0
 19 20  1  0  0  0  0
 19 22  1  0  0  0  0
 20 21  1  0  0  0  0
 22 23  1  0  0  0  0
 22 24  2  0  0  0  0
 24 25  1  0  0  0  0
 26 27  2  0  0  0  0
 26 28  1  0  0  0  0
 28 29  1  0  0  0  0
 28 30  1  0  0  0  0
 30 31  1  0  0  0  0
 30 32  1  0  0  0  0
 30 33  1  0  0  0  0
M  END
$$$$

  -OEChem-04042216043D

 33 33  0     1  0  0  0  0  0999 V2000
   -3.9603   -4.0589    1.4895 H   0  0  0  0  0  0  0  0  0  0  0  0
   -3.8771   -3.1847    0.8377 C   0  0  0  0  0  0  0  0  0  0  0  0
   -4.7169   -2.5145    1.0358 H   0  0  0  0  0  0  0  0  0  0  0  0
   -3.9206   -3.5168   -0.2023 H   0  0  0  0  0  0  0  0  0  0  0  0
   -2.5676   -2.4641    1.0958 C   0  0  0  0  0  0  0  0  0  0  0  0
   -1.8513   -2.8172    2.0205 O   0  0  0  0  0  0  0  0  0  0  0  0
   -2.2209   -1.3770    0.3198 N   0  0  0  0  0  0  0  0  0  0  0  0
   -2.8863   -1.0672   -0.3851 H   0  0  0  0  0  0  0  0  0  0  0  0
   -0.9428   -0.6546    0.4104 C   0  0  1  0  0  0  0  0  0  0  0  0
   -0.4242   -0.9044    1.3401 H   0  0  0  0  0  0  0  0  0  0  0  0
   -0.0505   -1.0076   -0.7972 C   0  0  0  0  0  0  0  0  0  0  0  0
   -0.5556   -0.6747   -1.7105 H   0  0  0  0  0  0  0  0  0  0  0  0
    0.8855   -0.4448   -0.7224 H   0  0  0  0  0  0  0  0  0  0  0  0
    0.2943   -2.4785   -0.9234 C   0  0  0  0  0  0  0  0  0  0  0  0
    0.2056   -3.1033   -2.1777 C   0  0  0  0  0  0  0  0  0  0  0  0
   -0.1249   -2.5392   -3.0450 H   0  0  0  0  0  0  0  0  0  0  0  0
    0.5400   -4.4540   -2.3296 C   0  0  0  0  0  0  0  0  0  0  0  0
    0.4613   -4.9160   -3.3075 H   0  0  0  0  0  0  0  0  0  0  0  0
    0.9736   -5.1969   -1.2306 C   0  0  0  0  0  0  0  0  0  0  0  0
    1.3000   -6.5151   -1.3674 O   0  0  0  0  0  0  0  0  0  0  0  0
    1.1670   -6.7967   -2.2852 H   0  0  0  0  0  0  0  0  0  0  0  0
    1.0760   -4.5841    0.0158 C   0  0  0  0  0  0  0  0  0  0  0  0
    1.4109   -5.1665    0.8679 H   0  0  0  0  0  0  0  0  0  0  0  0
    0.7462   -3.2334    0.1722 C   0  0  0  0  0  0  0  0  0  0  0  0
    0.8335   -2.7874    1.1583 H   0  0  0  0  0  0  0  0  0  0  0  0
   -1.1831    0.8664    0.4012 C   0  0  0  0  0  0  0  0  0  0  0  0
   -1.9638    1.3598   -0.4052 O   0  0  0  0  0  0  0  0  0  0  0  0
   -0.5185    1.6858    1.2950 N   0  0  0  0  0  0  0  0  0  0  0  0
    0.0739    1.2404    1.9903 H   0  0  0  0  0  0  0  0  0  0  0  0
   -0.7243    3.1272    1.3635 C   0  0  0  0  0  0  0  0  0  0  0  0
   -1.7719    3.3551    1.5863 H   0  0  0  0  0  0  0  0  0  0  0  0
   -0.1009    3.5607    2.1513 H   0  0  0  0  0  0  0  0  0  0  0  0
   -0.4555    3.5976    0.4119 H   0  0  0  0  0  0  0  0  0  0  0  0
  1  2  1  0  0  0  0
  2  3  1  0  0  0  0
  2  4  1  0  0  0  0
  2  5  1  0  0  0  0
  5  6  2  0  0  0  0
  5  7  1  0  0  0  0
  7  8  1  0  0  0  0
  7  9  1  0  0  0  0
  9 10  1  0  0  0  0
  9 11  1  0  0  0  0
  9 26  1  0  0  0  0
 11 12  1  0  0  0  0
 11 13  1  0  0  0  0
 11 14  1  0  0  0  0
 14 15  2  0  0  0  0
 14 24  1  0  0  0  0
 15 16  1  0  0  0  0
 15 17  1  0  0  0  0
 17 18  1  0  0  0  0
 17 19  2  0  0  0  0
 19 20  1  0  0  0  0
 19 22  1  0  0  0  0
 20 21  1  0  0  0  0
 22 23  1  0  0  0  0
 22 24  2  0  0  0  0
 24 25  1  0  0  0  0
 26 27  2  0  0  0  0
 26 28  1  0  0  0  0
 28 29  1  0  0  0  0
 28 30  1  0  0  0  0
 30 31  1  0  0  0  0
 30 32  1  0  0  0  0
 30 33  1  0  0  0  0
M  END
$$$$

  -OEChem-04042216043D

 33 33  0     1  0  0  0  0  0999 V2000
   -4.0752   -3.9989    1.5132 H   0  0  0  0  0  0  0  0  0  0  0  0
   -3.9517   -3.1452    0.8412 C   0  0  0  0  0  0  0  0  0  0  0  0
   -4.7985   -2.4670    0.9712 H   0  0  0  0  0  0  0  0  0  0  0  0
   -3.9379   -3.5089   -0.1891 H   0  0  0  0  0  0  0  0  0  0  0  0
   -2.6554   -2.4207    1.1504 C   0  0  0  0  0  0  0  0  0  0  0  0
   -1.9977   -2.7423    2.1283 O   0  0  0  0  0  0  0  0  0  0  0  0
   -2.2602   -1.3601    0.3614 N   0  0  0  0  0  0  0  0  0  0  0  0
   -2.8836   -1.0817   -0.3934 H   0  0  0  0  0  0  0  0  0  0  0  0
   -0.9673   -0.6624    0.4551 C   0  0  1  0  0  0  0  0  0  0  0  0
   -0.4622   -0.9064    1.3942 H   0  0  0  0  0  0  0  0  0  0  0  0
   -0.0705   -1.0459   -0.7437 C   0  0  0  0  0  0  0  0  0  0  0  0
   -0.5667   -0.7102   -1.6610 H   0  0  0  0  0  0  0  0  0  0  0  0
    0.8700   -0.4912   -0.6642 H   0  0  0  0  0  0  0  0  0  0  0  0
    0.2734   -2.5169   -0.8903 C   0  0  0  0  0  0  0  0  0  0  0  0
    0.4938   -3.0345   -2.1772 C   0  0  0  0  0  0  0  0  0  0  0  0
    0.3735   -2.3952   -3.0469 H   0  0  0  0  0  0  0  0  0  0  0  0
    0.8611   -4.3727   -2.3610 C   0  0  0  0  0  0  0  0  0  0  0  0
    1.0130   -4.7514   -3.3657 H   0  0  0  0  0  0  0  0  0  0  0  0
    1.0347   -5.2094   -1.2581 C   0  0  0  0  0  0  0  0  0  0  0  0
    1.3910   -6.5165   -1.4254 O   0  0  0  0  0  0  0  0  0  0  0  0
    1.4698   -6.7211   -2.3696 H   0  0  0  0  0  0  0  0  0  0  0  0
    0.8522   -4.6996    0.0248 C   0  0  0  0  0  0  0  0  0  0  0  0
    0.9999   -5.3496    0.8812 H   0  0  0  0  0  0  0  0  0  0  0  0
    0.4871   -3.3620    0.2126 C   0  0  0  0  0  0  0  0  0  0  0  0
    0.3763   -2.9973    1.2286 H   0  0  0  0  0  0  0  0  0  0  0  0
   -1.1788    0.8628    0.4062 C   0  0  0  0  0  0  0  0  0  0  0  0
   -1.9316    1.3521   -0.4286 O   0  0  0  0  0  0  0  0  0  0  0  0
   -0.5133    1.6921    1.2900 N   0  0  0  0  0  0  0  0  0  0  0  0
    0.0478    1.2535    2.0148 H   0  0  0  0  0  0  0  0  0  0  0  0
   -0.6990    3.1376    1.3212 C   0  0  0  0  0  0  0  0  0  0  0  0
   -1.7419    3.3848    1.5461 H   0  0  0  0  0  0  0  0  0  0  0  0
   -0.0629    3.5845    2.0914 H   0  0  0  0  0  0  0  0  0  0  0  0
   -0.4323    3.5787    0.3548 H   0  0  0  0  0  0  0  0  0  0  0  0
  1  2  1  0  0  0  0
  2  3  1  0  0  0  0
  2  4  1  0  0  0  0
  2  5  1  0  0  0  0
  5  6  2  0  0  0  0
  5  7  1  0  0  0  0
  7  8  1  0  0  0  0
  7  9  1  0  0  0  0
  9 10  1  0  0  0  0
  9 11  1  0  0  0  0
  9 26  1  0  0  0  0
 11 12  1  0  0  0  0
 11 13  1  0  0  0  0
 11 14  1  0  0  0  0
 14 15  2  0  0  0  0
 14 24  1  0  0  0  0
 15 16  1  0  0  0  0
 15 17  1  0  0  0  0
 17 18  1  0  0  0  0
 17 19  2  0  0  0  0
 19 20  1  0  0  0  0
 19 22  1  0  0  0  0
 20 21  1  0  0  0  0
 22 23  1  0  0  0  0
 22 24  2  0  0  0  0
 24 25  1  0  0  0  0
 26 27  2  0  0  0  0
 26 28  1  0  0  0  0
 28 29  1  0  0  0  0
 28 30  1  0  0  0  0
 30 31  1  0  0  0  0
 30 32  1  0  0  0  0
 30 33  1  0  0  0  0
M  END
$$$$

  -OEChem-04042216043D

 33 33  0     1  0  0  0  0  0999 V2000
   -4.2545   -3.8917    1.5766 H   0  0  0  0  0  0  0  0  0  0  0  0
   -4.0571   -3.0918    0.8576 C   0  0  0  0  0  0  0  0  0  0  0  0
   -4.8908   -2.3857    0.8774 H   0  0  0  0  0  0  0  0  0  0  0  0
   -3.9802   -3.5278   -0.1414 H   0  0  0  0  0  0  0  0  0  0  0  0
   -2.7656   -2.3783    1.2090 C   0  0  0  0  0  0  0  0  0  0  0  0
   -2.1728   -2.6638    2.2378 O   0  0  0  0  0  0  0  0  0  0  0  0
   -2.3171   -1.3489    0.4083 N   0  0  0  0  0  0  0  0  0  0  0  0
   -2.9046   -1.0950   -0.3829 H   0  0  0  0  0  0  0  0  0  0  0  0
   -1.0061   -0.6817    0.4974 C   0  0  1  0  0  0  0  0  0  0  0  0
   -0.5104   -0.9259    1.4417 H   0  0  0  0  0  0  0  0  0  0  0  0
   -0.1049   -1.0902   -0.6945 C   0  0  0  0  0  0  0  0  0  0  0  0
   -0.5933   -0.7513   -1.6150 H   0  0  0  0  0  0  0  0  0  0  0  0
    0.8378   -0.5399   -0.6091 H   0  0  0  0  0  0  0  0  0  0  0  0
    0.2447   -2.5565   -0.8739 C   0  0  0  0  0  0  0  0  0  0  0  0
    0.7741   -2.9595   -2.1110 C   0  0  0  0  0  0  0  0  0  0  0  0
    0.8530   -2.2427   -2.9233 H   0  0  0  0  0  0  0  0  0  0  0  0
    1.1882   -4.2794   -2.3245 C   0  0  0  0  0  0  0  0  0  0  0  0
    1.5718   -4.5678   -3.2970 H   0  0  0  0  0  0  0  0  0  0  0  0
    1.1147   -5.2117   -1.2896 C   0  0  0  0  0  0  0  0  0  0  0  0
    1.5159   -6.5018   -1.4840 O   0  0  0  0  0  0  0  0  0  0  0  0
    1.8135   -6.6226   -2.3985 H   0  0  0  0  0  0  0  0  0  0  0  0
    0.6475   -4.8120   -0.0408 C   0  0  0  0  0  0  0  0  0  0  0  0
    0.6205   -5.5314    0.7714 H   0  0  0  0  0  0  0  0  0  0  0  0
    0.2348   -3.4926    0.1742 C   0  0  0  0  0  0  0  0  0  0  0  0
   -0.0646   -3.2115    1.1760 H   0  0  0  0  0  0  0  0  0  0  0  0
   -1.1820    0.8470    0.4096 C   0  0  0  0  0  0  0  0  0  0  0  0
   -1.9134    1.3349   -0.4451 O   0  0  0  0  0  0  0  0  0  0  0  0
   -0.5041    1.6804    1.2804 N   0  0  0  0  0  0  0  0  0  0  0  0
    0.0323    1.2448    2.0257 H   0  0  0  0  0  0  0  0  0  0  0  0
   -0.6492    3.1311    1.2723 C   0  0  0  0  0  0  0  0  0  0  0  0
   -1.6822    3.4137    1.5004 H   0  0  0  0  0  0  0  0  0  0  0  0
    0.0076    3.5815    2.0225 H   0  0  0  0  0  0  0  0  0  0  0  0
   -0.3810    3.5379    0.2915 H   0  0  0  0  0  0  0  0  0  0  0  0
  1  2  1  0  0  0  0
  2  3  1  0  0  0  0
  2  4  1  0  0  0  0
  2  5  1  0  0  0  0
  5  6  2  0  0  0  0
  5  7  1  0  0  0  0
  7  8  1  0  0  0  0
  7  9  1  0  0  0  0
  9 10  1  0  0  0  0
  9 11  1  0  0  0  0
  9 26  1  0  0  0  0
 11 12  1  0  0  0  0
 11 13  1  0  0  0  0
 11 14  1  0  0  0  0
 14 15  2  0  0  0  0
 14 24  1  0  0  0  0
 15 16  1  0  0  0  0
 15 17  1  0  0  0  0
 17 18  1  0  0  0  0
 17 19  2  0  0  0  0
 19 20  1  0  0  0  0
 19 22  1  0  0  0  0
 20 21  1  0  0  0  0
 22 23  1  0  0  0  0
 22 24  2  0  0  0  0
 24 25  1  0  0  0  0
 26 27  2  0  0  0  0
 26 28  1  0  0  0  0
 28 29  1  0  0  0  0
 28 30  1  0  0  0  0
 30 31  1  0  0  0  0
 30 32  1  0  0  0  0
 30 33  1  0  0  0  0
M  END
$$$$

  -OEChem-04042216043D

 33 33  0     1  0  0  0  0  0999 V2000
   -4.5317   -3.6026    2.0235 H   0  0  0  0  0  0  0  0  0  0  0  0
   -4.3211   -2.8587    1.2501 C   0  0  0  0  0  0  0  0  0  0  0  0
   -5.0581   -2.0553    1.3235 H   0  0  0  0  0  0  0  0  0  0  0  0
   -4.4071   -3.3351    0.2704 H   0  0  0  0  0  0  0  0  0  0  0  0
   -2.9236   -2.2974    1.4303 C   0  0  0  0  0  0  0  0  0  0  0  0
   -2.2357   -2.6589    2.3726 O   0  0  0  0  0  0  0  0  0  0  0  0
   -2.4587   -1.3321    0.5621 N   0  0  0  0  0  0  0  0  0  0  0  0
   -3.1091   -1.0054   -0.1502 H   0  0  0  0  0  0  0  0  0  0  0  0
   -1.1028   -0.7528    0.5258 C   0  0  1  0  0  0  0  0  0  0  0  0
   -0.5819   -0.9935    1.4580 H   0  0  0  0  0  0  0  0  0  0  0  0
   -0.2124   -1.2034   -0.6725 C   0  0  0  0  0  0  0  0  0  0  0  0
   -0.5684   -0.6580   -1.5541 H   0  0  0  0  0  0  0  0  0  0  0  0
    0.8002   -0.8430   -0.4633 H   0  0  0  0  0  0  0  0  0  0  0  0
   -0.0818   -2.6485   -1.1367 C   0  0  0  0  0  0  0  0  0  0  0  0
    0.7613   -2.8731   -2.2404 C   0  0  0  0  0  0  0  0  0  0  0  0
    1.2139   -2.0283   -2.7521 H   0  0  0  0  0  0  0  0  0  0  0  0
    1.0158   -4.1643   -2.7167 C   0  0  0  0  0  0  0  0  0  0  0  0
    1.6503   -4.2979   -3.5859 H   0  0  0  0  0  0  0  0  0  0  0  0
    0.4617   -5.2677   -2.0707 C   0  0  0  0  0  0  0  0  0  0  0  0
    0.7007   -6.5341   -2.5203 O   0  0  0  0  0  0  0  0  0  0  0  0
    1.2628   -6.5061   -3.3096 H   0  0  0  0  0  0  0  0  0  0  0  0
   -0.3214   -5.0709   -0.9384 C   0  0  0  0  0  0  0  0  0  0  0  0
   -0.7176   -5.9342   -0.4137 H   0  0  0  0  0  0  0  0  0  0  0  0
   -0.5737   -3.7790   -0.4629 C   0  0  0  0  0  0  0  0  0  0  0  0
   -1.1205   -3.6987    0.4599 H   0  0  0  0  0  0  0  0  0  0  0  0
   -1.2126    0.7802    0.3899 C   0  0  0  0  0  0  0  0  0  0  0  0
   -2.0099    1.2767   -0.3985 O   0  0  0  0  0  0  0  0  0  0  0  0
   -0.4280    1.6068    1.1731 N   0  0  0  0  0  0  0  0  0  0  0  0
    0.1625    1.1676    1.8739 H   0  0  0  0  0  0  0  0  0  0  0  0
   -0.5226    3.0612    1.1438 C   0  0  0  0  0  0  0  0  0  0  0  0
   -1.5227    3.3864    1.4487 H   0  0  0  0  0  0  0  0  0  0  0  0
    0.2087    3.5015    1.8284 H   0  0  0  0  0  0  0  0  0  0  0  0
   -0.3215    3.4382    0.1355 H   0  0  0  0  0  0  0  0  0  0  0  0
  1  2  1  0  0  0  0
  2  3  1  0  0  0  0
  2  4  1  0  0  0  0
  2  5  1  0  0  0  0
  5  6  2  0  0  0  0
  5  7  1  0  0  0  0
  7  8  1  0  0  0  0
  7  9  1  0  0  0  0
  9 10  1  0  0  0  0
  9 11  1  0  0  0  0
  9 26  1  0  0  0  0
 11 12  1  0  0  0  0
 11 13  1  0  0  0  0
 11 14  1  0  0  0  0
 14 15  2  0  0  0  0
 14 24  1  0  0  0  0
 15 16  1  0  0  0  0
 15 17  1  0  0  0  0
 17 18  1  0  0  0  0
 17 19  2  0  0  0  0
 19 20  1  0  0  0  0
 19 22  1  0  0  0  0
 20 21  1  0  0  0  0
 22 23  1  0  0  0  0
 22 24  2  0  0  0  0
 24 25  1  0  0  0  0
 26 27  2  0  0  0  0
 26 28  1  0  0  0  0
 28 29  1  0  0  0  0
 28 30  1  0  0  0  0
 30 31  1  0  0  0  0
 30 32  1  0  0  0  0
 30 33  1  0  0  0  0
M  END
$$$$

  -OEChem-04042216043D

 33 33  0     1  0  0  0  0  0999 V2000
   -4.6604   -3.5272    1.9366 H   0  0  0  0  0  0  0  0  0  0  0  0
   -4.4597   -2.6976    1.2526 C   0  0  0  0  0  0  0  0  0  0  0  0
   -5.1140   -1.8612    1.5100 H   0  0  0  0  0  0  0  0  0  0  0  0
   -4.6788   -3.0222    0.2324 H   0  0  0  0  0  0  0  0  0  0  0  0
   -3.0082   -2.2703    1.3607 C   0  0  0  0  0  0  0  0  0  0  0  0
   -2.2920   -2.7586    2.2199 O   0  0  0  0  0  0  0  0  0  0  0  0
   -2.5098   -1.3173    0.4951 N   0  0  0  0  0  0  0  0  0  0  0  0
   -3.1697   -0.8772   -0.1447 H   0  0  0  0  0  0  0  0  0  0  0  0
   -1.1393   -0.7772    0.5053 C   0  0  1  0  0  0  0  0  0  0  0  0
   -0.6770   -1.0131    1.4690 H   0  0  0  0  0  0  0  0  0  0  0  0
   -0.1619   -1.2462   -0.6162 C   0  0  0  0  0  0  0  0  0  0  0  0
   -0.4464   -0.7073   -1.5273 H   0  0  0  0  0  0  0  0  0  0  0  0
    0.8295   -0.8810   -0.3278 H   0  0  0  0  0  0  0  0  0  0  0  0
    0.0069   -2.6948   -1.0673 C   0  0  0  0  0  0  0  0  0  0  0  0
    1.1487   -2.9676   -1.8438 C   0  0  0  0  0  0  0  0  0  0  0  0
    1.8473   -2.1688   -2.0748 H   0  0  0  0  0  0  0  0  0  0  0  0
    1.4139   -4.2518   -2.3326 C   0  0  0  0  0  0  0  0  0  0  0  0
    2.3063   -4.4254   -2.9239 H   0  0  0  0  0  0  0  0  0  0  0  0
    0.5335   -5.2970   -2.0613 C   0  0  0  0  0  0  0  0  0  0  0  0
    0.7768   -6.5556   -2.5305 O   0  0  0  0  0  0  0  0  0  0  0  0
    1.6146   -6.5719   -3.0178 H   0  0  0  0  0  0  0  0  0  0  0  0
   -0.6075   -5.0472   -1.3069 C   0  0  0  0  0  0  0  0  0  0  0  0
   -1.2926   -5.8627   -1.0998 H   0  0  0  0  0  0  0  0  0  0  0  0
   -0.8730   -3.7628   -0.8188 C   0  0  0  0  0  0  0  0  0  0  0  0
   -1.7796   -3.6446   -0.2543 H   0  0  0  0  0  0  0  0  0  0  0  0
   -1.2176    0.7566    0.3626 C   0  0  0  0  0  0  0  0  0  0  0  0
   -1.9944    1.2627   -0.4401 O   0  0  0  0  0  0  0  0  0  0  0  0
   -0.4468    1.5736    1.1691 N   0  0  0  0  0  0  0  0  0  0  0  0
    0.1223    1.1274    1.8832 H   0  0  0  0  0  0  0  0  0  0  0  0
   -0.5224    3.0291    1.1355 C   0  0  0  0  0  0  0  0  0  0  0  0
   -1.5265    3.3668    1.4125 H   0  0  0  0  0  0  0  0  0  0  0  0
    0.1953    3.4620    1.8390 H   0  0  0  0  0  0  0  0  0  0  0  0
   -0.2894    3.4018    0.1325 H   0  0  0  0  0  0  0  0  0  0  0  0
  1  2  1  0  0  0  0
  2  3  1  0  0  0  0
  2  4  1  0  0  0  0
  2  5  1  0  0  0  0
  5  6  2  0  0  0  0
  5  7  1  0  0  0  0
  7  8  1  0  0  0  0
  7  9  1  0  0  0  0
  9 10  1  0  0  0  0
  9 11  1  0  0  0  0
  9 26  1  0  0  0  0
 11 12  1  0  0  0  0
 11 13  1  0  0  0  0
 11 14  1  0  0  0  0
 14 15  2  0  0  0  0
 14 24  1  0  0  0  0
 15 16  1  0  0  0  0
 15 17  1  0  0  0  0
 17 18  1  0  0  0  0
 17 19  2  0  0  0  0
 19 20  1  0  0  0  0
 19 22  1  0  0  0  0
 20 21  1  0  0  0  0
 22 23  1  0  0  0  0
 22 24  2  0  0  0  0
 24 25  1  0  0  0  0
 26 27  2  0  0  0  0
 26 28  1  0  0  0  0
 28 29  1  0  0  0  0
 28 30  1  0  0  0  0
 30 31  1  0  0  0  0
 30 32  1  0  0  0  0
 30 33  1  0  0  0  0
M  END
$$$$

  -OEChem-04042216043D

 33 33  0     1  0  0  0  0  0999 V2000
   -4.4572   -3.6606    1.9645 H   0  0  0  0  0  0  0  0  0  0  0  0
   -4.3196   -2.7999    1.3041 C   0  0  0  0  0  0  0  0  0  0  0  0
   -4.9810   -1.9942    1.6316 H   0  0  0  0  0  0  0  0  0  0  0  0
   -4.5888   -3.0921    0.2864 H   0  0  0  0  0  0  0  0  0  0  0  0
   -2.8765   -2.3337    1.3472 C   0  0  0  0  0  0  0  0  0  0  0  0
   -2.1041   -2.8253    2.1540 O   0  0  0  0  0  0  0  0  0  0  0  0
   -2.4547   -1.3355    0.4904 N   0  0  0  0  0  0  0  0  0  0  0  0
   -3.1597   -0.8826   -0.0894 H   0  0  0  0  0  0  0  0  0  0  0  0
   -1.1038   -0.7531    0.4730 C   0  0  1  0  0  0  0  0  0  0  0  0
   -0.6104   -0.9954    1.4196 H   0  0  0  0  0  0  0  0  0  0  0  0
   -0.1473   -1.1983   -0.6714 C   0  0  0  0  0  0  0  0  0  0  0  0
   -0.4650   -0.6771   -1.5812 H   0  0  0  0  0  0  0  0  0  0  0  0
    0.8457   -0.8138   -0.4164 H   0  0  0  0  0  0  0  0  0  0  0  0
   -0.0011   -2.6626   -1.0768 C   0  0  0  0  0  0  0  0  0  0  0  0
    1.2481   -3.0637   -1.5869 C   0  0  0  0  0  0  0  0  0  0  0  0
    2.0758   -2.3610   -1.6083 H   0  0  0  0  0  0  0  0  0  0  0  0
    1.4627   -4.3637   -2.0591 C   0  0  0  0  0  0  0  0  0  0  0  0
    2.4443   -4.6448   -2.4240 H   0  0  0  0  0  0  0  0  0  0  0  0
    0.4181   -5.2858   -2.0667 C   0  0  0  0  0  0  0  0  0  0  0  0
    0.6107   -6.5570   -2.5257 O   0  0  0  0  0  0  0  0  0  0  0  0
    1.5387   -6.6815   -2.7762 H   0  0  0  0  0  0  0  0  0  0  0  0
   -0.8402   -4.8925   -1.6241 C   0  0  0  0  0  0  0  0  0  0  0  0
   -1.6579   -5.6048   -1.6606 H   0  0  0  0  0  0  0  0  0  0  0  0
   -1.0556   -3.5918   -1.1548 C   0  0  0  0  0  0  0  0  0  0  0  0
   -2.0685   -3.3322   -0.8903 H   0  0  0  0  0  0  0  0  0  0  0  0
   -1.2212    0.7813    0.3831 C   0  0  0  0  0  0  0  0  0  0  0  0
   -2.0385    1.2915   -0.3753 O   0  0  0  0  0  0  0  0  0  0  0  0
   -0.4435    1.5922    1.1894 N   0  0  0  0  0  0  0  0  0  0  0  0
    0.1641    1.1389    1.8664 H   0  0  0  0  0  0  0  0  0  0  0  0
   -0.5585    3.0455    1.2079 C   0  0  0  0  0  0  0  0  0  0  0  0
   -1.5670    3.3465    1.5104 H   0  0  0  0  0  0  0  0  0  0  0  0
    0.1573    3.4729    1.9167 H   0  0  0  0  0  0  0  0  0  0  0  0
   -0.3502    3.4588    0.2154 H   0  0  0  0  0  0  0  0  0  0  0  0
  1  2  1  0  0  0  0
  2  3  1  0  0  0  0
  2  4  1  0  0  0  0
  2  5  1  0  0  0  0
  5  6  2  0  0  0  0
  5  7  1  0  0  0  0
  7  8  1  0  0  0  0
  7  9  1  0  0  0  0
  9 10  1  0  0  0  0
  9 11  1  0  0  0  0
  9 26  1  0  0  0  0
 11 12  1  0  0  0  0
 11 13  1  0  0  0  0
 11 14  1  0  0  0  0
 14 15  2  0  0  0  0
 14 24  1  0  0  0  0
 15 16  1  0  0  0  0
 15 17  1  0  0  0  0
 17 18  1  0  0  0  0
 17 19  2  0  0  0  0
 19 20  1  0  0  0  0
 19 22  1  0  0  0  0
 20 21  1  0  0  0  0
 22 23  1  0  0  0  0
 22 24  2  0  0  0  0
 24 25  1  0  0  0  0
 26 27  2  0  0  0  0
 26 28  1  0  0  0  0
 28 29  1  0  0  0  0
 28 30  1  0  0  0  0
 30 31  1  0  0  0  0
 30 32  1  0  0  0  0
 30 33  1  0  0  0  0
M  END
$$$$

  -OEChem-04042216043D

 33 33  0     1  0  0  0  0  0999 V2000
   -4.3024   -3.7813    1.8834 H   0  0  0  0  0  0  0  0  0  0  0  0
   -4.1879   -2.9342    1.2014 C   0  0  0  0  0  0  0  0  0  0  0  0
   -4.9044   -2.1578    1.4801 H   0  0  0  0  0  0  0  0  0  0  0  0
   -4.4023   -3.2709    0.1844 H   0  0  0  0  0  0  0  0  0  0  0  0
   -2.7747   -2.3880    1.2793 C   0  0  0  0  0  0  0  0  0  0  0  0
   -1.9885   -2.8526    2.0894 O   0  0  0  0  0  0  0  0  0  0  0  0
   -2.3982   -1.3495    0.4504 N   0  0  0  0  0  0  0  0  0  0  0  0
   -3.1185   -0.9208   -0.1284 H   0  0  0  0  0  0  0  0  0  0  0  0
   -1.0690   -0.7202    0.4414 C   0  0  1  0  0  0  0  0  0  0  0  0
   -0.5571   -0.9735    1.3752 H   0  0  0  0  0  0  0  0  0  0  0  0
   -0.1319   -1.1367   -0.7246 C   0  0  0  0  0  0  0  0  0  0  0  0
   -0.4762   -0.6252   -1.6300 H   0  0  0  0  0  0  0  0  0  0  0  0
    0.8656   -0.7454   -0.5008 H   0  0  0  0  0  0  0  0  0  0  0  0
   -0.0201   -2.6116   -1.0863 C   0  0  0  0  0  0  0  0  0  0  0  0
    1.2588   -3.1524   -1.3103 C   0  0  0  0  0  0  0  0  0  0  0  0
    2.1436   -2.5479   -1.1343 H   0  0  0  0  0  0  0  0  0  0  0  0
    1.4223   -4.4752   -1.7390 C   0  0  0  0  0  0  0  0  0  0  0  0
    2.4221   -4.8721   -1.8759 H   0  0  0  0  0  0  0  0  0  0  0  0
    0.3063   -5.2709   -1.9962 C   0  0  0  0  0  0  0  0  0  0  0  0
    0.4499   -6.5627   -2.4141 O   0  0  0  0  0  0  0  0  0  0  0  0
    1.3878   -6.8076   -2.4184 H   0  0  0  0  0  0  0  0  0  0  0  0
   -0.9670   -4.7303   -1.8481 C   0  0  0  0  0  0  0  0  0  0  0  0
   -1.8306   -5.3433   -2.0839 H   0  0  0  0  0  0  0  0  0  0  0  0
   -1.1311   -3.4089   -1.4188 C   0  0  0  0  0  0  0  0  0  0  0  0
   -2.1375   -3.0125   -1.3791 H   0  0  0  0  0  0  0  0  0  0  0  0
   -1.2228    0.8120    0.3990 C   0  0  0  0  0  0  0  0  0  0  0  0
   -2.0496    1.3236   -0.3477 O   0  0  0  0  0  0  0  0  0  0  0  0
   -0.4593    1.6178    1.2237 N   0  0  0  0  0  0  0  0  0  0  0  0
    0.1612    1.1597    1.8854 H   0  0  0  0  0  0  0  0  0  0  0  0
   -0.5968    3.0686    1.2746 C   0  0  0  0  0  0  0  0  0  0  0  0
   -1.6102    3.3475    1.5821 H   0  0  0  0  0  0  0  0  0  0  0  0
    0.1115    3.4905    1.9941 H   0  0  0  0  0  0  0  0  0  0  0  0
   -0.3932    3.5077    0.2921 H   0  0  0  0  0  0  0  0  0  0  0  0
  1  2  1  0  0  0  0
  2  3  1  0  0  0  0
  2  4  1  0  0  0  0
  2  5  1  0  0  0  0
  5  6  2  0  0  0  0
  5  7  1  0  0  0  0
  7  8  1  0  0  0  0
  7  9  1  0  0  0  0
  9 10  1  0  0  0  0
  9 11  1  0  0  0  0
  9 26  1  0  0  0  0
 11 12  1  0  0  0  0
 11 13  1  0  0  0  0
 11 14  1  0  0  0  0
 14 15  2  0  0  0  0
 14 24  1  0  0  0  0
 15 16  1  0  0  0  0
 15 17  1  0  0  0  0
 17 18  1  0  0  0  0
 17 19  2  0  0  0  0
 19 20  1  0  0  0  0
 19 22  1  0  0  0  0
 20 21  1  0  0  0  0
 22 23  1  0  0  0  0
 22 24  2  0  0  0  0
 24 25  1  0  0  0  0
 26 27  2  0  0  0  0
 26 28  1  0  0  0  0
 28 29  1  0  0  0  0
 28 30  1  0  0  0  0
 30 31  1  0  0  0  0
 30 32  1  0  0  0  0
 30 33  1  0  0  0  0
M  END
$$$$

  -OEChem-04042216043D

 33 33  0     1  0  0  0  0  0999 V2000
   -4.1694   -3.8944    1.7595 H   0  0  0  0  0  0  0  0  0  0  0  0
   -4.0711   -3.0467    1.0757 C   0  0  0  0  0  0  0  0  0  0  0  0
   -4.8339   -2.3042    1.3216 H   0  0  0  0  0  0  0  0  0  0  0  0
   -4.2303   -3.3995    0.0541 H   0  0  0  0  0  0  0  0  0  0  0  0
   -2.6894   -2.4332    1.2008 C   0  0  0  0  0  0  0  0  0  0  0  0
   -1.9013   -2.8739    2.0229 O   0  0  0  0  0  0  0  0  0  0  0  0
   -2.3436   -1.3627    0.4001 N   0  0  0  0  0  0  0  0  0  0  0  0
   -3.0670   -0.9608   -0.1930 H   0  0  0  0  0  0  0  0  0  0  0  0
   -1.0330   -0.6947    0.4116 C   0  0  1  0  0  0  0  0  0  0  0  0
   -0.5080   -0.9607    1.3345 H   0  0  0  0  0  0  0  0  0  0  0  0
   -0.1154   -1.0804   -0.7756 C   0  0  0  0  0  0  0  0  0  0  0  0
   -0.4778   -0.5677   -1.6732 H   0  0  0  0  0  0  0  0  0  0  0  0
    0.8887   -0.6943   -0.5743 H   0  0  0  0  0  0  0  0  0  0  0  0
   -0.0363   -2.5594   -1.1094 C   0  0  0  0  0  0  0  0  0  0  0  0
    1.2008   -3.2214   -1.0479 C   0  0  0  0  0  0  0  0  0  0  0  0
    2.0814   -2.6989   -0.6866 H   0  0  0  0  0  0  0  0  0  0  0  0
    1.3157   -4.5640   -1.4285 C   0  0  0  0  0  0  0  0  0  0  0  0
    2.2767   -5.0600   -1.3495 H   0  0  0  0  0  0  0  0  0  0  0  0
    0.2028   -5.2548   -1.9103 C   0  0  0  0  0  0  0  0  0  0  0  0
    0.3031   -6.5644   -2.2819 O   0  0  0  0  0  0  0  0  0  0  0  0
    1.1949   -6.8943   -2.0931 H   0  0  0  0  0  0  0  0  0  0  0  0
   -1.0171   -4.5944   -2.0274 C   0  0  0  0  0  0  0  0  0  0  0  0
   -1.8717   -5.1309   -2.4256 H   0  0  0  0  0  0  0  0  0  0  0  0
   -1.1343   -3.2535   -1.6473 C   0  0  0  0  0  0  0  0  0  0  0  0
   -2.0854   -2.7512   -1.7866 H   0  0  0  0  0  0  0  0  0  0  0  0
   -1.2173    0.8339    0.4085 C   0  0  0  0  0  0  0  0  0  0  0  0
   -2.0436    1.3477   -0.3372 O   0  0  0  0  0  0  0  0  0  0  0  0
   -0.4731    1.6343    1.2556 N   0  0  0  0  0  0  0  0  0  0  0  0
    0.1502    1.1732    1.9127 H   0  0  0  0  0  0  0  0  0  0  0  0
   -0.6323    3.0814    1.3305 C   0  0  0  0  0  0  0  0  0  0  0  0
   -1.6515    3.3401    1.6362 H   0  0  0  0  0  0  0  0  0  0  0  0
    0.0655    3.5012    2.0613 H   0  0  0  0  0  0  0  0  0  0  0  0
   -0.4297    3.5396    0.3567 H   0  0  0  0  0  0  0  0  0  0  0  0
  1  2  1  0  0  0  0
  2  3  1  0  0  0  0
  2  4  1  0  0  0  0
  2  5  1  0  0  0  0
  5  6  2  0  0  0  0
  5  7  1  0  0  0  0
  7  8  1  0  0  0  0
  7  9  1  0  0  0  0
  9 10  1  0  0  0  0
  9 11  1  0  0  0  0
  9 26  1  0  0  0  0
 11 12  1  0  0  0  0
 11 13  1  0  0  0  0
 11 14  1  0  0  0  0
 14 15  2  0  0  0  0
 14 24  1  0  0  0  0
 15 16  1  0  0  0  0
 15 17  1  0  0  0  0
 17 18  1  0  0  0  0
 17 19  2  0  0  0  0
 19 20  1  0  0  0  0
 19 22  1  0  0  0  0
 20 21  1  0  0  0  0
 22 23  1  0  0  0  0
 22 24  2  0  0  0  0
 24 25  1  0  0  0  0
 26 27  2  0  0  0  0
 26 28  1  0  0  0  0
 28 29  1  0  0  0  0
 28 30  1  0  0  0  0
 30 31  1  0  0  0  0
 30 32  1  0  0  0  0
 30 33  1  0  0  0  0
M  END
$$$$

  -OEChem-04042216043D

 33 33  0     1  0  0  0  0  0999 V2000
   -4.0490   -3.9977    1.6210 H   0  0  0  0  0  0  0  0  0  0  0  0
   -3.9669   -3.1362    0.9527 C   0  0  0  0  0  0  0  0  0  0  0  0
   -4.7677   -2.4305    1.1863 H   0  0  0  0  0  0  0  0  0  0  0  0
   -4.0804   -3.4802   -0.0782 H   0  0  0  0  0  0  0  0  0  0  0  0
   -2.6169   -2.4669    1.1272 C   0  0  0  0  0  0  0  0  0  0  0  0
   -1.8321   -2.8893    1.9626 O   0  0  0  0  0  0  0  0  0  0  0  0
   -2.2944   -1.3712    0.3515 N   0  0  0  0  0  0  0  0  0  0  0  0
   -3.0135   -0.9980   -0.2641 H   0  0  0  0  0  0  0  0  0  0  0  0
   -0.9991   -0.6735    0.3816 C   0  0  1  0  0  0  0  0  0  0  0  0
   -0.4622   -0.9517    1.2940 H   0  0  0  0  0  0  0  0  0  0  0  0
   -0.1010   -1.0335   -0.8246 C   0  0  0  0  0  0  0  0  0  0  0  0
   -0.4762   -0.5143   -1.7132 H   0  0  0  0  0  0  0  0  0  0  0  0
    0.9101   -0.6569   -0.6395 H   0  0  0  0  0  0  0  0  0  0  0  0
   -0.0466   -2.5140   -1.1408 C   0  0  0  0  0  0  0  0  0  0  0  0
    1.0870   -3.2702   -0.8071 C   0  0  0  0  0  0  0  0  0  0  0  0
    1.9128   -2.8076   -0.2751 H   0  0  0  0  0  0  0  0  0  0  0  0
    1.1581   -4.6294   -1.1365 C   0  0  0  0  0  0  0  0  0  0  0  0
    2.0354   -5.2006   -0.8539 H   0  0  0  0  0  0  0  0  0  0  0  0
    0.1074   -5.2420   -1.8223 C   0  0  0  0  0  0  0  0  0  0  0  0
    0.1639   -6.5671   -2.1441 O   0  0  0  0  0  0  0  0  0  0  0  0
    0.9692   -6.9622   -1.7766 H   0  0  0  0  0  0  0  0  0  0  0  0
   -1.0065   -4.4905   -2.1888 C   0  0  0  0  0  0  0  0  0  0  0  0
   -1.8115   -4.9704   -2.7354 H   0  0  0  0  0  0  0  0  0  0  0  0
   -1.0818   -3.1333   -1.8601 C   0  0  0  0  0  0  0  0  0  0  0  0
   -1.9495   -2.5576   -2.1663 H   0  0  0  0  0  0  0  0  0  0  0  0
   -1.2081    0.8517    0.4117 C   0  0  0  0  0  0  0  0  0  0  0  0
   -2.0318    1.3697   -0.3340 O   0  0  0  0  0  0  0  0  0  0  0  0
   -0.4796    1.6457    1.2783 N   0  0  0  0  0  0  0  0  0  0  0  0
    0.1409    1.1797    1.9343 H   0  0  0  0  0  0  0  0  0  0  0  0
   -0.6572    3.0892    1.3798 C   0  0  0  0  0  0  0  0  0  0  0  0
   -1.6839    3.3297    1.6751 H   0  0  0  0  0  0  0  0  0  0  0  0
    0.0243    3.5024    2.1295 H   0  0  0  0  0  0  0  0  0  0  0  0
   -0.4452    3.5695    0.4188 H   0  0  0  0  0  0  0  0  0  0  0  0
  1  2  1  0  0  0  0
  2  3  1  0  0  0  0
  2  4  1  0  0  0  0
  2  5  1  0  0  0  0
  5  6  2  0  0  0  0
  5  7  1  0  0  0  0
  7  8  1  0  0  0  0
  7  9  1  0  0  0  0
  9 10  1  0  0  0  0
  9 11  1  0  0  0  0
  9 26  1  0  0  0  0
 11 12  1  0  0  0  0
 11 13  1  0  0  0  0
 11 14  1  0  0  0  0
 14 15  2  0  0  0  0
 14 24  1  0  0  0  0
 15 16  1  0  0  0  0
 15 17  1  0  0  0  0
 17 18  1  0  0  0  0
 17 19  2  0  0  0  0
 19 20  1  0  0  0  0
 19 22  1  0  0  0  0
 20 21  1  0  0  0  0
 22 23  1  0  0  0  0
 22 24  2  0  0  0  0
 24 25  1  0  0  0  0
 26 27  2  0  0  0  0
 26 28  1  0  0  0  0
 28 29  1  0  0  0  0
 28 30  1  0  0  0  0
 30 31  1  0  0  0  0
 30 32  1  0  0  0  0
 30 33  1  0  0  0  0
M  END
$$$$

  -OEChem-04042216043D

 33 33  0     1  0  0  0  0  0999 V2000
   -3.9661   -4.0654    1.5169 H   0  0  0  0  0  0  0  0  0  0  0  0
   -3.8929   -3.1935    0.8609 C   0  0  0  0  0  0  0  0  0  0  0  0
   -4.7174   -2.5124    1.0847 H   0  0  0  0  0  0  0  0  0  0  0  0
   -3.9744   -3.5269   -0.1765 H   0  0  0  0  0  0  0  0  0  0  0  0
   -2.5663   -2.4890    1.0717 C   0  0  0  0  0  0  0  0  0  0  0  0
   -1.7875   -2.8971    1.9202 O   0  0  0  0  0  0  0  0  0  0  0  0
   -2.2582   -1.3770    0.3138 N   0  0  0  0  0  0  0  0  0  0  0  0
   -2.9672   -1.0293   -0.3278 H   0  0  0  0  0  0  0  0  0  0  0  0
   -0.9732   -0.6609    0.3592 C   0  0  1  0  0  0  0  0  0  0  0  0
   -0.4289   -0.9482    1.2643 H   0  0  0  0  0  0  0  0  0  0  0  0
   -0.0892   -1.0017   -0.8598 C   0  0  0  0  0  0  0  0  0  0  0  0
   -0.4723   -0.4733   -1.7397 H   0  0  0  0  0  0  0  0  0  0  0  0
    0.9271   -0.6349   -0.6833 H   0  0  0  0  0  0  0  0  0  0  0  0
   -0.0499   -2.4819   -1.1688 C   0  0  0  0  0  0  0  0  0  0  0  0
    0.9226   -3.3055   -0.5842 C   0  0  0  0  0  0  0  0  0  0  0  0
    1.6431   -2.8861    0.1115 H   0  0  0  0  0  0  0  0  0  0  0  0
    0.9591   -4.6747   -0.8741 C   0  0  0  0  0  0  0  0  0  0  0  0
    1.7102   -5.2983   -0.4020 H   0  0  0  0  0  0  0  0  0  0  0  0
    0.0322   -5.2304   -1.7588 C   0  0  0  0  0  0  0  0  0  0  0  0
    0.0564   -6.5650   -2.0434 O   0  0  0  0  0  0  0  0  0  0  0  0
    0.7398   -7.0029   -1.5131 H   0  0  0  0  0  0  0  0  0  0  0  0
   -0.9258   -4.4143   -2.3570 C   0  0  0  0  0  0  0  0  0  0  0  0
   -1.6373   -4.8538   -3.0482 H   0  0  0  0  0  0  0  0  0  0  0  0
   -0.9676   -3.0461   -2.0691 C   0  0  0  0  0  0  0  0  0  0  0  0
   -1.7182   -2.4215   -2.5443 H   0  0  0  0  0  0  0  0  0  0  0  0
   -1.1970    0.8610    0.4121 C   0  0  0  0  0  0  0  0  0  0  0  0
   -2.0159    1.3841   -0.3352 O   0  0  0  0  0  0  0  0  0  0  0  0
   -0.4788    1.6481    1.2935 N   0  0  0  0  0  0  0  0  0  0  0  0
    0.1378    1.1772    1.9497 H   0  0  0  0  0  0  0  0  0  0  0  0
   -0.6708    3.0881    1.4158 C   0  0  0  0  0  0  0  0  0  0  0  0
   -1.7042    3.3152    1.6984 H   0  0  0  0  0  0  0  0  0  0  0  0
   -0.0051    3.4946    2.1832 H   0  0  0  0  0  0  0  0  0  0  0  0
   -0.4477    3.5856    0.4661 H   0  0  0  0  0  0  0  0  0  0  0  0
  1  2  1  0  0  0  0
  2  3  1  0  0  0  0
  2  4  1  0  0  0  0
  2  5  1  0  0  0  0
  5  6  2  0  0  0  0
  5  7  1  0  0  0  0
  7  8  1  0  0  0  0
  7  9  1  0  0  0  0
  9 10  1  0  0  0  0
  9 11  1  0  0  0  0
  9 26  1  0  0  0  0
 11 12  1  0  0  0  0
 11 13  1  0  0  0  0
 11 14  1  0  0  0  0
 14 15  2  0  0  0  0
 14 24  1  0  0  0  0
 15 16  1  0  0  0  0
 15 17  1  0  0  0  0
 17 18  1  0  0  0  0
 17 19  2  0  0  0  0
 19 20  1  0  0  0  0
 19 22  1  0  0  0  0
 20 21  1  0  0  0  0
 22 23  1  0  0  0  0
 22 24  2  0  0  0  0
 24 25  1  0  0  0  0
 26 27  2  0  0  0  0
 26 28  1  0  0  0  0
 28 29  1  0  0  0  0
 28 30  1  0  0  0  0
 30 31  1  0  0  0  0
 30 32  1  0  0  0  0
 30 33  1  0  0  0  0
M  END
$$$$

  -OEChem-04042216043D

 33 33  0     1  0  0  0  0  0999 V2000
   -3.9362   -4.0811    1.4856 H   0  0  0  0  0  0  0  0  0  0  0  0
   -3.8564   -3.2235    0.8119 C   0  0  0  0  0  0  0  0  0  0  0  0
   -4.6985   -2.5516    0.9938 H   0  0  0  0  0  0  0  0  0  0  0  0
   -3.8989   -3.5814   -0.2197 H   0  0  0  0  0  0  0  0  0  0  0  0
   -2.5485   -2.4932    1.0495 C   0  0  0  0  0  0  0  0  0  0  0  0
   -1.7795   -2.8872    1.9141 O   0  0  0  0  0  0  0  0  0  0  0  0
   -2.2450   -1.3756    0.2981 N   0  0  0  0  0  0  0  0  0  0  0  0
   -2.9390   -1.0533   -0.3723 H   0  0  0  0  0  0  0  0  0  0  0  0
   -0.9643   -0.6522    0.3519 C   0  0  1  0  0  0  0  0  0  0  0  0
   -0.4193   -0.9417    1.2555 H   0  0  0  0  0  0  0  0  0  0  0  0
   -0.0871   -0.9878   -0.8729 C   0  0  0  0  0  0  0  0  0  0  0  0
   -0.4708   -0.4510   -1.7473 H   0  0  0  0  0  0  0  0  0  0  0  0
    0.9322   -0.6290   -0.6981 H   0  0  0  0  0  0  0  0  0  0  0  0
   -0.0527   -2.4680   -1.1821 C   0  0  0  0  0  0  0  0  0  0  0  0
    0.7004   -3.3425   -0.3858 C   0  0  0  0  0  0  0  0  0  0  0  0
    1.2568   -2.9598    0.4645 H   0  0  0  0  0  0  0  0  0  0  0  0
    0.7188   -4.7147   -0.6612 C   0  0  0  0  0  0  0  0  0  0  0  0
    1.2970   -5.3754   -0.0248 H   0  0  0  0  0  0  0  0  0  0  0  0
   -0.0087   -5.2246   -1.7382 C   0  0  0  0  0  0  0  0  0  0  0  0
   -0.0001   -6.5616   -2.0120 O   0  0  0  0  0  0  0  0  0  0  0  0
    0.5334   -7.0301   -1.3516 H   0  0  0  0  0  0  0  0  0  0  0  0
   -0.7528   -4.3601   -2.5384 C   0  0  0  0  0  0  0  0  0  0  0  0
   -1.3130   -4.7653   -3.3746 H   0  0  0  0  0  0  0  0  0  0  0  0
   -0.7780   -2.9881   -2.2651 C   0  0  0  0  0  0  0  0  0  0  0  0
   -1.3667   -2.3292   -2.8965 H   0  0  0  0  0  0  0  0  0  0  0  0
   -1.1901    0.8693    0.4121 C   0  0  0  0  0  0  0  0  0  0  0  0
   -2.0042    1.3978   -0.3365 O   0  0  0  0  0  0  0  0  0  0  0  0
   -0.4746    1.6501    1.3012 N   0  0  0  0  0  0  0  0  0  0  0  0
    0.1384    1.1742    1.9571 H   0  0  0  0  0  0  0  0  0  0  0  0
   -0.6696    3.0884    1.4351 C   0  0  0  0  0  0  0  0  0  0  0  0
   -1.6972    3.3088    1.7423 H   0  0  0  0  0  0  0  0  0  0  0  0
    0.0121    3.4943    2.1887 H   0  0  0  0  0  0  0  0  0  0  0  0
   -0.4708    3.5915    0.4830 H   0  0  0  0  0  0  0  0  0  0  0  0
  1  2  1  0  0  0  0
  2  3  1  0  0  0  0
  2  4  1  0  0  0  0
  2  5  1  0  0  0  0
  5  6  2  0  0  0  0
  5  7  1  0  0  0  0
  7  8  1  0  0  0  0
  7  9  1  0  0  0  0
  9 10  1  0  0  0  0
  9 11  1  0  0  0  0
  9 26  1  0  0  0  0
 11 12  1  0  0  0  0
 11 13  1  0  0  0  0
 11 14  1  0  0  0  0
 14 15  2  0  0  0  0
 14 24  1  0  0  0  0
 15 16  1  0  0  0  0
 15 17  1  0  0  0  0
 17 18  1  0  0  0  0
 17 19  2  0  0  0  0
 19 20  1  0  0  0  0
 19 22  1  0  0  0  0
 20 21  1  0  0  0  0
 22 23  1  0  0  0  0
 22 24  2  0  0  0  0
 24 25  1  0  0  0  0
 26 27  2  0  0  0  0
 26 28  1  0  0  0  0
 28 29  1  0  0  0  0
 28 30  1  0  0  0  0
 30 31  1  0  0  0  0
 30 32  1  0  0  0  0
 30 33  1  0  0  0  0
M  END
$$$$

  -OEChem-04042216043D

 33 33  0     1  0  0  0  0  0999 V2000
   -3.9528   -4.0837    1.4836 H   0  0  0  0  0  0  0  0  0  0  0  0
   -3.8745   -3.2114    0.8291 C   0  0  0  0  0  0  0  0  0  0  0  0
   -4.7185   -2.5457    1.0249 H   0  0  0  0  0  0  0  0  0  0  0  0
   -3.9160   -3.5469   -0.2101 H   0  0  0  0  0  0  0  0  0  0  0  0
   -2.5692   -2.4817    1.0827 C   0  0  0  0  0  0  0  0  0  0  0  0
   -1.8229   -2.8584    1.9748 O   0  0  0  0  0  0  0  0  0  0  0  0
   -2.2485   -1.3758    0.3221 N   0  0  0  0  0  0  0  0  0  0  0  0
   -2.9233   -1.0742   -0.3771 H   0  0  0  0  0  0  0  0  0  0  0  0
   -0.9653   -0.6565    0.3773 C   0  0  1  0  0  0  0  0  0  0  0  0
   -0.4242   -0.9385    1.2858 H   0  0  0  0  0  0  0  0  0  0  0  0
   -0.0888   -0.9999   -0.8480 C   0  0  0  0  0  0  0  0  0  0  0  0
   -0.4713   -0.4561   -1.7186 H   0  0  0  0  0  0  0  0  0  0  0  0
    0.9309   -0.6435   -0.6702 H   0  0  0  0  0  0  0  0  0  0  0  0
   -0.0432   -2.4782   -1.1757 C   0  0  0  0  0  0  0  0  0  0  0  0
    0.4419   -3.4072   -0.2422 C   0  0  0  0  0  0  0  0  0  0  0  0
    0.7878   -3.0720    0.7314 H   0  0  0  0  0  0  0  0  0  0  0  0
    0.4607   -4.7738   -0.5427 C   0  0  0  0  0  0  0  0  0  0  0  0
    0.8290   -5.4743    0.1986 H   0  0  0  0  0  0  0  0  0  0  0  0
   -0.0019   -5.2273   -1.7790 C   0  0  0  0  0  0  0  0  0  0  0  0
    0.0058   -6.5590   -2.0776 O   0  0  0  0  0  0  0  0  0  0  0  0
    0.3509   -7.0635   -1.3248 H   0  0  0  0  0  0  0  0  0  0  0  0
   -0.4800   -4.3112   -2.7139 C   0  0  0  0  0  0  0  0  0  0  0  0
   -0.8368   -4.6724   -3.6729 H   0  0  0  0  0  0  0  0  0  0  0  0
   -0.5021   -2.9437   -2.4179 C   0  0  0  0  0  0  0  0  0  0  0  0
   -0.8827   -2.2463   -3.1583 H   0  0  0  0  0  0  0  0  0  0  0  0
   -1.1902    0.8667    0.4155 C   0  0  0  0  0  0  0  0  0  0  0  0
   -1.9963    1.3866   -0.3478 O   0  0  0  0  0  0  0  0  0  0  0  0
   -0.4821    1.6596    1.2999 N   0  0  0  0  0  0  0  0  0  0  0  0
    0.1290    1.1938    1.9646 H   0  0  0  0  0  0  0  0  0  0  0  0
   -0.6712    3.1011    1.4075 C   0  0  0  0  0  0  0  0  0  0  0  0
   -1.7093    3.3340    1.6673 H   0  0  0  0  0  0  0  0  0  0  0  0
   -0.0200    3.5107    2.1857 H   0  0  0  0  0  0  0  0  0  0  0  0
   -0.4267    3.5907    0.4590 H   0  0  0  0  0  0  0  0  0  0  0  0
  1  2  1  0  0  0  0
  2  3  1  0  0  0  0
  2  4  1  0  0  0  0
  2  5  1  0  0  0  0
  5  6  2  0  0  0  0
  5  7  1  0  0  0  0
  7  8  1  0  0  0  0
  7  9  1  0  0  0  0
  9 10  1  0  0  0  0
  9 11  1  0  0  0  0
  9 26  1  0  0  0  0
 11 12  1  0  0  0  0
 11 13  1  0  0  0  0
 11 14  1  0  0  0  0
 14 15  2  0  0  0  0
 14 24  1  0  0  0  0
 15 16  1  0  0  0  0
 15 17  1  0  0  0  0
 17 18  1  0  0  0  0
 17 19  2  0  0  0  0
 19 20  1  0  0  0  0
 19 22  1  0  0  0  0
 20 21  1  0  0  0  0
 22 23  1  0  0  0  0
 22 24  2  0  0  0  0
 24 25  1  0  0  0  0
 26 27  2  0  0  0  0
 26 28  1  0  0  0  0
 28 29  1  0  0  0  0
 28 30  1  0  0  0  0
 30 31  1  0  0  0  0
 30 32  1  0  0  0  0
 30 33  1  0  0  0  0
M  END
$$$$

  -OEChem-04042216043D

 33 33  0     1  0  0  0  0  0999 V2000
   -4.0117   -4.0539    1.5246 H   0  0  0  0  0  0  0  0  0  0  0  0
   -3.9170   -3.1873    0.8646 C   0  0  0  0  0  0  0  0  0  0  0  0
   -4.7697   -2.5239    1.0274 H   0  0  0  0  0  0  0  0  0  0  0  0
   -3.9245   -3.5329   -0.1722 H   0  0  0  0  0  0  0  0  0  0  0  0
   -2.6237   -2.4493    1.1530 C   0  0  0  0  0  0  0  0  0  0  0  0
   -1.9251   -2.7904    2.0963 O   0  0  0  0  0  0  0  0  0  0  0  0
   -2.2660   -1.3700    0.3716 N   0  0  0  0  0  0  0  0  0  0  0  0
   -2.9107   -1.0987   -0.3674 H   0  0  0  0  0  0  0  0  0  0  0  0
   -0.9740   -0.6638    0.4226 C   0  0  1  0  0  0  0  0  0  0  0  0
   -0.4417   -0.9302    1.3408 H   0  0  0  0  0  0  0  0  0  0  0  0
   -0.0909   -1.0275   -0.7966 C   0  0  0  0  0  0  0  0  0  0  0  0
   -0.4697   -0.4829   -1.6685 H   0  0  0  0  0  0  0  0  0  0  0  0
    0.9264   -0.6679   -0.6124 H   0  0  0  0  0  0  0  0  0  0  0  0
   -0.0198   -2.5007   -1.1520 C   0  0  0  0  0  0  0  0  0  0  0  0
    0.1690   -3.4889   -0.1723 C   0  0  0  0  0  0  0  0  0  0  0  0
    0.3034   -3.2099    0.8688 H   0  0  0  0  0  0  0  0  0  0  0  0
    0.1876   -4.8445   -0.5183 C   0  0  0  0  0  0  0  0  0  0  0  0
    0.3285   -5.5870    0.2596 H   0  0  0  0  0  0  0  0  0  0  0  0
    0.0218   -5.2316   -1.8485 C   0  0  0  0  0  0  0  0  0  0  0  0
    0.0333   -6.5516   -2.1950 O   0  0  0  0  0  0  0  0  0  0  0  0
    0.1717   -7.0982   -1.4061 H   0  0  0  0  0  0  0  0  0  0  0  0
   -0.1579   -4.2595   -2.8297 C   0  0  0  0  0  0  0  0  0  0  0  0
   -0.2846   -4.5680   -3.8622 H   0  0  0  0  0  0  0  0  0  0  0  0
   -0.1790   -2.9028   -2.4878 C   0  0  0  0  0  0  0  0  0  0  0  0
   -0.3282   -2.1636   -3.2694 H   0  0  0  0  0  0  0  0  0  0  0  0
   -1.1887    0.8620    0.4144 C   0  0  0  0  0  0  0  0  0  0  0  0
   -1.9816    1.3669   -0.3727 O   0  0  0  0  0  0  0  0  0  0  0  0
   -0.4855    1.6741    1.2850 N   0  0  0  0  0  0  0  0  0  0  0  0
    0.1124    1.2226    1.9713 H   0  0  0  0  0  0  0  0  0  0  0  0
   -0.6698    3.1186    1.3526 C   0  0  0  0  0  0  0  0  0  0  0  0
   -1.7082    3.3619    1.6011 H   0  0  0  0  0  0  0  0  0  0  0  0
   -0.0206    3.5473    2.1220 H   0  0  0  0  0  0  0  0  0  0  0  0
   -0.4196    3.5814    0.3922 H   0  0  0  0  0  0  0  0  0  0  0  0
  1  2  1  0  0  0  0
  2  3  1  0  0  0  0
  2  4  1  0  0  0  0
  2  5  1  0  0  0  0
  5  6  2  0  0  0  0
  5  7  1  0  0  0  0
  7  8  1  0  0  0  0
  7  9  1  0  0  0  0
  9 10  1  0  0  0  0
  9 11  1  0  0  0  0
  9 26  1  0  0  0  0
 11 12  1  0  0  0  0
 11 13  1  0  0  0  0
 11 14  1  0  0  0  0
 14 15  2  0  0  0  0
 14 24  1  0  0  0  0
 15 16  1  0  0  0  0
 15 17  1  0  0  0  0
 17 18  1  0  0  0  0
 17 19  2  0  0  0  0
 19 20  1  0  0  0  0
 19 22  1  0  0  0  0
 20 21  1  0  0  0  0
 22 23  1  0  0  0  0
 22 24  2  0  0  0  0
 24 25  1  0  0  0  0
 26 27  2  0  0  0  0
 26 28  1  0  0  0  0
 28 29  1  0  0  0  0
 28 30  1  0  0  0  0
 30 31  1  0  0  0  0
 30 32  1  0  0  0  0
 30 33  1  0  0  0  0
M  END
$$$$

  -OEChem-04042216043D

 33 33  0     1  0  0  0  0  0999 V2000
   -4.1739   -3.9308    1.6671 H   0  0  0  0  0  0  0  0  0  0  0  0
   -4.0150   -3.1233    0.9470 C   0  0  0  0  0  0  0  0  0  0  0  0
   -4.8564   -2.4286    1.0040 H   0  0  0  0  0  0  0  0  0  0  0  0
   -3.9717   -3.5513   -0.0576 H   0  0  0  0  0  0  0  0  0  0  0  0
   -2.7199   -2.3956    1.2531 C   0  0  0  0  0  0  0  0  0  0  0  0
   -2.0722   -2.6957    2.2447 O   0  0  0  0  0  0  0  0  0  0  0  0
   -2.3143   -1.3568    0.4416 N   0  0  0  0  0  0  0  0  0  0  0  0
   -2.9358   -1.1074   -0.3251 H   0  0  0  0  0  0  0  0  0  0  0  0
   -1.0059   -0.6771    0.4715 C   0  0  1  0  0  0  0  0  0  0  0  0
   -0.4838   -0.9260    1.4007 H   0  0  0  0  0  0  0  0  0  0  0  0
   -0.1110   -1.0749   -0.7347 C   0  0  0  0  0  0  0  0  0  0  0  0
   -0.4861   -0.5388   -1.6138 H   0  0  0  0  0  0  0  0  0  0  0  0
    0.9010   -0.7040   -0.5437 H   0  0  0  0  0  0  0  0  0  0  0  0
   -0.0011   -2.5410   -1.1202 C   0  0  0  0  0  0  0  0  0  0  0  0
   -0.1087   -3.5875   -0.1905 C   0  0  0  0  0  0  0  0  0  0  0  0
   -0.1860   -3.3746    0.8690 H   0  0  0  0  0  0  0  0  0  0  0  0
   -0.0603   -4.9240   -0.6013 C   0  0  0  0  0  0  0  0  0  0  0  0
   -0.1382   -5.7098    0.1422 H   0  0  0  0  0  0  0  0  0  0  0  0
    0.0956   -5.2372   -1.9515 C   0  0  0  0  0  0  0  0  0  0  0  0
    0.1450   -6.5377   -2.3625 O   0  0  0  0  0  0  0  0  0  0  0  0
    0.0880   -7.1289   -1.5960 H   0  0  0  0  0  0  0  0  0  0  0  0
    0.2089   -4.2103   -2.8851 C   0  0  0  0  0  0  0  0  0  0  0  0
    0.3325   -4.4603   -3.9338 H   0  0  0  0  0  0  0  0  0  0  0  0
    0.1618   -2.8730   -2.4756 C   0  0  0  0  0  0  0  0  0  0  0  0
    0.2447   -2.0904   -3.2244 H   0  0  0  0  0  0  0  0  0  0  0  0
   -1.1928    0.8516    0.4034 C   0  0  0  0  0  0  0  0  0  0  0  0
   -1.9807    1.3430   -0.3971 O   0  0  0  0  0  0  0  0  0  0  0  0
   -0.4754    1.6792    1.2476 N   0  0  0  0  0  0  0  0  0  0  0  0
    0.1115    1.2383    1.9502 H   0  0  0  0  0  0  0  0  0  0  0  0
   -0.6462    3.1266    1.2811 C   0  0  0  0  0  0  0  0  0  0  0  0
   -1.6759    3.3845    1.5503 H   0  0  0  0  0  0  0  0  0  0  0  0
    0.0268    3.5697    2.0217 H   0  0  0  0  0  0  0  0  0  0  0  0
   -0.4180    3.5621    0.3026 H   0  0  0  0  0  0  0  0  0  0  0  0
  1  2  1  0  0  0  0
  2  3  1  0  0  0  0
  2  4  1  0  0  0  0
  2  5  1  0  0  0  0
  5  6  2  0  0  0  0
  5  7  1  0  0  0  0
  7  8  1  0  0  0  0
  7  9  1  0  0  0  0
  9 10  1  0  0  0  0
  9 11  1  0  0  0  0
  9 26  1  0  0  0  0
 11 12  1  0  0  0  0
 11 13  1  0  0  0  0
 11 14  1  0  0  0  0
 14 15  2  0  0  0  0
 14 24  1  0  0  0  0
 15 16  1  0  0  0  0
 15 17  1  0  0  0  0
 17 18  1  0  0  0  0
 17 19  2  0  0  0  0
 19 20  1  0  0  0  0
 19 22  1  0  0  0  0
 20 21  1  0  0  0  0
 22 23  1  0  0  0  0
 22 24  2  0  0  0  0
 24 25  1  0  0  0  0
 26 27  2  0  0  0  0
 26 28  1  0  0  0  0
 28 29  1  0  0  0  0
 28 30  1  0  0  0  0
 30 31  1  0  0  0  0
 30 32  1  0  0  0  0
 30 33  1  0  0  0  0
M  END
$$$$

  -OEChem-04042216043D

 33 33  0     1  0  0  0  0  0999 V2000
   -4.3150   -3.7936    1.9032 H   0  0  0  0  0  0  0  0  0  0  0  0
   -4.1368   -3.0213    1.1498 C   0  0  0  0  0  0  0  0  0  0  0  0
   -4.9431   -2.2855    1.2008 H   0  0  0  0  0  0  0  0  0  0  0  0
   -4.1395   -3.4867    0.1610 H   0  0  0  0  0  0  0  0  0  0  0  0
   -2.8017   -2.3458    1.3977 C   0  0  0  0  0  0  0  0  0  0  0  0
   -2.1386   -2.6463    2.3788 O   0  0  0  0  0  0  0  0  0  0  0  0
   -2.3701   -1.3539    0.5427 N   0  0  0  0  0  0  0  0  0  0  0  0
   -3.0090   -1.0859   -0.2034 H   0  0  0  0  0  0  0  0  0  0  0  0
   -1.0426   -0.7105    0.5267 C   0  0  1  0  0  0  0  0  0  0  0  0
   -0.5166   -0.9359    1.4596 H   0  0  0  0  0  0  0  0  0  0  0  0
   -0.1467   -1.1381   -0.6741 C   0  0  0  0  0  0  0  0  0  0  0  0
   -0.5230   -0.6076   -1.5565 H   0  0  0  0  0  0  0  0  0  0  0  0
    0.8611   -0.7569   -0.4799 H   0  0  0  0  0  0  0  0  0  0  0  0
    0.0015   -2.5927   -1.0985 C   0  0  0  0  0  0  0  0  0  0  0  0
   -0.3674   -3.7008   -0.3195 C   0  0  0  0  0  0  0  0  0  0  0  0
   -0.6728   -3.5782    0.7081 H   0  0  0  0  0  0  0  0  0  0  0  0
   -0.2643   -5.0043   -0.8188 C   0  0  0  0  0  0  0  0  0  0  0  0
   -0.5424   -5.8387   -0.1843 H   0  0  0  0  0  0  0  0  0  0  0  0
    0.2066   -5.2256   -2.1122 C   0  0  0  0  0  0  0  0  0  0  0  0
    0.3151   -6.4927   -2.6074 O   0  0  0  0  0  0  0  0  0  0  0  0
    0.0564   -7.1362   -1.9299 H   0  0  0  0  0  0  0  0  0  0  0  0
    0.5790   -4.1399   -2.8987 C   0  0  0  0  0  0  0  0  0  0  0  0
    0.9457   -4.3162   -3.9047 H   0  0  0  0  0  0  0  0  0  0  0  0
    0.4780   -2.8372   -2.3983 C   0  0  0  0  0  0  0  0  0  0  0  0
    0.7650   -2.0070   -3.0373 H   0  0  0  0  0  0  0  0  0  0  0  0
   -1.2091    0.8178    0.3983 C   0  0  0  0  0  0  0  0  0  0  0  0
   -2.0096    1.2881   -0.4028 O   0  0  0  0  0  0  0  0  0  0  0  0
   -0.4673    1.6691    1.1966 N   0  0  0  0  0  0  0  0  0  0  0  0
    0.1287    1.2490    1.9045 H   0  0  0  0  0  0  0  0  0  0  0  0
   -0.6188    3.1189    1.1747 C   0  0  0  0  0  0  0  0  0  0  0  0
   -1.6387    3.4014    1.4558 H   0  0  0  0  0  0  0  0  0  0  0  0
    0.0762    3.5824    1.8814 H   0  0  0  0  0  0  0  0  0  0  0  0
   -0.4068    3.5117    0.1747 H   0  0  0  0  0  0  0  0  0  0  0  0
  1  2  1  0  0  0  0
  2  3  1  0  0  0  0
  2  4  1  0  0  0  0
  2  5  1  0  0  0  0
  5  6  2  0  0  0  0
  5  7  1  0  0  0  0
  7  8  1  0  0  0  0
  7  9  1  0  0  0  0
  9 10  1  0  0  0  0
  9 11  1  0  0  0  0
  9 26  1  0  0  0  0
 11 12  1  0  0  0  0
 11 13  1  0  0  0  0
 11 14  1  0  0  0  0
 14 15  2  0  0  0  0
 14 24  1  0  0  0  0
 15 16  1  0  0  0  0
 15 17  1  0  0  0  0
 17 18  1  0  0  0  0
 17 19  2  0  0  0  0
 19 20  1  0  0  0  0
 19 22  1  0  0  0  0
 20 21  1  0  0  0  0
 22 23  1  0  0  0  0
 22 24  2  0  0  0  0
 24 25  1  0  0  0  0
 26 27  2  0  0  0  0
 26 28  1  0  0  0  0
 28 29  1  0  0  0  0
 28 30  1  0  0  0  0
 30 31  1  0  0  0  0
 30 32  1  0  0  0  0
 30 33  1  0  0  0  0
M  END
$$$$

  -OEChem-04042216043D

 33 33  0     1  0  0  0  0  0999 V2000
   -4.5118   -3.5776    2.1334 H   0  0  0  0  0  0  0  0  0  0  0  0
   -4.3183   -2.8302    1.3590 C   0  0  0  0  0  0  0  0  0  0  0  0
   -5.0302   -2.0095    1.4757 H   0  0  0  0  0  0  0  0  0  0  0  0
   -4.4629   -3.2916    0.3792 H   0  0  0  0  0  0  0  0  0  0  0  0
   -2.9000   -2.3059    1.4792 C   0  0  0  0  0  0  0  0  0  0  0  0
   -2.1757   -2.7053    2.3777 O   0  0  0  0  0  0  0  0  0  0  0  0
   -2.4504   -1.3462    0.5965 N   0  0  0  0  0  0  0  0  0  0  0  0
   -3.1267   -0.9854   -0.0746 H   0  0  0  0  0  0  0  0  0  0  0  0
   -1.0990   -0.7586    0.5425 C   0  0  1  0  0  0  0  0  0  0  0  0
   -0.5747   -0.9812    1.4774 H   0  0  0  0  0  0  0  0  0  0  0  0
   -0.1945   -1.2067   -0.6467 C   0  0  0  0  0  0  0  0  0  0  0  0
   -0.5564   -0.6723   -1.5326 H   0  0  0  0  0  0  0  0  0  0  0  0
    0.8102   -0.8268   -0.4344 H   0  0  0  0  0  0  0  0  0  0  0  0
   -0.0270   -2.6490   -1.1107 C   0  0  0  0  0  0  0  0  0  0  0  0
   -0.6398   -3.7845   -0.5559 C   0  0  0  0  0  0  0  0  0  0  0  0
   -1.2407   -3.7255    0.3333 H   0  0  0  0  0  0  0  0  0  0  0  0
   -0.4409   -5.0573   -1.1047 C   0  0  0  0  0  0  0  0  0  0  0  0
   -0.9177   -5.9142   -0.6417 H   0  0  0  0  0  0  0  0  0  0  0  0
    0.3707   -5.2223   -2.2259 C   0  0  0  0  0  0  0  0  0  0  0  0
    0.5733   -6.4590   -2.7668 O   0  0  0  0  0  0  0  0  0  0  0  0
    0.0961   -7.1277   -2.2520 H   0  0  0  0  0  0  0  0  0  0  0  0
    0.9839   -4.1103   -2.7925 C   0  0  0  0  0  0  0  0  0  0  0  0
    1.6143   -4.2409   -3.6660 H   0  0  0  0  0  0  0  0  0  0  0  0
    0.7871   -2.8398   -2.2421 C   0  0  0  0  0  0  0  0  0  0  0  0
    1.2718   -1.9881   -2.7107 H   0  0  0  0  0  0  0  0  0  0  0  0
   -1.2274    0.7718    0.3920 C   0  0  0  0  0  0  0  0  0  0  0  0
   -2.0446    1.2495   -0.3876 O   0  0  0  0  0  0  0  0  0  0  0  0
   -0.4461    1.6173    1.1581 N   0  0  0  0  0  0  0  0  0  0  0  0
    0.1662    1.1947    1.8502 H   0  0  0  0  0  0  0  0  0  0  0  0
   -0.5453    3.0707    1.0983 C   0  0  0  0  0  0  0  0  0  0  0  0
   -1.5478    3.3989    1.3925 H   0  0  0  0  0  0  0  0  0  0  0  0
    0.1821    3.5273    1.7764 H   0  0  0  0  0  0  0  0  0  0  0  0
   -0.3412    3.4271    0.0830 H   0  0  0  0  0  0  0  0  0  0  0  0
  1  2  1  0  0  0  0
  2  3  1  0  0  0  0
  2  4  1  0  0  0  0
  2  5  1  0  0  0  0
  5  6  2  0  0  0  0
  5  7  1  0  0  0  0
  7  8  1  0  0  0  0
  7  9  1  0  0  0  0
  9 10  1  0  0  0  0
  9 11  1  0  0  0  0
  9 26  1  0  0  0  0
 11 12  1  0  0  0  0
 11 13  1  0  0  0  0
 11 14  1  0  0  0  0
 14 15  2  0  0  0  0
 14 24  1  0  0  0  0
 15 16  1  0  0  0  0
 15 17  1  0  0  0  0
 17 18  1  0  0  0  0
 17 19  2  0  0  0  0
 19 20  1  0  0  0  0
 19 22  1  0  0  0  0
 20 21  1  0  0  0  0
 22 23  1  0  0  0  0
 22 24  2  0  0  0  0
 24 25  1  0  0  0  0
 26 27  2  0  0  0  0
 26 28  1  0  0  0  0
 28 29  1  0  0  0  0
 28 30  1  0  0  0  0
 30 31  1  0  0  0  0
 30 32  1  0  0  0  0
 30 33  1  0  0  0  0
M  END
$$$$

  -OEChem-04042216043D

 33 33  0     1  0  0  0  0  0999 V2000
   -4.6831   -3.5229    1.9054 H   0  0  0  0  0  0  0  0  0  0  0  0
   -4.4864   -2.6654    1.2559 C   0  0  0  0  0  0  0  0  0  0  0  0
   -5.1158   -1.8305    1.5736 H   0  0  0  0  0  0  0  0  0  0  0  0
   -4.7435   -2.9356    0.2287 H   0  0  0  0  0  0  0  0  0  0  0  0
   -3.0237   -2.2712    1.3394 C   0  0  0  0  0  0  0  0  0  0  0  0
   -2.2995   -2.7927    2.1723 O   0  0  0  0  0  0  0  0  0  0  0  0
   -2.5254   -1.3090    0.4841 N   0  0  0  0  0  0  0  0  0  0  0  0
   -3.1912   -0.8434   -0.1314 H   0  0  0  0  0  0  0  0  0  0  0  0
   -1.1520   -0.7748    0.4880 C   0  0  1  0  0  0  0  0  0  0  0  0
   -0.6831   -1.0250    1.4450 H   0  0  0  0  0  0  0  0  0  0  0  0
   -0.1851   -1.2305   -0.6478 C   0  0  0  0  0  0  0  0  0  0  0  0
   -0.4758   -0.6779   -1.5485 H   0  0  0  0  0  0  0  0  0  0  0  0
    0.8097   -0.8720   -0.3626 H   0  0  0  0  0  0  0  0  0  0  0  0
   -0.0211   -2.6713   -1.1230 C   0  0  0  0  0  0  0  0  0  0  0  0
   -0.8794   -3.7514   -0.8542 C   0  0  0  0  0  0  0  0  0  0  0  0
   -1.7685   -3.6426   -0.2609 H   0  0  0  0  0  0  0  0  0  0  0  0
   -0.6114   -5.0325   -1.3519 C   0  0  0  0  0  0  0  0  0  0  0  0
   -1.2913   -5.8441   -1.1182 H   0  0  0  0  0  0  0  0  0  0  0  0
    0.5165   -5.2626   -2.1372 C   0  0  0  0  0  0  0  0  0  0  0  0
    0.7863   -6.5090   -2.6237 O   0  0  0  0  0  0  0  0  0  0  0  0
    0.1261   -7.1404   -2.2989 H   0  0  0  0  0  0  0  0  0  0  0  0
    1.3729   -4.2061   -2.4247 C   0  0  0  0  0  0  0  0  0  0  0  0
    2.2487   -4.3875   -3.0392 H   0  0  0  0  0  0  0  0  0  0  0  0
    1.1070   -2.9272   -1.9247 C   0  0  0  0  0  0  0  0  0  0  0  0
    1.7942   -2.1218   -2.1674 H   0  0  0  0  0  0  0  0  0  0  0  0
   -1.2261    0.7612    0.3671 C   0  0  0  0  0  0  0  0  0  0  0  0
   -2.0181    1.2813   -0.4115 O   0  0  0  0  0  0  0  0  0  0  0  0
   -0.4437    1.5638    1.1769 N   0  0  0  0  0  0  0  0  0  0  0  0
    0.1496    1.1055    1.8632 H   0  0  0  0  0  0  0  0  0  0  0  0
   -0.5096    3.0199    1.1622 C   0  0  0  0  0  0  0  0  0  0  0  0
   -1.5075    3.3614    1.4568 H   0  0  0  0  0  0  0  0  0  0  0  0
    0.2205    3.4387    1.8613 H   0  0  0  0  0  0  0  0  0  0  0  0
   -0.2869    3.4029    0.1607 H   0  0  0  0  0  0  0  0  0  0  0  0
  1  2  1  0  0  0  0
  2  3  1  0  0  0  0
  2  4  1  0  0  0  0
  2  5  1  0  0  0  0
  5  6  2  0  0  0  0
  5  7  1  0  0  0  0
  7  8  1  0  0  0  0
  7  9  1  0  0  0  0
  9 10  1  0  0  0  0
  9 11  1  0  0  0  0
  9 26  1  0  0  0  0
 11 12  1  0  0  0  0
 11 13  1  0  0  0  0
 11 14  1  0  0  0  0
 14 15  2  0  0  0  0
 14 24  1  0  0  0  0
 15 16  1  0  0  0  0
 15 17  1  0  0  0  0
 17 18  1  0  0  0  0
 17 19  2  0  0  0  0
 19 20  1  0  0  0  0
 19 22  1  0  0  0  0
 20 21  1  0  0  0  0
 22 23  1  0  0  0  0
 22 24  2  0  0  0  0
 24 25  1  0  0  0  0
 26 27  2  0  0  0  0
 26 28  1  0  0  0  0
 28 29  1  0  0  0  0
 28 30  1  0  0  0  0
 30 31  1  0  0  0  0
 30 32  1  0  0  0  0
 30 33  1  0  0  0  0
M  END
$$$$

  -OEChem-04042216043D

 33 33  0     1  0  0  0  0  0999 V2000
   -4.5297   -3.6138    1.9304 H   0  0  0  0  0  0  0  0  0  0  0  0
   -4.3769   -2.7501    1.2773 C   0  0  0  0  0  0  0  0  0  0  0  0
   -4.9997   -1.9252    1.6316 H   0  0  0  0  0  0  0  0  0  0  0  0
   -4.6814   -3.0177    0.2626 H   0  0  0  0  0  0  0  0  0  0  0  0
   -2.9173   -2.3369    1.2894 C   0  0  0  0  0  0  0  0  0  0  0  0
   -2.1340   -2.8957    2.0399 O   0  0  0  0  0  0  0  0  0  0  0  0
   -2.4907   -1.3209    0.4569 N   0  0  0  0  0  0  0  0  0  0  0  0
   -3.2019   -0.8226   -0.0765 H   0  0  0  0  0  0  0  0  0  0  0  0
   -1.1307   -0.7589    0.4292 C   0  0  1  0  0  0  0  0  0  0  0  0
   -0.6238   -1.0382    1.3584 H   0  0  0  0  0  0  0  0  0  0  0  0
   -0.1957   -1.1687   -0.7467 C   0  0  0  0  0  0  0  0  0  0  0  0
   -0.5260   -0.6085   -1.6283 H   0  0  0  0  0  0  0  0  0  0  0  0
    0.8018   -0.7966   -0.4913 H   0  0  0  0  0  0  0  0  0  0  0  0
   -0.0526   -2.6100   -1.2289 C   0  0  0  0  0  0  0  0  0  0  0  0
   -1.0492   -3.6016   -1.1761 C   0  0  0  0  0  0  0  0  0  0  0  0
   -2.0495   -3.3847   -0.8393 H   0  0  0  0  0  0  0  0  0  0  0  0
   -0.7944   -4.9095   -1.6065 C   0  0  0  0  0  0  0  0  0  0  0  0
   -1.5847   -5.6499   -1.5532 H   0  0  0  0  0  0  0  0  0  0  0  0
    0.4604   -5.2550   -2.1042 C   0  0  0  0  0  0  0  0  0  0  0  0
    0.7196   -6.5285   -2.5204 O   0  0  0  0  0  0  0  0  0  0  0  0
   -0.0486   -7.0943   -2.3484 H   0  0  0  0  0  0  0  0  0  0  0  0
    1.4549   -4.2864   -2.1785 C   0  0  0  0  0  0  0  0  0  0  0  0
    2.4296   -4.5582   -2.5698 H   0  0  0  0  0  0  0  0  0  0  0  0
    1.2024   -2.9806   -1.7469 C   0  0  0  0  0  0  0  0  0  0  0  0
    2.0038   -2.2508   -1.8130 H   0  0  0  0  0  0  0  0  0  0  0  0
   -1.2298    0.7789    0.3877 C   0  0  0  0  0  0  0  0  0  0  0  0
   -2.0625    1.3214   -0.3305 O   0  0  0  0  0  0  0  0  0  0  0  0
   -0.4248    1.5542    1.2019 N   0  0  0  0  0  0  0  0  0  0  0  0
    0.2025    1.0727    1.8403 H   0  0  0  0  0  0  0  0  0  0  0  0
   -0.5172    3.0077    1.2669 C   0  0  0  0  0  0  0  0  0  0  0  0
   -1.5129    3.3139    1.6050 H   0  0  0  0  0  0  0  0  0  0  0  0
    0.2233    3.4028    1.9690 H   0  0  0  0  0  0  0  0  0  0  0  0
   -0.3279    3.4479    0.2822 H   0  0  0  0  0  0  0  0  0  0  0  0
  1  2  1  0  0  0  0
  2  3  1  0  0  0  0
  2  4  1  0  0  0  0
  2  5  1  0  0  0  0
  5  6  2  0  0  0  0
  5  7  1  0  0  0  0
  7  8  1  0  0  0  0
  7  9  1  0  0  0  0
  9 10  1  0  0  0  0
  9 11  1  0  0  0  0
  9 26  1  0  0  0  0
 11 12  1  0  0  0  0
 11 13  1  0  0  0  0
 11 14  1  0  0  0  0
 14 15  2  0  0  0  0
 14 24  1  0  0  0  0
 15 16  1  0  0  0  0
 15 17  1  0  0  0  0
 17 18  1  0  0  0  0
 17 19  2  0  0  0  0
 19 20  1  0  0  0  0
 19 22  1  0  0  0  0
 20 21  1  0  0  0  0
 22 23  1  0  0  0  0
 22 24  2  0  0  0  0
 24 25  1  0  0  0  0
 26 27  2  0  0  0  0
 26 28  1  0  0  0  0
 28 29  1  0  0  0  0
 28 30  1  0  0  0  0
 30 31  1  0  0  0  0
 30 32  1  0  0  0  0
 30 33  1  0  0  0  0
M  END
$$$$

  -OEChem-04042216043D

 33 33  0     1  0  0  0  0  0999 V2000
   -4.3753   -3.7347    1.8470 H   0  0  0  0  0  0  0  0  0  0  0  0
   -4.2493   -2.8826    1.1730 C   0  0  0  0  0  0  0  0  0  0  0  0
   -4.9165   -2.0785    1.4931 H   0  0  0  0  0  0  0  0  0  0  0  0
   -4.5213   -3.1913    0.1609 H   0  0  0  0  0  0  0  0  0  0  0  0
   -2.8102   -2.4031    1.2004 C   0  0  0  0  0  0  0  0  0  0  0  0
   -2.0062   -2.9401    1.9448 O   0  0  0  0  0  0  0  0  0  0  0  0
   -2.4309   -1.3425    0.4013 N   0  0  0  0  0  0  0  0  0  0  0  0
   -3.1631   -0.8575   -0.1149 H   0  0  0  0  0  0  0  0  0  0  0  0
   -1.0923   -0.7320    0.3861 C   0  0  1  0  0  0  0  0  0  0  0  0
   -0.5699   -1.0245    1.3023 H   0  0  0  0  0  0  0  0  0  0  0  0
   -0.1657   -1.1018   -0.8059 C   0  0  0  0  0  0  0  0  0  0  0  0
   -0.5195   -0.5469   -1.6816 H   0  0  0  0  0  0  0  0  0  0  0  0
    0.8304   -0.7143   -0.5705 H   0  0  0  0  0  0  0  0  0  0  0  0
   -0.0361   -2.5506   -1.2620 C   0  0  0  0  0  0  0  0  0  0  0  0
   -1.1216   -3.4275   -1.4394 C   0  0  0  0  0  0  0  0  0  0  0  0
   -2.1411   -3.0838   -1.3295 H   0  0  0  0  0  0  0  0  0  0  0  0
   -0.9194   -4.7611   -1.8150 C   0  0  0  0  0  0  0  0  0  0  0  0
   -1.7761   -5.4124   -1.9474 H   0  0  0  0  0  0  0  0  0  0  0  0
    0.3715   -5.2444   -2.0246 C   0  0  0  0  0  0  0  0  0  0  0  0
    0.5803   -6.5438   -2.3872 O   0  0  0  0  0  0  0  0  0  0  0  0
   -0.2600   -7.0272   -2.3836 H   0  0  0  0  0  0  0  0  0  0  0  0
    1.4563   -4.3883   -1.8656 C   0  0  0  0  0  0  0  0  0  0  0  0
    2.4585   -4.7688   -2.0336 H   0  0  0  0  0  0  0  0  0  0  0  0
    1.2569   -3.0569   -1.4864 C   0  0  0  0  0  0  0  0  0  0  0  0
    2.1258   -2.4181   -1.3614 H   0  0  0  0  0  0  0  0  0  0  0  0
   -1.2303    0.8025    0.3998 C   0  0  0  0  0  0  0  0  0  0  0  0
   -2.0768    1.3480   -0.2994 O   0  0  0  0  0  0  0  0  0  0  0  0
   -0.4403    1.5700    1.2359 N   0  0  0  0  0  0  0  0  0  0  0  0
    0.2019    1.0832    1.8552 H   0  0  0  0  0  0  0  0  0  0  0  0
   -0.5600    3.0191    1.3412 C   0  0  0  0  0  0  0  0  0  0  0  0
   -1.5601    3.2964    1.6903 H   0  0  0  0  0  0  0  0  0  0  0  0
    0.1753    3.4090    2.0517 H   0  0  0  0  0  0  0  0  0  0  0  0
   -0.3829    3.4897    0.3683 H   0  0  0  0  0  0  0  0  0  0  0  0
  1  2  1  0  0  0  0
  2  3  1  0  0  0  0
  2  4  1  0  0  0  0
  2  5  1  0  0  0  0
  5  6  2  0  0  0  0
  5  7  1  0  0  0  0
  7  8  1  0  0  0  0
  7  9  1  0  0  0  0
  9 10  1  0  0  0  0
  9 11  1  0  0  0  0
  9 26  1  0  0  0  0
 11 12  1  0  0  0  0
 11 13  1  0  0  0  0
 11 14  1  0  0  0  0
 14 15  2  0  0  0  0
 14 24  1  0  0  0  0
 15 16  1  0  0  0  0
 15 17  1  0  0  0  0
 17 18  1  0  0  0  0
 17 19  2  0  0  0  0
 19 20  1  0  0  0  0
 19 22  1  0  0  0  0
 20 21  1  0  0  0  0
 22 23  1  0  0  0  0
 22 24  2  0  0  0  0
 24 25  1  0  0  0  0
 26 27  2  0  0  0  0
 26 28  1  0  0  0  0
 28 29  1  0  0  0  0
 28 30  1  0  0  0  0
 30 31  1  0  0  0  0
 30 32  1  0  0  0  0
 30 33  1  0  0  0  0
M  END
$$$$

  -OEChem-04042216043D

 33 33  0     1  0  0  0  0  0999 V2000
   -4.1860   -3.8931    1.7047 H   0  0  0  0  0  0  0  0  0  0  0  0
   -4.0888   -3.0366    1.0316 C   0  0  0  0  0  0  0  0  0  0  0  0
   -4.8225   -2.2791    1.3177 H   0  0  0  0  0  0  0  0  0  0  0  0
   -4.2936   -3.3663    0.0102 H   0  0  0  0  0  0  0  0  0  0  0  0
   -2.6882   -2.4600    1.1185 C   0  0  0  0  0  0  0  0  0  0  0  0
   -1.8768   -2.9525    1.8859 O   0  0  0  0  0  0  0  0  0  0  0  0
   -2.3531   -1.3652    0.3468 N   0  0  0  0  0  0  0  0  0  0  0  0
   -3.0960   -0.9188   -0.1880 H   0  0  0  0  0  0  0  0  0  0  0  0
   -1.0401   -0.7009    0.3530 C   0  0  1  0  0  0  0  0  0  0  0  0
   -0.5037   -0.9968    1.2602 H   0  0  0  0  0  0  0  0  0  0  0  0
   -0.1256   -1.0385   -0.8534 C   0  0  0  0  0  0  0  0  0  0  0  0
   -0.5023   -0.4952   -1.7267 H   0  0  0  0  0  0  0  0  0  0  0  0
    0.8733   -0.6431   -0.6436 H   0  0  0  0  0  0  0  0  0  0  0  0
   -0.0161   -2.4973   -1.2658 C   0  0  0  0  0  0  0  0  0  0  0  0
   -1.1267   -3.2542   -1.6775 C   0  0  0  0  0  0  0  0  0  0  0  0
   -2.1012   -2.7879   -1.7691 H   0  0  0  0  0  0  0  0  0  0  0  0
   -0.9918   -4.6082   -2.0059 C   0  0  0  0  0  0  0  0  0  0  0  0
   -1.8628   -5.1695   -2.3248 H   0  0  0  0  0  0  0  0  0  0  0  0
    0.2558   -5.2278   -1.9277 C   0  0  0  0  0  0  0  0  0  0  0  0
    0.3996   -6.5479   -2.2441 O   0  0  0  0  0  0  0  0  0  0  0  0
   -0.4658   -6.9369   -2.4425 H   0  0  0  0  0  0  0  0  0  0  0  0
    1.3647   -4.4892   -1.5239 C   0  0  0  0  0  0  0  0  0  0  0  0
    2.3311   -4.9785   -1.4624 H   0  0  0  0  0  0  0  0  0  0  0  0
    1.2327   -3.1364   -1.1923 C   0  0  0  0  0  0  0  0  0  0  0  0
    2.1124   -2.5886   -0.8684 H   0  0  0  0  0  0  0  0  0  0  0  0
   -1.2230    0.8272    0.4034 C   0  0  0  0  0  0  0  0  0  0  0  0
   -2.0752    1.3644   -0.2953 O   0  0  0  0  0  0  0  0  0  0  0  0
   -0.4595    1.5972    1.2614 N   0  0  0  0  0  0  0  0  0  0  0  0
    0.1909    1.1144    1.8752 H   0  0  0  0  0  0  0  0  0  0  0  0
   -0.6154    3.0404    1.3952 C   0  0  0  0  0  0  0  0  0  0  0  0
   -1.6309    3.2886    1.7213 H   0  0  0  0  0  0  0  0  0  0  0  0
    0.0901    3.4298    2.1356 H   0  0  0  0  0  0  0  0  0  0  0  0
   -0.4208    3.5365    0.4386 H   0  0  0  0  0  0  0  0  0  0  0  0
  1  2  1  0  0  0  0
  2  3  1  0  0  0  0
  2  4  1  0  0  0  0
  2  5  1  0  0  0  0
  5  6  2  0  0  0  0
  5  7  1  0  0  0  0
  7  8  1  0  0  0  0
  7  9  1  0  0  0  0
  9 10  1  0  0  0  0
  9 11  1  0  0  0  0
  9 26  1  0  0  0  0
 11 12  1  0  0  0  0
 11 13  1  0  0  0  0
 11 14  1  0  0  0  0
 14 15  2  0  0  0  0
 14 24  1  0  0  0  0
 15 16  1  0  0  0  0
 15 17  1  0  0  0  0
 17 18  1  0  0  0  0
 17 19  2  0  0  0  0
 19 20  1  0  0  0  0
 19 22  1  0  0  0  0
 20 21  1  0  0  0  0
 22 23  1  0  0  0  0
 22 24  2  0  0  0  0
 24 25  1  0  0  0  0
 26 27  2  0  0  0  0
 26 28  1  0  0  0  0
 28 29  1  0  0  0  0
 28 30  1  0  0  0  0
 30 31  1  0  0  0  0
 30 32  1  0  0  0  0
 30 33  1  0  0  0  0
M  END
$$$$

  -OEChem-04042216043D

 33 33  0     1  0  0  0  0  0999 V2000
   -4.0345   -4.0108    1.5800 H   0  0  0  0  0  0  0  0  0  0  0  0
   -3.9552   -3.1429    0.9194 C   0  0  0  0  0  0  0  0  0  0  0  0
   -4.7391   -2.4280    1.1803 H   0  0  0  0  0  0  0  0  0  0  0  0
   -4.0988   -3.4717   -0.1125 H   0  0  0  0  0  0  0  0  0  0  0  0
   -2.5915   -2.4955    1.0692 C   0  0  0  0  0  0  0  0  0  0  0  0
   -1.7919   -2.9446    1.8752 O   0  0  0  0  0  0  0  0  0  0  0  0
   -2.2785   -1.3848    0.3113 N   0  0  0  0  0  0  0  0  0  0  0  0
   -3.0143   -0.9822   -0.2654 H   0  0  0  0  0  0  0  0  0  0  0  0
   -0.9866   -0.6810    0.3446 C   0  0  1  0  0  0  0  0  0  0  0  0
   -0.4443   -0.9722    1.2497 H   0  0  0  0  0  0  0  0  0  0  0  0
   -0.0843   -1.0039   -0.8699 C   0  0  0  0  0  0  0  0  0  0  0  0
   -0.4691   -0.4679   -1.7444 H   0  0  0  0  0  0  0  0  0  0  0  0
    0.9201   -0.6142   -0.6760 H   0  0  0  0  0  0  0  0  0  0  0  0
    0.0011   -2.4715   -1.2380 C   0  0  0  0  0  0  0  0  0  0  0  0
   -1.0580   -3.1208   -1.8934 C   0  0  0  0  0  0  0  0  0  0  0  0
   -1.9448   -2.5595   -2.1706 H   0  0  0  0  0  0  0  0  0  0  0  0
   -0.9770   -4.4828   -2.2061 C   0  0  0  0  0  0  0  0  0  0  0  0
   -1.8016   -4.9633   -2.7208 H   0  0  0  0  0  0  0  0  0  0  0  0
    0.1605   -5.2142   -1.8594 C   0  0  0  0  0  0  0  0  0  0  0  0
    0.2506   -6.5432   -2.1576 O   0  0  0  0  0  0  0  0  0  0  0  0
   -0.5714   -6.8466   -2.5718 H   0  0  0  0  0  0  0  0  0  0  0  0
    1.2124   -4.5806   -1.2013 C   0  0  0  0  0  0  0  0  0  0  0  0
    2.0895   -5.1582   -0.9288 H   0  0  0  0  0  0  0  0  0  0  0  0
    1.1354   -3.2190   -0.8877 C   0  0  0  0  0  0  0  0  0  0  0  0
    1.9612   -2.7489   -0.3627 H   0  0  0  0  0  0  0  0  0  0  0  0
   -1.2074    0.8417    0.4034 C   0  0  0  0  0  0  0  0  0  0  0  0
   -2.0509    1.3638   -0.3170 O   0  0  0  0  0  0  0  0  0  0  0  0
   -0.4790    1.6261    1.2786 N   0  0  0  0  0  0  0  0  0  0  0  0
    0.1640    1.1555    1.9094 H   0  0  0  0  0  0  0  0  0  0  0  0
   -0.6721    3.0649    1.4129 C   0  0  0  0  0  0  0  0  0  0  0  0
   -1.6967    3.2867    1.7296 H   0  0  0  0  0  0  0  0  0  0  0  0
    0.0165    3.4705    2.1603 H   0  0  0  0  0  0  0  0  0  0  0  0
   -0.4808    3.5676    0.4588 H   0  0  0  0  0  0  0  0  0  0  0  0
  1  2  1  0  0  0  0
  2  3  1  0  0  0  0
  2  4  1  0  0  0  0
  2  5  1  0  0  0  0
  5  6  2  0  0  0  0
  5  7  1  0  0  0  0
  7  8  1  0  0  0  0
  7  9  1  0  0  0  0
  9 10  1  0  0  0  0
  9 11  1  0  0  0  0
  9 26  1  0  0  0  0
 11 12  1  0  0  0  0
 11 13  1  0  0  0  0
 11 14  1  0  0  0  0
 14 15  2  0  0  0  0
 14 24  1  0  0  0  0
 15 16  1  0  0  0  0
 15 17  1  0  0  0  0
 17 18  1  0  0  0  0
 17 19  2  0  0  0  0
 19 20  1  0  0  0  0
 19 22  1  0  0  0  0
 20 21  1  0  0  0  0
 22 23  1  0  0  0  0
 22 24  2  0  0  0  0
 24 25  1  0  0  0  0
 26 27  2  0  0  0  0
 26 28  1  0  0  0  0
 28 29  1  0  0  0  0
 28 30  1  0  0  0  0
 30 31  1  0  0  0  0
 30 32  1  0  0  0  0
 30 33  1  0  0  0  0
M  END
$$$$

  -OEChem-04042216043D

 33 33  0     1  0  0  0  0  0999 V2000
   -3.9254   -4.0895    1.4928 H   0  0  0  0  0  0  0  0  0  0  0  0
   -3.8628   -3.2123    0.8429 C   0  0  0  0  0  0  0  0  0  0  0  0
   -4.6811   -2.5315    1.0888 H   0  0  0  0  0  0  0  0  0  0  0  0
   -3.9651   -3.5363   -0.1954 H   0  0  0  0  0  0  0  0  0  0  0  0
   -2.5304   -2.5133    1.0361 C   0  0  0  0  0  0  0  0  0  0  0  0
   -1.7419   -2.9286    1.8713 O   0  0  0  0  0  0  0  0  0  0  0  0
   -2.2329   -1.3928    0.2866 N   0  0  0  0  0  0  0  0  0  0  0  0
   -2.9534   -1.0330   -0.3351 H   0  0  0  0  0  0  0  0  0  0  0  0
   -0.9550   -0.6640    0.3374 C   0  0  1  0  0  0  0  0  0  0  0  0
   -0.4089   -0.9526    1.2407 H   0  0  0  0  0  0  0  0  0  0  0  0
   -0.0643   -0.9813   -0.8832 C   0  0  0  0  0  0  0  0  0  0  0  0
   -0.4512   -0.4461   -1.7570 H   0  0  0  0  0  0  0  0  0  0  0  0
    0.9459   -0.6020   -0.6990 H   0  0  0  0  0  0  0  0  0  0  0  0
    0.0019   -2.4555   -1.2177 C   0  0  0  0  0  0  0  0  0  0  0  0
   -0.9211   -3.0292   -2.1065 C   0  0  0  0  0  0  0  0  0  0  0  0
   -1.6787   -2.4074   -2.5743 H   0  0  0  0  0  0  0  0  0  0  0  0
   -0.8715   -4.3977   -2.3973 C   0  0  0  0  0  0  0  0  0  0  0  0
   -1.5895   -4.8229   -3.0897 H   0  0  0  0  0  0  0  0  0  0  0  0
    0.0968   -5.2066   -1.7988 C   0  0  0  0  0  0  0  0  0  0  0  0
    0.1553   -6.5420   -2.0759 O   0  0  0  0  0  0  0  0  0  0  0  0
   -0.5501   -6.7847   -2.6947 H   0  0  0  0  0  0  0  0  0  0  0  0
    1.0096   -4.6451   -0.9082 C   0  0  0  0  0  0  0  0  0  0  0  0
    1.7523   -5.2821   -0.4395 H   0  0  0  0  0  0  0  0  0  0  0  0
    0.9641   -3.2777   -0.6141 C   0  0  0  0  0  0  0  0  0  0  0  0
    1.6740   -2.8604    0.0934 H   0  0  0  0  0  0  0  0  0  0  0  0
   -1.1949    0.8552    0.4015 C   0  0  0  0  0  0  0  0  0  0  0  0
   -2.0267    1.3731   -0.3353 O   0  0  0  0  0  0  0  0  0  0  0  0
   -0.4849    1.6432    1.2887 N   0  0  0  0  0  0  0  0  0  0  0  0
    0.1470    1.1752    1.9325 H   0  0  0  0  0  0  0  0  0  0  0  0
   -0.6954    3.0793    1.4258 C   0  0  0  0  0  0  0  0  0  0  0  0
   -1.7341    3.2897    1.7015 H   0  0  0  0  0  0  0  0  0  0  0  0
   -0.0419    3.4852    2.2041 H   0  0  0  0  0  0  0  0  0  0  0  0
   -0.4703    3.5910    0.4841 H   0  0  0  0  0  0  0  0  0  0  0  0
  1  2  1  0  0  0  0
  2  3  1  0  0  0  0
  2  4  1  0  0  0  0
  2  5  1  0  0  0  0
  5  6  2  0  0  0  0
  5  7  1  0  0  0  0
  7  8  1  0  0  0  0
  7  9  1  0  0  0  0
  9 10  1  0  0  0  0
  9 11  1  0  0  0  0
  9 26  1  0  0  0  0
 11 12  1  0  0  0  0
 11 13  1  0  0  0  0
 11 14  1  0  0  0  0
 14 15  2  0  0  0  0
 14 24  1  0  0  0  0
 15 16  1  0  0  0  0
 15 17  1  0  0  0  0
 17 18  1  0  0  0  0
 17 19  2  0  0  0  0
 19 20  1  0  0  0  0
 19 22  1  0  0  0  0
 20 21  1  0  0  0  0
 22 23  1  0  0  0  0
 22 24  2  0  0  0  0
 24 25  1  0  0  0  0
 26 27  2  0  0  0  0
 26 28  1  0  0  0  0
 28 29  1  0  0  0  0
 28 30  1  0  0  0  0
 30 31  1  0  0  0  0
 30 32  1  0  0  0  0
 30 33  1  0  0  0  0
M  END
$$$$

  -OEChem-04042216043D

 33 33  0     1  0  0  0  0  0999 V2000
   -3.8864   -4.1089    1.4714 H   0  0  0  0  0  0  0  0  0  0  0  0
   -3.8143   -3.2498    0.7986 C   0  0  0  0  0  0  0  0  0  0  0  0
   -4.6647   -2.5877    0.9778 H   0  0  0  0  0  0  0  0  0  0  0  0
   -3.8485   -3.6073   -0.2333 H   0  0  0  0  0  0  0  0  0  0  0  0
   -2.5160   -2.5047    1.0424 C   0  0  0  0  0  0  0  0  0  0  0  0
   -1.7540   -2.8816    1.9200 O   0  0  0  0  0  0  0  0  0  0  0  0
   -2.2188   -1.3870    0.2891 N   0  0  0  0  0  0  0  0  0  0  0  0
   -2.9117   -1.0734   -0.3864 H   0  0  0  0  0  0  0  0  0  0  0  0
   -0.9447   -0.6525    0.3479 C   0  0  1  0  0  0  0  0  0  0  0  0
   -0.3991   -0.9358    1.2534 H   0  0  0  0  0  0  0  0  0  0  0  0
   -0.0600   -0.9775   -0.8743 C   0  0  0  0  0  0  0  0  0  0  0  0
   -0.4466   -0.4412   -1.7477 H   0  0  0  0  0  0  0  0  0  0  0  0
    0.9547   -0.6079   -0.6943 H   0  0  0  0  0  0  0  0  0  0  0  0
   -0.0040   -2.4549   -1.1953 C   0  0  0  0  0  0  0  0  0  0  0  0
   -0.7133   -2.9731   -2.2900 C   0  0  0  0  0  0  0  0  0  0  0  0
   -1.2973   -2.3102   -2.9216 H   0  0  0  0  0  0  0  0  0  0  0  0
   -0.6740   -4.3424   -2.5777 C   0  0  0  0  0  0  0  0  0  0  0  0
   -1.2242   -4.7245   -3.4302 H   0  0  0  0  0  0  0  0  0  0  0  0
    0.0694   -5.2073   -1.7721 C   0  0  0  0  0  0  0  0  0  0  0  0
    0.1137   -6.5442   -2.0445 O   0  0  0  0  0  0  0  0  0  0  0  0
   -0.4202   -6.7410   -2.8291 H   0  0  0  0  0  0  0  0  0  0  0  0
    0.7702   -4.6997   -0.6799 C   0  0  0  0  0  0  0  0  0  0  0  0
    1.3383   -5.3786   -0.0526 H   0  0  0  0  0  0  0  0  0  0  0  0
    0.7357   -3.3315   -0.3886 C   0  0  0  0  0  0  0  0  0  0  0  0
    1.2734   -2.9567    0.4772 H   0  0  0  0  0  0  0  0  0  0  0  0
   -1.1867    0.8667    0.4026 C   0  0  0  0  0  0  0  0  0  0  0  0
   -2.0025    1.3848   -0.3518 O   0  0  0  0  0  0  0  0  0  0  0  0
   -0.4840    1.6566    1.2936 N   0  0  0  0  0  0  0  0  0  0  0  0
    0.1256    1.1871    1.9573 H   0  0  0  0  0  0  0  0  0  0  0  0
   -0.6964    3.0926    1.4265 C   0  0  0  0  0  0  0  0  0  0  0  0
   -1.7226    3.3000    1.7477 H   0  0  0  0  0  0  0  0  0  0  0  0
   -0.0096    3.5098    2.1692 H   0  0  0  0  0  0  0  0  0  0  0  0
   -0.5172    3.5960    0.4707 H   0  0  0  0  0  0  0  0  0  0  0  0
  1  2  1  0  0  0  0
  2  3  1  0  0  0  0
  2  4  1  0  0  0  0
  2  5  1  0  0  0  0
  5  6  2  0  0  0  0
  5  7  1  0  0  0  0
  7  8  1  0  0  0  0
  7  9  1  0  0  0  0
  9 10  1  0  0  0  0
  9 11  1  0  0  0  0
  9 26  1  0  0  0  0
 11 12  1  0  0  0  0
 11 13  1  0  0  0  0
 11 14  1  0  0  0  0
 14 15  2  0  0  0  0
 14 24  1  0  0  0  0
 15 16  1  0  0  0  0
 15 17  1  0  0  0  0
 17 18  1  0  0  0  0
 17 19  2  0  0  0  0
 19 20  1  0  0  0  0
 19 22  1  0  0  0  0
 20 21  1  0  0  0  0
 22 23  1  0  0  0  0
 22 24  2  0  0  0  0
 24 25  1  0  0  0  0
 26 27  2  0  0  0  0
 26 28  1  0  0  0  0
 28 29  1  0  0  0  0
 28 30  1  0  0  0  0
 30 31  1  0  0  0  0
 30 32  1  0  0  0  0
 30 33  1  0  0  0  0
M  END
$$$$

  -OEChem-04042216043D

 33 33  0     1  0  0  0  0  0999 V2000
   -3.9312   -4.0947    1.4874 H   0  0  0  0  0  0  0  0  0  0  0  0
   -3.8585   -3.2236    0.8303 C   0  0  0  0  0  0  0  0  0  0  0  0
   -4.7055   -2.5617    1.0264 H   0  0  0  0  0  0  0  0  0  0  0  0
   -3.9003   -3.5624   -0.2077 H   0  0  0  0  0  0  0  0  0  0  0  0
   -2.5561   -2.4874    1.0805 C   0  0  0  0  0  0  0  0  0  0  0  0
   -1.8140   -2.8512    1.9808 O   0  0  0  0  0  0  0  0  0  0  0  0
   -2.2374   -1.3837    0.3153 N   0  0  0  0  0  0  0  0  0  0  0  0
   -2.9124   -1.0846   -0.3845 H   0  0  0  0  0  0  0  0  0  0  0  0
   -0.9575   -0.6588    0.3771 C   0  0  1  0  0  0  0  0  0  0  0  0
   -0.4211   -0.9344    1.2903 H   0  0  0  0  0  0  0  0  0  0  0  0
   -0.0681   -0.9989   -0.8393 C   0  0  0  0  0  0  0  0  0  0  0  0
   -0.4462   -0.4579   -1.7137 H   0  0  0  0  0  0  0  0  0  0  0  0
    0.9477   -0.6363   -0.6518 H   0  0  0  0  0  0  0  0  0  0  0  0
   -0.0090   -2.4761   -1.1672 C   0  0  0  0  0  0  0  0  0  0  0  0
   -0.4385   -2.9408   -2.4203 C   0  0  0  0  0  0  0  0  0  0  0  0
   -0.8213   -2.2429   -3.1592 H   0  0  0  0  0  0  0  0  0  0  0  0
   -0.3807   -4.3045   -2.7314 C   0  0  0  0  0  0  0  0  0  0  0  0
   -0.7183   -4.6443   -3.7044 H   0  0  0  0  0  0  0  0  0  0  0  0
    0.1093   -5.2175   -1.7956 C   0  0  0  0  0  0  0  0  0  0  0  0
    0.1668   -6.5496   -2.0880 O   0  0  0  0  0  0  0  0  0  0  0  0
   -0.1610   -6.7073   -2.9864 H   0  0  0  0  0  0  0  0  0  0  0  0
    0.5433   -4.7628   -0.5523 C   0  0  0  0  0  0  0  0  0  0  0  0
    0.9185   -5.4774    0.1730 H   0  0  0  0  0  0  0  0  0  0  0  0
    0.4903   -3.4008   -0.2373 C   0  0  0  0  0  0  0  0  0  0  0  0
    0.8219   -3.0697    0.7425 H   0  0  0  0  0  0  0  0  0  0  0  0
   -1.1901    0.8632    0.4065 C   0  0  0  0  0  0  0  0  0  0  0  0
   -1.9908    1.3764   -0.3672 O   0  0  0  0  0  0  0  0  0  0  0  0
   -0.4920    1.6622    1.2931 N   0  0  0  0  0  0  0  0  0  0  0  0
    0.1147    1.2007    1.9650 H   0  0  0  0  0  0  0  0  0  0  0  0
   -0.6858    3.1036    1.3916 C   0  0  0  0  0  0  0  0  0  0  0  0
   -1.7240    3.3340    1.6530 H   0  0  0  0  0  0  0  0  0  0  0  0
   -0.0335    3.5209    2.1647 H   0  0  0  0  0  0  0  0  0  0  0  0
   -0.4459    3.5873    0.4389 H   0  0  0  0  0  0  0  0  0  0  0  0
  1  2  1  0  0  0  0
  2  3  1  0  0  0  0
  2  4  1  0  0  0  0
  2  5  1  0  0  0  0
  5  6  2  0  0  0  0
  5  7  1  0  0  0  0
  7  8  1  0  0  0  0
  7  9  1  0  0  0  0
  9 10  1  0  0  0  0
  9 11  1  0  0  0  0
  9 26  1  0  0  0  0
 11 12  1  0  0  0  0
 11 13  1  0  0  0  0
 11 14  1  0  0  0  0
 14 15  2  0  0  0  0
 14 24  1  0  0  0  0
 15 16  1  0  0  0  0
 15 17  1  0  0  0  0
 17 18  1  0  0  0  0
 17 19  2  0  0  0  0
 19 20  1  0  0  0  0
 19 22  1  0  0  0  0
 20 21  1  0  0  0  0
 22 23  1  0  0  0  0
 22 24  2  0  0  0  0
 24 25  1  0  0  0  0
 26 27  2  0  0  0  0
 26 28  1  0  0  0  0
 28 29  1  0  0  0  0
 28 30  1  0  0  0  0
 30 31  1  0  0  0  0
 30 32  1  0  0  0  0
 30 33  1  0  0  0  0
M  END
$$$$

  -OEChem-04042216043D

 33 33  0     1  0  0  0  0  0999 V2000
   -4.0158   -4.0510    1.5163 H   0  0  0  0  0  0  0  0  0  0  0  0
   -3.9255   -3.1836    0.8567 C   0  0  0  0  0  0  0  0  0  0  0  0
   -4.7779   -2.5210    1.0245 H   0  0  0  0  0  0  0  0  0  0  0  0
   -3.9377   -3.5285   -0.1800 H   0  0  0  0  0  0  0  0  0  0  0  0
   -2.6313   -2.4451    1.1394 C   0  0  0  0  0  0  0  0  0  0  0  0
   -1.9318   -2.7810    2.0835 O   0  0  0  0  0  0  0  0  0  0  0  0
   -2.2752   -1.3660    0.3564 N   0  0  0  0  0  0  0  0  0  0  0  0
   -2.9198   -1.0918   -0.3816 H   0  0  0  0  0  0  0  0  0  0  0  0
   -0.9816   -0.6639    0.4143 C   0  0  1  0  0  0  0  0  0  0  0  0
   -0.4550   -0.9314    1.3358 H   0  0  0  0  0  0  0  0  0  0  0  0
   -0.0922   -1.0336   -0.7967 C   0  0  0  0  0  0  0  0  0  0  0  0
   -0.4638   -0.4924   -1.6735 H   0  0  0  0  0  0  0  0  0  0  0  0
    0.9259   -0.6786   -0.6081 H   0  0  0  0  0  0  0  0  0  0  0  0
   -0.0321   -2.5096   -1.1384 C   0  0  0  0  0  0  0  0  0  0  0  0
   -0.1505   -2.9219   -2.4756 C   0  0  0  0  0  0  0  0  0  0  0  0
   -0.3196   -2.1886   -3.2591 H   0  0  0  0  0  0  0  0  0  0  0  0
   -0.0604   -4.2769   -2.8160 C   0  0  0  0  0  0  0  0  0  0  0  0
   -0.1666   -4.5737   -3.8537 H   0  0  0  0  0  0  0  0  0  0  0  0
    0.1676   -5.2352   -1.8269 C   0  0  0  0  0  0  0  0  0  0  0  0
    0.2531   -6.5594   -2.1470 O   0  0  0  0  0  0  0  0  0  0  0  0
    0.1462   -6.6782   -3.1031 H   0  0  0  0  0  0  0  0  0  0  0  0
    0.3173   -4.8327   -0.5019 C   0  0  0  0  0  0  0  0  0  0  0  0
    0.5033   -5.5796    0.2632 H   0  0  0  0  0  0  0  0  0  0  0  0
    0.2315   -3.4796   -0.1578 C   0  0  0  0  0  0  0  0  0  0  0  0
    0.3631   -3.1924    0.8816 H   0  0  0  0  0  0  0  0  0  0  0  0
   -1.1890    0.8626    0.4067 C   0  0  0  0  0  0  0  0  0  0  0  0
   -1.9733    1.3725   -0.3859 O   0  0  0  0  0  0  0  0  0  0  0  0
   -0.4855    1.6691    1.2822 N   0  0  0  0  0  0  0  0  0  0  0  0
    0.1032    1.2114    1.9726 H   0  0  0  0  0  0  0  0  0  0  0  0
   -0.6622    3.1142    1.3542 C   0  0  0  0  0  0  0  0  0  0  0  0
   -1.6992    3.3620    1.6048 H   0  0  0  0  0  0  0  0  0  0  0  0
   -0.0098    3.5367    2.1243 H   0  0  0  0  0  0  0  0  0  0  0  0
   -0.4100    3.5787    0.3950 H   0  0  0  0  0  0  0  0  0  0  0  0
  1  2  1  0  0  0  0
  2  3  1  0  0  0  0
  2  4  1  0  0  0  0
  2  5  1  0  0  0  0
  5  6  2  0  0  0  0
  5  7  1  0  0  0  0
  7  8  1  0  0  0  0
  7  9  1  0  0  0  0
  9 10  1  0  0  0  0
  9 11  1  0  0  0  0
  9 26  1  0  0  0  0
 11 12  1  0  0  0  0
 11 13  1  0  0  0  0
 11 14  1  0  0  0  0
 14 15  2  0  0  0  0
 14 24  1  0  0  0  0
 15 16  1  0  0  0  0
 15 17  1  0  0  0  0
 17 18  1  0  0  0  0
 17 19  2  0  0  0  0
 19 20  1  0  0  0  0
 19 22  1  0  0  0  0
 20 21  1  0  0  0  0
 22 23  1  0  0  0  0
 22 24  2  0  0  0  0
 24 25  1  0  0  0  0
 26 27  2  0  0  0  0
 26 28  1  0  0  0  0
 28 29  1  0  0  0  0
 28 30  1  0  0  0  0
 30 31  1  0  0  0  0
 30 32  1  0  0  0  0
 30 33  1  0  0  0  0
M  END
$$$$

  -OEChem-04042216043D

 33 33  0     1  0  0  0  0  0999 V2000
   -4.1927   -3.9362    1.6060 H   0  0  0  0  0  0  0  0  0  0  0  0
   -4.0363   -3.1182    0.8974 C   0  0  0  0  0  0  0  0  0  0  0  0
   -4.8760   -2.4229    0.9693 H   0  0  0  0  0  0  0  0  0  0  0  0
   -3.9980   -3.5317   -0.1133 H   0  0  0  0  0  0  0  0  0  0  0  0
   -2.7385   -2.3969    1.2074 C   0  0  0  0  0  0  0  0  0  0  0  0
   -2.0867   -2.7099    2.1923 O   0  0  0  0  0  0  0  0  0  0  0  0
   -2.3336   -1.3481    0.4077 N   0  0  0  0  0  0  0  0  0  0  0  0
   -2.9518   -1.0885   -0.3577 H   0  0  0  0  0  0  0  0  0  0  0  0
   -1.0215   -0.6781    0.4551 C   0  0  1  0  0  0  0  0  0  0  0  0
   -0.5028   -0.9429    1.3816 H   0  0  0  0  0  0  0  0  0  0  0  0
   -0.1359   -1.0772   -0.7539 C   0  0  0  0  0  0  0  0  0  0  0  0
   -0.5014   -0.5335   -1.6322 H   0  0  0  0  0  0  0  0  0  0  0  0
    0.8846   -0.7293   -0.5634 H   0  0  0  0  0  0  0  0  0  0  0  0
   -0.0724   -2.5483   -1.1228 C   0  0  0  0  0  0  0  0  0  0  0  0
    0.1320   -2.9066   -2.4657 C   0  0  0  0  0  0  0  0  0  0  0  0
    0.1641   -2.1384   -3.2330 H   0  0  0  0  0  0  0  0  0  0  0  0
    0.2751   -4.2486   -2.8385 C   0  0  0  0  0  0  0  0  0  0  0  0
    0.4050   -4.5002   -3.8853 H   0  0  0  0  0  0  0  0  0  0  0  0
    0.2579   -5.2511   -1.8679 C   0  0  0  0  0  0  0  0  0  0  0  0
    0.3957   -6.5636   -2.2171 O   0  0  0  0  0  0  0  0  0  0  0  0
    0.5045   -6.6428   -3.1770 H   0  0  0  0  0  0  0  0  0  0  0  0
    0.1222   -4.9034   -0.5267 C   0  0  0  0  0  0  0  0  0  0  0  0
    0.1403   -5.6822    0.2290 H   0  0  0  0  0  0  0  0  0  0  0  0
   -0.0186   -3.5631   -0.1528 C   0  0  0  0  0  0  0  0  0  0  0  0
   -0.0667   -3.3235    0.9039 H   0  0  0  0  0  0  0  0  0  0  0  0
   -1.1929    0.8530    0.4088 C   0  0  0  0  0  0  0  0  0  0  0  0
   -1.9591    1.3642   -0.4006 O   0  0  0  0  0  0  0  0  0  0  0  0
   -0.4737    1.6624    1.2685 N   0  0  0  0  0  0  0  0  0  0  0  0
    0.0946    1.2068    1.9772 H   0  0  0  0  0  0  0  0  0  0  0  0
   -0.6167    3.1126    1.3067 C   0  0  0  0  0  0  0  0  0  0  0  0
   -1.6408    3.3903    1.5771 H   0  0  0  0  0  0  0  0  0  0  0  0
    0.0655    3.5399    2.0478 H   0  0  0  0  0  0  0  0  0  0  0  0
   -0.3802    3.5473    0.3298 H   0  0  0  0  0  0  0  0  0  0  0  0
  1  2  1  0  0  0  0
  2  3  1  0  0  0  0
  2  4  1  0  0  0  0
  2  5  1  0  0  0  0
  5  6  2  0  0  0  0
  5  7  1  0  0  0  0
  7  8  1  0  0  0  0
  7  9  1  0  0  0  0
  9 10  1  0  0  0  0
  9 11  1  0  0  0  0
  9 26  1  0  0  0  0
 11 12  1  0  0  0  0
 11 13  1  0  0  0  0
 11 14  1  0  0  0  0
 14 15  2  0  0  0  0
 14 24  1  0  0  0  0
 15 16  1  0  0  0  0
 15 17  1  0  0  0  0
 17 18  1  0  0  0  0
 17 19  2  0  0  0  0
 19 20  1  0  0  0  0
 19 22  1  0  0  0  0
 20 21  1  0  0  0  0
 22 23  1  0  0  0  0
 22 24  2  0  0  0  0
 24 25  1  0  0  0  0
 26 27  2  0  0  0  0
 26 28  1  0  0  0  0
 28 29  1  0  0  0  0
 28 30  1  0  0  0  0
 30 31  1  0  0  0  0
 30 32  1  0  0  0  0
 30 33  1  0  0  0  0
M  END
$$$$

  -OEChem-04042216043D

 33 33  0     1  0  0  0  0  0999 V2000
   -4.3250   -3.8308    1.7767 H   0  0  0  0  0  0  0  0  0  0  0  0
   -4.1451   -3.0429    1.0400 C   0  0  0  0  0  0  0  0  0  0  0  0
   -4.9634   -2.3204    1.0881 H   0  0  0  0  0  0  0  0  0  0  0  0
   -4.1223   -3.4915    0.0438 H   0  0  0  0  0  0  0  0  0  0  0  0
   -2.8251   -2.3516    1.3242 C   0  0  0  0  0  0  0  0  0  0  0  0
   -2.1835   -2.6466    2.3210 O   0  0  0  0  0  0  0  0  0  0  0  0
   -2.3919   -1.3397    0.4934 N   0  0  0  0  0  0  0  0  0  0  0  0
   -3.0112   -1.0846   -0.2729 H   0  0  0  0  0  0  0  0  0  0  0  0
   -1.0604   -0.7047    0.4973 C   0  0  1  0  0  0  0  0  0  0  0  0
   -0.5317   -0.9612    1.4206 H   0  0  0  0  0  0  0  0  0  0  0  0
   -0.1921   -1.1279   -0.7211 C   0  0  0  0  0  0  0  0  0  0  0  0
   -0.5666   -0.5835   -1.5954 H   0  0  0  0  0  0  0  0  0  0  0  0
    0.8290   -0.7775   -0.5388 H   0  0  0  0  0  0  0  0  0  0  0  0
   -0.1087   -2.5878   -1.1348 C   0  0  0  0  0  0  0  0  0  0  0  0
    0.4048   -2.8780   -2.4105 C   0  0  0  0  0  0  0  0  0  0  0  0
    0.6270   -2.0675   -3.0988 H   0  0  0  0  0  0  0  0  0  0  0  0
    0.6086   -4.1982   -2.8283 C   0  0  0  0  0  0  0  0  0  0  0  0
    0.9729   -4.3901   -3.8314 H   0  0  0  0  0  0  0  0  0  0  0  0
    0.3544   -5.2549   -1.9548 C   0  0  0  0  0  0  0  0  0  0  0  0
    0.5469   -6.5477   -2.3483 O   0  0  0  0  0  0  0  0  0  0  0  0
    0.8306   -6.5743   -3.2750 H   0  0  0  0  0  0  0  0  0  0  0  0
   -0.0692   -4.9809   -0.6580 C   0  0  0  0  0  0  0  0  0  0  0  0
   -0.2193   -5.8021    0.0354 H   0  0  0  0  0  0  0  0  0  0  0  0
   -0.2708   -3.6605   -0.2421 C   0  0  0  0  0  0  0  0  0  0  0  0
   -0.5107   -3.4903    0.7981 H   0  0  0  0  0  0  0  0  0  0  0  0
   -1.2028    0.8283    0.4088 C   0  0  0  0  0  0  0  0  0  0  0  0
   -1.9804    1.3320   -0.3945 O   0  0  0  0  0  0  0  0  0  0  0  0
   -0.4513    1.6480    1.2309 N   0  0  0  0  0  0  0  0  0  0  0  0
    0.1231    1.2016    1.9405 H   0  0  0  0  0  0  0  0  0  0  0  0
   -0.5702    3.1011    1.2336 C   0  0  0  0  0  0  0  0  0  0  0  0
   -1.5831    3.4016    1.5216 H   0  0  0  0  0  0  0  0  0  0  0  0
    0.1368    3.5374    1.9458 H   0  0  0  0  0  0  0  0  0  0  0  0
   -0.3511    3.5055    0.2397 H   0  0  0  0  0  0  0  0  0  0  0  0
  1  2  1  0  0  0  0
  2  3  1  0  0  0  0
  2  4  1  0  0  0  0
  2  5  1  0  0  0  0
  5  6  2  0  0  0  0
  5  7  1  0  0  0  0
  7  8  1  0  0  0  0
  7  9  1  0  0  0  0
  9 10  1  0  0  0  0
  9 11  1  0  0  0  0
  9 26  1  0  0  0  0
 11 12  1  0  0  0  0
 11 13  1  0  0  0  0
 11 14  1  0  0  0  0
 14 15  2  0  0  0  0
 14 24  1  0  0  0  0
 15 16  1  0  0  0  0
 15 17  1  0  0  0  0
 17 18  1  0  0  0  0
 17 19  2  0  0  0  0
 19 20  1  0  0  0  0
 19 22  1  0  0  0  0
 20 21  1  0  0  0  0
 22 23  1  0  0  0  0
 22 24  2  0  0  0  0
 24 25  1  0  0  0  0
 26 27  2  0  0  0  0
 26 28  1  0  0  0  0
 28 29  1  0  0  0  0
 28 30  1  0  0  0  0
 30 31  1  0  0  0  0
 30 32  1  0  0  0  0
 30 33  1  0  0  0  0
M  END
$$$$

  -OEChem-04042216043D

 33 33  0     1  0  0  0  0  0999 V2000
   -4.5174   -3.5090    2.3183 H   0  0  0  0  0  0  0  0  0  0  0  0
   -4.3740   -2.7415    1.5525 C   0  0  0  0  0  0  0  0  0  0  0  0
   -5.0188   -1.8899    1.7827 H   0  0  0  0  0  0  0  0  0  0  0  0
   -4.6600   -3.1545    0.5821 H   0  0  0  0  0  0  0  0  0  0  0  0
   -2.9231   -2.2989    1.5199 C   0  0  0  0  0  0  0  0  0  0  0  0
   -2.1187   -2.7886    2.2967 O   0  0  0  0  0  0  0  0  0  0  0  0
   -2.5218   -1.3314    0.6208 N   0  0  0  0  0  0  0  0  0  0  0  0
   -3.2437   -0.9026    0.0436 H   0  0  0  0  0  0  0  0  0  0  0  0
   -1.1614   -0.7801    0.4924 C   0  0  1  0  0  0  0  0  0  0  0  0
   -0.6077   -1.0197    1.4057 H   0  0  0  0  0  0  0  0  0  0  0  0
   -0.2880   -1.2401   -0.7206 C   0  0  0  0  0  0  0  0  0  0  0  0
   -0.4759   -0.5270   -1.5315 H   0  0  0  0  0  0  0  0  0  0  0  0
    0.7547   -1.1015   -0.4162 H   0  0  0  0  0  0  0  0  0  0  0  0
   -0.3707   -2.6013   -1.4065 C   0  0  0  0  0  0  0  0  0  0  0  0
    0.5136   -2.7927   -2.4847 C   0  0  0  0  0  0  0  0  0  0  0  0
    1.1633   -1.9804   -2.7983 H   0  0  0  0  0  0  0  0  0  0  0  0
    0.5712   -4.0049   -3.1811 C   0  0  0  0  0  0  0  0  0  0  0  0
    1.2546   -4.1094   -4.0165 H   0  0  0  0  0  0  0  0  0  0  0  0
   -0.2438   -5.0679   -2.7988 C   0  0  0  0  0  0  0  0  0  0  0  0
   -0.2006   -6.2572   -3.4673 O   0  0  0  0  0  0  0  0  0  0  0  0
    0.4485   -6.2100   -4.1856 H   0  0  0  0  0  0  0  0  0  0  0  0
   -1.0986   -4.9135   -1.7131 C   0  0  0  0  0  0  0  0  0  0  0  0
   -1.7143   -5.7515   -1.4034 H   0  0  0  0  0  0  0  0  0  0  0  0
   -1.1546   -3.7012   -1.0159 C   0  0  0  0  0  0  0  0  0  0  0  0
   -1.8049   -3.6715   -0.1613 H   0  0  0  0  0  0  0  0  0  0  0  0
   -1.2652    0.7554    0.3798 C   0  0  0  0  0  0  0  0  0  0  0  0
   -2.1257    1.2667   -0.3286 O   0  0  0  0  0  0  0  0  0  0  0  0
   -0.4181    1.5681    1.1106 N   0  0  0  0  0  0  0  0  0  0  0  0
    0.2339    1.1182    1.7471 H   0  0  0  0  0  0  0  0  0  0  0  0
   -0.4913    3.0240    1.0897 C   0  0  0  0  0  0  0  0  0  0  0  0
   -1.4618    3.3647    1.4653 H   0  0  0  0  0  0  0  0  0  0  0  0
    0.2940    3.4509    1.7209 H   0  0  0  0  0  0  0  0  0  0  0  0
   -0.3561    3.3996    0.0699 H   0  0  0  0  0  0  0  0  0  0  0  0
  1  2  1  0  0  0  0
  2  3  1  0  0  0  0
  2  4  1  0  0  0  0
  2  5  1  0  0  0  0
  5  6  2  0  0  0  0
  5  7  1  0  0  0  0
  7  8  1  0  0  0  0
  7  9  1  0  0  0  0
  9 10  1  0  0  0  0
  9 11  1  0  0  0  0
  9 26  1  0  0  0  0
 11 12  1  0  0  0  0
 11 13  1  0  0  0  0
 11 14  1  0  0  0  0
 14 15  2  0  0  0  0
 14 24  1  0  0  0  0
 15 16  1  0  0  0  0
 15 17  1  0  0  0  0
 17 18  1  0  0  0  0
 17 19  2  0  0  0  0
 19 20  1  0  0  0  0
 19 22  1  0  0  0  0
 20 21  1  0  0  0  0
 22 23  1  0  0  0  0
 22 24  2  0  0  0  0
 24 25  1  0  0  0  0
 26 27  2  0  0  0  0
 26 28  1  0  0  0  0
 28 29  1  0  0  0  0
 28 30  1  0  0  0  0
 30 31  1  0  0  0  0
 30 32  1  0  0  0  0
 30 33  1  0  0  0  0
M  END
$$$$

  -OEChem-04042216043D

 33 33  0     1  0  0  0  0  0999 V2000
   -4.5106   -3.5473    2.1999 H   0  0  0  0  0  0  0  0  0  0  0  0
   -4.3832   -2.7127    1.5046 C   0  0  0  0  0  0  0  0  0  0  0  0
   -4.9978   -1.8748    1.8428 H   0  0  0  0  0  0  0  0  0  0  0  0
   -4.7202   -3.0261    0.5136 H   0  0  0  0  0  0  0  0  0  0  0  0
   -2.9255   -2.2961    1.4496 C   0  0  0  0  0  0  0  0  0  0  0  0
   -2.1139   -2.8250    2.1921 O   0  0  0  0  0  0  0  0  0  0  0  0
   -2.5296   -1.3109    0.5657 N   0  0  0  0  0  0  0  0  0  0  0  0
   -3.2556   -0.8359    0.0313 H   0  0  0  0  0  0  0  0  0  0  0  0
   -1.1672   -0.7672    0.4652 C   0  0  1  0  0  0  0  0  0  0  0  0
   -0.6409   -1.0143    1.3925 H   0  0  0  0  0  0  0  0  0  0  0  0
   -0.2568   -1.2484   -0.7076 C   0  0  0  0  0  0  0  0  0  0  0  0
   -0.4159   -0.5517   -1.5384 H   0  0  0  0  0  0  0  0  0  0  0  0
    0.7743   -1.1038   -0.3687 H   0  0  0  0  0  0  0  0  0  0  0  0
   -0.3356   -2.6285   -1.3602 C   0  0  0  0  0  0  0  0  0  0  0  0
    0.7660   -2.9898   -2.1587 C   0  0  0  0  0  0  0  0  0  0  0  0
    1.6161   -2.3188   -2.2399 H   0  0  0  0  0  0  0  0  0  0  0  0
    0.8060   -4.2056   -2.8501 C   0  0  0  0  0  0  0  0  0  0  0  0
    1.6795   -4.4561   -3.4418 H   0  0  0  0  0  0  0  0  0  0  0  0
   -0.2729   -5.0837   -2.7798 C   0  0  0  0  0  0  0  0  0  0  0  0
   -0.2510   -6.2724   -3.4506 O   0  0  0  0  0  0  0  0  0  0  0  0
    0.5945   -6.3756   -3.9135 H   0  0  0  0  0  0  0  0  0  0  0  0
   -1.3889   -4.7315   -2.0292 C   0  0  0  0  0  0  0  0  0  0  0  0
   -2.2341   -5.4107   -1.9939 H   0  0  0  0  0  0  0  0  0  0  0  0
   -1.4301   -3.5151   -1.3379 C   0  0  0  0  0  0  0  0  0  0  0  0
   -2.3459   -3.2980   -0.8157 H   0  0  0  0  0  0  0  0  0  0  0  0
   -1.2466    0.7703    0.3784 C   0  0  0  0  0  0  0  0  0  0  0  0
   -2.0987    1.3039   -0.3232 O   0  0  0  0  0  0  0  0  0  0  0  0
   -0.3978    1.5578    1.1347 N   0  0  0  0  0  0  0  0  0  0  0  0
    0.2427    1.0863    1.7674 H   0  0  0  0  0  0  0  0  0  0  0  0
   -0.4717    3.0135    1.1627 C   0  0  0  0  0  0  0  0  0  0  0  0
   -1.4505    3.3402    1.5291 H   0  0  0  0  0  0  0  0  0  0  0  0
    0.2990    3.4186    1.8254 H   0  0  0  0  0  0  0  0  0  0  0  0
   -0.3152    3.4248    0.1599 H   0  0  0  0  0  0  0  0  0  0  0  0
  1  2  1  0  0  0  0
  2  3  1  0  0  0  0
  2  4  1  0  0  0  0
  2  5  1  0  0  0  0
  5  6  2  0  0  0  0
  5  7  1  0  0  0  0
  7  8  1  0  0  0  0
  7  9  1  0  0  0  0
  9 10  1  0  0  0  0
  9 11  1  0  0  0  0
  9 26  1  0  0  0  0
 11 12  1  0  0  0  0
 11 13  1  0  0  0  0
 11 14  1  0  0  0  0
 14 15  2  0  0  0  0
 14 24  1  0  0  0  0
 15 16  1  0  0  0  0
 15 17  1  0  0  0  0
 17 18  1  0  0  0  0
 17 19  2  0  0  0  0
 19 20  1  0  0  0  0
 19 22  1  0  0  0  0
 20 21  1  0  0  0  0
 22 23  1  0  0  0  0
 22 24  2  0  0  0  0
 24 25  1  0  0  0  0
 26 27  2  0  0  0  0
 26 28  1  0  0  0  0
 28 29  1  0  0  0  0
 28 30  1  0  0  0  0
 30 31  1  0  0  0  0
 30 32  1  0  0  0  0
 30 33  1  0  0  0  0
M  END
$$$$

  -OEChem-04042216043D

 33 33  0     1  0  0  0  0  0999 V2000
   -4.3568   -3.6695    2.1421 H   0  0  0  0  0  0  0  0  0  0  0  0
   -4.2538   -2.8557    1.4188 C   0  0  0  0  0  0  0  0  0  0  0  0
   -4.9267   -2.0434    1.7036 H   0  0  0  0  0  0  0  0  0  0  0  0
   -4.5374   -3.2260    0.4307 H   0  0  0  0  0  0  0  0  0  0  0  0
   -2.8209   -2.3577    1.3935 C   0  0  0  0  0  0  0  0  0  0  0  0
   -1.9923   -2.8547    2.1396 O   0  0  0  0  0  0  0  0  0  0  0  0
   -2.4707   -1.3296    0.5403 N   0  0  0  0  0  0  0  0  0  0  0  0
   -3.2167   -0.8738    0.0172 H   0  0  0  0  0  0  0  0  0  0  0  0
   -1.1297   -0.7366    0.4443 C   0  0  1  0  0  0  0  0  0  0  0  0
   -0.5865   -0.9930    1.3593 H   0  0  0  0  0  0  0  0  0  0  0  0
   -0.2309   -1.1909   -0.7448 C   0  0  0  0  0  0  0  0  0  0  0  0
   -0.4196   -0.5046   -1.5778 H   0  0  0  0  0  0  0  0  0  0  0  0
    0.8063   -1.0299   -0.4340 H   0  0  0  0  0  0  0  0  0  0  0  0
   -0.3445   -2.5868   -1.3543 C   0  0  0  0  0  0  0  0  0  0  0  0
    0.8261   -3.1420   -1.9042 C   0  0  0  0  0  0  0  0  0  0  0  0
    1.7726   -2.6191   -1.8041 H   0  0  0  0  0  0  0  0  0  0  0  0
    0.8115   -4.3753   -2.5657 C   0  0  0  0  0  0  0  0  0  0  0  0
    1.7383   -4.7853   -2.9517 H   0  0  0  0  0  0  0  0  0  0  0  0
   -0.3880   -5.0639   -2.7333 C   0  0  0  0  0  0  0  0  0  0  0  0
   -0.4189   -6.2680   -3.3756 O   0  0  0  0  0  0  0  0  0  0  0  0
    0.4811   -6.5417   -3.6099 H   0  0  0  0  0  0  0  0  0  0  0  0
   -1.5685   -4.4996   -2.2629 C   0  0  0  0  0  0  0  0  0  0  0  0
   -2.5042   -5.0223   -2.4304 H   0  0  0  0  0  0  0  0  0  0  0  0
   -1.5543   -3.2656   -1.6032 C   0  0  0  0  0  0  0  0  0  0  0  0
   -2.5123   -2.8481   -1.3298 H   0  0  0  0  0  0  0  0  0  0  0  0
   -1.2463    0.7993    0.4087 C   0  0  0  0  0  0  0  0  0  0  0  0
   -2.1112    1.3319   -0.2774 O   0  0  0  0  0  0  0  0  0  0  0  0
   -0.4105    1.5852    1.1808 N   0  0  0  0  0  0  0  0  0  0  0  0
    0.2452    1.1121    1.7963 H   0  0  0  0  0  0  0  0  0  0  0  0
   -0.5114    3.0384    1.2423 C   0  0  0  0  0  0  0  0  0  0  0  0
   -1.5000    3.3396    1.6046 H   0  0  0  0  0  0  0  0  0  0  0  0
    0.2442    3.4414    1.9236 H   0  0  0  0  0  0  0  0  0  0  0  0
   -0.3509    3.4755    0.2511 H   0  0  0  0  0  0  0  0  0  0  0  0
  1  2  1  0  0  0  0
  2  3  1  0  0  0  0
  2  4  1  0  0  0  0
  2  5  1  0  0  0  0
  5  6  2  0  0  0  0
  5  7  1  0  0  0  0
  7  8  1  0  0  0  0
  7  9  1  0  0  0  0
  9 10  1  0  0  0  0
  9 11  1  0  0  0  0
  9 26  1  0  0  0  0
 11 12  1  0  0  0  0
 11 13  1  0  0  0  0
 11 14  1  0  0  0  0
 14 15  2  0  0  0  0
 14 24  1  0  0  0  0
 15 16  1  0  0  0  0
 15 17  1  0  0  0  0
 17 18  1  0  0  0  0
 17 19  2  0  0  0  0
 19 20  1  0  0  0  0
 19 22  1  0  0  0  0
 20 21  1  0  0  0  0
 22 23  1  0  0  0  0
 22 24  2  0  0  0  0
 24 25  1  0  0  0  0
 26 27  2  0  0  0  0
 26 28  1  0  0  0  0
 28 29  1  0  0  0  0
 28 30  1  0  0  0  0
 30 31  1  0  0  0  0
 30 32  1  0  0  0  0
 30 33  1  0  0  0  0
M  END
$$$$

  -OEChem-04042216043D

 33 33  0     1  0  0  0  0  0999 V2000
   -4.2382   -3.8041    1.9897 H   0  0  0  0  0  0  0  0  0  0  0  0
   -4.1479   -2.9818    1.2745 C   0  0  0  0  0  0  0  0  0  0  0  0
   -4.8738   -2.2074    1.5334 H   0  0  0  0  0  0  0  0  0  0  0  0
   -4.3690   -3.3606    0.2738 H   0  0  0  0  0  0  0  0  0  0  0  0
   -2.7434   -2.4099    1.3100 C   0  0  0  0  0  0  0  0  0  0  0  0
   -1.9144   -2.8808    2.0731 O   0  0  0  0  0  0  0  0  0  0  0  0
   -2.4181   -1.3498    0.4873 N   0  0  0  0  0  0  0  0  0  0  0  0
   -3.1689   -0.9198   -0.0495 H   0  0  0  0  0  0  0  0  0  0  0  0
   -1.0955   -0.7106    0.4226 C   0  0  1  0  0  0  0  0  0  0  0  0
   -0.5498   -0.9749    1.3338 H   0  0  0  0  0  0  0  0  0  0  0  0
   -0.1972   -1.1326   -0.7744 C   0  0  0  0  0  0  0  0  0  0  0  0
   -0.4009   -0.4500   -1.6066 H   0  0  0  0  0  0  0  0  0  0  0  0
    0.8443   -0.9680   -0.4804 H   0  0  0  0  0  0  0  0  0  0  0  0
   -0.3460   -2.5364   -1.3460 C   0  0  0  0  0  0  0  0  0  0  0  0
    0.8148   -3.2800   -1.6220 C   0  0  0  0  0  0  0  0  0  0  0  0
    1.7881   -2.8950   -1.3329 H   0  0  0  0  0  0  0  0  0  0  0  0
    0.7424   -4.5315   -2.2455 C   0  0  0  0  0  0  0  0  0  0  0  0
    1.6529   -5.0946   -2.4181 H   0  0  0  0  0  0  0  0  0  0  0  0
   -0.4909   -5.0429   -2.6492 C   0  0  0  0  0  0  0  0  0  0  0  0
   -0.5765   -6.2615   -3.2583 O   0  0  0  0  0  0  0  0  0  0  0  0
    0.2983   -6.6783   -3.2900 H   0  0  0  0  0  0  0  0  0  0  0  0
   -1.6426   -4.2877   -2.4507 C   0  0  0  0  0  0  0  0  0  0  0  0
   -2.5938   -4.6740   -2.8015 H   0  0  0  0  0  0  0  0  0  0  0  0
   -1.5710   -3.0375   -1.8269 C   0  0  0  0  0  0  0  0  0  0  0  0
   -2.4806   -2.4536   -1.7488 H   0  0  0  0  0  0  0  0  0  0  0  0
   -1.2459    0.8223    0.4221 C   0  0  0  0  0  0  0  0  0  0  0  0
   -2.1064    1.3510   -0.2726 O   0  0  0  0  0  0  0  0  0  0  0  0
   -0.4381    1.6094    1.2224 N   0  0  0  0  0  0  0  0  0  0  0  0
    0.2159    1.1374    1.8406 H   0  0  0  0  0  0  0  0  0  0  0  0
   -0.5553    3.0610    1.2949 C   0  0  0  0  0  0  0  0  0  0  0  0
   -1.5490    3.3486    1.6543 H   0  0  0  0  0  0  0  0  0  0  0  0
    0.1921    3.4673    1.9832 H   0  0  0  0  0  0  0  0  0  0  0  0
   -0.3940    3.5078    0.3081 H   0  0  0  0  0  0  0  0  0  0  0  0
  1  2  1  0  0  0  0
  2  3  1  0  0  0  0
  2  4  1  0  0  0  0
  2  5  1  0  0  0  0
  5  6  2  0  0  0  0
  5  7  1  0  0  0  0
  7  8  1  0  0  0  0
  7  9  1  0  0  0  0
  9 10  1  0  0  0  0
  9 11  1  0  0  0  0
  9 26  1  0  0  0  0
 11 12  1  0  0  0  0
 11 13  1  0  0  0  0
 11 14  1  0  0  0  0
 14 15  2  0  0  0  0
 14 24  1  0  0  0  0
 15 16  1  0  0  0  0
 15 17  1  0  0  0  0
 17 18  1  0  0  0  0
 17 19  2  0  0  0  0
 19 20  1  0  0  0  0
 19 22  1  0  0  0  0
 20 21  1  0  0  0  0
 22 23  1  0  0  0  0
 22 24  2  0  0  0  0
 24 25  1  0  0  0  0
 26 27  2  0  0  0  0
 26 28  1  0  0  0  0
 28 29  1  0  0  0  0
 28 30  1  0  0  0  0
 30 31  1  0  0  0  0
 30 32  1  0  0  0  0
 30 33  1  0  0  0  0
M  END
$$$$

  -OEChem-04042216043D

 33 33  0     1  0  0  0  0  0999 V2000
   -4.1297   -3.9189    1.8089 H   0  0  0  0  0  0  0  0  0  0  0  0
   -4.0493   -3.0778    1.1145 C   0  0  0  0  0  0  0  0  0  0  0  0
   -4.8204   -2.3431    1.3585 H   0  0  0  0  0  0  0  0  0  0  0  0
   -4.2126   -3.4448    0.0982 H   0  0  0  0  0  0  0  0  0  0  0  0
   -2.6751   -2.4441    1.2188 C   0  0  0  0  0  0  0  0  0  0  0  0
   -1.8573   -2.8912    2.0085 O   0  0  0  0  0  0  0  0  0  0  0  0
   -2.3636   -1.3593    0.4241 N   0  0  0  0  0  0  0  0  0  0  0  0
   -3.1049   -0.9655   -0.1511 H   0  0  0  0  0  0  0  0  0  0  0  0
   -1.0557   -0.6864    0.3952 C   0  0  1  0  0  0  0  0  0  0  0  0
   -0.5085   -0.9613    1.3024 H   0  0  0  0  0  0  0  0  0  0  0  0
   -0.1629   -1.0790   -0.8119 C   0  0  0  0  0  0  0  0  0  0  0  0
   -0.3734   -0.3907   -1.6379 H   0  0  0  0  0  0  0  0  0  0  0  0
    0.8839   -0.9235   -0.5320 H   0  0  0  0  0  0  0  0  0  0  0  0
   -0.3466   -2.4832   -1.3606 C   0  0  0  0  0  0  0  0  0  0  0  0
    0.7341   -3.3797   -1.3653 C   0  0  0  0  0  0  0  0  0  0  0  0
    1.6766   -3.0987   -0.9046 H   0  0  0  0  0  0  0  0  0  0  0  0
    0.6074   -4.6513   -1.9383 C   0  0  0  0  0  0  0  0  0  0  0  0
    1.4480   -5.3356   -1.9073 H   0  0  0  0  0  0  0  0  0  0  0  0
   -0.5899   -5.0310   -2.5471 C   0  0  0  0  0  0  0  0  0  0  0  0
   -0.7258   -6.2685   -3.1068 O   0  0  0  0  0  0  0  0  0  0  0  0
    0.0808   -6.7869   -2.9630 H   0  0  0  0  0  0  0  0  0  0  0  0
   -1.6503   -4.1302   -2.5982 C   0  0  0  0  0  0  0  0  0  0  0  0
   -2.5684   -4.4224   -3.0970 H   0  0  0  0  0  0  0  0  0  0  0  0
   -1.5269   -2.8603   -2.0254 C   0  0  0  0  0  0  0  0  0  0  0  0
   -2.3526   -2.1610   -2.1090 H   0  0  0  0  0  0  0  0  0  0  0  0
   -1.2346    0.8427    0.4236 C   0  0  0  0  0  0  0  0  0  0  0  0
   -2.0853    1.3703   -0.2838 O   0  0  0  0  0  0  0  0  0  0  0  0
   -0.4555    1.6281    1.2533 N   0  0  0  0  0  0  0  0  0  0  0  0
    0.1919    1.1554    1.8777 H   0  0  0  0  0  0  0  0  0  0  0  0
   -0.5996    3.0758    1.3509 C   0  0  0  0  0  0  0  0  0  0  0  0
   -1.6056    3.3395    1.6940 H   0  0  0  0  0  0  0  0  0  0  0  0
    0.1257    3.4813    2.0630 H   0  0  0  0  0  0  0  0  0  0  0  0
   -0.4252    3.5441    0.3764 H   0  0  0  0  0  0  0  0  0  0  0  0
  1  2  1  0  0  0  0
  2  3  1  0  0  0  0
  2  4  1  0  0  0  0
  2  5  1  0  0  0  0
  5  6  2  0  0  0  0
  5  7  1  0  0  0  0
  7  8  1  0  0  0  0
  7  9  1  0  0  0  0
  9 10  1  0  0  0  0
  9 11  1  0  0  0  0
  9 26  1  0  0  0  0
 11 12  1  0  0  0  0
 11 13  1  0  0  0  0
 11 14  1  0  0  0  0
 14 15  2  0  0  0  0
 14 24  1  0  0  0  0
 15 16  1  0  0  0  0
 15 17  1  0  0  0  0
 17 18  1  0  0  0  0
 17 19  2  0  0  0  0
 19 20  1  0  0  0  0
 19 22  1  0  0  0  0
 20 21  1  0  0  0  0
 22 23  1  0  0  0  0
 22 24  2  0  0  0  0
 24 25  1  0  0  0  0
 26 27  2  0  0  0  0
 26 28  1  0  0  0  0
 28 29  1  0  0  0  0
 28 30  1  0  0  0  0
 30 31  1  0  0  0  0
 30 32  1  0  0  0  0
 30 33  1  0  0  0  0
M  END
$$$$

  -OEChem-04042216043D

 33 33  0     1  0  0  0  0  0999 V2000
   -4.0367   -4.0097    1.6410 H   0  0  0  0  0  0  0  0  0  0  0  0
   -3.9623   -3.1526    0.9659 C   0  0  0  0  0  0  0  0  0  0  0  0
   -4.7694   -2.4522    1.1934 H   0  0  0  0  0  0  0  0  0  0  0  0
   -4.0726   -3.5045   -0.0628 H   0  0  0  0  0  0  0  0  0  0  0  0
   -2.6186   -2.4689    1.1335 C   0  0  0  0  0  0  0  0  0  0  0  0
   -1.8136   -2.8967    1.9472 O   0  0  0  0  0  0  0  0  0  0  0  0
   -2.3174   -1.3632    0.3642 N   0  0  0  0  0  0  0  0  0  0  0  0
   -3.0411   -1.0076   -0.2560 H   0  0  0  0  0  0  0  0  0  0  0  0
   -1.0213   -0.6656    0.3654 C   0  0  1  0  0  0  0  0  0  0  0  0
   -0.4730   -0.9515    1.2684 H   0  0  0  0  0  0  0  0  0  0  0  0
   -0.1339   -1.0339   -0.8500 C   0  0  0  0  0  0  0  0  0  0  0  0
   -0.3465   -0.3381   -1.6689 H   0  0  0  0  0  0  0  0  0  0  0  0
    0.9168   -0.8905   -0.5786 H   0  0  0  0  0  0  0  0  0  0  0  0
   -0.3430   -2.4369   -1.3840 C   0  0  0  0  0  0  0  0  0  0  0  0
    0.6003   -3.4426   -1.1268 C   0  0  0  0  0  0  0  0  0  0  0  0
    1.4645   -3.2318   -0.5039 H   0  0  0  0  0  0  0  0  0  0  0  0
    0.4258   -4.7304   -1.6479 C   0  0  0  0  0  0  0  0  0  0  0  0
    1.1569   -5.4989   -1.4229 H   0  0  0  0  0  0  0  0  0  0  0  0
   -0.6817   -5.0213   -2.4472 C   0  0  0  0  0  0  0  0  0  0  0  0
   -0.8636   -6.2754   -2.9540 O   0  0  0  0  0  0  0  0  0  0  0  0
   -0.1578   -6.8631   -2.6429 H   0  0  0  0  0  0  0  0  0  0  0  0
   -1.6058   -4.0194   -2.7354 C   0  0  0  0  0  0  0  0  0  0  0  0
   -2.4554   -4.2500   -3.3697 H   0  0  0  0  0  0  0  0  0  0  0  0
   -1.4353   -2.7315   -2.2171 C   0  0  0  0  0  0  0  0  0  0  0  0
   -2.1560   -1.9568   -2.4617 H   0  0  0  0  0  0  0  0  0  0  0  0
   -1.2205    0.8603    0.4208 C   0  0  0  0  0  0  0  0  0  0  0  0
   -2.0606    1.3923   -0.2960 O   0  0  0  0  0  0  0  0  0  0  0  0
   -0.4624    1.6396    1.2755 N   0  0  0  0  0  0  0  0  0  0  0  0
    0.1761    1.1622    1.9056 H   0  0  0  0  0  0  0  0  0  0  0  0
   -0.6283    3.0829    1.4007 C   0  0  0  0  0  0  0  0  0  0  0  0
   -1.6466    3.3266    1.7216 H   0  0  0  0  0  0  0  0  0  0  0  0
    0.0718    3.4812    2.1413 H   0  0  0  0  0  0  0  0  0  0  0  0
   -0.4336    3.5751    0.4421 H   0  0  0  0  0  0  0  0  0  0  0  0
  1  2  1  0  0  0  0
  2  3  1  0  0  0  0
  2  4  1  0  0  0  0
  2  5  1  0  0  0  0
  5  6  2  0  0  0  0
  5  7  1  0  0  0  0
  7  8  1  0  0  0  0
  7  9  1  0  0  0  0
  9 10  1  0  0  0  0
  9 11  1  0  0  0  0
  9 26  1  0  0  0  0
 11 12  1  0  0  0  0
 11 13  1  0  0  0  0
 11 14  1  0  0  0  0
 14 15  2  0  0  0  0
 14 24  1  0  0  0  0
 15 16  1  0  0  0  0
 15 17  1  0  0  0  0
 17 18  1  0  0  0  0
 17 19  2  0  0  0  0
 19 20  1  0  0  0  0
 19 22  1  0  0  0  0
 20 21  1  0  0  0  0
 22 23  1  0  0  0  0
 22 24  2  0  0  0  0
 24 25  1  0  0  0  0
 26 27  2  0  0  0  0
 26 28  1  0  0  0  0
 28 29  1  0  0  0  0
 28 30  1  0  0  0  0
 30 31  1  0  0  0  0
 30 32  1  0  0  0  0
 30 33  1  0  0  0  0
M  END
$$$$

  -OEChem-04042216043D

 33 33  0     1  0  0  0  0  0999 V2000
   -3.9710   -4.0710    1.5255 H   0  0  0  0  0  0  0  0  0  0  0  0
   -3.9037   -3.2012    0.8663 C   0  0  0  0  0  0  0  0  0  0  0  0
   -4.7336   -2.5255    1.0860 H   0  0  0  0  0  0  0  0  0  0  0  0
   -3.9805   -3.5390   -0.1704 H   0  0  0  0  0  0  0  0  0  0  0  0
   -2.5830   -2.4860    1.0768 C   0  0  0  0  0  0  0  0  0  0  0  0
   -1.7884   -2.9039    1.9063 O   0  0  0  0  0  0  0  0  0  0  0  0
   -2.2875   -1.3681    0.3234 N   0  0  0  0  0  0  0  0  0  0  0  0
   -2.9961   -1.0360   -0.3266 H   0  0  0  0  0  0  0  0  0  0  0  0
   -0.9990   -0.6557    0.3475 C   0  0  1  0  0  0  0  0  0  0  0  0
   -0.4522   -0.9492    1.2489 H   0  0  0  0  0  0  0  0  0  0  0  0
   -0.1124   -1.0063   -0.8716 C   0  0  0  0  0  0  0  0  0  0  0  0
   -0.3214   -0.3014   -1.6838 H   0  0  0  0  0  0  0  0  0  0  0  0
    0.9399   -0.8747   -0.6007 H   0  0  0  0  0  0  0  0  0  0  0  0
   -0.3345   -2.4065   -1.4004 C   0  0  0  0  0  0  0  0  0  0  0  0
    0.4165   -3.4813   -0.9043 C   0  0  0  0  0  0  0  0  0  0  0  0
    1.1521   -3.3156   -0.1225 H   0  0  0  0  0  0  0  0  0  0  0  0
    0.2045   -4.7768   -1.3903 C   0  0  0  0  0  0  0  0  0  0  0  0
    0.7845   -5.5979   -0.9836 H   0  0  0  0  0  0  0  0  0  0  0  0
   -0.7503   -5.0073   -2.3830 C   0  0  0  0  0  0  0  0  0  0  0  0
   -0.9668   -6.2672   -2.8603 O   0  0  0  0  0  0  0  0  0  0  0  0
   -0.3892   -6.8975   -2.4028 H   0  0  0  0  0  0  0  0  0  0  0  0
   -1.4888   -3.9406   -2.8912 C   0  0  0  0  0  0  0  0  0  0  0  0
   -2.2244   -4.1277   -3.6664 H   0  0  0  0  0  0  0  0  0  0  0  0
   -1.2825   -2.6445   -2.4077 C   0  0  0  0  0  0  0  0  0  0  0  0
   -1.8644   -1.8220   -2.8131 H   0  0  0  0  0  0  0  0  0  0  0  0
   -1.2101    0.8675    0.4184 C   0  0  0  0  0  0  0  0  0  0  0  0
   -2.0368    1.4042   -0.3103 O   0  0  0  0  0  0  0  0  0  0  0  0
   -0.4673    1.6416    1.2908 N   0  0  0  0  0  0  0  0  0  0  0  0
    0.1611    1.1609    1.9284 H   0  0  0  0  0  0  0  0  0  0  0  0
   -0.6418    3.0828    1.4247 C   0  0  0  0  0  0  0  0  0  0  0  0
   -1.6680    3.3183    1.7257 H   0  0  0  0  0  0  0  0  0  0  0  0
    0.0405    3.4783    2.1831 H   0  0  0  0  0  0  0  0  0  0  0  0
   -0.4296    3.5838    0.4743 H   0  0  0  0  0  0  0  0  0  0  0  0
  1  2  1  0  0  0  0
  2  3  1  0  0  0  0
  2  4  1  0  0  0  0
  2  5  1  0  0  0  0
  5  6  2  0  0  0  0
  5  7  1  0  0  0  0
  7  8  1  0  0  0  0
  7  9  1  0  0  0  0
  9 10  1  0  0  0  0
  9 11  1  0  0  0  0
  9 26  1  0  0  0  0
 11 12  1  0  0  0  0
 11 13  1  0  0  0  0
 11 14  1  0  0  0  0
 14 15  2  0  0  0  0
 14 24  1  0  0  0  0
 15 16  1  0  0  0  0
 15 17  1  0  0  0  0
 17 18  1  0  0  0  0
 17 19  2  0  0  0  0
 19 20  1  0  0  0  0
 19 22  1  0  0  0  0
 20 21  1  0  0  0  0
 22 23  1  0  0  0  0
 22 24  2  0  0  0  0
 24 25  1  0  0  0  0
 26 27  2  0  0  0  0
 26 28  1  0  0  0  0
 28 29  1  0  0  0  0
 28 30  1  0  0  0  0
 30 31  1  0  0  0  0
 30 32  1  0  0  0  0
 30 33  1  0  0  0  0
M  END
$$$$

  -OEChem-04042216043D

 33 33  0     1  0  0  0  0  0999 V2000
   -3.9607   -4.0860    1.4899 H   0  0  0  0  0  0  0  0  0  0  0  0
   -3.8898   -3.2143    0.8337 C   0  0  0  0  0  0  0  0  0  0  0  0
   -4.7286   -2.5459    1.0418 H   0  0  0  0  0  0  0  0  0  0  0  0
   -3.9474   -3.5503   -0.2047 H   0  0  0  0  0  0  0  0  0  0  0  0
   -2.5785   -2.4885    1.0667 C   0  0  0  0  0  0  0  0  0  0  0  0
   -1.7955   -2.8989    1.9113 O   0  0  0  0  0  0  0  0  0  0  0  0
   -2.2772   -1.3702    0.3162 N   0  0  0  0  0  0  0  0  0  0  0  0
   -2.9690   -1.0574   -0.3610 H   0  0  0  0  0  0  0  0  0  0  0  0
   -0.9902   -0.6546    0.3498 C   0  0  1  0  0  0  0  0  0  0  0  0
   -0.4447   -0.9485    1.2517 H   0  0  0  0  0  0  0  0  0  0  0  0
   -0.1048   -1.0002   -0.8718 C   0  0  0  0  0  0  0  0  0  0  0  0
   -0.3094   -0.2866   -1.6774 H   0  0  0  0  0  0  0  0  0  0  0  0
    0.9481   -0.8778   -0.5987 H   0  0  0  0  0  0  0  0  0  0  0  0
   -0.3266   -2.3982   -1.4078 C   0  0  0  0  0  0  0  0  0  0  0  0
    0.1825   -3.5105   -0.7219 C   0  0  0  0  0  0  0  0  0  0  0  0
    0.7359   -3.3715    0.2025 H   0  0  0  0  0  0  0  0  0  0  0  0
   -0.0443   -4.8047   -1.2038 C   0  0  0  0  0  0  0  0  0  0  0  0
    0.3474   -5.6522   -0.6518 H   0  0  0  0  0  0  0  0  0  0  0  0
   -0.7772   -4.9987   -2.3766 C   0  0  0  0  0  0  0  0  0  0  0  0
   -1.0070   -6.2574   -2.8516 O   0  0  0  0  0  0  0  0  0  0  0  0
   -0.5867   -6.9109   -2.2714 H   0  0  0  0  0  0  0  0  0  0  0  0
   -1.2816   -3.8972   -3.0651 C   0  0  0  0  0  0  0  0  0  0  0  0
   -1.8494   -4.0574   -3.9756 H   0  0  0  0  0  0  0  0  0  0  0  0
   -1.0597   -2.6013   -2.5872 C   0  0  0  0  0  0  0  0  0  0  0  0
   -1.4635   -1.7538   -3.1339 H   0  0  0  0  0  0  0  0  0  0  0  0
   -1.2055    0.8687    0.4190 C   0  0  0  0  0  0  0  0  0  0  0  0
   -2.0253    1.4049   -0.3178 O   0  0  0  0  0  0  0  0  0  0  0  0
   -0.4706    1.6441    1.2971 N   0  0  0  0  0  0  0  0  0  0  0  0
    0.1567    1.1651    1.9371 H   0  0  0  0  0  0  0  0  0  0  0  0
   -0.6449    3.0857    1.4271 C   0  0  0  0  0  0  0  0  0  0  0  0
   -1.6734    3.3234    1.7187 H   0  0  0  0  0  0  0  0  0  0  0  0
    0.0313    3.4814    2.1910 H   0  0  0  0  0  0  0  0  0  0  0  0
   -0.4237    3.5851    0.4779 H   0  0  0  0  0  0  0  0  0  0  0  0
  1  2  1  0  0  0  0
  2  3  1  0  0  0  0
  2  4  1  0  0  0  0
  2  5  1  0  0  0  0
  5  6  2  0  0  0  0
  5  7  1  0  0  0  0
  7  8  1  0  0  0  0
  7  9  1  0  0  0  0
  9 10  1  0  0  0  0
  9 11  1  0  0  0  0
  9 26  1  0  0  0  0
 11 12  1  0  0  0  0
 11 13  1  0  0  0  0
 11 14  1  0  0  0  0
 14 15  2  0  0  0  0
 14 24  1  0  0  0  0
 15 16  1  0  0  0  0
 15 17  1  0  0  0  0
 17 18  1  0  0  0  0
 17 19  2  0  0  0  0
 19 20  1  0  0  0  0
 19 22  1  0  0  0  0
 20 21  1  0  0  0  0
 22 23  1  0  0  0  0
 22 24  2  0  0  0  0
 24 25  1  0  0  0  0
 26 27  2  0  0  0  0
 26 28  1  0  0  0  0
 28 29  1  0  0  0  0
 28 30  1  0  0  0  0
 30 31  1  0  0  0  0
 30 32  1  0  0  0  0
 30 33  1  0  0  0  0
M  END
$$$$

  -OEChem-04042216043D

 33 33  0     1  0  0  0  0  0999 V2000
   -4.0141   -4.0562    1.5380 H   0  0  0  0  0  0  0  0  0  0  0  0
   -3.9228   -3.1972    0.8677 C   0  0  0  0  0  0  0  0  0  0  0  0
   -4.7635   -2.5216    1.0427 H   0  0  0  0  0  0  0  0  0  0  0  0
   -3.9574   -3.5520   -0.1655 H   0  0  0  0  0  0  0  0  0  0  0  0
   -2.6142   -2.4725    1.1189 C   0  0  0  0  0  0  0  0  0  0  0  0
   -1.8587   -2.8626    1.9975 O   0  0  0  0  0  0  0  0  0  0  0  0
   -2.2889   -1.3714    0.3538 N   0  0  0  0  0  0  0  0  0  0  0  0
   -2.9616   -1.0784   -0.3512 H   0  0  0  0  0  0  0  0  0  0  0  0
   -0.9966   -0.6643    0.3822 C   0  0  1  0  0  0  0  0  0  0  0  0
   -0.4541   -0.9496    1.2887 H   0  0  0  0  0  0  0  0  0  0  0  0
   -0.1112   -1.0168   -0.8413 C   0  0  0  0  0  0  0  0  0  0  0  0
   -0.3122   -0.2957   -1.6411 H   0  0  0  0  0  0  0  0  0  0  0  0
    0.9402   -0.8940   -0.5629 H   0  0  0  0  0  0  0  0  0  0  0  0
   -0.3105   -2.4103   -1.4036 C   0  0  0  0  0  0  0  0  0  0  0  0
   -0.0802   -3.5451   -0.6105 C   0  0  0  0  0  0  0  0  0  0  0  0
    0.2640   -3.4313    0.4141 H   0  0  0  0  0  0  0  0  0  0  0  0
   -0.3039   -4.8285   -1.1211 C   0  0  0  0  0  0  0  0  0  0  0  0
   -0.1243   -5.6899   -0.4869 H   0  0  0  0  0  0  0  0  0  0  0  0
   -0.7603   -4.9929   -2.4298 C   0  0  0  0  0  0  0  0  0  0  0  0
   -0.9861   -6.2404   -2.9349 O   0  0  0  0  0  0  0  0  0  0  0  0
   -0.7574   -6.9111   -2.2730 H   0  0  0  0  0  0  0  0  0  0  0  0
   -0.9903   -3.8721   -3.2250 C   0  0  0  0  0  0  0  0  0  0  0  0
   -1.3460   -4.0083   -4.2410 H   0  0  0  0  0  0  0  0  0  0  0  0
   -0.7683   -2.5865   -2.7187 C   0  0  0  0  0  0  0  0  0  0  0  0
   -0.9615   -1.7259   -3.3525 H   0  0  0  0  0  0  0  0  0  0  0  0
   -1.2068    0.8613    0.4218 C   0  0  0  0  0  0  0  0  0  0  0  0
   -2.0207    1.3880   -0.3284 O   0  0  0  0  0  0  0  0  0  0  0  0
   -0.4742    1.6495    1.2903 N   0  0  0  0  0  0  0  0  0  0  0  0
    0.1462    1.1800    1.9439 H   0  0  0  0  0  0  0  0  0  0  0  0
   -0.6390    3.0946    1.3887 C   0  0  0  0  0  0  0  0  0  0  0  0
   -1.6631    3.3451    1.6851 H   0  0  0  0  0  0  0  0  0  0  0  0
    0.0475    3.5035    2.1362 H   0  0  0  0  0  0  0  0  0  0  0  0
   -0.4243    3.5705    0.4259 H   0  0  0  0  0  0  0  0  0  0  0  0
  1  2  1  0  0  0  0
  2  3  1  0  0  0  0
  2  4  1  0  0  0  0
  2  5  1  0  0  0  0
  5  6  2  0  0  0  0
  5  7  1  0  0  0  0
  7  8  1  0  0  0  0
  7  9  1  0  0  0  0
  9 10  1  0  0  0  0
  9 11  1  0  0  0  0
  9 26  1  0  0  0  0
 11 12  1  0  0  0  0
 11 13  1  0  0  0  0
 11 14  1  0  0  0  0
 14 15  2  0  0  0  0
 14 24  1  0  0  0  0
 15 16  1  0  0  0  0
 15 17  1  0  0  0  0
 17 18  1  0  0  0  0
 17 19  2  0  0  0  0
 19 20  1  0  0  0  0
 19 22  1  0  0  0  0
 20 21  1  0  0  0  0
 22 23  1  0  0  0  0
 22 24  2  0  0  0  0
 24 25  1  0  0  0  0
 26 27  2  0  0  0  0
 26 28  1  0  0  0  0
 28 29  1  0  0  0  0
 28 30  1  0  0  0  0
 30 31  1  0  0  0  0
 30 32  1  0  0  0  0
 30 33  1  0  0  0  0
M  END
$$$$

  -OEChem-04042216043D

 33 33  0     1  0  0  0  0  0999 V2000
   -4.1322   -3.9605    1.6862 H   0  0  0  0  0  0  0  0  0  0  0  0
   -4.0044   -3.1388    0.9762 C   0  0  0  0  0  0  0  0  0  0  0  0
   -4.8337   -2.4372    1.0944 H   0  0  0  0  0  0  0  0  0  0  0  0
   -4.0201   -3.5444   -0.0386 H   0  0  0  0  0  0  0  0  0  0  0  0
   -2.6867   -2.4305    1.2265 C   0  0  0  0  0  0  0  0  0  0  0  0
   -1.9640   -2.7913    2.1436 O   0  0  0  0  0  0  0  0  0  0  0  0
   -2.3240   -1.3655    0.4288 N   0  0  0  0  0  0  0  0  0  0  0  0
   -2.9850   -1.0835   -0.2921 H   0  0  0  0  0  0  0  0  0  0  0  0
   -1.0176   -0.6827    0.4304 C   0  0  1  0  0  0  0  0  0  0  0  0
   -0.4771   -0.9502    1.3438 H   0  0  0  0  0  0  0  0  0  0  0  0
   -0.1309   -1.0595   -0.7909 C   0  0  0  0  0  0  0  0  0  0  0  0
   -0.3276   -0.3364   -1.5905 H   0  0  0  0  0  0  0  0  0  0  0  0
    0.9173   -0.9320   -0.5036 H   0  0  0  0  0  0  0  0  0  0  0  0
   -0.2901   -2.4476   -1.3877 C   0  0  0  0  0  0  0  0  0  0  0  0
   -0.3583   -3.5978   -0.5855 C   0  0  0  0  0  0  0  0  0  0  0  0
   -0.2266   -3.5198    0.4893 H   0  0  0  0  0  0  0  0  0  0  0  0
   -0.5599   -4.8598   -1.1549 C   0  0  0  0  0  0  0  0  0  0  0  0
   -0.6026   -5.7310   -0.5101 H   0  0  0  0  0  0  0  0  0  0  0  0
   -0.6983   -4.9909   -2.5370 C   0  0  0  0  0  0  0  0  0  0  0  0
   -0.8968   -6.2171   -3.1025 O   0  0  0  0  0  0  0  0  0  0  0  0
   -0.8902   -6.9028   -2.4169 H   0  0  0  0  0  0  0  0  0  0  0  0
   -0.6298   -3.8583   -3.3448 C   0  0  0  0  0  0  0  0  0  0  0  0
   -0.7371   -3.9677   -4.4190 H   0  0  0  0  0  0  0  0  0  0  0  0
   -0.4284   -2.5946   -2.7780 C   0  0  0  0  0  0  0  0  0  0  0  0
   -0.3887   -1.7260   -3.4290 H   0  0  0  0  0  0  0  0  0  0  0  0
   -1.2124    0.8466    0.4158 C   0  0  0  0  0  0  0  0  0  0  0  0
   -2.0294    1.3563   -0.3430 O   0  0  0  0  0  0  0  0  0  0  0  0
   -0.4691    1.6560    1.2554 N   0  0  0  0  0  0  0  0  0  0  0  0
    0.1486    1.2020    1.9223 H   0  0  0  0  0  0  0  0  0  0  0  0
   -0.6293    3.1038    1.3160 C   0  0  0  0  0  0  0  0  0  0  0  0
   -1.6462    3.3641    1.6280 H   0  0  0  0  0  0  0  0  0  0  0  0
    0.0744    3.5329    2.0357 H   0  0  0  0  0  0  0  0  0  0  0  0
   -0.4363    3.5519    0.3355 H   0  0  0  0  0  0  0  0  0  0  0  0
  1  2  1  0  0  0  0
  2  3  1  0  0  0  0
  2  4  1  0  0  0  0
  2  5  1  0  0  0  0
  5  6  2  0  0  0  0
  5  7  1  0  0  0  0
  7  8  1  0  0  0  0
  7  9  1  0  0  0  0
  9 10  1  0  0  0  0
  9 11  1  0  0  0  0
  9 26  1  0  0  0  0
 11 12  1  0  0  0  0
 11 13  1  0  0  0  0
 11 14  1  0  0  0  0
 14 15  2  0  0  0  0
 14 24  1  0  0  0  0
 15 16  1  0  0  0  0
 15 17  1  0  0  0  0
 17 18  1  0  0  0  0
 17 19  2  0  0  0  0
 19 20  1  0  0  0  0
 19 22  1  0  0  0  0
 20 21  1  0  0  0  0
 22 23  1  0  0  0  0
 22 24  2  0  0  0  0
 24 25  1  0  0  0  0
 26 27  2  0  0  0  0
 26 28  1  0  0  0  0
 28 29  1  0  0  0  0
 28 30  1  0  0  0  0
 30 31  1  0  0  0  0
 30 32  1  0  0  0  0
 30 33  1  0  0  0  0
M  END
$$$$

  -OEChem-04042216043D

 33 33  0     1  0  0  0  0  0999 V2000
   -4.2671   -3.8240    1.9023 H   0  0  0  0  0  0  0  0  0  0  0  0
   -4.1194   -3.0316    1.1633 C   0  0  0  0  0  0  0  0  0  0  0  0
   -4.9141   -2.2902    1.2769 H   0  0  0  0  0  0  0  0  0  0  0  0
   -4.1772   -3.4678    0.1627 H   0  0  0  0  0  0  0  0  0  0  0  0
   -2.7664   -2.3752    1.3613 C   0  0  0  0  0  0  0  0  0  0  0  0
   -2.0434   -2.7299    2.2802 O   0  0  0  0  0  0  0  0  0  0  0  0
   -2.3739   -1.3560    0.5196 N   0  0  0  0  0  0  0  0  0  0  0  0
   -3.0435   -1.0640   -0.1898 H   0  0  0  0  0  0  0  0  0  0  0  0
   -1.0498   -0.7082    0.4752 C   0  0  1  0  0  0  0  0  0  0  0  0
   -0.5065   -0.9513    1.3936 H   0  0  0  0  0  0  0  0  0  0  0  0
   -0.1633   -1.1205   -0.7415 C   0  0  0  0  0  0  0  0  0  0  0  0
   -0.3629   -0.4053   -1.5476 H   0  0  0  0  0  0  0  0  0  0  0  0
    0.8819   -0.9784   -0.4500 H   0  0  0  0  0  0  0  0  0  0  0  0
   -0.2774   -2.5042   -1.3684 C   0  0  0  0  0  0  0  0  0  0  0  0
   -0.6350   -3.6596   -0.6552 C   0  0  0  0  0  0  0  0  0  0  0  0
   -0.7261   -3.6316    0.4221 H   0  0  0  0  0  0  0  0  0  0  0  0
   -0.7957   -4.8900   -1.3018 C   0  0  0  0  0  0  0  0  0  0  0  0
   -1.0573   -5.7655   -0.7178 H   0  0  0  0  0  0  0  0  0  0  0  0
   -0.6034   -4.9882   -2.6794 C   0  0  0  0  0  0  0  0  0  0  0  0
   -0.7521   -6.1838   -3.3206 O   0  0  0  0  0  0  0  0  0  0  0  0
   -0.9549   -6.8810   -2.6782 H   0  0  0  0  0  0  0  0  0  0  0  0
   -0.2450   -3.8543   -3.4026 C   0  0  0  0  0  0  0  0  0  0  0  0
   -0.0949   -3.9359   -4.4741 H   0  0  0  0  0  0  0  0  0  0  0  0
   -0.0832   -2.6240   -2.7560 C   0  0  0  0  0  0  0  0  0  0  0  0
    0.1861   -1.7540   -3.3479 H   0  0  0  0  0  0  0  0  0  0  0  0
   -1.2236    0.8226    0.3989 C   0  0  0  0  0  0  0  0  0  0  0  0
   -2.0542    1.3139   -0.3572 O   0  0  0  0  0  0  0  0  0  0  0  0
   -0.4553    1.6520    1.1950 N   0  0  0  0  0  0  0  0  0  0  0  0
    0.1674    1.2130    1.8673 H   0  0  0  0  0  0  0  0  0  0  0  0
   -0.6114    3.1012    1.2229 C   0  0  0  0  0  0  0  0  0  0  0  0
   -1.6252    3.3717    1.5368 H   0  0  0  0  0  0  0  0  0  0  0  0
    0.0989    3.5443    1.9274 H   0  0  0  0  0  0  0  0  0  0  0  0
   -0.4239    3.5261    0.2311 H   0  0  0  0  0  0  0  0  0  0  0  0
  1  2  1  0  0  0  0
  2  3  1  0  0  0  0
  2  4  1  0  0  0  0
  2  5  1  0  0  0  0
  5  6  2  0  0  0  0
  5  7  1  0  0  0  0
  7  8  1  0  0  0  0
  7  9  1  0  0  0  0
  9 10  1  0  0  0  0
  9 11  1  0  0  0  0
  9 26  1  0  0  0  0
 11 12  1  0  0  0  0
 11 13  1  0  0  0  0
 11 14  1  0  0  0  0
 14 15  2  0  0  0  0
 14 24  1  0  0  0  0
 15 16  1  0  0  0  0
 15 17  1  0  0  0  0
 17 18  1  0  0  0  0
 17 19  2  0  0  0  0
 19 20  1  0  0  0  0
 19 22  1  0  0  0  0
 20 21  1  0  0  0  0
 22 23  1  0  0  0  0
 22 24  2  0  0  0  0
 24 25  1  0  0  0  0
 26 27  2  0  0  0  0
 26 28  1  0  0  0  0
 28 29  1  0  0  0  0
 28 30  1  0  0  0  0
 30 31  1  0  0  0  0
 30 32  1  0  0  0  0
 30 33  1  0  0  0  0
M  END
$$$$

  -OEChem-04042216043D

 33 33  0     1  0  0  0  0  0999 V2000
   -4.3876   -3.6521    2.1979 H   0  0  0  0  0  0  0  0  0  0  0  0
   -4.2462   -2.8808    1.4359 C   0  0  0  0  0  0  0  0  0  0  0  0
   -4.9651   -2.0765    1.6102 H   0  0  0  0  0  0  0  0  0  0  0  0
   -4.4312   -3.3193    0.4523 H   0  0  0  0  0  0  0  0  0  0  0  0
   -2.8327   -2.3340    1.4998 C   0  0  0  0  0  0  0  0  0  0  0  0
   -2.0542   -2.7499    2.3441 O   0  0  0  0  0  0  0  0  0  0  0  0
   -2.4402   -1.3515    0.6147 N   0  0  0  0  0  0  0  0  0  0  0  0
   -3.1494   -0.9944   -0.0237 H   0  0  0  0  0  0  0  0  0  0  0  0
   -1.0991   -0.7487    0.5053 C   0  0  1  0  0  0  0  0  0  0  0  0
   -0.5408   -0.9767    1.4186 H   0  0  0  0  0  0  0  0  0  0  0  0
   -0.2256   -1.1881   -0.7150 C   0  0  0  0  0  0  0  0  0  0  0  0
   -0.4340   -0.4774   -1.5234 H   0  0  0  0  0  0  0  0  0  0  0  0
    0.8192   -1.0349   -0.4266 H   0  0  0  0  0  0  0  0  0  0  0  0
   -0.3053   -2.5610   -1.3764 C   0  0  0  0  0  0  0  0  0  0  0  0
   -0.9158   -3.7045   -0.8350 C   0  0  0  0  0  0  0  0  0  0  0  0
   -1.2792   -3.7179    0.1784 H   0  0  0  0  0  0  0  0  0  0  0  0
   -0.9922   -4.9002   -1.5592 C   0  0  0  0  0  0  0  0  0  0  0  0
   -1.4553   -5.7682   -1.1029 H   0  0  0  0  0  0  0  0  0  0  0  0
   -0.4623   -4.9783   -2.8458 C   0  0  0  0  0  0  0  0  0  0  0  0
   -0.5290   -6.1405   -3.5587 O   0  0  0  0  0  0  0  0  0  0  0  0
   -0.9607   -6.8291   -3.0301 H   0  0  0  0  0  0  0  0  0  0  0  0
    0.1498   -3.8590   -3.3995 C   0  0  0  0  0  0  0  0  0  0  0  0
    0.5633   -3.9227   -4.4008 H   0  0  0  0  0  0  0  0  0  0  0  0
    0.2275   -2.6653   -2.6744 C   0  0  0  0  0  0  0  0  0  0  0  0
    0.7018   -1.8051   -3.1381 H   0  0  0  0  0  0  0  0  0  0  0  0
   -1.2493    0.7833    0.3928 C   0  0  0  0  0  0  0  0  0  0  0  0
   -2.1130    1.2680   -0.3302 O   0  0  0  0  0  0  0  0  0  0  0  0
   -0.4383    1.6210    1.1365 N   0  0  0  0  0  0  0  0  0  0  0  0
    0.2174    1.1902    1.7823 H   0  0  0  0  0  0  0  0  0  0  0  0
   -0.5692    3.0731    1.1306 C   0  0  0  0  0  0  0  0  0  0  0  0
   -1.5652    3.3702    1.4754 H   0  0  0  0  0  0  0  0  0  0  0  0
    0.1747    3.5226    1.7954 H   0  0  0  0  0  0  0  0  0  0  0  0
   -0.4131    3.4678    0.1212 H   0  0  0  0  0  0  0  0  0  0  0  0
  1  2  1  0  0  0  0
  2  3  1  0  0  0  0
  2  4  1  0  0  0  0
  2  5  1  0  0  0  0
  5  6  2  0  0  0  0
  5  7  1  0  0  0  0
  7  8  1  0  0  0  0
  7  9  1  0  0  0  0
  9 10  1  0  0  0  0
  9 11  1  0  0  0  0
  9 26  1  0  0  0  0
 11 12  1  0  0  0  0
 11 13  1  0  0  0  0
 11 14  1  0  0  0  0
 14 15  2  0  0  0  0
 14 24  1  0  0  0  0
 15 16  1  0  0  0  0
 15 17  1  0  0  0  0
 17 18  1  0  0  0  0
 17 19  2  0  0  0  0
 19 20  1  0  0  0  0
 19 22  1  0  0  0  0
 20 21  1  0  0  0  0
 22 23  1  0  0  0  0
 22 24  2  0  0  0  0
 24 25  1  0  0  0  0
 26 27  2  0  0  0  0
 26 28  1  0  0  0  0
 28 29  1  0  0  0  0
 28 30  1  0  0  0  0
 30 31  1  0  0  0  0
 30 32  1  0  0  0  0
 30 33  1  0  0  0  0
M  END
$$$$

  -OEChem-04042216043D

 33 33  0     1  0  0  0  0  0999 V2000
   -4.4559   -3.5391    2.3576 H   0  0  0  0  0  0  0  0  0  0  0  0
   -4.3362   -2.7446    1.6158 C   0  0  0  0  0  0  0  0  0  0  0  0
   -4.9636   -1.8972    1.9029 H   0  0  0  0  0  0  0  0  0  0  0  0
   -4.6641   -3.1186    0.6428 H   0  0  0  0  0  0  0  0  0  0  0  0
   -2.8841   -2.3120    1.5418 C   0  0  0  0  0  0  0  0  0  0  0  0
   -2.0572   -2.8244    2.2792 O   0  0  0  0  0  0  0  0  0  0  0  0
   -2.5070   -1.3366    0.6410 N   0  0  0  0  0  0  0  0  0  0  0  0
   -3.2465   -0.8884    0.1013 H   0  0  0  0  0  0  0  0  0  0  0  0
   -1.1532   -0.7745    0.4936 C   0  0  1  0  0  0  0  0  0  0  0  0
   -0.5861   -1.0120    1.3993 H   0  0  0  0  0  0  0  0  0  0  0  0
   -0.2883   -1.2248   -0.7292 C   0  0  0  0  0  0  0  0  0  0  0  0
   -0.4923   -0.5111   -1.5359 H   0  0  0  0  0  0  0  0  0  0  0  0
    0.7562   -1.0765   -0.4355 H   0  0  0  0  0  0  0  0  0  0  0  0
   -0.3617   -2.5859   -1.4182 C   0  0  0  0  0  0  0  0  0  0  0  0
   -1.2007   -3.6647   -1.0865 C   0  0  0  0  0  0  0  0  0  0  0  0
   -1.8641   -3.6368   -0.2422 H   0  0  0  0  0  0  0  0  0  0  0  0
   -1.1840   -4.8531   -1.8273 C   0  0  0  0  0  0  0  0  0  0  0  0
   -1.8374   -5.6684   -1.5367 H   0  0  0  0  0  0  0  0  0  0  0  0
   -0.3318   -4.9900   -2.9212 C   0  0  0  0  0  0  0  0  0  0  0  0
   -0.3081   -6.1450   -3.6483 O   0  0  0  0  0  0  0  0  0  0  0  0
   -0.9252   -6.7881   -3.2670 H   0  0  0  0  0  0  0  0  0  0  0  0
    0.5051   -3.9357   -3.2681 C   0  0  0  0  0  0  0  0  0  0  0  0
    1.1681   -4.0444   -4.1203 H   0  0  0  0  0  0  0  0  0  0  0  0
    0.4902   -2.7503   -2.5264 C   0  0  0  0  0  0  0  0  0  0  0  0
    1.1520   -1.9426   -2.8254 H   0  0  0  0  0  0  0  0  0  0  0  0
   -1.2717    0.7609    0.3909 C   0  0  0  0  0  0  0  0  0  0  0  0
   -2.1554    1.2671   -0.2922 O   0  0  0  0  0  0  0  0  0  0  0  0
   -0.4203    1.5782    1.1117 N   0  0  0  0  0  0  0  0  0  0  0  0
    0.2562    1.1313    1.7245 H   0  0  0  0  0  0  0  0  0  0  0  0
   -0.5097    3.0336    1.1022 C   0  0  0  0  0  0  0  0  0  0  0  0
   -1.4921    3.3609    1.4588 H   0  0  0  0  0  0  0  0  0  0  0  0
    0.2557    3.4639    1.7552 H   0  0  0  0  0  0  0  0  0  0  0  0
   -0.3562    3.4199    0.0890 H   0  0  0  0  0  0  0  0  0  0  0  0
  1  2  1  0  0  0  0
  2  3  1  0  0  0  0
  2  4  1  0  0  0  0
  2  5  1  0  0  0  0
  5  6  2  0  0  0  0
  5  7  1  0  0  0  0
  7  8  1  0  0  0  0
  7  9  1  0  0  0  0
  9 10  1  0  0  0  0
  9 11  1  0  0  0  0
  9 26  1  0  0  0  0
 11 12  1  0  0  0  0
 11 13  1  0  0  0  0
 11 14  1  0  0  0  0
 14 15  2  0  0  0  0
 14 24  1  0  0  0  0
 15 16  1  0  0  0  0
 15 17  1  0  0  0  0
 17 18  1  0  0  0  0
 17 19  2  0  0  0  0
 19 20  1  0  0  0  0
 19 22  1  0  0  0  0
 20 21  1  0  0  0  0
 22 23  1  0  0  0  0
 22 24  2  0  0  0  0
 24 25  1  0  0  0  0
 26 27  2  0  0  0  0
 26 28  1  0  0  0  0
 28 29  1  0  0  0  0
 28 30  1  0  0  0  0
 30 31  1  0  0  0  0
 30 32  1  0  0  0  0
 30 33  1  0  0  0  0
M  END
$$$$

  -OEChem-04042216043D

 33 33  0     1  0  0  0  0  0999 V2000
   -4.5608   -3.5073    2.1683 H   0  0  0  0  0  0  0  0  0  0  0  0
   -4.4228   -2.6616    1.4887 C   0  0  0  0  0  0  0  0  0  0  0  0
   -4.9988   -1.8114    1.8621 H   0  0  0  0  0  0  0  0  0  0  0  0
   -4.7968   -2.9395    0.5004 H   0  0  0  0  0  0  0  0  0  0  0  0
   -2.9536   -2.2930    1.4039 C   0  0  0  0  0  0  0  0  0  0  0  0
   -2.1398   -2.8750    2.1026 O   0  0  0  0  0  0  0  0  0  0  0  0
   -2.5503   -1.2930    0.5405 N   0  0  0  0  0  0  0  0  0  0  0  0
   -3.2774   -0.7752    0.0486 H   0  0  0  0  0  0  0  0  0  0  0  0
   -1.1820   -0.7626    0.4408 C   0  0  1  0  0  0  0  0  0  0  0  0
   -0.6497   -1.0384    1.3567 H   0  0  0  0  0  0  0  0  0  0  0  0
   -0.2856   -1.2157   -0.7547 C   0  0  0  0  0  0  0  0  0  0  0  0
   -0.4448   -0.4913   -1.5612 H   0  0  0  0  0  0  0  0  0  0  0  0
    0.7494   -1.0896   -0.4201 H   0  0  0  0  0  0  0  0  0  0  0  0
   -0.3762   -2.5715   -1.4552 C   0  0  0  0  0  0  0  0  0  0  0  0
   -1.4255   -3.5067   -1.3695 C   0  0  0  0  0  0  0  0  0  0  0  0
   -2.3208   -3.3213   -0.8022 H   0  0  0  0  0  0  0  0  0  0  0  0
   -1.3655   -4.7289   -2.0512 C   0  0  0  0  0  0  0  0  0  0  0  0
   -2.1911   -5.4265   -1.9637 H   0  0  0  0  0  0  0  0  0  0  0  0
   -0.2593   -5.0459   -2.8365 C   0  0  0  0  0  0  0  0  0  0  0  0
   -0.1916   -6.2366   -3.5002 O   0  0  0  0  0  0  0  0  0  0  0  0
   -0.9702   -6.7756   -3.2927 H   0  0  0  0  0  0  0  0  0  0  0  0
    0.7833   -4.1332   -2.9431 C   0  0  0  0  0  0  0  0  0  0  0  0
    1.6425   -4.3809   -3.5577 H   0  0  0  0  0  0  0  0  0  0  0  0
    0.7251   -2.9132   -2.2624 C   0  0  0  0  0  0  0  0  0  0  0  0
    1.5579   -2.2237   -2.3650 H   0  0  0  0  0  0  0  0  0  0  0  0
   -1.2533    0.7774    0.3906 C   0  0  0  0  0  0  0  0  0  0  0  0
   -2.1152    1.3304   -0.2838 O   0  0  0  0  0  0  0  0  0  0  0  0
   -0.3948    1.5446    1.1564 N   0  0  0  0  0  0  0  0  0  0  0  0
    0.2587    1.0577    1.7635 H   0  0  0  0  0  0  0  0  0  0  0  0
   -0.4559    3.0003    1.2103 C   0  0  0  0  0  0  0  0  0  0  0  0
   -1.4238    3.3288    1.6033 H   0  0  0  0  0  0  0  0  0  0  0  0
    0.3323    3.3881    1.8630 H   0  0  0  0  0  0  0  0  0  0  0  0
   -0.3174    3.4270    0.2112 H   0  0  0  0  0  0  0  0  0  0  0  0
  1  2  1  0  0  0  0
  2  3  1  0  0  0  0
  2  4  1  0  0  0  0
  2  5  1  0  0  0  0
  5  6  2  0  0  0  0
  5  7  1  0  0  0  0
  7  8  1  0  0  0  0
  7  9  1  0  0  0  0
  9 10  1  0  0  0  0
  9 11  1  0  0  0  0
  9 26  1  0  0  0  0
 11 12  1  0  0  0  0
 11 13  1  0  0  0  0
 11 14  1  0  0  0  0
 14 15  2  0  0  0  0
 14 24  1  0  0  0  0
 15 16  1  0  0  0  0
 15 17  1  0  0  0  0
 17 18  1  0  0  0  0
 17 19  2  0  0  0  0
 19 20  1  0  0  0  0
 19 22  1  0  0  0  0
 20 21  1  0  0  0  0
 22 23  1  0  0  0  0
 22 24  2  0  0  0  0
 24 25  1  0  0  0  0
 26 27  2  0  0  0  0
 26 28  1  0  0  0  0
 28 29  1  0  0  0  0
 28 30  1  0  0  0  0
 30 31  1  0  0  0  0
 30 32  1  0  0  0  0
 30 33  1  0  0  0  0
M  END
$$$$

  -OEChem-04042216043D

 33 33  0     1  0  0  0  0  0999 V2000
   -4.4230   -3.6186    2.0946 H   0  0  0  0  0  0  0  0  0  0  0  0
   -4.3143   -2.7905    1.3886 C   0  0  0  0  0  0  0  0  0  0  0  0
   -4.9391   -1.9587    1.7226 H   0  0  0  0  0  0  0  0  0  0  0  0
   -4.6547   -3.1209    0.4044 H   0  0  0  0  0  0  0  0  0  0  0  0
   -2.8634   -2.3524    1.3165 C   0  0  0  0  0  0  0  0  0  0  0  0
   -2.0248   -2.9198    1.9979 O   0  0  0  0  0  0  0  0  0  0  0  0
   -2.5072   -1.3028    0.4920 N   0  0  0  0  0  0  0  0  0  0  0  0
   -3.2568   -0.7915    0.0283 H   0  0  0  0  0  0  0  0  0  0  0  0
   -1.1561   -0.7318    0.3929 C   0  0  1  0  0  0  0  0  0  0  0  0
   -0.6059   -1.0298    1.2910 H   0  0  0  0  0  0  0  0  0  0  0  0
   -0.2704   -1.1436   -0.8227 C   0  0  0  0  0  0  0  0  0  0  0  0
   -0.4614   -0.4169   -1.6201 H   0  0  0  0  0  0  0  0  0  0  0  0
    0.7687   -0.9985   -0.5102 H   0  0  0  0  0  0  0  0  0  0  0  0
   -0.3792   -2.5028   -1.5135 C   0  0  0  0  0  0  0  0  0  0  0  0
   -1.5447   -3.2867   -1.6217 C   0  0  0  0  0  0  0  0  0  0  0  0
   -2.5048   -2.9337   -1.2775 H   0  0  0  0  0  0  0  0  0  0  0  0
   -1.5185   -4.5430   -2.2396 C   0  0  0  0  0  0  0  0  0  0  0  0
   -2.4342   -5.1191   -2.3125 H   0  0  0  0  0  0  0  0  0  0  0  0
   -0.3295   -5.0455   -2.7645 C   0  0  0  0  0  0  0  0  0  0  0  0
   -0.2952   -6.2701   -3.3665 O   0  0  0  0  0  0  0  0  0  0  0  0
   -1.1683   -6.6882   -3.3152 H   0  0  0  0  0  0  0  0  0  0  0  0
    0.8302   -4.2834   -2.6771 C   0  0  0  0  0  0  0  0  0  0  0  0
    1.7536   -4.6764   -3.0894 H   0  0  0  0  0  0  0  0  0  0  0  0
    0.8063   -3.0288   -2.0601 C   0  0  0  0  0  0  0  0  0  0  0  0
    1.7317   -2.4636   -2.0042 H   0  0  0  0  0  0  0  0  0  0  0  0
   -1.2516    0.8063    0.4119 C   0  0  0  0  0  0  0  0  0  0  0  0
   -2.1299    1.3735   -0.2285 O   0  0  0  0  0  0  0  0  0  0  0  0
   -0.3911    1.5523    1.1960 N   0  0  0  0  0  0  0  0  0  0  0  0
    0.2767    1.0486    1.7732 H   0  0  0  0  0  0  0  0  0  0  0  0
   -0.4745    3.0025    1.3180 C   0  0  0  0  0  0  0  0  0  0  0  0
   -1.4452    3.2968    1.7308 H   0  0  0  0  0  0  0  0  0  0  0  0
    0.3112    3.3715    1.9842 H   0  0  0  0  0  0  0  0  0  0  0  0
   -0.3483    3.4773    0.3393 H   0  0  0  0  0  0  0  0  0  0  0  0
  1  2  1  0  0  0  0
  2  3  1  0  0  0  0
  2  4  1  0  0  0  0
  2  5  1  0  0  0  0
  5  6  2  0  0  0  0
  5  7  1  0  0  0  0
  7  8  1  0  0  0  0
  7  9  1  0  0  0  0
  9 10  1  0  0  0  0
  9 11  1  0  0  0  0
  9 26  1  0  0  0  0
 11 12  1  0  0  0  0
 11 13  1  0  0  0  0
 11 14  1  0  0  0  0
 14 15  2  0  0  0  0
 14 24  1  0  0  0  0
 15 16  1  0  0  0  0
 15 17  1  0  0  0  0
 17 18  1  0  0  0  0
 17 19  2  0  0  0  0
 19 20  1  0  0  0  0
 19 22  1  0  0  0  0
 20 21  1  0  0  0  0
 22 23  1  0  0  0  0
 22 24  2  0  0  0  0
 24 25  1  0  0  0  0
 26 27  2  0  0  0  0
 26 28  1  0  0  0  0
 28 29  1  0  0  0  0
 28 30  1  0  0  0  0
 30 31  1  0  0  0  0
 30 32  1  0  0  0  0
 30 33  1  0  0  0  0
M  END
$$$$

  -OEChem-04042216043D

 33 33  0     1  0  0  0  0  0999 V2000
   -4.2922   -3.7633    1.9208 H   0  0  0  0  0  0  0  0  0  0  0  0
   -4.1953   -2.9265    1.2232 C   0  0  0  0  0  0  0  0  0  0  0  0
   -4.8765   -2.1297    1.5318 H   0  0  0  0  0  0  0  0  0  0  0  0
   -4.4732   -3.2675    0.2232 H   0  0  0  0  0  0  0  0  0  0  0  0
   -2.7673   -2.4141    1.2157 C   0  0  0  0  0  0  0  0  0  0  0  0
   -1.9266   -2.9491    1.9205 O   0  0  0  0  0  0  0  0  0  0  0  0
   -2.4383   -1.3294    0.4272 N   0  0  0  0  0  0  0  0  0  0  0  0
   -3.1975   -0.8450   -0.0485 H   0  0  0  0  0  0  0  0  0  0  0  0
   -1.1075   -0.7080    0.3605 C   0  0  1  0  0  0  0  0  0  0  0  0
   -0.5537   -1.0126    1.2542 H   0  0  0  0  0  0  0  0  0  0  0  0
   -0.2162   -1.0797   -0.8606 C   0  0  0  0  0  0  0  0  0  0  0  0
   -0.4279   -0.3565   -1.6559 H   0  0  0  0  0  0  0  0  0  0  0  0
    0.8245   -0.9189   -0.5625 H   0  0  0  0  0  0  0  0  0  0  0  0
   -0.3420   -2.4467   -1.5253 C   0  0  0  0  0  0  0  0  0  0  0  0
   -1.5672   -3.0600   -1.8476 C   0  0  0  0  0  0  0  0  0  0  0  0
   -2.5050   -2.5374   -1.7069 H   0  0  0  0  0  0  0  0  0  0  0  0
   -1.6085   -4.3405   -2.4115 C   0  0  0  0  0  0  0  0  0  0  0  0
   -2.5671   -4.7833   -2.6578 H   0  0  0  0  0  0  0  0  0  0  0  0
   -0.4261   -5.0352   -2.6636 C   0  0  0  0  0  0  0  0  0  0  0  0
   -0.4547   -6.2849   -3.2118 O   0  0  0  0  0  0  0  0  0  0  0  0
   -1.3724   -6.5757   -3.3251 H   0  0  0  0  0  0  0  0  0  0  0  0
    0.7947   -4.4423   -2.3569 C   0  0  0  0  0  0  0  0  0  0  0  0
    1.7117   -4.9873   -2.5562 H   0  0  0  0  0  0  0  0  0  0  0  0
    0.8384   -3.1631   -1.7924 C   0  0  0  0  0  0  0  0  0  0  0  0
    1.8070   -2.7337   -1.5552 H   0  0  0  0  0  0  0  0  0  0  0  0
   -1.2449    0.8248    0.4205 C   0  0  0  0  0  0  0  0  0  0  0  0
   -2.1250    1.3848   -0.2234 O   0  0  0  0  0  0  0  0  0  0  0  0
   -0.4147    1.5729    1.2345 N   0  0  0  0  0  0  0  0  0  0  0  0
    0.2533    1.0722    1.8140 H   0  0  0  0  0  0  0  0  0  0  0  0
   -0.5340    3.0178    1.3847 C   0  0  0  0  0  0  0  0  0  0  0  0
   -1.5184    3.2815    1.7854 H   0  0  0  0  0  0  0  0  0  0  0  0
    0.2305    3.3911    2.0727 H   0  0  0  0  0  0  0  0  0  0  0  0
   -0.4015    3.5158    0.4183 H   0  0  0  0  0  0  0  0  0  0  0  0
  1  2  1  0  0  0  0
  2  3  1  0  0  0  0
  2  4  1  0  0  0  0
  2  5  1  0  0  0  0
  5  6  2  0  0  0  0
  5  7  1  0  0  0  0
  7  8  1  0  0  0  0
  7  9  1  0  0  0  0
  9 10  1  0  0  0  0
  9 11  1  0  0  0  0
  9 26  1  0  0  0  0
 11 12  1  0  0  0  0
 11 13  1  0  0  0  0
 11 14  1  0  0  0  0
 14 15  2  0  0  0  0
 14 24  1  0  0  0  0
 15 16  1  0  0  0  0
 15 17  1  0  0  0  0
 17 18  1  0  0  0  0
 17 19  2  0  0  0  0
 19 20  1  0  0  0  0
 19 22  1  0  0  0  0
 20 21  1  0  0  0  0
 22 23  1  0  0  0  0
 22 24  2  0  0  0  0
 24 25  1  0  0  0  0
 26 27  2  0  0  0  0
 26 28  1  0  0  0  0
 28 29  1  0  0  0  0
 28 30  1  0  0  0  0
 30 31  1  0  0  0  0
 30 32  1  0  0  0  0
 30 33  1  0  0  0  0
M  END
$$$$

  -OEChem-04042216043D

 33 33  0     1  0  0  0  0  0999 V2000
   -4.1460   -3.9097    1.7388 H   0  0  0  0  0  0  0  0  0  0  0  0
   -4.0652   -3.0574    1.0583 C   0  0  0  0  0  0  0  0  0  0  0  0
   -4.8074   -2.3076    1.3426 H   0  0  0  0  0  0  0  0  0  0  0  0
   -4.2714   -3.3987    0.0411 H   0  0  0  0  0  0  0  0  0  0  0  0
   -2.6715   -2.4623    1.1298 C   0  0  0  0  0  0  0  0  0  0  0  0
   -1.8394   -2.9526    1.8769 O   0  0  0  0  0  0  0  0  0  0  0  0
   -2.3635   -1.3560    0.3636 N   0  0  0  0  0  0  0  0  0  0  0  0
   -3.1198   -0.9161   -0.1566 H   0  0  0  0  0  0  0  0  0  0  0  0
   -1.0534   -0.6869    0.3391 C   0  0  1  0  0  0  0  0  0  0  0  0
   -0.5023   -0.9882    1.2354 H   0  0  0  0  0  0  0  0  0  0  0  0
   -0.1542   -1.0332   -0.8793 C   0  0  0  0  0  0  0  0  0  0  0  0
   -0.3709   -0.3165   -1.6790 H   0  0  0  0  0  0  0  0  0  0  0  0
    0.8883   -0.8706   -0.5883 H   0  0  0  0  0  0  0  0  0  0  0  0
   -0.3031   -2.4127   -1.5003 C   0  0  0  0  0  0  0  0  0  0  0  0
   -1.5160   -2.8634   -2.0504 C   0  0  0  0  0  0  0  0  0  0  0  0
   -2.3737   -2.2001   -2.0902 H   0  0  0  0  0  0  0  0  0  0  0  0
   -1.6291   -4.1546   -2.5784 C   0  0  0  0  0  0  0  0  0  0  0  0
   -2.5735   -4.4768   -3.0025 H   0  0  0  0  0  0  0  0  0  0  0  0
   -0.5317   -5.0167   -2.5622 C   0  0  0  0  0  0  0  0  0  0  0  0
   -0.6290   -6.2786   -3.0740 O   0  0  0  0  0  0  0  0  0  0  0  0
   -1.5302   -6.4390   -3.3925 H   0  0  0  0  0  0  0  0  0  0  0  0
    0.6751   -4.5828   -2.0193 C   0  0  0  0  0  0  0  0  0  0  0  0
    1.5229   -5.2599   -2.0066 H   0  0  0  0  0  0  0  0  0  0  0  0
    0.7908   -3.2932   -1.4888 C   0  0  0  0  0  0  0  0  0  0  0  0
    1.7392   -2.9847   -1.0595 H   0  0  0  0  0  0  0  0  0  0  0  0
   -1.2323    0.8402    0.4142 C   0  0  0  0  0  0  0  0  0  0  0  0
   -2.1014    1.3859   -0.2563 O   0  0  0  0  0  0  0  0  0  0  0  0
   -0.4433    1.6002    1.2579 N   0  0  0  0  0  0  0  0  0  0  0  0
    0.2168    1.1093    1.8545 H   0  0  0  0  0  0  0  0  0  0  0  0
   -0.6017    3.0404    1.4176 C   0  0  0  0  0  0  0  0  0  0  0  0
   -1.6043    3.2760    1.7896 H   0  0  0  0  0  0  0  0  0  0  0  0
    0.1322    3.4249    2.1323 H   0  0  0  0  0  0  0  0  0  0  0  0
   -0.4517    3.5507    0.4603 H   0  0  0  0  0  0  0  0  0  0  0  0
  1  2  1  0  0  0  0
  2  3  1  0  0  0  0
  2  4  1  0  0  0  0
  2  5  1  0  0  0  0
  5  6  2  0  0  0  0
  5  7  1  0  0  0  0
  7  8  1  0  0  0  0
  7  9  1  0  0  0  0
  9 10  1  0  0  0  0
  9 11  1  0  0  0  0
  9 26  1  0  0  0  0
 11 12  1  0  0  0  0
 11 13  1  0  0  0  0
 11 14  1  0  0  0  0
 14 15  2  0  0  0  0
 14 24  1  0  0  0  0
 15 16  1  0  0  0  0
 15 17  1  0  0  0  0
 17 18  1  0  0  0  0
 17 19  2  0  0  0  0
 19 20  1  0  0  0  0
 19 22  1  0  0  0  0
 20 21  1  0  0  0  0
 22 23  1  0  0  0  0
 22 24  2  0  0  0  0
 24 25  1  0  0  0  0
 26 27  2  0  0  0  0
 26 28  1  0  0  0  0
 28 29  1  0  0  0  0
 28 30  1  0  0  0  0
 30 31  1  0  0  0  0
 30 32  1  0  0  0  0
 30 33  1  0  0  0  0
M  END
$$$$

  -OEChem-04042216043D

 33 33  0     1  0  0  0  0  0999 V2000
   -3.9999   -4.0398    1.5807 H   0  0  0  0  0  0  0  0  0  0  0  0
   -3.9338   -3.1733    0.9167 C   0  0  0  0  0  0  0  0  0  0  0  0
   -4.7341   -2.4735    1.1686 H   0  0  0  0  0  0  0  0  0  0  0  0
   -4.0623   -3.5098   -0.1149 H   0  0  0  0  0  0  0  0  0  0  0  0
   -2.5846   -2.4977    1.0725 C   0  0  0  0  0  0  0  0  0  0  0  0
   -1.7715   -2.9397    1.8696 O   0  0  0  0  0  0  0  0  0  0  0  0
   -2.2922   -1.3782    0.3198 N   0  0  0  0  0  0  0  0  0  0  0  0
   -3.0297   -0.9953   -0.2669 H   0  0  0  0  0  0  0  0  0  0  0  0
   -1.0017   -0.6711    0.3333 C   0  0  1  0  0  0  0  0  0  0  0  0
   -0.4523   -0.9663    1.2328 H   0  0  0  0  0  0  0  0  0  0  0  0
   -0.1033   -1.0014   -0.8857 C   0  0  0  0  0  0  0  0  0  0  0  0
   -0.3203   -0.2881   -1.6883 H   0  0  0  0  0  0  0  0  0  0  0  0
    0.9428   -0.8476   -0.6030 H   0  0  0  0  0  0  0  0  0  0  0  0
   -0.2791   -2.3904   -1.4669 C   0  0  0  0  0  0  0  0  0  0  0  0
   -1.4013   -2.7098   -2.2493 C   0  0  0  0  0  0  0  0  0  0  0  0
   -2.1366   -1.9426   -2.4729 H   0  0  0  0  0  0  0  0  0  0  0  0
   -1.5751   -4.0041   -2.7526 C   0  0  0  0  0  0  0  0  0  0  0  0
   -2.4431   -4.2281   -3.3623 H   0  0  0  0  0  0  0  0  0  0  0  0
   -0.6344   -4.9965   -2.4718 C   0  0  0  0  0  0  0  0  0  0  0  0
   -0.7931   -6.2622   -2.9580 O   0  0  0  0  0  0  0  0  0  0  0  0
   -1.6043   -6.3164   -3.4857 H   0  0  0  0  0  0  0  0  0  0  0  0
    0.4749   -4.6915   -1.6856 C   0  0  0  0  0  0  0  0  0  0  0  0
    1.1963   -5.4710   -1.4639 H   0  0  0  0  0  0  0  0  0  0  0  0
    0.6532   -3.3984   -1.1811 C   0  0  0  0  0  0  0  0  0  0  0  0
    1.5156   -3.1860   -0.5565 H   0  0  0  0  0  0  0  0  0  0  0  0
   -1.2195    0.8511    0.4121 C   0  0  0  0  0  0  0  0  0  0  0  0
   -2.0710    1.3817   -0.2925 O   0  0  0  0  0  0  0  0  0  0  0  0
   -0.4723    1.6268    1.2794 N   0  0  0  0  0  0  0  0  0  0  0  0
    0.1781    1.1494    1.8973 H   0  0  0  0  0  0  0  0  0  0  0  0
   -0.6541    3.0662    1.4233 C   0  0  0  0  0  0  0  0  0  0  0  0
   -1.6726    3.2927    1.7560 H   0  0  0  0  0  0  0  0  0  0  0  0
    0.0481    3.4638    2.1624 H   0  0  0  0  0  0  0  0  0  0  0  0
   -0.4740    3.5725    0.4690 H   0  0  0  0  0  0  0  0  0  0  0  0
  1  2  1  0  0  0  0
  2  3  1  0  0  0  0
  2  4  1  0  0  0  0
  2  5  1  0  0  0  0
  5  6  2  0  0  0  0
  5  7  1  0  0  0  0
  7  8  1  0  0  0  0
  7  9  1  0  0  0  0
  9 10  1  0  0  0  0
  9 11  1  0  0  0  0
  9 26  1  0  0  0  0
 11 12  1  0  0  0  0
 11 13  1  0  0  0  0
 11 14  1  0  0  0  0
 14 15  2  0  0  0  0
 14 24  1  0  0  0  0
 15 16  1  0  0  0  0
 15 17  1  0  0  0  0
 17 18  1  0  0  0  0
 17 19  2  0  0  0  0
 19 20  1  0  0  0  0
 19 22  1  0  0  0  0
 20 21  1  0  0  0  0
 22 23  1  0  0  0  0
 22 24  2  0  0  0  0
 24 25  1  0  0  0  0
 26 27  2  0  0  0  0
 26 28  1  0  0  0  0
 28 29  1  0  0  0  0
 28 30  1  0  0  0  0
 30 31  1  0  0  0  0
 30 32  1  0  0  0  0
 30 33  1  0  0  0  0
M  END
$$$$

  -OEChem-04042216043D

 33 33  0     1  0  0  0  0  0999 V2000
   -3.9188   -4.1051    1.4940 H   0  0  0  0  0  0  0  0  0  0  0  0
   -3.8610   -3.2297    0.8411 C   0  0  0  0  0  0  0  0  0  0  0  0
   -4.6921   -2.5597    1.0736 H   0  0  0  0  0  0  0  0  0  0  0  0
   -3.9447   -3.5596   -0.1973 H   0  0  0  0  0  0  0  0  0  0  0  0
   -2.5414   -2.5108    1.0469 C   0  0  0  0  0  0  0  0  0  0  0  0
   -1.7465   -2.9222    1.8788 O   0  0  0  0  0  0  0  0  0  0  0  0
   -2.2536   -1.3875    0.2982 N   0  0  0  0  0  0  0  0  0  0  0  0
   -2.9664   -1.0529   -0.3457 H   0  0  0  0  0  0  0  0  0  0  0  0
   -0.9732   -0.6610    0.3321 C   0  0  1  0  0  0  0  0  0  0  0  0
   -0.4257   -0.9518    1.2341 H   0  0  0  0  0  0  0  0  0  0  0  0
   -0.0773   -0.9885   -0.8869 C   0  0  0  0  0  0  0  0  0  0  0  0
   -0.2910   -0.2766   -1.6918 H   0  0  0  0  0  0  0  0  0  0  0  0
    0.9716   -0.8455   -0.6089 H   0  0  0  0  0  0  0  0  0  0  0  0
   -0.2720   -2.3840   -1.4394 C   0  0  0  0  0  0  0  0  0  0  0  0
   -1.2224   -2.6249   -2.4442 C   0  0  0  0  0  0  0  0  0  0  0  0
   -1.8023   -1.8000   -2.8481 H   0  0  0  0  0  0  0  0  0  0  0  0
   -1.4262   -3.9205   -2.9328 C   0  0  0  0  0  0  0  0  0  0  0  0
   -2.1589   -4.0865   -3.7148 H   0  0  0  0  0  0  0  0  0  0  0  0
   -0.6901   -4.9883   -2.4149 C   0  0  0  0  0  0  0  0  0  0  0  0
   -0.8811   -6.2558   -2.8841 O   0  0  0  0  0  0  0  0  0  0  0  0
   -1.5438   -6.2521   -3.5915 H   0  0  0  0  0  0  0  0  0  0  0  0
    0.2450   -4.7572   -1.4076 C   0  0  0  0  0  0  0  0  0  0  0  0
    0.8048   -5.5936   -1.0024 H   0  0  0  0  0  0  0  0  0  0  0  0
    0.4548   -3.4634   -0.9176 C   0  0  0  0  0  0  0  0  0  0  0  0
    1.1740   -3.3040   -0.1197 H   0  0  0  0  0  0  0  0  0  0  0  0
   -1.2065    0.8591    0.4064 C   0  0  0  0  0  0  0  0  0  0  0  0
   -2.0393    1.3852   -0.3234 O   0  0  0  0  0  0  0  0  0  0  0  0
   -0.4803    1.6412    1.2856 N   0  0  0  0  0  0  0  0  0  0  0  0
    0.1549    1.1681    1.9223 H   0  0  0  0  0  0  0  0  0  0  0  0
   -0.6774    3.0789    1.4255 C   0  0  0  0  0  0  0  0  0  0  0  0
   -1.7098    3.2982    1.7182 H   0  0  0  0  0  0  0  0  0  0  0  0
   -0.0081    3.4796    2.1930 H   0  0  0  0  0  0  0  0  0  0  0  0
   -0.4632    3.5883    0.4800 H   0  0  0  0  0  0  0  0  0  0  0  0
  1  2  1  0  0  0  0
  2  3  1  0  0  0  0
  2  4  1  0  0  0  0
  2  5  1  0  0  0  0
  5  6  2  0  0  0  0
  5  7  1  0  0  0  0
  7  8  1  0  0  0  0
  7  9  1  0  0  0  0
  9 10  1  0  0  0  0
  9 11  1  0  0  0  0
  9 26  1  0  0  0  0
 11 12  1  0  0  0  0
 11 13  1  0  0  0  0
 11 14  1  0  0  0  0
 14 15  2  0  0  0  0
 14 24  1  0  0  0  0
 15 16  1  0  0  0  0
 15 17  1  0  0  0  0
 17 18  1  0  0  0  0
 17 19  2  0  0  0  0
 19 20  1  0  0  0  0
 19 22  1  0  0  0  0
 20 21  1  0  0  0  0
 22 23  1  0  0  0  0
 22 24  2  0  0  0  0
 24 25  1  0  0  0  0
 26 27  2  0  0  0  0
 26 28  1  0  0  0  0
 28 29  1  0  0  0  0
 28 30  1  0  0  0  0
 30 31  1  0  0  0  0
 30 32  1  0  0  0  0
 30 33  1  0  0  0  0
M  END
$$$$

  -OEChem-04042216043D

 33 33  0     1  0  0  0  0  0999 V2000
   -3.9196   -4.1081    1.4910 H   0  0  0  0  0  0  0  0  0  0  0  0
   -3.8570   -3.2362    0.8340 C   0  0  0  0  0  0  0  0  0  0  0  0
   -4.7008   -2.5745    1.0433 H   0  0  0  0  0  0  0  0  0  0  0  0
   -3.9137   -3.5734   -0.2039 H   0  0  0  0  0  0  0  0  0  0  0  0
   -2.5509   -2.5003    1.0642 C   0  0  0  0  0  0  0  0  0  0  0  0
   -1.7735   -2.8905    1.9229 O   0  0  0  0  0  0  0  0  0  0  0  0
   -2.2548   -1.3842    0.3080 N   0  0  0  0  0  0  0  0  0  0  0  0
   -2.9451   -1.0807   -0.3745 H   0  0  0  0  0  0  0  0  0  0  0  0
   -0.9737   -0.6587    0.3470 C   0  0  1  0  0  0  0  0  0  0  0  0
   -0.4301   -0.9443    1.2528 H   0  0  0  0  0  0  0  0  0  0  0  0
   -0.0791   -0.9960   -0.8700 C   0  0  0  0  0  0  0  0  0  0  0  0
   -0.2845   -0.2819   -1.6748 H   0  0  0  0  0  0  0  0  0  0  0  0
    0.9706   -0.8634   -0.5890 H   0  0  0  0  0  0  0  0  0  0  0  0
   -0.2802   -2.3940   -1.4144 C   0  0  0  0  0  0  0  0  0  0  0  0
   -0.9867   -2.5967   -2.6099 C   0  0  0  0  0  0  0  0  0  0  0  0
   -1.3847   -1.7468   -3.1569 H   0  0  0  0  0  0  0  0  0  0  0  0
   -1.1859   -3.8904   -3.1060 C   0  0  0  0  0  0  0  0  0  0  0  0
   -1.7319   -4.0280   -4.0328 H   0  0  0  0  0  0  0  0  0  0  0  0
   -0.6854   -4.9931   -2.4106 C   0  0  0  0  0  0  0  0  0  0  0  0
   -0.8771   -6.2585   -2.8852 O   0  0  0  0  0  0  0  0  0  0  0  0
   -1.3548   -6.2290   -3.7282 H   0  0  0  0  0  0  0  0  0  0  0  0
    0.0130   -4.7985   -1.2203 C   0  0  0  0  0  0  0  0  0  0  0  0
    0.3926   -5.6601   -0.6806 H   0  0  0  0  0  0  0  0  0  0  0  0
    0.2179   -3.5071   -0.7215 C   0  0  0  0  0  0  0  0  0  0  0  0
    0.7491   -3.3735    0.2170 H   0  0  0  0  0  0  0  0  0  0  0  0
   -1.2032    0.8629    0.4059 C   0  0  0  0  0  0  0  0  0  0  0  0
   -2.0219    1.3887   -0.3400 O   0  0  0  0  0  0  0  0  0  0  0  0
   -0.4809    1.6479    1.2856 N   0  0  0  0  0  0  0  0  0  0  0  0
    0.1418    1.1757    1.9350 H   0  0  0  0  0  0  0  0  0  0  0  0
   -0.6713    3.0873    1.4125 C   0  0  0  0  0  0  0  0  0  0  0  0
   -1.7039    3.3138    1.6986 H   0  0  0  0  0  0  0  0  0  0  0  0
   -0.0032    3.4905    2.1795 H   0  0  0  0  0  0  0  0  0  0  0  0
   -0.4501    3.5876    0.4638 H   0  0  0  0  0  0  0  0  0  0  0  0
  1  2  1  0  0  0  0
  2  3  1  0  0  0  0
  2  4  1  0  0  0  0
  2  5  1  0  0  0  0
  5  6  2  0  0  0  0
  5  7  1  0  0  0  0
  7  8  1  0  0  0  0
  7  9  1  0  0  0  0
  9 10  1  0  0  0  0
  9 11  1  0  0  0  0
  9 26  1  0  0  0  0
 11 12  1  0  0  0  0
 11 13  1  0  0  0  0
 11 14  1  0  0  0  0
 14 15  2  0  0  0  0
 14 24  1  0  0  0  0
 15 16  1  0  0  0  0
 15 17  1  0  0  0  0
 17 18  1  0  0  0  0
 17 19  2  0  0  0  0
 19 20  1  0  0  0  0
 19 22  1  0  0  0  0
 20 21  1  0  0  0  0
 22 23  1  0  0  0  0
 22 24  2  0  0  0  0
 24 25  1  0  0  0  0
 26 27  2  0  0  0  0
 26 28  1  0  0  0  0
 28 29  1  0  0  0  0
 28 30  1  0  0  0  0
 30 31  1  0  0  0  0
 30 32  1  0  0  0  0
 30 33  1  0  0  0  0
M  END
$$$$

  -OEChem-04042216043D

 33 33  0     1  0  0  0  0  0999 V2000
   -3.9913   -4.0669    1.5352 H   0  0  0  0  0  0  0  0  0  0  0  0
   -3.9116   -3.2040    0.8683 C   0  0  0  0  0  0  0  0  0  0  0  0
   -4.7560   -2.5356    1.0527 H   0  0  0  0  0  0  0  0  0  0  0  0
   -3.9506   -3.5545   -0.1660 H   0  0  0  0  0  0  0  0  0  0  0  0
   -2.6067   -2.4712    1.1147 C   0  0  0  0  0  0  0  0  0  0  0  0
   -1.8535   -2.8463    2.0014 O   0  0  0  0  0  0  0  0  0  0  0  0
   -2.2854   -1.3718    0.3447 N   0  0  0  0  0  0  0  0  0  0  0  0
   -2.9581   -1.0827   -0.3615 H   0  0  0  0  0  0  0  0  0  0  0  0
   -0.9942   -0.6631    0.3759 C   0  0  1  0  0  0  0  0  0  0  0  0
   -0.4539   -0.9445    1.2851 H   0  0  0  0  0  0  0  0  0  0  0  0
   -0.1036   -1.0202   -0.8414 C   0  0  0  0  0  0  0  0  0  0  0  0
   -0.3010   -0.3034   -1.6462 H   0  0  0  0  0  0  0  0  0  0  0  0
    0.9470   -0.8973   -0.5595 H   0  0  0  0  0  0  0  0  0  0  0  0
   -0.3048   -2.4173   -1.3933 C   0  0  0  0  0  0  0  0  0  0  0  0
   -0.7201   -2.6043   -2.7210 C   0  0  0  0  0  0  0  0  0  0  0  0
   -0.9223   -1.7457   -3.3552 H   0  0  0  0  0  0  0  0  0  0  0  0
   -0.8883   -3.8942   -3.2384 C   0  0  0  0  0  0  0  0  0  0  0  0
   -1.2176   -4.0176   -4.2642 H   0  0  0  0  0  0  0  0  0  0  0  0
   -0.6326   -5.0102   -2.4392 C   0  0  0  0  0  0  0  0  0  0  0  0
   -0.7997   -6.2718   -2.9323 O   0  0  0  0  0  0  0  0  0  0  0  0
   -1.0821   -6.2323   -3.8587 H   0  0  0  0  0  0  0  0  0  0  0  0
   -0.2001   -4.8324   -1.1269 C   0  0  0  0  0  0  0  0  0  0  0  0
    0.0010   -5.7029   -0.5109 H   0  0  0  0  0  0  0  0  0  0  0  0
   -0.0272   -3.5456   -0.6061 C   0  0  0  0  0  0  0  0  0  0  0  0
    0.3084   -3.4269    0.4208 H   0  0  0  0  0  0  0  0  0  0  0  0
   -1.2054    0.8624    0.4101 C   0  0  0  0  0  0  0  0  0  0  0  0
   -2.0138    1.3880   -0.3470 O   0  0  0  0  0  0  0  0  0  0  0  0
   -0.4754    1.6514    1.2800 N   0  0  0  0  0  0  0  0  0  0  0  0
    0.1384    1.1808    1.9391 H   0  0  0  0  0  0  0  0  0  0  0  0
   -0.6470    3.0952    1.3851 C   0  0  0  0  0  0  0  0  0  0  0  0
   -1.6771    3.3397    1.6651 H   0  0  0  0  0  0  0  0  0  0  0  0
    0.0243    3.5011    2.1479 H   0  0  0  0  0  0  0  0  0  0  0  0
   -0.4167    3.5784    0.4299 H   0  0  0  0  0  0  0  0  0  0  0  0
  1  2  1  0  0  0  0
  2  3  1  0  0  0  0
  2  4  1  0  0  0  0
  2  5  1  0  0  0  0
  5  6  2  0  0  0  0
  5  7  1  0  0  0  0
  7  8  1  0  0  0  0
  7  9  1  0  0  0  0
  9 10  1  0  0  0  0
  9 11  1  0  0  0  0
  9 26  1  0  0  0  0
 11 12  1  0  0  0  0
 11 13  1  0  0  0  0
 11 14  1  0  0  0  0
 14 15  2  0  0  0  0
 14 24  1  0  0  0  0
 15 16  1  0  0  0  0
 15 17  1  0  0  0  0
 17 18  1  0  0  0  0
 17 19  2  0  0  0  0
 19 20  1  0  0  0  0
 19 22  1  0  0  0  0
 20 21  1  0  0  0  0
 22 23  1  0  0  0  0
 22 24  2  0  0  0  0
 24 25  1  0  0  0  0
 26 27  2  0  0  0  0
 26 28  1  0  0  0  0
 28 29  1  0  0  0  0
 28 30  1  0  0  0  0
 30 31  1  0  0  0  0
 30 32  1  0  0  0  0
 30 33  1  0  0  0  0
M  END
$$$$

  -OEChem-04042216043D

 33 33  0     1  0  0  0  0  0999 V2000
   -4.1360   -3.9625    1.6417 H   0  0  0  0  0  0  0  0  0  0  0  0
   -4.0120   -3.1362    0.9363 C   0  0  0  0  0  0  0  0  0  0  0  0
   -4.8450   -2.4396    1.0575 H   0  0  0  0  0  0  0  0  0  0  0  0
   -4.0246   -3.5367   -0.0805 H   0  0  0  0  0  0  0  0  0  0  0  0
   -2.6982   -2.4232    1.1921 C   0  0  0  0  0  0  0  0  0  0  0  0
   -1.9754   -2.7838    2.1090 O   0  0  0  0  0  0  0  0  0  0  0  0
   -2.3390   -1.3513    0.4014 N   0  0  0  0  0  0  0  0  0  0  0  0
   -2.9960   -1.0690   -0.3225 H   0  0  0  0  0  0  0  0  0  0  0  0
   -1.0300   -0.6744    0.4138 C   0  0  1  0  0  0  0  0  0  0  0  0
   -0.4917   -0.9521    1.3256 H   0  0  0  0  0  0  0  0  0  0  0  0
   -0.1496   -1.0591   -0.8068 C   0  0  0  0  0  0  0  0  0  0  0  0
   -0.3417   -0.3394   -1.6104 H   0  0  0  0  0  0  0  0  0  0  0  0
    0.9019   -0.9457   -0.5256 H   0  0  0  0  0  0  0  0  0  0  0  0
   -0.3486   -2.4504   -1.3797 C   0  0  0  0  0  0  0  0  0  0  0  0
   -0.4469   -2.6296   -2.7694 C   0  0  0  0  0  0  0  0  0  0  0  0
   -0.4491   -1.7680   -3.4309 H   0  0  0  0  0  0  0  0  0  0  0  0
   -0.5611   -3.9121   -3.3196 C   0  0  0  0  0  0  0  0  0  0  0  0
   -0.6574   -4.0248   -4.3941 H   0  0  0  0  0  0  0  0  0  0  0  0
   -0.5447   -5.0351   -2.4905 C   0  0  0  0  0  0  0  0  0  0  0  0
   -0.6582   -6.2904   -3.0149 O   0  0  0  0  0  0  0  0  0  0  0  0
   -0.7340   -6.2421   -3.9802 H   0  0  0  0  0  0  0  0  0  0  0  0
   -0.3925   -4.8713   -1.1159 C   0  0  0  0  0  0  0  0  0  0  0  0
   -0.3551   -5.7475   -0.4767 H   0  0  0  0  0  0  0  0  0  0  0  0
   -0.2746   -3.5915   -0.5643 C   0  0  0  0  0  0  0  0  0  0  0  0
   -0.1187   -3.4922    0.5059 H   0  0  0  0  0  0  0  0  0  0  0  0
   -1.2107    0.8562    0.4135 C   0  0  0  0  0  0  0  0  0  0  0  0
   -2.0113    1.3823   -0.3517 O   0  0  0  0  0  0  0  0  0  0  0  0
   -0.4621    1.6486    1.2643 N   0  0  0  0  0  0  0  0  0  0  0  0
    0.1364    1.1790    1.9380 H   0  0  0  0  0  0  0  0  0  0  0  0
   -0.6066    3.0973    1.3407 C   0  0  0  0  0  0  0  0  0  0  0  0
   -1.6234    3.3650    1.6466 H   0  0  0  0  0  0  0  0  0  0  0  0
    0.0953    3.5094    2.0719 H   0  0  0  0  0  0  0  0  0  0  0  0
   -0.3986    3.5552    0.3679 H   0  0  0  0  0  0  0  0  0  0  0  0
  1  2  1  0  0  0  0
  2  3  1  0  0  0  0
  2  4  1  0  0  0  0
  2  5  1  0  0  0  0
  5  6  2  0  0  0  0
  5  7  1  0  0  0  0
  7  8  1  0  0  0  0
  7  9  1  0  0  0  0
  9 10  1  0  0  0  0
  9 11  1  0  0  0  0
  9 26  1  0  0  0  0
 11 12  1  0  0  0  0
 11 13  1  0  0  0  0
 11 14  1  0  0  0  0
 14 15  2  0  0  0  0
 14 24  1  0  0  0  0
 15 16  1  0  0  0  0
 15 17  1  0  0  0  0
 17 18  1  0  0  0  0
 17 19  2  0  0  0  0
 19 20  1  0  0  0  0
 19 22  1  0  0  0  0
 20 21  1  0  0  0  0
 22 23  1  0  0  0  0
 22 24  2  0  0  0  0
 24 25  1  0  0  0  0
 26 27  2  0  0  0  0
 26 28  1  0  0  0  0
 28 29  1  0  0  0  0
 28 30  1  0  0  0  0
 30 31  1  0  0  0  0
 30 32  1  0  0  0  0
 30 33  1  0  0  0  0
M  END
$$$$

  -OEChem-04042216043D

 33 33  0     1  0  0  0  0  0999 V2000
   -4.2933   -3.8392    1.7887 H   0  0  0  0  0  0  0  0  0  0  0  0
   -4.1373   -3.0417    1.0572 C   0  0  0  0  0  0  0  0  0  0  0  0
   -4.9437   -2.3109    1.1541 H   0  0  0  0  0  0  0  0  0  0  0  0
   -4.1645   -3.4744    0.0541 H   0  0  0  0  0  0  0  0  0  0  0  0
   -2.7976   -2.3703    1.2915 C   0  0  0  0  0  0  0  0  0  0  0  0
   -2.0919   -2.7218    2.2251 O   0  0  0  0  0  0  0  0  0  0  0  0
   -2.4015   -1.3342    0.4716 N   0  0  0  0  0  0  0  0  0  0  0  0
   -3.0532   -1.0511   -0.2573 H   0  0  0  0  0  0  0  0  0  0  0  0
   -1.0720   -0.6966    0.4515 C   0  0  1  0  0  0  0  0  0  0  0  0
   -0.5317   -0.9678    1.3638 H   0  0  0  0  0  0  0  0  0  0  0  0
   -0.2055   -1.1074   -0.7758 C   0  0  0  0  0  0  0  0  0  0  0  0
   -0.3952   -0.3856   -1.5780 H   0  0  0  0  0  0  0  0  0  0  0  0
    0.8474   -0.9991   -0.4972 H   0  0  0  0  0  0  0  0  0  0  0  0
   -0.3915   -2.4878   -1.3829 C   0  0  0  0  0  0  0  0  0  0  0  0
   -0.1610   -2.6591   -2.7588 C   0  0  0  0  0  0  0  0  0  0  0  0
    0.0392   -1.7955   -3.3864 H   0  0  0  0  0  0  0  0  0  0  0  0
   -0.2146   -3.9276   -3.3487 C   0  0  0  0  0  0  0  0  0  0  0  0
   -0.0704   -4.0240   -4.4191 H   0  0  0  0  0  0  0  0  0  0  0  0
   -0.4416   -5.0566   -2.5617 C   0  0  0  0  0  0  0  0  0  0  0  0
   -0.4947   -6.2997   -3.1229 O   0  0  0  0  0  0  0  0  0  0  0  0
   -0.3629   -6.2376   -4.0813 H   0  0  0  0  0  0  0  0  0  0  0  0
   -0.5833   -4.9120   -1.1848 C   0  0  0  0  0  0  0  0  0  0  0  0
   -0.7132   -5.7963   -0.5694 H   0  0  0  0  0  0  0  0  0  0  0  0
   -0.5303   -3.6439   -0.5964 C   0  0  0  0  0  0  0  0  0  0  0  0
   -0.5623   -3.5770    0.4847 H   0  0  0  0  0  0  0  0  0  0  0  0
   -1.2190    0.8380    0.4090 C   0  0  0  0  0  0  0  0  0  0  0  0
   -2.0212    1.3618   -0.3563 O   0  0  0  0  0  0  0  0  0  0  0  0
   -0.4428    1.6356    1.2297 N   0  0  0  0  0  0  0  0  0  0  0  0
    0.1549    1.1704    1.9073 H   0  0  0  0  0  0  0  0  0  0  0  0
   -0.5599    3.0881    1.2744 C   0  0  0  0  0  0  0  0  0  0  0  0
   -1.5651    3.3816    1.5947 H   0  0  0  0  0  0  0  0  0  0  0  0
    0.1646    3.5043    1.9810 H   0  0  0  0  0  0  0  0  0  0  0  0
   -0.3648    3.5192    0.2867 H   0  0  0  0  0  0  0  0  0  0  0  0
  1  2  1  0  0  0  0
  2  3  1  0  0  0  0
  2  4  1  0  0  0  0
  2  5  1  0  0  0  0
  5  6  2  0  0  0  0
  5  7  1  0  0  0  0
  7  8  1  0  0  0  0
  7  9  1  0  0  0  0
  9 10  1  0  0  0  0
  9 11  1  0  0  0  0
  9 26  1  0  0  0  0
 11 12  1  0  0  0  0
 11 13  1  0  0  0  0
 11 14  1  0  0  0  0
 14 15  2  0  0  0  0
 14 24  1  0  0  0  0
 15 16  1  0  0  0  0
 15 17  1  0  0  0  0
 17 18  1  0  0  0  0
 17 19  2  0  0  0  0
 19 20  1  0  0  0  0
 19 22  1  0  0  0  0
 20 21  1  0  0  0  0
 22 23  1  0  0  0  0
 22 24  2  0  0  0  0
 24 25  1  0  0  0  0
 26 27  2  0  0  0  0
 26 28  1  0  0  0  0
 28 29  1  0  0  0  0
 28 30  1  0  0  0  0
 30 31  1  0  0  0  0
 30 32  1  0  0  0  0
 30 33  1  0  0  0  0
M  END
$$$$

  -OEChem-04042216043D

 33 33  0     1  0  0  0  0  0999 V2000
   -4.4335   -3.6814    2.0371 H   0  0  0  0  0  0  0  0  0  0  0  0
   -4.2687   -2.9097    1.2800 C   0  0  0  0  0  0  0  0  0  0  0  0
   -5.0167   -2.1237    1.4089 H   0  0  0  0  0  0  0  0  0  0  0  0
   -4.3869   -3.3569    0.2898 H   0  0  0  0  0  0  0  0  0  0  0  0
   -2.8751   -2.3270    1.4206 C   0  0  0  0  0  0  0  0  0  0  0  0
   -2.1374   -2.7138    2.3144 O   0  0  0  0  0  0  0  0  0  0  0  0
   -2.4619   -1.3285    0.5633 N   0  0  0  0  0  0  0  0  0  0  0  0
   -3.1429   -0.9973   -0.1175 H   0  0  0  0  0  0  0  0  0  0  0  0
   -1.1135   -0.7355    0.4839 C   0  0  1  0  0  0  0  0  0  0  0  0
   -0.5582   -0.9964    1.3904 H   0  0  0  0  0  0  0  0  0  0  0  0
   -0.2628   -1.1677   -0.7527 C   0  0  0  0  0  0  0  0  0  0  0  0
   -0.4575   -0.4429   -1.5515 H   0  0  0  0  0  0  0  0  0  0  0  0
    0.7899   -1.0537   -0.4754 H   0  0  0  0  0  0  0  0  0  0  0  0
   -0.4129   -2.5331   -1.4094 C   0  0  0  0  0  0  0  0  0  0  0  0
    0.1441   -2.6944   -2.6913 C   0  0  0  0  0  0  0  0  0  0  0  0
    0.5529   -1.8336   -3.2128 H   0  0  0  0  0  0  0  0  0  0  0  0
    0.1538   -3.9384   -3.3331 C   0  0  0  0  0  0  0  0  0  0  0  0
    0.5550   -4.0184   -4.3374 H   0  0  0  0  0  0  0  0  0  0  0  0
   -0.3396   -5.0656   -2.6785 C   0  0  0  0  0  0  0  0  0  0  0  0
   -0.3362   -6.2864   -3.2890 O   0  0  0  0  0  0  0  0  0  0  0  0
    0.0205   -6.2075   -4.1870 H   0  0  0  0  0  0  0  0  0  0  0  0
   -0.8040   -4.9448   -1.3729 C   0  0  0  0  0  0  0  0  0  0  0  0
   -1.1342   -5.8331   -0.8442 H   0  0  0  0  0  0  0  0  0  0  0  0
   -0.8107   -3.7000   -0.7342 C   0  0  0  0  0  0  0  0  0  0  0  0
   -1.0785   -3.6816    0.3105 H   0  0  0  0  0  0  0  0  0  0  0  0
   -1.2352    0.8004    0.4038 C   0  0  0  0  0  0  0  0  0  0  0  0
   -2.0635    1.3177   -0.3378 O   0  0  0  0  0  0  0  0  0  0  0  0
   -0.4195    1.6066    1.1764 N   0  0  0  0  0  0  0  0  0  0  0  0
    0.1984    1.1505    1.8420 H   0  0  0  0  0  0  0  0  0  0  0  0
   -0.5124    3.0614    1.1847 C   0  0  0  0  0  0  0  0  0  0  0  0
   -1.4994    3.3800    1.5361 H   0  0  0  0  0  0  0  0  0  0  0  0
    0.2461    3.4856    1.8497 H   0  0  0  0  0  0  0  0  0  0  0  0
   -0.3506    3.4615    0.1781 H   0  0  0  0  0  0  0  0  0  0  0  0
  1  2  1  0  0  0  0
  2  3  1  0  0  0  0
  2  4  1  0  0  0  0
  2  5  1  0  0  0  0
  5  6  2  0  0  0  0
  5  7  1  0  0  0  0
  7  8  1  0  0  0  0
  7  9  1  0  0  0  0
  9 10  1  0  0  0  0
  9 11  1  0  0  0  0
  9 26  1  0  0  0  0
 11 12  1  0  0  0  0
 11 13  1  0  0  0  0
 11 14  1  0  0  0  0
 14 15  2  0  0  0  0
 14 24  1  0  0  0  0
 15 16  1  0  0  0  0
 15 17  1  0  0  0  0
 17 18  1  0  0  0  0
 17 19  2  0  0  0  0
 19 20  1  0  0  0  0
 19 22  1  0  0  0  0
 20 21  1  0  0  0  0
 22 23  1  0  0  0  0
 22 24  2  0  0  0  0
 24 25  1  0  0  0  0
 26 27  2  0  0  0  0
 26 28  1  0  0  0  0
 28 29  1  0  0  0  0
 28 30  1  0  0  0  0
 30 31  1  0  0  0  0
 30 32  1  0  0  0  0
 30 33  1  0  0  0  0
M  END
$$$$

  -OEChem-04042216043D

 33 33  0     1  0  0  0  0  0999 V2000
   -4.4276   -3.5384    2.3740 H   0  0  0  0  0  0  0  0  0  0  0  0
   -4.3356   -2.7118    1.6639 C   0  0  0  0  0  0  0  0  0  0  0  0
   -4.9202   -1.8650    2.0310 H   0  0  0  0  0  0  0  0  0  0  0  0
   -4.7359   -3.0308    0.6985 H   0  0  0  0  0  0  0  0  0  0  0  0
   -2.8806   -2.3091    1.5150 C   0  0  0  0  0  0  0  0  0  0  0  0
   -2.0241   -2.8608    2.1874 O   0  0  0  0  0  0  0  0  0  0  0  0
   -2.5356   -1.3116    0.6242 N   0  0  0  0  0  0  0  0  0  0  0  0
   -3.2911   -0.8247    0.1433 H   0  0  0  0  0  0  0  0  0  0  0  0
   -1.1802   -0.7710    0.4469 C   0  0  1  0  0  0  0  0  0  0  0  0
   -0.5996   -1.0262    1.3391 H   0  0  0  0  0  0  0  0  0  0  0  0
   -0.3387   -1.2376   -0.7871 C   0  0  0  0  0  0  0  0  0  0  0  0
   -0.3031   -0.3956   -1.4878 H   0  0  0  0  0  0  0  0  0  0  0  0
    0.6824   -1.3760   -0.4169 H   0  0  0  0  0  0  0  0  0  0  0  0
   -0.6446   -2.4481   -1.6709 C   0  0  0  0  0  0  0  0  0  0  0  0
    0.2622   -2.6641   -2.7258 C   0  0  0  0  0  0  0  0  0  0  0  0
    1.0971   -1.9834   -2.8649 H   0  0  0  0  0  0  0  0  0  0  0  0
    0.1178   -3.7355   -3.6140 C   0  0  0  0  0  0  0  0  0  0  0  0
    0.8347   -3.8643   -4.4175 H   0  0  0  0  0  0  0  0  0  0  0  0
   -0.9400   -4.6284   -3.4626 C   0  0  0  0  0  0  0  0  0  0  0  0
   -1.0957   -5.6790   -4.3198 O   0  0  0  0  0  0  0  0  0  0  0  0
   -0.3924   -5.6694   -4.9868 H   0  0  0  0  0  0  0  0  0  0  0  0
   -1.8424   -4.4437   -2.4216 C   0  0  0  0  0  0  0  0  0  0  0  0
   -2.6603   -5.1469   -2.3036 H   0  0  0  0  0  0  0  0  0  0  0  0
   -1.6999   -3.3710   -1.5335 C   0  0  0  0  0  0  0  0  0  0  0  0
   -2.4357   -3.3083   -0.7519 H   0  0  0  0  0  0  0  0  0  0  0  0
   -1.2748    0.7679    0.3918 C   0  0  0  0  0  0  0  0  0  0  0  0
   -2.1701    1.3086   -0.2479 O   0  0  0  0  0  0  0  0  0  0  0  0
   -0.3846    1.5480    1.1066 N   0  0  0  0  0  0  0  0  0  0  0  0
    0.3006    1.0703    1.6854 H   0  0  0  0  0  0  0  0  0  0  0  0
   -0.4581    3.0030    1.1577 C   0  0  0  0  0  0  0  0  0  0  0  0
   -1.4229    3.3247    1.5641 H   0  0  0  0  0  0  0  0  0  0  0  0
    0.3361    3.3990    1.7978 H   0  0  0  0  0  0  0  0  0  0  0  0
   -0.3381    3.4274    0.1554 H   0  0  0  0  0  0  0  0  0  0  0  0
  1  2  1  0  0  0  0
  2  3  1  0  0  0  0
  2  4  1  0  0  0  0
  2  5  1  0  0  0  0
  5  6  2  0  0  0  0
  5  7  1  0  0  0  0
  7  8  1  0  0  0  0
  7  9  1  0  0  0  0
  9 10  1  0  0  0  0
  9 11  1  0  0  0  0
  9 26  1  0  0  0  0
 11 12  1  0  0  0  0
 11 13  1  0  0  0  0
 11 14  1  0  0  0  0
 14 15  2  0  0  0  0
 14 24  1  0  0  0  0
 15 16  1  0  0  0  0
 15 17  1  0  0  0  0
 17 18  1  0  0  0  0
 17 19  2  0  0  0  0
 19 20  1  0  0  0  0
 19 22  1  0  0  0  0
 20 21  1  0  0  0  0
 22 23  1  0  0  0  0
 22 24  2  0  0  0  0
 24 25  1  0  0  0  0
 26 27  2  0  0  0  0
 26 28  1  0  0  0  0
 28 29  1  0  0  0  0
 28 30  1  0  0  0  0
 30 31  1  0  0  0  0
 30 32  1  0  0  0  0
 30 33  1  0  0  0  0
M  END
$$$$

  -OEChem-04042216043D

 33 33  0     1  0  0  0  0  0999 V2000
   -4.3012   -3.5988    2.4057 H   0  0  0  0  0  0  0  0  0  0  0  0
   -4.2299   -2.8371    1.6243 C   0  0  0  0  0  0  0  0  0  0  0  0
   -4.8782   -1.9986    1.8897 H   0  0  0  0  0  0  0  0  0  0  0  0
   -4.5712   -3.2686    0.6804 H   0  0  0  0  0  0  0  0  0  0  0  0
   -2.7955   -2.3619    1.4873 C   0  0  0  0  0  0  0  0  0  0  0  0
   -1.9160   -2.8844    2.1535 O   0  0  0  0  0  0  0  0  0  0  0  0
   -2.4984   -1.3278    0.6214 N   0  0  0  0  0  0  0  0  0  0  0  0
   -3.2764   -0.8529    0.1661 H   0  0  0  0  0  0  0  0  0  0  0  0
   -1.1632   -0.7465    0.4343 C   0  0  1  0  0  0  0  0  0  0  0  0
   -0.5678   -1.0067    1.3153 H   0  0  0  0  0  0  0  0  0  0  0  0
   -0.3309   -1.2032   -0.8061 C   0  0  0  0  0  0  0  0  0  0  0  0
   -0.3327   -0.3728   -1.5210 H   0  0  0  0  0  0  0  0  0  0  0  0
    0.7007   -1.3088   -0.4547 H   0  0  0  0  0  0  0  0  0  0  0  0
   -0.6513   -2.4364   -1.6542 C   0  0  0  0  0  0  0  0  0  0  0  0
    0.3787   -2.8745   -2.5081 C   0  0  0  0  0  0  0  0  0  0  0  0
    1.3442   -2.3771   -2.4867 H   0  0  0  0  0  0  0  0  0  0  0  0
    0.2026   -3.9539   -3.3809 C   0  0  0  0  0  0  0  0  0  0  0  0
    1.0279   -4.2744   -4.0070 H   0  0  0  0  0  0  0  0  0  0  0  0
   -1.0267   -4.6051   -3.4468 C   0  0  0  0  0  0  0  0  0  0  0  0
   -1.2155   -5.6594   -4.2931 O   0  0  0  0  0  0  0  0  0  0  0  0
   -0.3905   -5.8607   -4.7607 H   0  0  0  0  0  0  0  0  0  0  0  0
   -2.0768   -4.1563   -2.6539 C   0  0  0  0  0  0  0  0  0  0  0  0
   -3.0403   -4.6493   -2.7302 H   0  0  0  0  0  0  0  0  0  0  0  0
   -1.9027   -3.0750   -1.7823 C   0  0  0  0  0  0  0  0  0  0  0  0
   -2.7825   -2.7542   -1.2482 H   0  0  0  0  0  0  0  0  0  0  0  0
   -1.2748    0.7910    0.4237 C   0  0  0  0  0  0  0  0  0  0  0  0
   -2.1880    1.3359   -0.1860 O   0  0  0  0  0  0  0  0  0  0  0  0
   -0.3802    1.5633    1.1419 N   0  0  0  0  0  0  0  0  0  0  0  0
    0.3244    1.0799    1.6918 H   0  0  0  0  0  0  0  0  0  0  0  0
   -0.4649    3.0161    1.2259 C   0  0  0  0  0  0  0  0  0  0  0  0
   -1.4309    3.3207    1.6422 H   0  0  0  0  0  0  0  0  0  0  0  0
    0.3278    3.4044    1.8727 H   0  0  0  0  0  0  0  0  0  0  0  0
   -0.3517    3.4643    0.2331 H   0  0  0  0  0  0  0  0  0  0  0  0
  1  2  1  0  0  0  0
  2  3  1  0  0  0  0
  2  4  1  0  0  0  0
  2  5  1  0  0  0  0
  5  6  2  0  0  0  0
  5  7  1  0  0  0  0
  7  8  1  0  0  0  0
  7  9  1  0  0  0  0
  9 10  1  0  0  0  0
  9 11  1  0  0  0  0
  9 26  1  0  0  0  0
 11 12  1  0  0  0  0
 11 13  1  0  0  0  0
 11 14  1  0  0  0  0
 14 15  2  0  0  0  0
 14 24  1  0  0  0  0
 15 16  1  0  0  0  0
 15 17  1  0  0  0  0
 17 18  1  0  0  0  0
 17 19  2  0  0  0  0
 19 20  1  0  0  0  0
 19 22  1  0  0  0  0
 20 21  1  0  0  0  0
 22 23  1  0  0  0  0
 22 24  2  0  0  0  0
 24 25  1  0  0  0  0
 26 27  2  0  0  0  0
 26 28  1  0  0  0  0
 28 29  1  0  0  0  0
 28 30  1  0  0  0  0
 30 31  1  0  0  0  0
 30 32  1  0  0  0  0
 30 33  1  0  0  0  0
M  END
$$$$

  -OEChem-04042216043D

 33 33  0     1  0  0  0  0  0999 V2000
   -4.2166   -3.7435    2.2371 H   0  0  0  0  0  0  0  0  0  0  0  0
   -4.1520   -2.9534    1.4839 C   0  0  0  0  0  0  0  0  0  0  0  0
   -4.8443   -2.1526    1.7540 H   0  0  0  0  0  0  0  0  0  0  0  0
   -4.4415   -3.3667    0.5146 H   0  0  0  0  0  0  0  0  0  0  0  0
   -2.7362   -2.4136    1.4115 C   0  0  0  0  0  0  0  0  0  0  0  0
   -1.8599   -2.9092    2.1028 O   0  0  0  0  0  0  0  0  0  0  0  0
   -2.4527   -1.3540    0.5734 N   0  0  0  0  0  0  0  0  0  0  0  0
   -3.2345   -0.8993    0.1053 H   0  0  0  0  0  0  0  0  0  0  0  0
   -1.1309   -0.7296    0.4261 C   0  0  1  0  0  0  0  0  0  0  0  0
   -0.5424   -0.9925    1.3109 H   0  0  0  0  0  0  0  0  0  0  0  0
   -0.2830   -1.1611   -0.8093 C   0  0  0  0  0  0  0  0  0  0  0  0
   -0.2940   -0.3362   -1.5301 H   0  0  0  0  0  0  0  0  0  0  0  0
    0.7504   -1.2574   -0.4619 H   0  0  0  0  0  0  0  0  0  0  0  0
   -0.6364   -2.4050   -1.6201 C   0  0  0  0  0  0  0  0  0  0  0  0
    0.4214   -3.0954   -2.2395 C   0  0  0  0  0  0  0  0  0  0  0  0
    1.4479   -2.7974   -2.0477 H   0  0  0  0  0  0  0  0  0  0  0  0
    0.1866   -4.1846   -3.0866 C   0  0  0  0  0  0  0  0  0  0  0  0
    1.0278   -4.7137   -3.5208 H   0  0  0  0  0  0  0  0  0  0  0  0
   -1.1190   -4.5767   -3.3755 C   0  0  0  0  0  0  0  0  0  0  0  0
   -1.3630   -5.6364   -4.2004 O   0  0  0  0  0  0  0  0  0  0  0  0
   -0.5262   -6.0416   -4.4754 H   0  0  0  0  0  0  0  0  0  0  0  0
   -2.1815   -3.8567   -2.8396 C   0  0  0  0  0  0  0  0  0  0  0  0
   -3.1950   -4.1394   -3.1037 H   0  0  0  0  0  0  0  0  0  0  0  0
   -1.9467   -2.7669   -1.9937 C   0  0  0  0  0  0  0  0  0  0  0  0
   -2.8074   -2.1956   -1.6716 H   0  0  0  0  0  0  0  0  0  0  0  0
   -1.2730    0.8044    0.4413 C   0  0  0  0  0  0  0  0  0  0  0  0
   -2.1781    1.3403   -0.1881 O   0  0  0  0  0  0  0  0  0  0  0  0
   -0.4108    1.5835    1.1912 N   0  0  0  0  0  0  0  0  0  0  0  0
    0.2907    1.1068    1.7509 H   0  0  0  0  0  0  0  0  0  0  0  0
   -0.5125    3.0354    1.2744 C   0  0  0  0  0  0  0  0  0  0  0  0
   -1.4832    3.3287    1.6880 H   0  0  0  0  0  0  0  0  0  0  0  0
    0.2745    3.4335    1.9222 H   0  0  0  0  0  0  0  0  0  0  0  0
   -0.4016    3.4842    0.2815 H   0  0  0  0  0  0  0  0  0  0  0  0
  1  2  1  0  0  0  0
  2  3  1  0  0  0  0
  2  4  1  0  0  0  0
  2  5  1  0  0  0  0
  5  6  2  0  0  0  0
  5  7  1  0  0  0  0
  7  8  1  0  0  0  0
  7  9  1  0  0  0  0
  9 10  1  0  0  0  0
  9 11  1  0  0  0  0
  9 26  1  0  0  0  0
 11 12  1  0  0  0  0
 11 13  1  0  0  0  0
 11 14  1  0  0  0  0
 14 15  2  0  0  0  0
 14 24  1  0  0  0  0
 15 16  1  0  0  0  0
 15 17  1  0  0  0  0
 17 18  1  0  0  0  0
 17 19  2  0  0  0  0
 19 20  1  0  0  0  0
 19 22  1  0  0  0  0
 20 21  1  0  0  0  0
 22 23  1  0  0  0  0
 22 24  2  0  0  0  0
 24 25  1  0  0  0  0
 26 27  2  0  0  0  0
 26 28  1  0  0  0  0
 28 29  1  0  0  0  0
 28 30  1  0  0  0  0
 30 31  1  0  0  0  0
 30 32  1  0  0  0  0
 30 33  1  0  0  0  0
M  END
$$$$

  -OEChem-04042216043D

 33 33  0     1  0  0  0  0  0999 V2000
   -4.1343   -3.8607    2.0250 H   0  0  0  0  0  0  0  0  0  0  0  0
   -4.0716   -3.0406    1.3043 C   0  0  0  0  0  0  0  0  0  0  0  0
   -4.8048   -2.2768    1.5744 H   0  0  0  0  0  0  0  0  0  0  0  0
   -4.3060   -3.4278    0.3096 H   0  0  0  0  0  0  0  0  0  0  0  0
   -2.6762   -2.4459    1.3085 C   0  0  0  0  0  0  0  0  0  0  0  0
   -1.8140   -2.9204    2.0321 O   0  0  0  0  0  0  0  0  0  0  0  0
   -2.3935   -1.3660    0.4973 N   0  0  0  0  0  0  0  0  0  0  0  0
   -3.1667   -0.9423   -0.0113 H   0  0  0  0  0  0  0  0  0  0  0  0
   -1.0824   -0.7065    0.4015 C   0  0  1  0  0  0  0  0  0  0  0  0
   -0.5055   -0.9735    1.2926 H   0  0  0  0  0  0  0  0  0  0  0  0
   -0.2200   -1.1125   -0.8295 C   0  0  0  0  0  0  0  0  0  0  0  0
   -0.2331   -0.2885   -1.5513 H   0  0  0  0  0  0  0  0  0  0  0  0
    0.8151   -1.2119   -0.4881 H   0  0  0  0  0  0  0  0  0  0  0  0
   -0.6136   -2.3589   -1.6088 C   0  0  0  0  0  0  0  0  0  0  0  0
    0.3810   -3.2794   -1.9800 C   0  0  0  0  0  0  0  0  0  0  0  0
    1.3995   -3.1512   -1.6259 H   0  0  0  0  0  0  0  0  0  0  0  0
    0.0774   -4.3845   -2.7843 C   0  0  0  0  0  0  0  0  0  0  0  0
    0.8587   -5.0951   -3.0304 H   0  0  0  0  0  0  0  0  0  0  0  0
   -1.2179   -4.5631   -3.2708 C   0  0  0  0  0  0  0  0  0  0  0  0
   -1.5277   -5.6370   -4.0545 O   0  0  0  0  0  0  0  0  0  0  0  0
   -0.7510   -6.2082   -4.1565 H   0  0  0  0  0  0  0  0  0  0  0  0
   -2.1971   -3.6199   -2.9735 C   0  0  0  0  0  0  0  0  0  0  0  0
   -3.1927   -3.7436   -3.3866 H   0  0  0  0  0  0  0  0  0  0  0  0
   -1.8942   -2.5152   -2.1708 C   0  0  0  0  0  0  0  0  0  0  0  0
   -2.6613   -1.7663   -2.0059 H   0  0  0  0  0  0  0  0  0  0  0  0
   -1.2579    0.8232    0.4358 C   0  0  0  0  0  0  0  0  0  0  0  0
   -2.1479    1.3498   -0.2225 O   0  0  0  0  0  0  0  0  0  0  0  0
   -0.4374    1.6086    1.2243 N   0  0  0  0  0  0  0  0  0  0  0  0
    0.2441    1.1364    1.8117 H   0  0  0  0  0  0  0  0  0  0  0  0
   -0.5826    3.0548    1.3358 C   0  0  0  0  0  0  0  0  0  0  0  0
   -1.5690    3.3113    1.7365 H   0  0  0  0  0  0  0  0  0  0  0  0
    0.1804    3.4612    2.0067 H   0  0  0  0  0  0  0  0  0  0  0  0
   -0.4662    3.5277    0.3550 H   0  0  0  0  0  0  0  0  0  0  0  0
  1  2  1  0  0  0  0
  2  3  1  0  0  0  0
  2  4  1  0  0  0  0
  2  5  1  0  0  0  0
  5  6  2  0  0  0  0
  5  7  1  0  0  0  0
  7  8  1  0  0  0  0
  7  9  1  0  0  0  0
  9 10  1  0  0  0  0
  9 11  1  0  0  0  0
  9 26  1  0  0  0  0
 11 12  1  0  0  0  0
 11 13  1  0  0  0  0
 11 14  1  0  0  0  0
 14 15  2  0  0  0  0
 14 24  1  0  0  0  0
 15 16  1  0  0  0  0
 15 17  1  0  0  0  0
 17 18  1  0  0  0  0
 17 19  2  0  0  0  0
 19 20  1  0  0  0  0
 19 22  1  0  0  0  0
 20 21  1  0  0  0  0
 22 23  1  0  0  0  0
 22 24  2  0  0  0  0
 24 25  1  0  0  0  0
 26 27  2  0  0  0  0
 26 28  1  0  0  0  0
 28 29  1  0  0  0  0
 28 30  1  0  0  0  0
 30 31  1  0  0  0  0
 30 32  1  0  0  0  0
 30 33  1  0  0  0  0
M  END
$$$$

  -OEChem-04042216043D

 33 33  0     1  0  0  0  0  0999 V2000
   -4.0693   -3.9628    1.8244 H   0  0  0  0  0  0  0  0  0  0  0  0
   -4.0027   -3.1234    1.1266 C   0  0  0  0  0  0  0  0  0  0  0  0
   -4.7850   -2.4002    1.3689 H   0  0  0  0  0  0  0  0  0  0  0  0
   -4.1605   -3.4962    0.1114 H   0  0  0  0  0  0  0  0  0  0  0  0
   -2.6392   -2.4663    1.2264 C   0  0  0  0  0  0  0  0  0  0  0  0
   -1.8037   -2.9088    2.0005 O   0  0  0  0  0  0  0  0  0  0  0  0
   -2.3531   -1.3700    0.4391 N   0  0  0  0  0  0  0  0  0  0  0  0
   -3.0986   -1.0029   -0.1477 H   0  0  0  0  0  0  0  0  0  0  0  0
   -1.0514   -0.6854    0.3883 C   0  0  1  0  0  0  0  0  0  0  0  0
   -0.4836   -0.9612    1.2822 H   0  0  0  0  0  0  0  0  0  0  0  0
   -0.1823   -1.0682   -0.8421 C   0  0  0  0  0  0  0  0  0  0  0  0
   -0.1931   -0.2401   -1.5594 H   0  0  0  0  0  0  0  0  0  0  0  0
    0.8539   -1.1779   -0.5074 H   0  0  0  0  0  0  0  0  0  0  0  0
   -0.6066   -2.3100   -1.6042 C   0  0  0  0  0  0  0  0  0  0  0  0
    0.2691   -3.4001   -1.7234 C   0  0  0  0  0  0  0  0  0  0  0  0
    1.2244   -3.3901   -1.2071 H   0  0  0  0  0  0  0  0  0  0  0  0
   -0.0842   -4.5194   -2.4867 C   0  0  0  0  0  0  0  0  0  0  0  0
    0.5994   -5.3591   -2.5466 H   0  0  0  0  0  0  0  0  0  0  0  0
   -1.3031   -4.5496   -3.1663 C   0  0  0  0  0  0  0  0  0  0  0  0
   -1.6565   -5.6362   -3.9127 O   0  0  0  0  0  0  0  0  0  0  0  0
   -0.9617   -6.3108   -3.8644 H   0  0  0  0  0  0  0  0  0  0  0  0
   -2.1582   -3.4525   -3.0948 C   0  0  0  0  0  0  0  0  0  0  0  0
   -3.0928   -3.4736   -3.6456 H   0  0  0  0  0  0  0  0  0  0  0  0
   -1.8077   -2.3325   -2.3337 C   0  0  0  0  0  0  0  0  0  0  0  0
   -2.4694   -1.4715   -2.3153 H   0  0  0  0  0  0  0  0  0  0  0  0
   -1.2458    0.8414    0.4385 C   0  0  0  0  0  0  0  0  0  0  0  0
   -2.1094    1.3685   -0.2534 O   0  0  0  0  0  0  0  0  0  0  0  0
   -0.4570    1.6266    1.2591 N   0  0  0  0  0  0  0  0  0  0  0  0
    0.2094    1.1558    1.8647 H   0  0  0  0  0  0  0  0  0  0  0  0
   -0.6071    3.0727    1.3644 C   0  0  0  0  0  0  0  0  0  0  0  0
   -1.6056    3.3286    1.7342 H   0  0  0  0  0  0  0  0  0  0  0  0
    0.1343    3.4812    2.0577 H   0  0  0  0  0  0  0  0  0  0  0  0
   -0.4618    3.5448    0.3870 H   0  0  0  0  0  0  0  0  0  0  0  0
  1  2  1  0  0  0  0
  2  3  1  0  0  0  0
  2  4  1  0  0  0  0
  2  5  1  0  0  0  0
  5  6  2  0  0  0  0
  5  7  1  0  0  0  0
  7  8  1  0  0  0  0
  7  9  1  0  0  0  0
  9 10  1  0  0  0  0
  9 11  1  0  0  0  0
  9 26  1  0  0  0  0
 11 12  1  0  0  0  0
 11 13  1  0  0  0  0
 11 14  1  0  0  0  0
 14 15  2  0  0  0  0
 14 24  1  0  0  0  0
 15 16  1  0  0  0  0
 15 17  1  0  0  0  0
 17 18  1  0  0  0  0
 17 19  2  0  0  0  0
 19 20  1  0  0  0  0
 19 22  1  0  0  0  0
 20 21  1  0  0  0  0
 22 23  1  0  0  0  0
 22 24  2  0  0  0  0
 24 25  1  0  0  0  0
 26 27  2  0  0  0  0
 26 28  1  0  0  0  0
 28 29  1  0  0  0  0
 28 30  1  0  0  0  0
 30 31  1  0  0  0  0
 30 32  1  0  0  0  0
 30 33  1  0  0  0  0
M  END
$$$$

  -OEChem-04042216043D

 33 33  0     1  0  0  0  0  0999 V2000
   -3.9949   -4.0463    1.6273 H   0  0  0  0  0  0  0  0  0  0  0  0
   -3.9338   -3.1825    0.9598 C   0  0  0  0  0  0  0  0  0  0  0  0
   -4.7545   -2.4992    1.1903 H   0  0  0  0  0  0  0  0  0  0  0  0
   -4.0339   -3.5277   -0.0725 H   0  0  0  0  0  0  0  0  0  0  0  0
   -2.6034   -2.4761    1.1383 C   0  0  0  0  0  0  0  0  0  0  0  0
   -1.7884   -2.9032    1.9427 O   0  0  0  0  0  0  0  0  0  0  0  0
   -2.3162   -1.3643    0.3736 N   0  0  0  0  0  0  0  0  0  0  0  0
   -3.0325   -1.0387   -0.2711 H   0  0  0  0  0  0  0  0  0  0  0  0
   -1.0221   -0.6617    0.3610 C   0  0  1  0  0  0  0  0  0  0  0  0
   -0.4633   -0.9469    1.2577 H   0  0  0  0  0  0  0  0  0  0  0  0
   -0.1458   -1.0287   -0.8668 C   0  0  0  0  0  0  0  0  0  0  0  0
   -0.1507   -0.1959   -1.5787 H   0  0  0  0  0  0  0  0  0  0  0  0
    0.8898   -1.1506   -0.5346 H   0  0  0  0  0  0  0  0  0  0  0  0
   -0.5914   -2.2678   -1.6168 C   0  0  0  0  0  0  0  0  0  0  0  0
    0.1129   -3.4735   -1.4867 C   0  0  0  0  0  0  0  0  0  0  0  0
    0.9644   -3.5361   -0.8156 H   0  0  0  0  0  0  0  0  0  0  0  0
   -0.2900   -4.6098   -2.1984 C   0  0  0  0  0  0  0  0  0  0  0  0
    0.2578   -5.5372   -2.0723 H   0  0  0  0  0  0  0  0  0  0  0  0
   -1.3877   -4.5474   -3.0594 C   0  0  0  0  0  0  0  0  0  0  0  0
   -1.7909   -5.6512   -3.7532 O   0  0  0  0  0  0  0  0  0  0  0  0
   -1.2134   -6.4021   -3.5461 H   0  0  0  0  0  0  0  0  0  0  0  0
   -2.0740   -3.3450   -3.2161 C   0  0  0  0  0  0  0  0  0  0  0  0
   -2.9165   -3.3009   -3.8984 H   0  0  0  0  0  0  0  0  0  0  0  0
   -1.6761   -2.2071   -2.5067 C   0  0  0  0  0  0  0  0  0  0  0  0
   -2.2122   -1.2720   -2.6444 H   0  0  0  0  0  0  0  0  0  0  0  0
   -1.2283    0.8633    0.4294 C   0  0  0  0  0  0  0  0  0  0  0  0
   -2.0707    1.3972   -0.2832 O   0  0  0  0  0  0  0  0  0  0  0  0
   -0.4623    1.6410    1.2786 N   0  0  0  0  0  0  0  0  0  0  0  0
    0.1825    1.1627    1.9014 H   0  0  0  0  0  0  0  0  0  0  0  0
   -0.6278    3.0838    1.4087 C   0  0  0  0  0  0  0  0  0  0  0  0
   -1.6451    3.3259    1.7338 H   0  0  0  0  0  0  0  0  0  0  0  0
    0.0746    3.4798    2.1483 H   0  0  0  0  0  0  0  0  0  0  0  0
   -0.4363    3.5796    0.4512 H   0  0  0  0  0  0  0  0  0  0  0  0
  1  2  1  0  0  0  0
  2  3  1  0  0  0  0
  2  4  1  0  0  0  0
  2  5  1  0  0  0  0
  5  6  2  0  0  0  0
  5  7  1  0  0  0  0
  7  8  1  0  0  0  0
  7  9  1  0  0  0  0
  9 10  1  0  0  0  0
  9 11  1  0  0  0  0
  9 26  1  0  0  0  0
 11 12  1  0  0  0  0
 11 13  1  0  0  0  0
 11 14  1  0  0  0  0
 14 15  2  0  0  0  0
 14 24  1  0  0  0  0
 15 16  1  0  0  0  0
 15 17  1  0  0  0  0
 17 18  1  0  0  0  0
 17 19  2  0  0  0  0
 19 20  1  0  0  0  0
 19 22  1  0  0  0  0
 20 21  1  0  0  0  0
 22 23  1  0  0  0  0
 22 24  2  0  0  0  0
 24 25  1  0  0  0  0
 26 27  2  0  0  0  0
 26 28  1  0  0  0  0
 28 29  1  0  0  0  0
 28 30  1  0  0  0  0
 30 31  1  0  0  0  0
 30 32  1  0  0  0  0
 30 33  1  0  0  0  0
M  END
$$$$

  -OEChem-04042216043D

 33 33  0     1  0  0  0  0  0999 V2000
   -3.9720   -4.0745    1.5220 H   0  0  0  0  0  0  0  0  0  0  0  0
   -3.9087   -3.1991    0.8701 C   0  0  0  0  0  0  0  0  0  0  0  0
   -4.7375   -2.5254    1.1004 H   0  0  0  0  0  0  0  0  0  0  0  0
   -3.9912   -3.5273   -0.1692 H   0  0  0  0  0  0  0  0  0  0  0  0
   -2.5871   -2.4854    1.0791 C   0  0  0  0  0  0  0  0  0  0  0  0
   -1.7791   -2.9188    1.8875 O   0  0  0  0  0  0  0  0  0  0  0  0
   -2.2955   -1.3649    0.3296 N   0  0  0  0  0  0  0  0  0  0  0  0
   -2.9991   -1.0462   -0.3327 H   0  0  0  0  0  0  0  0  0  0  0  0
   -1.0052   -0.6543    0.3416 C   0  0  1  0  0  0  0  0  0  0  0  0
   -0.4546   -0.9465    1.2412 H   0  0  0  0  0  0  0  0  0  0  0  0
   -0.1198   -1.0084   -0.8819 C   0  0  0  0  0  0  0  0  0  0  0  0
   -0.1152   -0.1687   -1.5858 H   0  0  0  0  0  0  0  0  0  0  0  0
    0.9132   -1.1410   -0.5454 H   0  0  0  0  0  0  0  0  0  0  0  0
   -0.5702   -2.2434   -1.6320 C   0  0  0  0  0  0  0  0  0  0  0  0
   -0.0804   -3.5083   -1.2766 C   0  0  0  0  0  0  0  0  0  0  0  0
    0.6235   -3.6067   -0.4549 H   0  0  0  0  0  0  0  0  0  0  0  0
   -0.5136   -4.6517   -1.9580 C   0  0  0  0  0  0  0  0  0  0  0  0
   -0.1310   -5.6226   -1.6627 H   0  0  0  0  0  0  0  0  0  0  0  0
   -1.4350   -4.5401   -3.0017 C   0  0  0  0  0  0  0  0  0  0  0  0
   -1.8664   -5.6493   -3.6696 O   0  0  0  0  0  0  0  0  0  0  0  0
   -1.4264   -6.4389   -3.3189 H   0  0  0  0  0  0  0  0  0  0  0  0
   -1.9198   -3.2845   -3.3636 C   0  0  0  0  0  0  0  0  0  0  0  0
   -2.6341   -3.2068   -4.1767 H   0  0  0  0  0  0  0  0  0  0  0  0
   -1.4900   -2.1383   -2.6865 C   0  0  0  0  0  0  0  0  0  0  0  0
   -1.8780   -1.1654   -2.9759 H   0  0  0  0  0  0  0  0  0  0  0  0
   -1.2176    0.8687    0.4217 C   0  0  0  0  0  0  0  0  0  0  0  0
   -2.0470    1.4088   -0.3014 O   0  0  0  0  0  0  0  0  0  0  0  0
   -0.4654    1.6396    1.2891 N   0  0  0  0  0  0  0  0  0  0  0  0
    0.1705    1.1564    1.9174 H   0  0  0  0  0  0  0  0  0  0  0  0
   -0.6388    3.0801    1.4311 C   0  0  0  0  0  0  0  0  0  0  0  0
   -1.6661    3.3152    1.7289 H   0  0  0  0  0  0  0  0  0  0  0  0
    0.0401    3.4696    2.1956 H   0  0  0  0  0  0  0  0  0  0  0  0
   -0.4212    3.5868    0.4851 H   0  0  0  0  0  0  0  0  0  0  0  0
  1  2  1  0  0  0  0
  2  3  1  0  0  0  0
  2  4  1  0  0  0  0
  2  5  1  0  0  0  0
  5  6  2  0  0  0  0
  5  7  1  0  0  0  0
  7  8  1  0  0  0  0
  7  9  1  0  0  0  0
  9 10  1  0  0  0  0
  9 11  1  0  0  0  0
  9 26  1  0  0  0  0
 11 12  1  0  0  0  0
 11 13  1  0  0  0  0
 11 14  1  0  0  0  0
 14 15  2  0  0  0  0
 14 24  1  0  0  0  0
 15 16  1  0  0  0  0
 15 17  1  0  0  0  0
 17 18  1  0  0  0  0
 17 19  2  0  0  0  0
 19 20  1  0  0  0  0
 19 22  1  0  0  0  0
 20 21  1  0  0  0  0
 22 23  1  0  0  0  0
 22 24  2  0  0  0  0
 24 25  1  0  0  0  0
 26 27  2  0  0  0  0
 26 28  1  0  0  0  0
 28 29  1  0  0  0  0
 28 30  1  0  0  0  0
 30 31  1  0  0  0  0
 30 32  1  0  0  0  0
 30 33  1  0  0  0  0
M  END
$$$$

  -OEChem-04042216043D

 33 33  0     1  0  0  0  0  0999 V2000
   -3.9941   -4.0640    1.5299 H   0  0  0  0  0  0  0  0  0  0  0  0
   -3.9220   -3.1929    0.8731 C   0  0  0  0  0  0  0  0  0  0  0  0
   -4.7491   -2.5139    1.0939 H   0  0  0  0  0  0  0  0  0  0  0  0
   -3.9999   -3.5262   -0.1650 H   0  0  0  0  0  0  0  0  0  0  0  0
   -2.5982   -2.4845    1.0861 C   0  0  0  0  0  0  0  0  0  0  0  0
   -1.7949   -2.9207    1.8979 O   0  0  0  0  0  0  0  0  0  0  0  0
   -2.2968   -1.3681    0.3347 N   0  0  0  0  0  0  0  0  0  0  0  0
   -2.9925   -1.0531   -0.3380 H   0  0  0  0  0  0  0  0  0  0  0  0
   -1.0053   -0.6597    0.3502 C   0  0  1  0  0  0  0  0  0  0  0  0
   -0.4565   -0.9506    1.2514 H   0  0  0  0  0  0  0  0  0  0  0  0
   -0.1182   -1.0105   -0.8737 C   0  0  0  0  0  0  0  0  0  0  0  0
   -0.1042   -0.1634   -1.5682 H   0  0  0  0  0  0  0  0  0  0  0  0
    0.9121   -1.1526   -0.5326 H   0  0  0  0  0  0  0  0  0  0  0  0
   -0.5583   -2.2418   -1.6374 C   0  0  0  0  0  0  0  0  0  0  0  0
   -0.3244   -3.5227   -1.1145 C   0  0  0  0  0  0  0  0  0  0  0  0
    0.1841   -3.6333   -0.1601 H   0  0  0  0  0  0  0  0  0  0  0  0
   -0.7620   -4.6603   -1.8023 C   0  0  0  0  0  0  0  0  0  0  0  0
   -0.5762   -5.6408   -1.3778 H   0  0  0  0  0  0  0  0  0  0  0  0
   -1.4369   -4.5286   -3.0176 C   0  0  0  0  0  0  0  0  0  0  0  0
   -1.8691   -5.6313   -3.6956 O   0  0  0  0  0  0  0  0  0  0  0  0
   -1.5968   -6.4357   -3.2278 H   0  0  0  0  0  0  0  0  0  0  0  0
   -1.6749   -3.2587   -3.5407 C   0  0  0  0  0  0  0  0  0  0  0  0
   -2.2030   -3.1653   -4.4840 H   0  0  0  0  0  0  0  0  0  0  0  0
   -1.2400   -2.1179   -2.8573 C   0  0  0  0  0  0  0  0  0  0  0  0
   -1.4407   -1.1351   -3.2748 H   0  0  0  0  0  0  0  0  0  0  0  0
   -1.2189    0.8640    0.4231 C   0  0  0  0  0  0  0  0  0  0  0  0
   -2.0455    1.4022   -0.3048 O   0  0  0  0  0  0  0  0  0  0  0  0
   -0.4711    1.6381    1.2914 N   0  0  0  0  0  0  0  0  0  0  0  0
    0.1659    1.1584    1.9211 H   0  0  0  0  0  0  0  0  0  0  0  0
   -0.6363    3.0811    1.4181 C   0  0  0  0  0  0  0  0  0  0  0  0
   -1.6586    3.3241    1.7265 H   0  0  0  0  0  0  0  0  0  0  0  0
    0.0549    3.4770    2.1684 H   0  0  0  0  0  0  0  0  0  0  0  0
   -0.4292    3.5750    0.4629 H   0  0  0  0  0  0  0  0  0  0  0  0
  1  2  1  0  0  0  0
  2  3  1  0  0  0  0
  2  4  1  0  0  0  0
  2  5  1  0  0  0  0
  5  6  2  0  0  0  0
  5  7  1  0  0  0  0
  7  8  1  0  0  0  0
  7  9  1  0  0  0  0
  9 10  1  0  0  0  0
  9 11  1  0  0  0  0
  9 26  1  0  0  0  0
 11 12  1  0  0  0  0
 11 13  1  0  0  0  0
 11 14  1  0  0  0  0
 14 15  2  0  0  0  0
 14 24  1  0  0  0  0
 15 16  1  0  0  0  0
 15 17  1  0  0  0  0
 17 18  1  0  0  0  0
 17 19  2  0  0  0  0
 19 20  1  0  0  0  0
 19 22  1  0  0  0  0
 20 21  1  0  0  0  0
 22 23  1  0  0  0  0
 22 24  2  0  0  0  0
 24 25  1  0  0  0  0
 26 27  2  0  0  0  0
 26 28  1  0  0  0  0
 28 29  1  0  0  0  0
 28 30  1  0  0  0  0
 30 31  1  0  0  0  0
 30 32  1  0  0  0  0
 30 33  1  0  0  0  0
M  END
$$$$

  -OEChem-04042216043D

 33 33  0     1  0  0  0  0  0999 V2000
   -4.0718   -3.9995    1.6540 H   0  0  0  0  0  0  0  0  0  0  0  0
   -3.9806   -3.1494    0.9722 C   0  0  0  0  0  0  0  0  0  0  0  0
   -4.7912   -2.4454    1.1751 H   0  0  0  0  0  0  0  0  0  0  0  0
   -4.0691   -3.5104   -0.0557 H   0  0  0  0  0  0  0  0  0  0  0  0
   -2.6402   -2.4654    1.1635 C   0  0  0  0  0  0  0  0  0  0  0  0
   -1.8482   -2.8931    1.9904 O   0  0  0  0  0  0  0  0  0  0  0  0
   -2.3171   -1.3714    0.3883 N   0  0  0  0  0  0  0  0  0  0  0  0
   -3.0110   -1.0574   -0.2873 H   0  0  0  0  0  0  0  0  0  0  0  0
   -1.0169   -0.6777    0.3801 C   0  0  1  0  0  0  0  0  0  0  0  0
   -0.4648   -0.9561    1.2832 H   0  0  0  0  0  0  0  0  0  0  0  0
   -0.1330   -1.0360   -0.8489 C   0  0  0  0  0  0  0  0  0  0  0  0
   -0.1135   -0.1827   -1.5357 H   0  0  0  0  0  0  0  0  0  0  0  0
    0.8954   -1.1780   -0.5024 H   0  0  0  0  0  0  0  0  0  0  0  0
   -0.5398   -2.2642   -1.6419 C   0  0  0  0  0  0  0  0  0  0  0  0
   -0.5872   -3.5320   -1.0401 C   0  0  0  0  0  0  0  0  0  0  0  0
   -0.2878   -3.6495   -0.0019 H   0  0  0  0  0  0  0  0  0  0  0  0
   -1.0086   -4.6521   -1.7654 C   0  0  0  0  0  0  0  0  0  0  0  0
   -1.0327   -5.6210   -1.2786 H   0  0  0  0  0  0  0  0  0  0  0  0
   -1.3928   -4.5179   -3.1006 C   0  0  0  0  0  0  0  0  0  0  0  0
   -1.8072   -5.6028   -3.8175 O   0  0  0  0  0  0  0  0  0  0  0  0
   -1.7511   -6.4019   -3.2713 H   0  0  0  0  0  0  0  0  0  0  0  0
   -1.3543   -3.2633   -3.7056 C   0  0  0  0  0  0  0  0  0  0  0  0
   -1.6583   -3.1662   -4.7427 H   0  0  0  0  0  0  0  0  0  0  0  0
   -0.9322   -2.1409   -2.9841 C   0  0  0  0  0  0  0  0  0  0  0  0
   -0.9204   -1.1705   -3.4724 H   0  0  0  0  0  0  0  0  0  0  0  0
   -1.2241    0.8492    0.4186 C   0  0  0  0  0  0  0  0  0  0  0  0
   -2.0601    1.3748   -0.3077 O   0  0  0  0  0  0  0  0  0  0  0  0
   -0.4675    1.6390    1.2652 N   0  0  0  0  0  0  0  0  0  0  0  0
    0.1752    1.1715    1.8981 H   0  0  0  0  0  0  0  0  0  0  0  0
   -0.6355    3.0831    1.3727 C   0  0  0  0  0  0  0  0  0  0  0  0
   -1.6533    3.3275    1.6949 H   0  0  0  0  0  0  0  0  0  0  0  0
    0.0670    3.4922    2.1052 H   0  0  0  0  0  0  0  0  0  0  0  0
   -0.4459    3.5633    0.4068 H   0  0  0  0  0  0  0  0  0  0  0  0
  1  2  1  0  0  0  0
  2  3  1  0  0  0  0
  2  4  1  0  0  0  0
  2  5  1  0  0  0  0
  5  6  2  0  0  0  0
  5  7  1  0  0  0  0
  7  8  1  0  0  0  0
  7  9  1  0  0  0  0
  9 10  1  0  0  0  0
  9 11  1  0  0  0  0
  9 26  1  0  0  0  0
 11 12  1  0  0  0  0
 11 13  1  0  0  0  0
 11 14  1  0  0  0  0
 14 15  2  0  0  0  0
 14 24  1  0  0  0  0
 15 16  1  0  0  0  0
 15 17  1  0  0  0  0
 17 18  1  0  0  0  0
 17 19  2  0  0  0  0
 19 20  1  0  0  0  0
 19 22  1  0  0  0  0
 20 21  1  0  0  0  0
 22 23  1  0  0  0  0
 22 24  2  0  0  0  0
 24 25  1  0  0  0  0
 26 27  2  0  0  0  0
 26 28  1  0  0  0  0
 28 29  1  0  0  0  0
 28 30  1  0  0  0  0
 30 31  1  0  0  0  0
 30 32  1  0  0  0  0
 30 33  1  0  0  0  0
M  END
$$$$

  -OEChem-04042216043D

 33 33  0     1  0  0  0  0  0999 V2000
   -4.1885   -3.8801    1.8905 H   0  0  0  0  0  0  0  0  0  0  0  0
   -4.0786   -3.0603    1.1754 C   0  0  0  0  0  0  0  0  0  0  0  0
   -4.8478   -2.3109    1.3769 H   0  0  0  0  0  0  0  0  0  0  0  0
   -4.2173   -3.4522    0.1648 H   0  0  0  0  0  0  0  0  0  0  0  0
   -2.7025   -2.4350    1.3002 C   0  0  0  0  0  0  0  0  0  0  0  0
   -1.9081   -2.8624    2.1243 O   0  0  0  0  0  0  0  0  0  0  0  0
   -2.3585   -1.3785    0.4836 N   0  0  0  0  0  0  0  0  0  0  0  0
   -3.0686   -1.0421   -0.1641 H   0  0  0  0  0  0  0  0  0  0  0  0
   -1.0450   -0.7126    0.4263 C   0  0  1  0  0  0  0  0  0  0  0  0
   -0.4831   -0.9692    1.3300 H   0  0  0  0  0  0  0  0  0  0  0  0
   -0.1663   -1.0867   -0.8085 C   0  0  0  0  0  0  0  0  0  0  0  0
   -0.1430   -0.2281   -1.4888 H   0  0  0  0  0  0  0  0  0  0  0  0
    0.8596   -1.2225   -0.4524 H   0  0  0  0  0  0  0  0  0  0  0  0
   -0.5228   -2.3107   -1.6396 C   0  0  0  0  0  0  0  0  0  0  0  0
   -0.8581   -3.5462   -1.0624 C   0  0  0  0  0  0  0  0  0  0  0  0
   -0.7734   -3.6852    0.0096 H   0  0  0  0  0  0  0  0  0  0  0  0
   -1.2446   -4.6320   -1.8559 C   0  0  0  0  0  0  0  0  0  0  0  0
   -1.4847   -5.5772   -1.3817 H   0  0  0  0  0  0  0  0  0  0  0  0
   -1.3078   -4.4986   -3.2430 C   0  0  0  0  0  0  0  0  0  0  0  0
   -1.6813   -5.5513   -4.0273 O   0  0  0  0  0  0  0  0  0  0  0  0
   -1.8350   -6.3356   -3.4785 H   0  0  0  0  0  0  0  0  0  0  0  0
   -0.9798   -3.2795   -3.8304 C   0  0  0  0  0  0  0  0  0  0  0  0
   -1.0320   -3.1812   -4.9099 H   0  0  0  0  0  0  0  0  0  0  0  0
   -0.5917   -2.1930   -3.0385 C   0  0  0  0  0  0  0  0  0  0  0  0
   -0.3537   -1.2503   -3.5230 H   0  0  0  0  0  0  0  0  0  0  0  0
   -1.2463    0.8167    0.4132 C   0  0  0  0  0  0  0  0  0  0  0  0
   -2.1031    1.3201   -0.3048 O   0  0  0  0  0  0  0  0  0  0  0  0
   -0.4701    1.6313    1.2172 N   0  0  0  0  0  0  0  0  0  0  0  0
    0.1881    1.1820    1.8475 H   0  0  0  0  0  0  0  0  0  0  0  0
   -0.6273    3.0794    1.2763 C   0  0  0  0  0  0  0  0  0  0  0  0
   -1.6329    3.3423    1.6211 H   0  0  0  0  0  0  0  0  0  0  0  0
    0.1006    3.5103    1.9704 H   0  0  0  0  0  0  0  0  0  0  0  0
   -0.4662    3.5228    0.2879 H   0  0  0  0  0  0  0  0  0  0  0  0
  1  2  1  0  0  0  0
  2  3  1  0  0  0  0
  2  4  1  0  0  0  0
  2  5  1  0  0  0  0
  5  6  2  0  0  0  0
  5  7  1  0  0  0  0
  7  8  1  0  0  0  0
  7  9  1  0  0  0  0
  9 10  1  0  0  0  0
  9 11  1  0  0  0  0
  9 26  1  0  0  0  0
 11 12  1  0  0  0  0
 11 13  1  0  0  0  0
 11 14  1  0  0  0  0
 14 15  2  0  0  0  0
 14 24  1  0  0  0  0
 15 16  1  0  0  0  0
 15 17  1  0  0  0  0
 17 18  1  0  0  0  0
 17 19  2  0  0  0  0
 19 20  1  0  0  0  0
 19 22  1  0  0  0  0
 20 21  1  0  0  0  0
 22 23  1  0  0  0  0
 22 24  2  0  0  0  0
 24 25  1  0  0  0  0
 26 27  2  0  0  0  0
 26 28  1  0  0  0  0
 28 29  1  0  0  0  0
 28 30  1  0  0  0  0
 30 31  1  0  0  0  0
 30 32  1  0  0  0  0
 30 33  1  0  0  0  0
M  END
$$$$

  -OEChem-04042216043D

 33 33  0     1  0  0  0  0  0999 V2000
   -4.2846   -3.7369    2.1733 H   0  0  0  0  0  0  0  0  0  0  0  0
   -4.1832   -2.9346    1.4373 C   0  0  0  0  0  0  0  0  0  0  0  0
   -4.8894   -2.1383    1.6847 H   0  0  0  0  0  0  0  0  0  0  0  0
   -4.4239   -3.3308    0.4477 H   0  0  0  0  0  0  0  0  0  0  0  0
   -2.7666   -2.3922    1.4464 C   0  0  0  0  0  0  0  0  0  0  0  0
   -1.9406   -2.8532    2.2190 O   0  0  0  0  0  0  0  0  0  0  0  0
   -2.4184   -1.3746    0.5828 N   0  0  0  0  0  0  0  0  0  0  0  0
   -3.1560   -0.9898   -0.0056 H   0  0  0  0  0  0  0  0  0  0  0  0
   -1.0893   -0.7494    0.4622 C   0  0  1  0  0  0  0  0  0  0  0  0
   -0.5126   -0.9861    1.3619 H   0  0  0  0  0  0  0  0  0  0  0  0
   -0.2230   -1.1501   -0.7783 C   0  0  0  0  0  0  0  0  0  0  0  0
   -0.2014   -0.2922   -1.4595 H   0  0  0  0  0  0  0  0  0  0  0  0
    0.8024   -1.2791   -0.4184 H   0  0  0  0  0  0  0  0  0  0  0  0
   -0.5369   -2.3688   -1.6407 C   0  0  0  0  0  0  0  0  0  0  0  0
   -1.1473   -3.5448   -1.1736 C   0  0  0  0  0  0  0  0  0  0  0  0
   -1.3155   -3.6968   -0.1177 H   0  0  0  0  0  0  0  0  0  0  0  0
   -1.4668   -4.5927   -2.0449 C   0  0  0  0  0  0  0  0  0  0  0  0
   -1.9192   -5.4947   -1.6476 H   0  0  0  0  0  0  0  0  0  0  0  0
   -1.1881   -4.4829   -3.4065 C   0  0  0  0  0  0  0  0  0  0  0  0
   -1.4924   -5.4992   -4.2650 O   0  0  0  0  0  0  0  0  0  0  0  0
   -1.8698   -6.2453   -3.7743 H   0  0  0  0  0  0  0  0  0  0  0  0
   -0.5820   -3.3273   -3.8887 C   0  0  0  0  0  0  0  0  0  0  0  0
   -0.3646   -3.2462   -4.9487 H   0  0  0  0  0  0  0  0  0  0  0  0
   -0.2596   -2.2816   -3.0173 C   0  0  0  0  0  0  0  0  0  0  0  0
    0.2026   -1.3881   -3.4267 H   0  0  0  0  0  0  0  0  0  0  0  0
   -1.2733    0.7818    0.4046 C   0  0  0  0  0  0  0  0  0  0  0  0
   -2.1598    1.2714   -0.2865 O   0  0  0  0  0  0  0  0  0  0  0  0
   -0.4625    1.6129    1.1557 N   0  0  0  0  0  0  0  0  0  0  0  0
    0.2250    1.1776    1.7642 H   0  0  0  0  0  0  0  0  0  0  0  0
   -0.6038    3.0638    1.1746 C   0  0  0  0  0  0  0  0  0  0  0  0
   -1.5980    3.3476    1.5357 H   0  0  0  0  0  0  0  0  0  0  0  0
    0.1451    3.5080    1.8373 H   0  0  0  0  0  0  0  0  0  0  0  0
   -0.4631    3.4750    0.1694 H   0  0  0  0  0  0  0  0  0  0  0  0
  1  2  1  0  0  0  0
  2  3  1  0  0  0  0
  2  4  1  0  0  0  0
  2  5  1  0  0  0  0
  5  6  2  0  0  0  0
  5  7  1  0  0  0  0
  7  8  1  0  0  0  0
  7  9  1  0  0  0  0
  9 10  1  0  0  0  0
  9 11  1  0  0  0  0
  9 26  1  0  0  0  0
 11 12  1  0  0  0  0
 11 13  1  0  0  0  0
 11 14  1  0  0  0  0
 14 15  2  0  0  0  0
 14 24  1  0  0  0  0
 15 16  1  0  0  0  0
 15 17  1  0  0  0  0
 17 18  1  0  0  0  0
 17 19  2  0  0  0  0
 19 20  1  0  0  0  0
 19 22  1  0  0  0  0
 20 21  1  0  0  0  0
 22 23  1  0  0  0  0
 22 24  2  0  0  0  0
 24 25  1  0  0  0  0
 26 27  2  0  0  0  0
 26 28  1  0  0  0  0
 28 29  1  0  0  0  0
 28 30  1  0  0  0  0
 30 31  1  0  0  0  0
 30 32  1  0  0  0  0
 30 33  1  0  0  0  0
M  END
$$$$

  -OEChem-04042216043D

 33 33  0     1  0  0  0  0  0999 V2000
   -4.2768   -3.6482    2.4223 H   0  0  0  0  0  0  0  0  0  0  0  0
   -4.2135   -2.8350    1.6938 C   0  0  0  0  0  0  0  0  0  0  0  0
   -4.8419   -2.0078    2.0331 H   0  0  0  0  0  0  0  0  0  0  0  0
   -4.5847   -3.1947    0.7309 H   0  0  0  0  0  0  0  0  0  0  0  0
   -2.7769   -2.3689    1.5534 C   0  0  0  0  0  0  0  0  0  0  0  0
   -1.8991   -2.8884    2.2239 O   0  0  0  0  0  0  0  0  0  0  0  0
   -2.4684   -1.3621    0.6609 N   0  0  0  0  0  0  0  0  0  0  0  0
   -3.2420   -0.9170    0.1685 H   0  0  0  0  0  0  0  0  0  0  0  0
   -1.1349   -0.7692    0.4647 C   0  0  1  0  0  0  0  0  0  0  0  0
   -0.5254   -1.0068    1.3423 H   0  0  0  0  0  0  0  0  0  0  0  0
   -0.3108   -1.1863   -0.8009 C   0  0  0  0  0  0  0  0  0  0  0  0
   -0.3152   -0.3295   -1.4844 H   0  0  0  0  0  0  0  0  0  0  0  0
    0.7241   -1.3057   -0.4655 H   0  0  0  0  0  0  0  0  0  0  0  0
   -0.6144   -2.3951   -1.6863 C   0  0  0  0  0  0  0  0  0  0  0  0
   -1.4556   -3.4784   -1.3734 C   0  0  0  0  0  0  0  0  0  0  0  0
   -1.9089   -3.5848   -0.4035 H   0  0  0  0  0  0  0  0  0  0  0  0
   -1.6867   -4.5093   -2.2927 C   0  0  0  0  0  0  0  0  0  0  0  0
   -2.3304   -5.3357   -2.0127 H   0  0  0  0  0  0  0  0  0  0  0  0
   -1.0838   -4.4820   -3.5488 C   0  0  0  0  0  0  0  0  0  0  0  0
   -1.2995   -5.4839   -4.4506 O   0  0  0  0  0  0  0  0  0  0  0  0
   -1.8759   -6.1604   -4.0633 H   0  0  0  0  0  0  0  0  0  0  0  0
   -0.2451   -3.4233   -3.8778 C   0  0  0  0  0  0  0  0  0  0  0  0
    0.2258   -3.4054   -4.8553 H   0  0  0  0  0  0  0  0  0  0  0  0
   -0.0132   -2.3944   -2.9592 C   0  0  0  0  0  0  0  0  0  0  0  0
    0.6427   -1.5790   -3.2501 H   0  0  0  0  0  0  0  0  0  0  0  0
   -1.2966    0.7653    0.4103 C   0  0  0  0  0  0  0  0  0  0  0  0
   -2.2219    1.2661   -0.2190 O   0  0  0  0  0  0  0  0  0  0  0  0
   -0.4324    1.5864    1.1118 N   0  0  0  0  0  0  0  0  0  0  0  0
    0.2830    1.1427    1.6808 H   0  0  0  0  0  0  0  0  0  0  0  0
   -0.5595    3.0385    1.1465 C   0  0  0  0  0  0  0  0  0  0  0  0
   -1.5346    3.3289    1.5516 H   0  0  0  0  0  0  0  0  0  0  0  0
    0.2203    3.4717    1.7803 H   0  0  0  0  0  0  0  0  0  0  0  0
   -0.4572    3.4556    0.1392 H   0  0  0  0  0  0  0  0  0  0  0  0
  1  2  1  0  0  0  0
  2  3  1  0  0  0  0
  2  4  1  0  0  0  0
  2  5  1  0  0  0  0
  5  6  2  0  0  0  0
  5  7  1  0  0  0  0
  7  8  1  0  0  0  0
  7  9  1  0  0  0  0
  9 10  1  0  0  0  0
  9 11  1  0  0  0  0
  9 26  1  0  0  0  0
 11 12  1  0  0  0  0
 11 13  1  0  0  0  0
 11 14  1  0  0  0  0
 14 15  2  0  0  0  0
 14 24  1  0  0  0  0
 15 16  1  0  0  0  0
 15 17  1  0  0  0  0
 17 18  1  0  0  0  0
 17 19  2  0  0  0  0
 19 20  1  0  0  0  0
 19 22  1  0  0  0  0
 20 21  1  0  0  0  0
 22 23  1  0  0  0  0
 22 24  2  0  0  0  0
 24 25  1  0  0  0  0
 26 27  2  0  0  0  0
 26 28  1  0  0  0  0
 28 29  1  0  0  0  0
 28 30  1  0  0  0  0
 30 31  1  0  0  0  0
 30 32  1  0  0  0  0
 30 33  1  0  0  0  0
M  END
$$$$

  -OEChem-04042216043D

 33 33  0     1  0  0  0  0  0999 V2000
   -4.4315   -3.5293    2.3602 H   0  0  0  0  0  0  0  0  0  0  0  0
   -4.3406   -2.6901    1.6649 C   0  0  0  0  0  0  0  0  0  0  0  0
   -4.9051   -1.8421    2.0603 H   0  0  0  0  0  0  0  0  0  0  0  0
   -4.7649   -2.9834    0.7016 H   0  0  0  0  0  0  0  0  0  0  0  0
   -2.8827   -2.3060    1.4949 C   0  0  0  0  0  0  0  0  0  0  0  0
   -2.0216   -2.8843    2.1381 O   0  0  0  0  0  0  0  0  0  0  0  0
   -2.5412   -1.2981    0.6147 N   0  0  0  0  0  0  0  0  0  0  0  0
   -3.3001   -0.7871    0.1650 H   0  0  0  0  0  0  0  0  0  0  0  0
   -1.1859   -0.7573    0.4357 C   0  0  1  0  0  0  0  0  0  0  0  0
   -0.6030   -1.0227    1.3235 H   0  0  0  0  0  0  0  0  0  0  0  0
   -0.3467   -1.2118   -0.8042 C   0  0  0  0  0  0  0  0  0  0  0  0
   -0.3158   -0.3635   -1.4974 H   0  0  0  0  0  0  0  0  0  0  0  0
    0.6764   -1.3498   -0.4393 H   0  0  0  0  0  0  0  0  0  0  0  0
   -0.6531   -2.4145   -1.6983 C   0  0  0  0  0  0  0  0  0  0  0  0
   -1.7221   -3.3248   -1.5833 C   0  0  0  0  0  0  0  0  0  0  0  0
   -2.4590   -3.2612   -0.8025 H   0  0  0  0  0  0  0  0  0  0  0  0
   -1.8753   -4.3823   -2.4891 C   0  0  0  0  0  0  0  0  0  0  0  0
   -2.7076   -5.0671   -2.3697 H   0  0  0  0  0  0  0  0  0  0  0  0
   -0.9678   -4.5564   -3.5320 C   0  0  0  0  0  0  0  0  0  0  0  0
   -1.1087   -5.5860   -4.4168 O   0  0  0  0  0  0  0  0  0  0  0  0
   -1.8738   -6.1292   -4.1733 H   0  0  0  0  0  0  0  0  0  0  0  0
    0.0928   -3.6688   -3.6661 C   0  0  0  0  0  0  0  0  0  0  0  0
    0.7985   -3.8055   -4.4789 H   0  0  0  0  0  0  0  0  0  0  0  0
    0.2473   -2.6138   -2.7617 C   0  0  0  0  0  0  0  0  0  0  0  0
    1.0862   -1.9370   -2.8946 H   0  0  0  0  0  0  0  0  0  0  0  0
   -1.2789    0.7824    0.3999 C   0  0  0  0  0  0  0  0  0  0  0  0
   -2.1885    1.3300   -0.2130 O   0  0  0  0  0  0  0  0  0  0  0  0
   -0.3839    1.5540    1.1180 N   0  0  0  0  0  0  0  0  0  0  0  0
    0.3165    1.0701    1.6729 H   0  0  0  0  0  0  0  0  0  0  0  0
   -0.4615    3.0079    1.1923 C   0  0  0  0  0  0  0  0  0  0  0  0
   -1.4172    3.3188    1.6271 H   0  0  0  0  0  0  0  0  0  0  0  0
    0.3465    3.3988    1.8180 H   0  0  0  0  0  0  0  0  0  0  0  0
   -0.3691    3.4481    0.1939 H   0  0  0  0  0  0  0  0  0  0  0  0
  1  2  1  0  0  0  0
  2  3  1  0  0  0  0
  2  4  1  0  0  0  0
  2  5  1  0  0  0  0
  5  6  2  0  0  0  0
  5  7  1  0  0  0  0
  7  8  1  0  0  0  0
  7  9  1  0  0  0  0
  9 10  1  0  0  0  0
  9 11  1  0  0  0  0
  9 26  1  0  0  0  0
 11 12  1  0  0  0  0
 11 13  1  0  0  0  0
 11 14  1  0  0  0  0
 14 15  2  0  0  0  0
 14 24  1  0  0  0  0
 15 16  1  0  0  0  0
 15 17  1  0  0  0  0
 17 18  1  0  0  0  0
 17 19  2  0  0  0  0
 19 20  1  0  0  0  0
 19 22  1  0  0  0  0
 20 21  1  0  0  0  0
 22 23  1  0  0  0  0
 22 24  2  0  0  0  0
 24 25  1  0  0  0  0
 26 27  2  0  0  0  0
 26 28  1  0  0  0  0
 28 29  1  0  0  0  0
 28 30  1  0  0  0  0
 30 31  1  0  0  0  0
 30 32  1  0  0  0  0
 30 33  1  0  0  0  0
M  END
$$$$

  -OEChem-04042216043D

 33 33  0     1  0  0  0  0  0999 V2000
   -4.3456   -3.5586    2.3600 H   0  0  0  0  0  0  0  0  0  0  0  0
   -4.2731   -2.7735    1.6021 C   0  0  0  0  0  0  0  0  0  0  0  0
   -4.8758   -1.9198    1.9215 H   0  0  0  0  0  0  0  0  0  0  0  0
   -4.6679   -3.1568    0.6583 H   0  0  0  0  0  0  0  0  0  0  0  0
   -2.8268   -2.3504    1.4249 C   0  0  0  0  0  0  0  0  0  0  0  0
   -1.9446   -2.9336    2.0342 O   0  0  0  0  0  0  0  0  0  0  0  0
   -2.5222   -1.2971    0.5854 N   0  0  0  0  0  0  0  0  0  0  0  0
   -3.2985   -0.7747    0.1817 H   0  0  0  0  0  0  0  0  0  0  0  0
   -1.1793   -0.7319    0.4013 C   0  0  1  0  0  0  0  0  0  0  0  0
   -0.5798   -1.0258    1.2690 H   0  0  0  0  0  0  0  0  0  0  0  0
   -0.3598   -1.1537   -0.8611 C   0  0  0  0  0  0  0  0  0  0  0  0
   -0.3532   -0.2963   -1.5435 H   0  0  0  0  0  0  0  0  0  0  0  0
    0.6715   -1.2838   -0.5173 H   0  0  0  0  0  0  0  0  0  0  0  0
   -0.6881   -2.3482   -1.7609 C   0  0  0  0  0  0  0  0  0  0  0  0
   -1.8937   -3.0786   -1.8103 C   0  0  0  0  0  0  0  0  0  0  0  0
   -2.7588   -2.8162   -1.2238 H   0  0  0  0  0  0  0  0  0  0  0  0
   -2.0426   -4.1757   -2.6687 C   0  0  0  0  0  0  0  0  0  0  0  0
   -2.9834   -4.7146   -2.6838 H   0  0  0  0  0  0  0  0  0  0  0  0
   -0.9963   -4.5693   -3.5005 C   0  0  0  0  0  0  0  0  0  0  0  0
   -1.1325   -5.6376   -4.3394 O   0  0  0  0  0  0  0  0  0  0  0  0
   -2.0064   -6.0410   -4.2240 H   0  0  0  0  0  0  0  0  0  0  0  0
    0.1971   -3.8579   -3.4751 C   0  0  0  0  0  0  0  0  0  0  0  0
    1.0090   -4.1645   -4.1262 H   0  0  0  0  0  0  0  0  0  0  0  0
    0.3486   -2.7636   -2.6178 C   0  0  0  0  0  0  0  0  0  0  0  0
    1.2959   -2.2323   -2.6200 H   0  0  0  0  0  0  0  0  0  0  0  0
   -1.2750    0.8068    0.4370 C   0  0  0  0  0  0  0  0  0  0  0  0
   -2.1983    1.3771   -0.1333 O   0  0  0  0  0  0  0  0  0  0  0  0
   -0.3657    1.5491    1.1681 N   0  0  0  0  0  0  0  0  0  0  0  0
    0.3464    1.0436    1.6879 H   0  0  0  0  0  0  0  0  0  0  0  0
   -0.4400    2.9988    1.3015 C   0  0  0  0  0  0  0  0  0  0  0  0
   -1.3850    3.2929    1.7702 H   0  0  0  0  0  0  0  0  0  0  0  0
    0.3828    3.3642    1.9233 H   0  0  0  0  0  0  0  0  0  0  0  0
   -0.3695    3.4778    0.3193 H   0  0  0  0  0  0  0  0  0  0  0  0
  1  2  1  0  0  0  0
  2  3  1  0  0  0  0
  2  4  1  0  0  0  0
  2  5  1  0  0  0  0
  5  6  2  0  0  0  0
  5  7  1  0  0  0  0
  7  8  1  0  0  0  0
  7  9  1  0  0  0  0
  9 10  1  0  0  0  0
  9 11  1  0  0  0  0
  9 26  1  0  0  0  0
 11 12  1  0  0  0  0
 11 13  1  0  0  0  0
 11 14  1  0  0  0  0
 14 15  2  0  0  0  0
 14 24  1  0  0  0  0
 15 16  1  0  0  0  0
 15 17  1  0  0  0  0
 17 18  1  0  0  0  0
 17 19  2  0  0  0  0
 19 20  1  0  0  0  0
 19 22  1  0  0  0  0
 20 21  1  0  0  0  0
 22 23  1  0  0  0  0
 22 24  2  0  0  0  0
 24 25  1  0  0  0  0
 26 27  2  0  0  0  0
 26 28  1  0  0  0  0
 28 29  1  0  0  0  0
 28 30  1  0  0  0  0
 30 31  1  0  0  0  0
 30 32  1  0  0  0  0
 30 33  1  0  0  0  0
M  END
$$$$

  -OEChem-04042216043D

 33 33  0     1  0  0  0  0  0999 V2000
   -4.2751   -3.6848    2.1638 H   0  0  0  0  0  0  0  0  0  0  0  0
   -4.2072   -2.8734    1.4337 C   0  0  0  0  0  0  0  0  0  0  0  0
   -4.8486   -2.0513    1.7603 H   0  0  0  0  0  0  0  0  0  0  0  0
   -4.5586   -3.2394    0.4660 H   0  0  0  0  0  0  0  0  0  0  0  0
   -2.7720   -2.3961    1.3159 C   0  0  0  0  0  0  0  0  0  0  0  0
   -1.8907   -2.9622    1.9428 O   0  0  0  0  0  0  0  0  0  0  0  0
   -2.4781   -1.3112    0.5145 N   0  0  0  0  0  0  0  0  0  0  0  0
   -3.2595   -0.7983    0.1095 H   0  0  0  0  0  0  0  0  0  0  0  0
   -1.1456   -0.7109    0.3698 C   0  0  1  0  0  0  0  0  0  0  0  0
   -0.5527   -1.0187    1.2370 H   0  0  0  0  0  0  0  0  0  0  0  0
   -0.3093   -1.0957   -0.8907 C   0  0  0  0  0  0  0  0  0  0  0  0
   -0.3155   -0.2339   -1.5670 H   0  0  0  0  0  0  0  0  0  0  0  0
    0.7241   -1.2115   -0.5482 H   0  0  0  0  0  0  0  0  0  0  0  0
   -0.6525   -2.2891   -1.7838 C   0  0  0  0  0  0  0  0  0  0  0  0
   -1.9447   -2.8026   -2.0154 C   0  0  0  0  0  0  0  0  0  0  0  0
   -2.8284   -2.3150   -1.6286 H   0  0  0  0  0  0  0  0  0  0  0  0
   -2.1421   -3.9340   -2.8166 C   0  0  0  0  0  0  0  0  0  0  0  0
   -3.1495   -4.2977   -2.9850 H   0  0  0  0  0  0  0  0  0  0  0  0
   -1.0553   -4.5801   -3.4032 C   0  0  0  0  0  0  0  0  0  0  0  0
   -1.2371   -5.6836   -4.1858 O   0  0  0  0  0  0  0  0  0  0  0  0
   -2.1769   -5.9189   -4.2146 H   0  0  0  0  0  0  0  0  0  0  0  0
    0.2271   -4.0863   -3.1918 C   0  0  0  0  0  0  0  0  0  0  0  0
    1.0704   -4.5911   -3.6516 H   0  0  0  0  0  0  0  0  0  0  0  0
    0.4267   -2.9554   -2.3934 C   0  0  0  0  0  0  0  0  0  0  0  0
    1.4422   -2.6004   -2.2441 H   0  0  0  0  0  0  0  0  0  0  0  0
   -1.2671    0.8235    0.4485 C   0  0  0  0  0  0  0  0  0  0  0  0
   -2.1863    1.3933   -0.1289 O   0  0  0  0  0  0  0  0  0  0  0  0
   -0.3833    1.5609    1.2147 N   0  0  0  0  0  0  0  0  0  0  0  0
    0.3230    1.0532    1.7401 H   0  0  0  0  0  0  0  0  0  0  0  0
   -0.4817    3.0059    1.3807 C   0  0  0  0  0  0  0  0  0  0  0  0
   -1.4342    3.2735    1.8502 H   0  0  0  0  0  0  0  0  0  0  0  0
    0.3316    3.3700    2.0157 H   0  0  0  0  0  0  0  0  0  0  0  0
   -0.4126    3.5086    0.4102 H   0  0  0  0  0  0  0  0  0  0  0  0
  1  2  1  0  0  0  0
  2  3  1  0  0  0  0
  2  4  1  0  0  0  0
  2  5  1  0  0  0  0
  5  6  2  0  0  0  0
  5  7  1  0  0  0  0
  7  8  1  0  0  0  0
  7  9  1  0  0  0  0
  9 10  1  0  0  0  0
  9 11  1  0  0  0  0
  9 26  1  0  0  0  0
 11 12  1  0  0  0  0
 11 13  1  0  0  0  0
 11 14  1  0  0  0  0
 14 15  2  0  0  0  0
 14 24  1  0  0  0  0
 15 16  1  0  0  0  0
 15 17  1  0  0  0  0
 17 18  1  0  0  0  0
 17 19  2  0  0  0  0
 19 20  1  0  0  0  0
 19 22  1  0  0  0  0
 20 21  1  0  0  0  0
 22 23  1  0  0  0  0
 22 24  2  0  0  0  0
 24 25  1  0  0  0  0
 26 27  2  0  0  0  0
 26 28  1  0  0  0  0
 28 29  1  0  0  0  0
 28 30  1  0  0  0  0
 30 31  1  0  0  0  0
 30 32  1  0  0  0  0
 30 33  1  0  0  0  0
M  END
$$$$

  -OEChem-04042216043D

 33 33  0     1  0  0  0  0  0999 V2000
   -4.1780   -3.8313    1.9308 H   0  0  0  0  0  0  0  0  0  0  0  0
   -4.1117   -2.9919    1.2331 C   0  0  0  0  0  0  0  0  0  0  0  0
   -4.8082   -2.2127    1.5517 H   0  0  0  0  0  0  0  0  0  0  0  0
   -4.3935   -3.3393    0.2363 H   0  0  0  0  0  0  0  0  0  0  0  0
   -2.6972   -2.4443    1.2067 C   0  0  0  0  0  0  0  0  0  0  0  0
   -1.8272   -2.9741    1.8801 O   0  0  0  0  0  0  0  0  0  0  0  0
   -2.4106   -1.3374    0.4338 N   0  0  0  0  0  0  0  0  0  0  0  0
   -3.1906   -0.8594   -0.0128 H   0  0  0  0  0  0  0  0  0  0  0  0
   -1.0926   -0.6923    0.3452 C   0  0  1  0  0  0  0  0  0  0  0  0
   -0.5128   -0.9996    1.2213 H   0  0  0  0  0  0  0  0  0  0  0  0
   -0.2301   -1.0485   -0.9034 C   0  0  0  0  0  0  0  0  0  0  0  0
   -0.2449   -0.1897   -1.5828 H   0  0  0  0  0  0  0  0  0  0  0  0
    0.8043   -1.1522   -0.5608 H   0  0  0  0  0  0  0  0  0  0  0  0
   -0.5904   -2.2517   -1.7684 C   0  0  0  0  0  0  0  0  0  0  0  0
   -1.9002   -2.5429   -2.1937 C   0  0  0  0  0  0  0  0  0  0  0  0
   -2.7128   -1.8580   -1.9794 H   0  0  0  0  0  0  0  0  0  0  0  0
   -2.1764   -3.6903   -2.9467 C   0  0  0  0  0  0  0  0  0  0  0  0
   -3.1927   -3.8845   -3.2711 H   0  0  0  0  0  0  0  0  0  0  0  0
   -1.1493   -4.5712   -3.2849 C   0  0  0  0  0  0  0  0  0  0  0  0
   -1.4069   -5.6926   -4.0193 O   0  0  0  0  0  0  0  0  0  0  0  0
   -2.3531   -5.7454   -4.2232 H   0  0  0  0  0  0  0  0  0  0  0  0
    0.1513   -4.2979   -2.8723 C   0  0  0  0  0  0  0  0  0  0  0  0
    0.9461   -4.9876   -3.1366 H   0  0  0  0  0  0  0  0  0  0  0  0
    0.4301   -3.1515   -2.1208 C   0  0  0  0  0  0  0  0  0  0  0  0
    1.4532   -2.9725   -1.8043 H   0  0  0  0  0  0  0  0  0  0  0  0
   -1.2558    0.8363    0.4423 C   0  0  0  0  0  0  0  0  0  0  0  0
   -2.1600    1.3923   -0.1710 O   0  0  0  0  0  0  0  0  0  0  0  0
   -0.4185    1.5841    1.2496 N   0  0  0  0  0  0  0  0  0  0  0  0
    0.2750    1.0851    1.7999 H   0  0  0  0  0  0  0  0  0  0  0  0
   -0.5551    3.0246    1.4268 C   0  0  0  0  0  0  0  0  0  0  0  0
   -1.5316    3.2672    1.8593 H   0  0  0  0  0  0  0  0  0  0  0  0
    0.2238    3.3980    2.0985 H   0  0  0  0  0  0  0  0  0  0  0  0
   -0.4573    3.5400    0.4655 H   0  0  0  0  0  0  0  0  0  0  0  0
  1  2  1  0  0  0  0
  2  3  1  0  0  0  0
  2  4  1  0  0  0  0
  2  5  1  0  0  0  0
  5  6  2  0  0  0  0
  5  7  1  0  0  0  0
  7  8  1  0  0  0  0
  7  9  1  0  0  0  0
  9 10  1  0  0  0  0
  9 11  1  0  0  0  0
  9 26  1  0  0  0  0
 11 12  1  0  0  0  0
 11 13  1  0  0  0  0
 11 14  1  0  0  0  0
 14 15  2  0  0  0  0
 14 24  1  0  0  0  0
 15 16  1  0  0  0  0
 15 17  1  0  0  0  0
 17 18  1  0  0  0  0
 17 19  2  0  0  0  0
 19 20  1  0  0  0  0
 19 22  1  0  0  0  0
 20 21  1  0  0  0  0
 22 23  1  0  0  0  0
 22 24  2  0  0  0  0
 24 25  1  0  0  0  0
 26 27  2  0  0  0  0
 26 28  1  0  0  0  0
 28 29  1  0  0  0  0
 28 30  1  0  0  0  0
 30 31  1  0  0  0  0
 30 32  1  0  0  0  0
 30 33  1  0  0  0  0
M  END
$$$$

  -OEChem-04042216043D

 33 33  0     1  0  0  0  0  0999 V2000
   -4.0595   -3.9757    1.7108 H   0  0  0  0  0  0  0  0  0  0  0  0
   -3.9964   -3.1218    1.0308 C   0  0  0  0  0  0  0  0  0  0  0  0
   -4.7698   -2.3985    1.2999 H   0  0  0  0  0  0  0  0  0  0  0  0
   -4.1710   -3.4708    0.0102 H   0  0  0  0  0  0  0  0  0  0  0  0
   -2.6257   -2.4792    1.1264 C   0  0  0  0  0  0  0  0  0  0  0  0
   -1.7811   -2.9536    1.8704 O   0  0  0  0  0  0  0  0  0  0  0  0
   -2.3442   -1.3598    0.3701 N   0  0  0  0  0  0  0  0  0  0  0  0
   -3.1037   -0.9489   -0.1677 H   0  0  0  0  0  0  0  0  0  0  0  0
   -1.0434   -0.6735    0.3357 C   0  0  1  0  0  0  0  0  0  0  0  0
   -0.4783   -0.9715    1.2242 H   0  0  0  0  0  0  0  0  0  0  0  0
   -0.1602   -1.0143   -0.8987 C   0  0  0  0  0  0  0  0  0  0  0  0
   -0.1753   -0.1618   -1.5865 H   0  0  0  0  0  0  0  0  0  0  0  0
    0.8741   -1.1177   -0.5558 H   0  0  0  0  0  0  0  0  0  0  0  0
   -0.5447   -2.2326   -1.7227 C   0  0  0  0  0  0  0  0  0  0  0  0
   -1.7946   -2.3307   -2.3587 C   0  0  0  0  0  0  0  0  0  0  0  0
   -2.4908   -1.4989   -2.3097 H   0  0  0  0  0  0  0  0  0  0  0  0
   -2.1446   -3.4786   -3.0789 C   0  0  0  0  0  0  0  0  0  0  0  0
   -3.1101   -3.5266   -3.5702 H   0  0  0  0  0  0  0  0  0  0  0  0
   -1.2533   -4.5491   -3.1669 C   0  0  0  0  0  0  0  0  0  0  0  0
   -1.5831   -5.6739   -3.8665 O   0  0  0  0  0  0  0  0  0  0  0  0
   -2.4644   -5.5755   -4.2580 H   0  0  0  0  0  0  0  0  0  0  0  0
   -0.0152   -4.4666   -2.5342 C   0  0  0  0  0  0  0  0  0  0  0  0
    0.6703   -5.3048   -2.6025 H   0  0  0  0  0  0  0  0  0  0  0  0
    0.3387   -3.3198   -1.8144 C   0  0  0  0  0  0  0  0  0  0  0  0
    1.3040   -3.2855   -1.3182 H   0  0  0  0  0  0  0  0  0  0  0  0
   -1.2432    0.8505    0.4321 C   0  0  0  0  0  0  0  0  0  0  0  0
   -2.1212    1.3920   -0.2305 O   0  0  0  0  0  0  0  0  0  0  0  0
   -0.4539    1.6127    1.2739 N   0  0  0  0  0  0  0  0  0  0  0  0
    0.2242    1.1256    1.8533 H   0  0  0  0  0  0  0  0  0  0  0  0
   -0.6125    3.0530    1.4347 C   0  0  0  0  0  0  0  0  0  0  0  0
   -1.6143    3.2899    1.8078 H   0  0  0  0  0  0  0  0  0  0  0  0
    0.1220    3.4369    2.1492 H   0  0  0  0  0  0  0  0  0  0  0  0
   -0.4625    3.5640    0.4778 H   0  0  0  0  0  0  0  0  0  0  0  0
  1  2  1  0  0  0  0
  2  3  1  0  0  0  0
  2  4  1  0  0  0  0
  2  5  1  0  0  0  0
  5  6  2  0  0  0  0
  5  7  1  0  0  0  0
  7  8  1  0  0  0  0
  7  9  1  0  0  0  0
  9 10  1  0  0  0  0
  9 11  1  0  0  0  0
  9 26  1  0  0  0  0
 11 12  1  0  0  0  0
 11 13  1  0  0  0  0
 11 14  1  0  0  0  0
 14 15  2  0  0  0  0
 14 24  1  0  0  0  0
 15 16  1  0  0  0  0
 15 17  1  0  0  0  0
 17 18  1  0  0  0  0
 17 19  2  0  0  0  0
 19 20  1  0  0  0  0
 19 22  1  0  0  0  0
 20 21  1  0  0  0  0
 22 23  1  0  0  0  0
 22 24  2  0  0  0  0
 24 25  1  0  0  0  0
 26 27  2  0  0  0  0
 26 28  1  0  0  0  0
 28 29  1  0  0  0  0
 28 30  1  0  0  0  0
 30 31  1  0  0  0  0
 30 32  1  0  0  0  0
 30 33  1  0  0  0  0
M  END
$$$$

  -OEChem-04042216043D

 33 33  0     1  0  0  0  0  0999 V2000
   -3.9492   -4.0835    1.5424 H   0  0  0  0  0  0  0  0  0  0  0  0
   -3.8916   -3.2105    0.8865 C   0  0  0  0  0  0  0  0  0  0  0  0
   -4.7137   -2.5324    1.1271 H   0  0  0  0  0  0  0  0  0  0  0  0
   -3.9909   -3.5425   -0.1499 H   0  0  0  0  0  0  0  0  0  0  0  0
   -2.5632   -2.5028    1.0725 C   0  0  0  0  0  0  0  0  0  0  0  0
   -1.7499   -2.9318    1.8771 O   0  0  0  0  0  0  0  0  0  0  0  0
   -2.2810   -1.3797    0.3227 N   0  0  0  0  0  0  0  0  0  0  0  0
   -3.0035   -1.0378   -0.3060 H   0  0  0  0  0  0  0  0  0  0  0  0
   -0.9934   -0.6659    0.3314 C   0  0  1  0  0  0  0  0  0  0  0  0
   -0.4388   -0.9559    1.2292 H   0  0  0  0  0  0  0  0  0  0  0  0
   -0.0992   -0.9984   -0.8937 C   0  0  0  0  0  0  0  0  0  0  0  0
   -0.1056   -0.1507   -1.5877 H   0  0  0  0  0  0  0  0  0  0  0  0
    0.9340   -1.1141   -0.5508 H   0  0  0  0  0  0  0  0  0  0  0  0
   -0.5127   -2.2249   -1.6815 C   0  0  0  0  0  0  0  0  0  0  0  0
   -1.6261   -2.1799   -2.5366 C   0  0  0  0  0  0  0  0  0  0  0  0
   -2.1677   -1.2466   -2.6652 H   0  0  0  0  0  0  0  0  0  0  0  0
   -2.0366   -3.3236   -3.2307 C   0  0  0  0  0  0  0  0  0  0  0  0
   -2.8926   -3.2666   -3.8940 H   0  0  0  0  0  0  0  0  0  0  0  0
   -1.3466   -4.5266   -3.0677 C   0  0  0  0  0  0  0  0  0  0  0  0
   -1.7385   -5.6488   -3.7383 O   0  0  0  0  0  0  0  0  0  0  0  0
   -2.4858   -5.4441   -4.3208 H   0  0  0  0  0  0  0  0  0  0  0  0
   -0.2497   -4.5820   -2.2097 C   0  0  0  0  0  0  0  0  0  0  0  0
    0.2751   -5.5229   -2.0808 H   0  0  0  0  0  0  0  0  0  0  0  0
    0.1671   -3.4402   -1.5164 C   0  0  0  0  0  0  0  0  0  0  0  0
    1.0134   -3.5069   -0.8392 H   0  0  0  0  0  0  0  0  0  0  0  0
   -1.2238    0.8543    0.4163 C   0  0  0  0  0  0  0  0  0  0  0  0
   -2.0688    1.3836   -0.2974 O   0  0  0  0  0  0  0  0  0  0  0  0
   -0.4788    1.6332    1.2825 N   0  0  0  0  0  0  0  0  0  0  0  0
    0.1710    1.1580    1.9028 H   0  0  0  0  0  0  0  0  0  0  0  0
   -0.6680    3.0714    1.4267 C   0  0  0  0  0  0  0  0  0  0  0  0
   -1.6948    3.2935    1.7359 H   0  0  0  0  0  0  0  0  0  0  0  0
    0.0150    3.4689    2.1836 H   0  0  0  0  0  0  0  0  0  0  0  0
   -0.4672    3.5806    0.4783 H   0  0  0  0  0  0  0  0  0  0  0  0
  1  2  1  0  0  0  0
  2  3  1  0  0  0  0
  2  4  1  0  0  0  0
  2  5  1  0  0  0  0
  5  6  2  0  0  0  0
  5  7  1  0  0  0  0
  7  8  1  0  0  0  0
  7  9  1  0  0  0  0
  9 10  1  0  0  0  0
  9 11  1  0  0  0  0
  9 26  1  0  0  0  0
 11 12  1  0  0  0  0
 11 13  1  0  0  0  0
 11 14  1  0  0  0  0
 14 15  2  0  0  0  0
 14 24  1  0  0  0  0
 15 16  1  0  0  0  0
 15 17  1  0  0  0  0
 17 18  1  0  0  0  0
 17 19  2  0  0  0  0
 19 20  1  0  0  0  0
 19 22  1  0  0  0  0
 20 21  1  0  0  0  0
 22 23  1  0  0  0  0
 22 24  2  0  0  0  0
 24 25  1  0  0  0  0
 26 27  2  0  0  0  0
 26 28  1  0  0  0  0
 28 29  1  0  0  0  0
 28 30  1  0  0  0  0
 30 31  1  0  0  0  0
 30 32  1  0  0  0  0
 30 33  1  0  0  0  0
M  END
$$$$

  -OEChem-04042216043D

 33 33  0     1  0  0  0  0  0999 V2000
   -3.9160   -4.1101    1.4990 H   0  0  0  0  0  0  0  0  0  0  0  0
   -3.8587   -3.2389    0.8406 C   0  0  0  0  0  0  0  0  0  0  0  0
   -4.6972   -2.5740    1.0606 H   0  0  0  0  0  0  0  0  0  0  0  0
   -3.9302   -3.5763   -0.1964 H   0  0  0  0  0  0  0  0  0  0  0  0
   -2.5473   -2.5079    1.0540 C   0  0  0  0  0  0  0  0  0  0  0  0
   -1.7466   -2.9194    1.8806 O   0  0  0  0  0  0  0  0  0  0  0  0
   -2.2629   -1.3849    0.3048 N   0  0  0  0  0  0  0  0  0  0  0  0
   -2.9605   -1.0781   -0.3689 H   0  0  0  0  0  0  0  0  0  0  0  0
   -0.9801   -0.6613    0.3318 C   0  0  1  0  0  0  0  0  0  0  0  0
   -0.4326   -0.9478    1.2351 H   0  0  0  0  0  0  0  0  0  0  0  0
   -0.0811   -0.9971   -0.8869 C   0  0  0  0  0  0  0  0  0  0  0  0
   -0.0767   -0.1515   -1.5834 H   0  0  0  0  0  0  0  0  0  0  0  0
    0.9499   -1.1235   -0.5417 H   0  0  0  0  0  0  0  0  0  0  0  0
   -0.5082   -2.2299   -1.6541 C   0  0  0  0  0  0  0  0  0  0  0  0
   -1.4116   -2.1206   -2.7226 C   0  0  0  0  0  0  0  0  0  0  0  0
   -1.7841   -1.1432   -3.0182 H   0  0  0  0  0  0  0  0  0  0  0  0
   -1.8376   -3.2631   -3.4103 C   0  0  0  0  0  0  0  0  0  0  0  0
   -2.5319   -3.1592   -4.2370 H   0  0  0  0  0  0  0  0  0  0  0  0
   -1.3719   -4.5240   -3.0309 C   0  0  0  0  0  0  0  0  0  0  0  0
   -1.7824   -5.6443   -3.6937 O   0  0  0  0  0  0  0  0  0  0  0  0
   -2.3607   -5.4010   -4.4328 H   0  0  0  0  0  0  0  0  0  0  0  0
   -0.4838   -4.6388   -1.9627 C   0  0  0  0  0  0  0  0  0  0  0  0
   -0.1336   -5.6223   -1.6671 H   0  0  0  0  0  0  0  0  0  0  0  0
   -0.0524   -3.5001   -1.2734 C   0  0  0  0  0  0  0  0  0  0  0  0
    0.6244   -3.6072   -0.4303 H   0  0  0  0  0  0  0  0  0  0  0  0
   -1.2155    0.8587    0.4087 C   0  0  0  0  0  0  0  0  0  0  0  0
   -2.0435    1.3868   -0.3252 O   0  0  0  0  0  0  0  0  0  0  0  0
   -0.4853    1.6409    1.2847 N   0  0  0  0  0  0  0  0  0  0  0  0
    0.1498    1.1675    1.9211 H   0  0  0  0  0  0  0  0  0  0  0  0
   -0.6777    3.0795    1.4213 C   0  0  0  0  0  0  0  0  0  0  0  0
   -1.7068    3.3017    1.7226 H   0  0  0  0  0  0  0  0  0  0  0  0
   -0.0004    3.4814    2.1808 H   0  0  0  0  0  0  0  0  0  0  0  0
   -0.4711    3.5852    0.4722 H   0  0  0  0  0  0  0  0  0  0  0  0
  1  2  1  0  0  0  0
  2  3  1  0  0  0  0
  2  4  1  0  0  0  0
  2  5  1  0  0  0  0
  5  6  2  0  0  0  0
  5  7  1  0  0  0  0
  7  8  1  0  0  0  0
  7  9  1  0  0  0  0
  9 10  1  0  0  0  0
  9 11  1  0  0  0  0
  9 26  1  0  0  0  0
 11 12  1  0  0  0  0
 11 13  1  0  0  0  0
 11 14  1  0  0  0  0
 14 15  2  0  0  0  0
 14 24  1  0  0  0  0
 15 16  1  0  0  0  0
 15 17  1  0  0  0  0
 17 18  1  0  0  0  0
 17 19  2  0  0  0  0
 19 20  1  0  0  0  0
 19 22  1  0  0  0  0
 20 21  1  0  0  0  0
 22 23  1  0  0  0  0
 22 24  2  0  0  0  0
 24 25  1  0  0  0  0
 26 27  2  0  0  0  0
 26 28  1  0  0  0  0
 28 29  1  0  0  0  0
 28 30  1  0  0  0  0
 30 31  1  0  0  0  0
 30 32  1  0  0  0  0
 30 33  1  0  0  0  0
M  END
$$$$

  -OEChem-04042216043D

 33 33  0     1  0  0  0  0  0999 V2000
   -3.9562   -4.0882    1.5297 H   0  0  0  0  0  0  0  0  0  0  0  0
   -3.8902   -3.2179    0.8712 C   0  0  0  0  0  0  0  0  0  0  0  0
   -4.7254   -2.5473    1.0862 H   0  0  0  0  0  0  0  0  0  0  0  0
   -3.9589   -3.5556   -0.1660 H   0  0  0  0  0  0  0  0  0  0  0  0
   -2.5753   -2.4942    1.0889 C   0  0  0  0  0  0  0  0  0  0  0  0
   -1.7783   -2.9078    1.9182 O   0  0  0  0  0  0  0  0  0  0  0  0
   -2.2781   -1.3808    0.3305 N   0  0  0  0  0  0  0  0  0  0  0  0
   -2.9696   -1.0792   -0.3521 H   0  0  0  0  0  0  0  0  0  0  0  0
   -0.9907   -0.6647    0.3500 C   0  0  1  0  0  0  0  0  0  0  0  0
   -0.4429   -0.9468    1.2543 H   0  0  0  0  0  0  0  0  0  0  0  0
   -0.0973   -1.0124   -0.8700 C   0  0  0  0  0  0  0  0  0  0  0  0
   -0.0833   -0.1659   -1.5651 H   0  0  0  0  0  0  0  0  0  0  0  0
    0.9319   -1.1498   -0.5240 H   0  0  0  0  0  0  0  0  0  0  0  0
   -0.5276   -2.2470   -1.6341 C   0  0  0  0  0  0  0  0  0  0  0  0
   -1.1695   -2.1255   -2.8756 C   0  0  0  0  0  0  0  0  0  0  0  0
   -1.3620   -1.1416   -3.2943 H   0  0  0  0  0  0  0  0  0  0  0  0
   -1.5745   -3.2663   -3.5784 C   0  0  0  0  0  0  0  0  0  0  0  0
   -2.0734   -3.1530   -4.5347 H   0  0  0  0  0  0  0  0  0  0  0  0
   -1.3394   -4.5371   -3.0489 C   0  0  0  0  0  0  0  0  0  0  0  0
   -1.7334   -5.6548   -3.7260 O   0  0  0  0  0  0  0  0  0  0  0  0
   -2.1179   -5.4072   -4.5809 H   0  0  0  0  0  0  0  0  0  0  0  0
   -0.6980   -4.6640   -1.8182 C   0  0  0  0  0  0  0  0  0  0  0  0
   -0.5208   -5.6540   -1.4108 H   0  0  0  0  0  0  0  0  0  0  0  0
   -0.2888   -3.5274   -1.1126 C   0  0  0  0  0  0  0  0  0  0  0  0
    0.2002   -3.6409   -0.1486 H   0  0  0  0  0  0  0  0  0  0  0  0
   -1.2167    0.8577    0.4116 C   0  0  0  0  0  0  0  0  0  0  0  0
   -2.0386    1.3854   -0.3293 O   0  0  0  0  0  0  0  0  0  0  0  0
   -0.4809    1.6428    1.2800 N   0  0  0  0  0  0  0  0  0  0  0  0
    0.1478    1.1706    1.9237 H   0  0  0  0  0  0  0  0  0  0  0  0
   -0.6607    3.0846    1.3999 C   0  0  0  0  0  0  0  0  0  0  0  0
   -1.6902    3.3198    1.6899 H   0  0  0  0  0  0  0  0  0  0  0  0
    0.0137    3.4883    2.1613 H   0  0  0  0  0  0  0  0  0  0  0  0
   -0.4413    3.5782    0.4473 H   0  0  0  0  0  0  0  0  0  0  0  0
  1  2  1  0  0  0  0
  2  3  1  0  0  0  0
  2  4  1  0  0  0  0
  2  5  1  0  0  0  0
  5  6  2  0  0  0  0
  5  7  1  0  0  0  0
  7  8  1  0  0  0  0
  7  9  1  0  0  0  0
  9 10  1  0  0  0  0
  9 11  1  0  0  0  0
  9 26  1  0  0  0  0
 11 12  1  0  0  0  0
 11 13  1  0  0  0  0
 11 14  1  0  0  0  0
 14 15  2  0  0  0  0
 14 24  1  0  0  0  0
 15 16  1  0  0  0  0
 15 17  1  0  0  0  0
 17 18  1  0  0  0  0
 17 19  2  0  0  0  0
 19 20  1  0  0  0  0
 19 22  1  0  0  0  0
 20 21  1  0  0  0  0
 22 23  1  0  0  0  0
 22 24  2  0  0  0  0
 24 25  1  0  0  0  0
 26 27  2  0  0  0  0
 26 28  1  0  0  0  0
 28 29  1  0  0  0  0
 28 30  1  0  0  0  0
 30 31  1  0  0  0  0
 30 32  1  0  0  0  0
 30 33  1  0  0  0  0
M  END
$$$$

  -OEChem-04042216043D

 33 33  0     1  0  0  0  0  0999 V2000
   -4.0499   -4.0210    1.6226 H   0  0  0  0  0  0  0  0  0  0  0  0
   -3.9666   -3.1659    0.9461 C   0  0  0  0  0  0  0  0  0  0  0  0
   -4.7917   -2.4774    1.1433 H   0  0  0  0  0  0  0  0  0  0  0  0
   -4.0366   -3.5243   -0.0841 H   0  0  0  0  0  0  0  0  0  0  0  0
   -2.6408   -2.4595    1.1553 C   0  0  0  0  0  0  0  0  0  0  0  0
   -1.8560   -2.8685    1.9983 O   0  0  0  0  0  0  0  0  0  0  0  0
   -2.3215   -1.3647    0.3794 N   0  0  0  0  0  0  0  0  0  0  0  0
   -3.0076   -1.0643   -0.3095 H   0  0  0  0  0  0  0  0  0  0  0  0
   -1.0212   -0.6714    0.3774 C   0  0  1  0  0  0  0  0  0  0  0  0
   -0.4707   -0.9510    1.2809 H   0  0  0  0  0  0  0  0  0  0  0  0
   -0.1394   -1.0371   -0.8495 C   0  0  0  0  0  0  0  0  0  0  0  0
   -0.1181   -0.1885   -1.5423 H   0  0  0  0  0  0  0  0  0  0  0  0
    0.8896   -1.1843   -0.5060 H   0  0  0  0  0  0  0  0  0  0  0  0
   -0.5679   -2.2680   -1.6249 C   0  0  0  0  0  0  0  0  0  0  0  0
   -0.9143   -2.1682   -2.9814 C   0  0  0  0  0  0  0  0  0  0  0  0
   -0.9220   -1.1986   -3.4714 H   0  0  0  0  0  0  0  0  0  0  0  0
   -1.2713   -3.3092   -3.7103 C   0  0  0  0  0  0  0  0  0  0  0  0
   -1.5518   -3.2078   -4.7529 H   0  0  0  0  0  0  0  0  0  0  0  0
   -1.2639   -4.5644   -3.0984 C   0  0  0  0  0  0  0  0  0  0  0  0
   -1.6166   -5.6818   -3.7985 O   0  0  0  0  0  0  0  0  0  0  0  0
   -1.8396   -5.4451   -4.7118 H   0  0  0  0  0  0  0  0  0  0  0  0
   -0.8837   -4.6767   -1.7629 C   0  0  0  0  0  0  0  0  0  0  0  0
   -0.8639   -5.6562   -1.2966 H   0  0  0  0  0  0  0  0  0  0  0  0
   -0.5240   -3.5399   -1.0318 C   0  0  0  0  0  0  0  0  0  0  0  0
   -0.2158   -3.6480    0.0049 H   0  0  0  0  0  0  0  0  0  0  0  0
   -1.2239    0.8556    0.4160 C   0  0  0  0  0  0  0  0  0  0  0  0
   -2.0460    1.3857   -0.3228 O   0  0  0  0  0  0  0  0  0  0  0  0
   -0.4682    1.6412    1.2669 N   0  0  0  0  0  0  0  0  0  0  0  0
    0.1612    1.1681    1.9092 H   0  0  0  0  0  0  0  0  0  0  0  0
   -0.6259    3.0866    1.3720 C   0  0  0  0  0  0  0  0  0  0  0  0
   -1.6486    3.3403    1.6705 H   0  0  0  0  0  0  0  0  0  0  0  0
    0.0627    3.4881    2.1216 H   0  0  0  0  0  0  0  0  0  0  0  0
   -0.4095    3.5663    0.4116 H   0  0  0  0  0  0  0  0  0  0  0  0
  1  2  1  0  0  0  0
  2  3  1  0  0  0  0
  2  4  1  0  0  0  0
  2  5  1  0  0  0  0
  5  6  2  0  0  0  0
  5  7  1  0  0  0  0
  7  8  1  0  0  0  0
  7  9  1  0  0  0  0
  9 10  1  0  0  0  0
  9 11  1  0  0  0  0
  9 26  1  0  0  0  0
 11 12  1  0  0  0  0
 11 13  1  0  0  0  0
 11 14  1  0  0  0  0
 14 15  2  0  0  0  0
 14 24  1  0  0  0  0
 15 16  1  0  0  0  0
 15 17  1  0  0  0  0
 17 18  1  0  0  0  0
 17 19  2  0  0  0  0
 19 20  1  0  0  0  0
 19 22  1  0  0  0  0
 20 21  1  0  0  0  0
 22 23  1  0  0  0  0
 22 24  2  0  0  0  0
 24 25  1  0  0  0  0
 26 27  2  0  0  0  0
 26 28  1  0  0  0  0
 28 29  1  0  0  0  0
 28 30  1  0  0  0  0
 30 31  1  0  0  0  0
 30 32  1  0  0  0  0
 30 33  1  0  0  0  0
M  END
$$$$

  -OEChem-04042216043D

 33 33  0     1  0  0  0  0  0999 V2000
   -4.1848   -3.9045    1.7867 H   0  0  0  0  0  0  0  0  0  0  0  0
   -4.0775   -3.0775    1.0796 C   0  0  0  0  0  0  0  0  0  0  0  0
   -4.8747   -2.3523    1.2598 H   0  0  0  0  0  0  0  0  0  0  0  0
   -4.1718   -3.4687    0.0634 H   0  0  0  0  0  0  0  0  0  0  0  0
   -2.7242   -2.4150    1.2524 C   0  0  0  0  0  0  0  0  0  0  0  0
   -1.9454   -2.8266    2.0992 O   0  0  0  0  0  0  0  0  0  0  0  0
   -2.3789   -1.3478    0.4499 N   0  0  0  0  0  0  0  0  0  0  0  0
   -3.0696   -1.0331   -0.2285 H   0  0  0  0  0  0  0  0  0  0  0  0
   -1.0609   -0.6899    0.4107 C   0  0  1  0  0  0  0  0  0  0  0  0
   -0.5015   -0.9658    1.3099 H   0  0  0  0  0  0  0  0  0  0  0  0
   -0.1992   -1.0745   -0.8292 C   0  0  0  0  0  0  0  0  0  0  0  0
   -0.1719   -0.2215   -1.5163 H   0  0  0  0  0  0  0  0  0  0  0  0
    0.8295   -1.2325   -0.4905 H   0  0  0  0  0  0  0  0  0  0  0  0
   -0.6196   -2.2944   -1.6306 C   0  0  0  0  0  0  0  0  0  0  0  0
   -0.6508   -2.2296   -3.0337 C   0  0  0  0  0  0  0  0  0  0  0  0
   -0.4675   -1.2855   -3.5390 H   0  0  0  0  0  0  0  0  0  0  0  0
   -0.9440   -3.3651   -3.7986 C   0  0  0  0  0  0  0  0  0  0  0  0
   -0.9928   -3.2812   -4.8786 H   0  0  0  0  0  0  0  0  0  0  0  0
   -1.1634   -4.5937   -3.1748 C   0  0  0  0  0  0  0  0  0  0  0  0
   -1.4537   -5.7063   -3.9101 O   0  0  0  0  0  0  0  0  0  0  0  0
   -1.4804   -5.4834   -4.8533 H   0  0  0  0  0  0  0  0  0  0  0  0
   -1.0613   -4.6866   -1.7894 C   0  0  0  0  0  0  0  0  0  0  0  0
   -1.1948   -5.6510   -1.3104 H   0  0  0  0  0  0  0  0  0  0  0  0
   -0.7687   -3.5530   -1.0243 C   0  0  0  0  0  0  0  0  0  0  0  0
   -0.6386   -3.6629    0.0475 H   0  0  0  0  0  0  0  0  0  0  0  0
   -1.2370    0.8417    0.4189 C   0  0  0  0  0  0  0  0  0  0  0  0
   -2.0678    1.3715   -0.3104 O   0  0  0  0  0  0  0  0  0  0  0  0
   -0.4525    1.6307    1.2401 N   0  0  0  0  0  0  0  0  0  0  0  0
    0.1785    1.1590    1.8819 H   0  0  0  0  0  0  0  0  0  0  0  0
   -0.5830    3.0807    1.3187 C   0  0  0  0  0  0  0  0  0  0  0  0
   -1.5884    3.3586    1.6521 H   0  0  0  0  0  0  0  0  0  0  0  0
    0.1422    3.4874    2.0302 H   0  0  0  0  0  0  0  0  0  0  0  0
   -0.3982    3.5354    0.3398 H   0  0  0  0  0  0  0  0  0  0  0  0
  1  2  1  0  0  0  0
  2  3  1  0  0  0  0
  2  4  1  0  0  0  0
  2  5  1  0  0  0  0
  5  6  2  0  0  0  0
  5  7  1  0  0  0  0
  7  8  1  0  0  0  0
  7  9  1  0  0  0  0
  9 10  1  0  0  0  0
  9 11  1  0  0  0  0
  9 26  1  0  0  0  0
 11 12  1  0  0  0  0
 11 13  1  0  0  0  0
 11 14  1  0  0  0  0
 14 15  2  0  0  0  0
 14 24  1  0  0  0  0
 15 16  1  0  0  0  0
 15 17  1  0  0  0  0
 17 18  1  0  0  0  0
 17 19  2  0  0  0  0
 19 20  1  0  0  0  0
 19 22  1  0  0  0  0
 20 21  1  0  0  0  0
 22 23  1  0  0  0  0
 22 24  2  0  0  0  0
 24 25  1  0  0  0  0
 26 27  2  0  0  0  0
 26 28  1  0  0  0  0
 28 29  1  0  0  0  0
 28 30  1  0  0  0  0
 30 31  1  0  0  0  0
 30 32  1  0  0  0  0
 30 33  1  0  0  0  0
M  END
$$$$

  -OEChem-04042216043D

 33 33  0     1  0  0  0  0  0999 V2000
   -4.3121   -3.7682    1.9871 H   0  0  0  0  0  0  0  0  0  0  0  0
   -4.1966   -2.9566    1.2635 C   0  0  0  0  0  0  0  0  0  0  0  0
   -4.9459   -2.1890    1.4713 H   0  0  0  0  0  0  0  0  0  0  0  0
   -4.3604   -3.3546    0.2590 H   0  0  0  0  0  0  0  0  0  0  0  0
   -2.8045   -2.3632    1.3618 C   0  0  0  0  0  0  0  0  0  0  0  0
   -2.0124   -2.7960    2.1851 O   0  0  0  0  0  0  0  0  0  0  0  0
   -2.4394   -1.3295    0.5247 N   0  0  0  0  0  0  0  0  0  0  0  0
   -3.1470   -0.9800   -0.1190 H   0  0  0  0  0  0  0  0  0  0  0  0
   -1.1026   -0.7153    0.4338 C   0  0  1  0  0  0  0  0  0  0  0  0
   -0.5310   -0.9841    1.3278 H   0  0  0  0  0  0  0  0  0  0  0  0
   -0.2594   -1.1216   -0.8174 C   0  0  0  0  0  0  0  0  0  0  0  0
   -0.2298   -0.2655   -1.5006 H   0  0  0  0  0  0  0  0  0  0  0  0
    0.7690   -1.2829   -0.4797 H   0  0  0  0  0  0  0  0  0  0  0  0
   -0.6555   -2.3294   -1.6547 C   0  0  0  0  0  0  0  0  0  0  0  0
   -0.3568   -2.3171   -3.0290 C   0  0  0  0  0  0  0  0  0  0  0  0
    0.0365   -1.4154   -3.4894 H   0  0  0  0  0  0  0  0  0  0  0  0
   -0.5868   -3.4397   -3.8333 C   0  0  0  0  0  0  0  0  0  0  0  0
   -0.3821   -3.3853   -4.8969 H   0  0  0  0  0  0  0  0  0  0  0  0
   -1.0638   -4.6207   -3.2663 C   0  0  0  0  0  0  0  0  0  0  0  0
   -1.2923   -5.7231   -4.0382 O   0  0  0  0  0  0  0  0  0  0  0  0
   -1.0888   -5.5270   -4.9657 H   0  0  0  0  0  0  0  0  0  0  0  0
   -1.2713   -4.6816   -1.8920 C   0  0  0  0  0  0  0  0  0  0  0  0
   -1.5892   -5.6178   -1.4449 H   0  0  0  0  0  0  0  0  0  0  0  0
   -1.0381   -3.5590   -1.0904 C   0  0  0  0  0  0  0  0  0  0  0  0
   -1.1141   -3.6777   -0.0178 H   0  0  0  0  0  0  0  0  0  0  0  0
   -1.2519    0.8202    0.4081 C   0  0  0  0  0  0  0  0  0  0  0  0
   -2.1047    1.3476   -0.2975 O   0  0  0  0  0  0  0  0  0  0  0  0
   -0.4307    1.6131    1.1887 N   0  0  0  0  0  0  0  0  0  0  0  0
    0.2155    1.1440    1.8173 H   0  0  0  0  0  0  0  0  0  0  0  0
   -0.5484    3.0647    1.2551 C   0  0  0  0  0  0  0  0  0  0  0  0
   -1.5422    3.3527    1.6135 H   0  0  0  0  0  0  0  0  0  0  0  0
    0.1989    3.4735    1.9418 H   0  0  0  0  0  0  0  0  0  0  0  0
   -0.3880    3.5078    0.2666 H   0  0  0  0  0  0  0  0  0  0  0  0
  1  2  1  0  0  0  0
  2  3  1  0  0  0  0
  2  4  1  0  0  0  0
  2  5  1  0  0  0  0
  5  6  2  0  0  0  0
  5  7  1  0  0  0  0
  7  8  1  0  0  0  0
  7  9  1  0  0  0  0
  9 10  1  0  0  0  0
  9 11  1  0  0  0  0
  9 26  1  0  0  0  0
 11 12  1  0  0  0  0
 11 13  1  0  0  0  0
 11 14  1  0  0  0  0
 14 15  2  0  0  0  0
 14 24  1  0  0  0  0
 15 16  1  0  0  0  0
 15 17  1  0  0  0  0
 17 18  1  0  0  0  0
 17 19  2  0  0  0  0
 19 20  1  0  0  0  0
 19 22  1  0  0  0  0
 20 21  1  0  0  0  0
 22 23  1  0  0  0  0
 22 24  2  0  0  0  0
 24 25  1  0  0  0  0
 26 27  2  0  0  0  0
 26 28  1  0  0  0  0
 28 29  1  0  0  0  0
 28 30  1  0  0  0  0
 30 31  1  0  0  0  0
 30 32  1  0  0  0  0
 30 33  1  0  0  0  0
M  END
$$$$

  -OEChem-04042216043D

 33 33  0     1  0  0  0  0  0999 V2000
   -4.3624   -3.6341    2.3021 H   0  0  0  0  0  0  0  0  0  0  0  0
   -4.2672   -2.8310    1.5658 C   0  0  0  0  0  0  0  0  0  0  0  0
   -4.9262   -2.0085    1.8541 H   0  0  0  0  0  0  0  0  0  0  0  0
   -4.5758   -3.2103    0.5886 H   0  0  0  0  0  0  0  0  0  0  0  0
   -2.8311   -2.3465    1.5020 C   0  0  0  0  0  0  0  0  0  0  0  0
   -1.9844   -2.8460    2.2264 O   0  0  0  0  0  0  0  0  0  0  0  0
   -2.4866   -1.3392    0.6240 N   0  0  0  0  0  0  0  0  0  0  0  0
   -3.2367   -0.9175    0.0782 H   0  0  0  0  0  0  0  0  0  0  0  0
   -1.1422   -0.7609    0.4548 C   0  0  1  0  0  0  0  0  0  0  0  0
   -0.5434   -1.0175    1.3343 H   0  0  0  0  0  0  0  0  0  0  0  0
   -0.3236   -1.1794   -0.8135 C   0  0  0  0  0  0  0  0  0  0  0  0
   -0.3076   -0.3197   -1.4932 H   0  0  0  0  0  0  0  0  0  0  0  0
    0.7086   -1.3280   -0.4805 H   0  0  0  0  0  0  0  0  0  0  0  0
   -0.6711   -2.3759   -1.6950 C   0  0  0  0  0  0  0  0  0  0  0  0
   -0.0565   -2.4229   -2.9608 C   0  0  0  0  0  0  0  0  0  0  0  0
    0.5496   -1.5866   -3.2972 H   0  0  0  0  0  0  0  0  0  0  0  0
   -0.2284   -3.5136   -3.8209 C   0  0  0  0  0  0  0  0  0  0  0  0
    0.2337   -3.4985   -4.8020 H   0  0  0  0  0  0  0  0  0  0  0  0
   -0.9810   -4.6125   -3.4119 C   0  0  0  0  0  0  0  0  0  0  0  0
   -1.1583   -5.6847   -4.2378 O   0  0  0  0  0  0  0  0  0  0  0  0
   -0.7168   -5.5264   -5.0863 H   0  0  0  0  0  0  0  0  0  0  0  0
   -1.5276   -4.6240   -2.1334 C   0  0  0  0  0  0  0  0  0  0  0  0
   -2.0707   -5.5020   -1.7993 H   0  0  0  0  0  0  0  0  0  0  0  0
   -1.3525   -3.5326   -1.2751 C   0  0  0  0  0  0  0  0  0  0  0  0
   -1.7195   -3.6437   -0.2690 H   0  0  0  0  0  0  0  0  0  0  0  0
   -1.2799    0.7759    0.4062 C   0  0  0  0  0  0  0  0  0  0  0  0
   -2.1739    1.2960   -0.2523 O   0  0  0  0  0  0  0  0  0  0  0  0
   -0.4157    1.5790    1.1282 N   0  0  0  0  0  0  0  0  0  0  0  0
    0.2674    1.1198    1.7241 H   0  0  0  0  0  0  0  0  0  0  0  0
   -0.5196    3.0328    1.1662 C   0  0  0  0  0  0  0  0  0  0  0  0
   -1.4865    3.3375    1.5802 H   0  0  0  0  0  0  0  0  0  0  0  0
    0.2731    3.4529    1.7928 H   0  0  0  0  0  0  0  0  0  0  0  0
   -0.4203    3.4502    0.1587 H   0  0  0  0  0  0  0  0  0  0  0  0
  1  2  1  0  0  0  0
  2  3  1  0  0  0  0
  2  4  1  0  0  0  0
  2  5  1  0  0  0  0
  5  6  2  0  0  0  0
  5  7  1  0  0  0  0
  7  8  1  0  0  0  0
  7  9  1  0  0  0  0
  9 10  1  0  0  0  0
  9 11  1  0  0  0  0
  9 26  1  0  0  0  0
 11 12  1  0  0  0  0
 11 13  1  0  0  0  0
 11 14  1  0  0  0  0
 14 15  2  0  0  0  0
 14 24  1  0  0  0  0
 15 16  1  0  0  0  0
 15 17  1  0  0  0  0
 17 18  1  0  0  0  0
 17 19  2  0  0  0  0
 19 20  1  0  0  0  0
 19 22  1  0  0  0  0
 20 21  1  0  0  0  0
 22 23  1  0  0  0  0
 22 24  2  0  0  0  0
 24 25  1  0  0  0  0
 26 27  2  0  0  0  0
 26 28  1  0  0  0  0
 28 29  1  0  0  0  0
 28 30  1  0  0  0  0
 30 31  1  0  0  0  0
 30 32  1  0  0  0  0
 30 33  1  0  0  0  0
M  END
$$$$

  -OEChem-04042216043D

 33 33  0     1  0  0  0  0  0999 V2000
   -4.1734   -3.6350    2.5175 H   0  0  0  0  0  0  0  0  0  0  0  0
   -4.1426   -2.8666    1.7398 C   0  0  0  0  0  0  0  0  0  0  0  0
   -4.7693   -2.0269    2.0503 H   0  0  0  0  0  0  0  0  0  0  0  0
   -4.5414   -3.2867    0.8132 H   0  0  0  0  0  0  0  0  0  0  0  0
   -2.7157   -2.3979    1.5244 C   0  0  0  0  0  0  0  0  0  0  0  0
   -1.8002   -2.9365    2.1264 O   0  0  0  0  0  0  0  0  0  0  0  0
   -2.4633   -1.3536    0.6578 N   0  0  0  0  0  0  0  0  0  0  0  0
   -3.2629   -0.8695    0.2513 H   0  0  0  0  0  0  0  0  0  0  0  0
   -1.1415   -0.7644    0.4179 C   0  0  1  0  0  0  0  0  0  0  0  0
   -0.4964   -1.0217    1.2642 H   0  0  0  0  0  0  0  0  0  0  0  0
   -0.3740   -1.1838   -0.8783 C   0  0  0  0  0  0  0  0  0  0  0  0
   -0.1283   -0.2680   -1.4276 H   0  0  0  0  0  0  0  0  0  0  0  0
    0.5785   -1.5970   -0.5306 H   0  0  0  0  0  0  0  0  0  0  0  0
   -0.8873   -2.1674   -1.9349 C   0  0  0  0  0  0  0  0  0  0  0  0
   -0.0141   -2.3877   -3.0168 C   0  0  0  0  0  0  0  0  0  0  0  0
    0.9469   -1.8822   -3.0424 H   0  0  0  0  0  0  0  0  0  0  0  0
   -0.3472   -3.2447   -4.0713 C   0  0  0  0  0  0  0  0  0  0  0  0
    0.3545   -3.3888   -4.8855 H   0  0  0  0  0  0  0  0  0  0  0  0
   -1.5736   -3.9044   -4.0727 C   0  0  0  0  0  0  0  0  0  0  0  0
   -1.9165   -4.7410   -5.0955 O   0  0  0  0  0  0  0  0  0  0  0  0
   -1.2039   -4.7714   -5.7520 H   0  0  0  0  0  0  0  0  0  0  0  0
   -2.4573   -3.7000   -3.0193 C   0  0  0  0  0  0  0  0  0  0  0  0
   -3.4127   -4.2141   -3.0281 H   0  0  0  0  0  0  0  0  0  0  0  0
   -2.1269   -2.8417   -1.9640 C   0  0  0  0  0  0  0  0  0  0  0  0
   -2.8792   -2.7357   -1.2004 H   0  0  0  0  0  0  0  0  0  0  0  0
   -1.2885    0.7714    0.4343 C   0  0  0  0  0  0  0  0  0  0  0  0
   -2.2422    1.3035   -0.1225 O   0  0  0  0  0  0  0  0  0  0  0  0
   -0.3814    1.5568    1.1221 N   0  0  0  0  0  0  0  0  0  0  0  0
    0.3544    1.0841    1.6394 H   0  0  0  0  0  0  0  0  0  0  0  0
   -0.5079    3.0046    1.2400 C   0  0  0  0  0  0  0  0  0  0  0  0
   -1.4424    3.2675    1.7471 H   0  0  0  0  0  0  0  0  0  0  0  0
    0.3265    3.4115    1.8193 H   0  0  0  0  0  0  0  0  0  0  0  0
   -0.5011    3.4717    0.2494 H   0  0  0  0  0  0  0  0  0  0  0  0
  1  2  1  0  0  0  0
  2  3  1  0  0  0  0
  2  4  1  0  0  0  0
  2  5  1  0  0  0  0
  5  6  2  0  0  0  0
  5  7  1  0  0  0  0
  7  8  1  0  0  0  0
  7  9  1  0  0  0  0
  9 10  1  0  0  0  0
  9 11  1  0  0  0  0
  9 26  1  0  0  0  0
 11 12  1  0  0  0  0
 11 13  1  0  0  0  0
 11 14  1  0  0  0  0
 14 15  2  0  0  0  0
 14 24  1  0  0  0  0
 15 16  1  0  0  0  0
 15 17  1  0  0  0  0
 17 18  1  0  0  0  0
 17 19  2  0  0  0  0
 19 20  1  0  0  0  0
 19 22  1  0  0  0  0
 20 21  1  0  0  0  0
 22 23  1  0  0  0  0
 22 24  2  0  0  0  0
 24 25  1  0  0  0  0
 26 27  2  0  0  0  0
 26 28  1  0  0  0  0
 28 29  1  0  0  0  0
 28 30  1  0  0  0  0
 30 31  1  0  0  0  0
 30 32  1  0  0  0  0
 30 33  1  0  0  0  0
M  END
$$$$

  -OEChem-04042216043D

 33 33  0     1  0  0  0  0  0999 V2000
   -4.1006   -3.7475    2.4105 H   0  0  0  0  0  0  0  0  0  0  0  0
   -4.0806   -2.9624    1.6494 C   0  0  0  0  0  0  0  0  0  0  0  0
   -4.7401   -2.1501    1.9643 H   0  0  0  0  0  0  0  0  0  0  0  0
   -4.4472   -3.3758    0.7067 H   0  0  0  0  0  0  0  0  0  0  0  0
   -2.6659   -2.4446    1.4702 C   0  0  0  0  0  0  0  0  0  0  0  0
   -1.7453   -2.9635    2.0824 O   0  0  0  0  0  0  0  0  0  0  0  0
   -2.4298   -1.3806    0.6240 N   0  0  0  0  0  0  0  0  0  0  0  0
   -3.2382   -0.9000    0.2327 H   0  0  0  0  0  0  0  0  0  0  0  0
   -1.1192   -0.7541    0.4129 C   0  0  1  0  0  0  0  0  0  0  0  0
   -0.4821   -1.0078    1.2664 H   0  0  0  0  0  0  0  0  0  0  0  0
   -0.3341   -1.1680   -0.8718 C   0  0  0  0  0  0  0  0  0  0  0  0
   -0.1074   -0.2584   -1.4390 H   0  0  0  0  0  0  0  0  0  0  0  0
    0.6261   -1.5588   -0.5195 H   0  0  0  0  0  0  0  0  0  0  0  0
   -0.8669   -2.1724   -1.8951 C   0  0  0  0  0  0  0  0  0  0  0  0
    0.0741   -2.6896   -2.8047 C   0  0  0  0  0  0  0  0  0  0  0  0
    1.1246   -2.4362   -2.6947 H   0  0  0  0  0  0  0  0  0  0  0  0
   -0.3026   -3.5490   -3.8429 C   0  0  0  0  0  0  0  0  0  0  0  0
    0.4561   -3.9511   -4.5052 H   0  0  0  0  0  0  0  0  0  0  0  0
   -1.6440   -3.8760   -4.0266 C   0  0  0  0  0  0  0  0  0  0  0  0
   -2.0273   -4.7116   -5.0354 O   0  0  0  0  0  0  0  0  0  0  0  0
   -1.2493   -5.0149   -5.5281 H   0  0  0  0  0  0  0  0  0  0  0  0
   -2.6018   -3.3181   -3.1872 C   0  0  0  0  0  0  0  0  0  0  0  0
   -3.6490   -3.5431   -3.3612 H   0  0  0  0  0  0  0  0  0  0  0  0
   -2.2255   -2.4574   -2.1495 C   0  0  0  0  0  0  0  0  0  0  0  0
   -3.0292   -2.0014   -1.5900 H   0  0  0  0  0  0  0  0  0  0  0  0
   -1.2884    0.7780    0.4470 C   0  0  0  0  0  0  0  0  0  0  0  0
   -2.2434    1.3006   -0.1167 O   0  0  0  0  0  0  0  0  0  0  0  0
   -0.4039    1.5685    1.1580 N   0  0  0  0  0  0  0  0  0  0  0  0
    0.3344    1.1013    1.6768 H   0  0  0  0  0  0  0  0  0  0  0  0
   -0.5471    3.0139    1.2838 C   0  0  0  0  0  0  0  0  0  0  0  0
   -1.4984    3.2651    1.7645 H   0  0  0  0  0  0  0  0  0  0  0  0
    0.2658    3.4226    1.8915 H   0  0  0  0  0  0  0  0  0  0  0  0
   -0.5143    3.4893    0.2978 H   0  0  0  0  0  0  0  0  0  0  0  0
  1  2  1  0  0  0  0
  2  3  1  0  0  0  0
  2  4  1  0  0  0  0
  2  5  1  0  0  0  0
  5  6  2  0  0  0  0
  5  7  1  0  0  0  0
  7  8  1  0  0  0  0
  7  9  1  0  0  0  0
  9 10  1  0  0  0  0
  9 11  1  0  0  0  0
  9 26  1  0  0  0  0
 11 12  1  0  0  0  0
 11 13  1  0  0  0  0
 11 14  1  0  0  0  0
 14 15  2  0  0  0  0
 14 24  1  0  0  0  0
 15 16  1  0  0  0  0
 15 17  1  0  0  0  0
 17 18  1  0  0  0  0
 17 19  2  0  0  0  0
 19 20  1  0  0  0  0
 19 22  1  0  0  0  0
 20 21  1  0  0  0  0
 22 23  1  0  0  0  0
 22 24  2  0  0  0  0
 24 25  1  0  0  0  0
 26 27  2  0  0  0  0
 26 28  1  0  0  0  0
 28 29  1  0  0  0  0
 28 30  1  0  0  0  0
 30 31  1  0  0  0  0
 30 32  1  0  0  0  0
 30 33  1  0  0  0  0
M  END
$$$$

  -OEChem-04042216043D

 33 33  0     1  0  0  0  0  0999 V2000
   -4.0596   -3.8716    2.1885 H   0  0  0  0  0  0  0  0  0  0  0  0
   -4.0284   -3.0550    1.4619 C   0  0  0  0  0  0  0  0  0  0  0  0
   -4.7335   -2.2800    1.7714 H   0  0  0  0  0  0  0  0  0  0  0  0
   -4.3271   -3.4415    0.4844 H   0  0  0  0  0  0  0  0  0  0  0  0
   -2.6272   -2.4802    1.3814 C   0  0  0  0  0  0  0  0  0  0  0  0
   -1.7275   -2.9676    2.0486 O   0  0  0  0  0  0  0  0  0  0  0  0
   -2.3806   -1.4022    0.5572 N   0  0  0  0  0  0  0  0  0  0  0  0
   -3.1794   -0.9634    0.1037 H   0  0  0  0  0  0  0  0  0  0  0  0
   -1.0764   -0.7403    0.4079 C   0  0  1  0  0  0  0  0  0  0  0  0
   -0.4597   -0.9926    1.2764 H   0  0  0  0  0  0  0  0  0  0  0  0
   -0.2616   -1.1333   -0.8618 C   0  0  0  0  0  0  0  0  0  0  0  0
   -0.0367   -0.2268   -1.4341 H   0  0  0  0  0  0  0  0  0  0  0  0
    0.6980   -1.5223   -0.5062 H   0  0  0  0  0  0  0  0  0  0  0  0
   -0.8335   -2.1401   -1.8527 C   0  0  0  0  0  0  0  0  0  0  0  0
    0.0635   -2.9504   -2.5706 C   0  0  0  0  0  0  0  0  0  0  0  0
    1.1226   -2.9277   -2.3312 H   0  0  0  0  0  0  0  0  0  0  0  0
   -0.3840   -3.8162   -3.5757 C   0  0  0  0  0  0  0  0  0  0  0  0
    0.3286   -4.4555   -4.0850 H   0  0  0  0  0  0  0  0  0  0  0  0
   -1.7339   -3.8462   -3.9238 C   0  0  0  0  0  0  0  0  0  0  0  0
   -2.1851   -4.6857   -4.9008 O   0  0  0  0  0  0  0  0  0  0  0  0
   -1.4534   -5.2236   -5.2402 H   0  0  0  0  0  0  0  0  0  0  0  0
   -2.6225   -2.9851   -3.2879 C   0  0  0  0  0  0  0  0  0  0  0  0
   -3.6626   -2.9774   -3.5968 H   0  0  0  0  0  0  0  0  0  0  0  0
   -2.1748   -2.1200   -2.2837 C   0  0  0  0  0  0  0  0  0  0  0  0
   -2.8829   -1.4096   -1.8726 H   0  0  0  0  0  0  0  0  0  0  0  0
   -1.2784    0.7866    0.4482 C   0  0  0  0  0  0  0  0  0  0  0  0
   -2.2106    1.2948   -0.1650 O   0  0  0  0  0  0  0  0  0  0  0  0
   -0.4418    1.5881    1.2031 N   0  0  0  0  0  0  0  0  0  0  0  0
    0.2776    1.1303    1.7557 H   0  0  0  0  0  0  0  0  0  0  0  0
   -0.6075    3.0318    1.3178 C   0  0  0  0  0  0  0  0  0  0  0  0
   -1.5848    3.2725    1.7492 H   0  0  0  0  0  0  0  0  0  0  0  0
    0.1690    3.4514    1.9646 H   0  0  0  0  0  0  0  0  0  0  0  0
   -0.5300    3.5052    0.3333 H   0  0  0  0  0  0  0  0  0  0  0  0
  1  2  1  0  0  0  0
  2  3  1  0  0  0  0
  2  4  1  0  0  0  0
  2  5  1  0  0  0  0
  5  6  2  0  0  0  0
  5  7  1  0  0  0  0
  7  8  1  0  0  0  0
  7  9  1  0  0  0  0
  9 10  1  0  0  0  0
  9 11  1  0  0  0  0
  9 26  1  0  0  0  0
 11 12  1  0  0  0  0
 11 13  1  0  0  0  0
 11 14  1  0  0  0  0
 14 15  2  0  0  0  0
 14 24  1  0  0  0  0
 15 16  1  0  0  0  0
 15 17  1  0  0  0  0
 17 18  1  0  0  0  0
 17 19  2  0  0  0  0
 19 20  1  0  0  0  0
 19 22  1  0  0  0  0
 20 21  1  0  0  0  0
 22 23  1  0  0  0  0
 22 24  2  0  0  0  0
 24 25  1  0  0  0  0
 26 27  2  0  0  0  0
 26 28  1  0  0  0  0
 28 29  1  0  0  0  0
 28 30  1  0  0  0  0
 30 31  1  0  0  0  0
 30 32  1  0  0  0  0
 30 33  1  0  0  0  0
M  END
$$$$

  -OEChem-04042216043D

 33 33  0     1  0  0  0  0  0999 V2000
   -4.0198   -3.9696    1.9630 H   0  0  0  0  0  0  0  0  0  0  0  0
   -3.9777   -3.1320    1.2613 C   0  0  0  0  0  0  0  0  0  0  0  0
   -4.7382   -2.3987    1.5398 H   0  0  0  0  0  0  0  0  0  0  0  0
   -4.1901   -3.5043    0.2558 H   0  0  0  0  0  0  0  0  0  0  0  0
   -2.6033   -2.4908    1.2935 C   0  0  0  0  0  0  0  0  0  0  0  0
   -1.7346   -2.9422    2.0246 O   0  0  0  0  0  0  0  0  0  0  0  0
   -2.3418   -1.4013    0.4897 N   0  0  0  0  0  0  0  0  0  0  0  0
   -3.1107   -1.0251   -0.0600 H   0  0  0  0  0  0  0  0  0  0  0  0
   -1.0429   -0.7151    0.3989 C   0  0  1  0  0  0  0  0  0  0  0  0
   -0.4456   -0.9711    1.2793 H   0  0  0  0  0  0  0  0  0  0  0  0
   -0.2060   -1.0931   -0.8581 C   0  0  0  0  0  0  0  0  0  0  0  0
    0.0195   -0.1876   -1.4320 H   0  0  0  0  0  0  0  0  0  0  0  0
    0.7529   -1.4838   -0.5036 H   0  0  0  0  0  0  0  0  0  0  0  0
   -0.8107   -2.0970   -1.8260 C   0  0  0  0  0  0  0  0  0  0  0  0
   -0.0255   -3.1479   -2.3276 C   0  0  0  0  0  0  0  0  0  0  0  0
    0.9814   -3.3017   -1.9507 H   0  0  0  0  0  0  0  0  0  0  0  0
   -0.5331   -4.0237   -3.2952 C   0  0  0  0  0  0  0  0  0  0  0  0
    0.0823   -4.8453   -3.6446 H   0  0  0  0  0  0  0  0  0  0  0  0
   -1.8169   -3.8345   -3.8091 C   0  0  0  0  0  0  0  0  0  0  0  0
   -2.3229   -4.6832   -4.7508 O   0  0  0  0  0  0  0  0  0  0  0  0
   -1.6779   -5.3788   -4.9512 H   0  0  0  0  0  0  0  0  0  0  0  0
   -2.5786   -2.7538   -3.3728 C   0  0  0  0  0  0  0  0  0  0  0  0
   -3.5611   -2.5900   -3.8032 H   0  0  0  0  0  0  0  0  0  0  0  0
   -2.0731   -1.8782   -2.4066 C   0  0  0  0  0  0  0  0  0  0  0  0
   -2.6612   -1.0114   -2.1195 H   0  0  0  0  0  0  0  0  0  0  0  0
   -1.2626    0.8090    0.4432 C   0  0  0  0  0  0  0  0  0  0  0  0
   -2.1549    1.3162   -0.2275 O   0  0  0  0  0  0  0  0  0  0  0  0
   -0.4658    1.6125    1.2379 N   0  0  0  0  0  0  0  0  0  0  0  0
    0.2214    1.1557    1.8308 H   0  0  0  0  0  0  0  0  0  0  0  0
   -0.6413    3.0558    1.3440 C   0  0  0  0  0  0  0  0  0  0  0  0
   -1.6373    3.2933    1.7324 H   0  0  0  0  0  0  0  0  0  0  0  0
    0.1053    3.4785    2.0233 H   0  0  0  0  0  0  0  0  0  0  0  0
   -0.5230    3.5291    0.3634 H   0  0  0  0  0  0  0  0  0  0  0  0
  1  2  1  0  0  0  0
  2  3  1  0  0  0  0
  2  4  1  0  0  0  0
  2  5  1  0  0  0  0
  5  6  2  0  0  0  0
  5  7  1  0  0  0  0
  7  8  1  0  0  0  0
  7  9  1  0  0  0  0
  9 10  1  0  0  0  0
  9 11  1  0  0  0  0
  9 26  1  0  0  0  0
 11 12  1  0  0  0  0
 11 13  1  0  0  0  0
 11 14  1  0  0  0  0
 14 15  2  0  0  0  0
 14 24  1  0  0  0  0
 15 16  1  0  0  0  0
 15 17  1  0  0  0  0
 17 18  1  0  0  0  0
 17 19  2  0  0  0  0
 19 20  1  0  0  0  0
 19 22  1  0  0  0  0
 20 21  1  0  0  0  0
 22 23  1  0  0  0  0
 22 24  2  0  0  0  0
 24 25  1  0  0  0  0
 26 27  2  0  0  0  0
 26 28  1  0  0  0  0
 28 29  1  0  0  0  0
 28 30  1  0  0  0  0
 30 31  1  0  0  0  0
 30 32  1  0  0  0  0
 30 33  1  0  0  0  0
M  END
$$$$

  -OEChem-04042216043D

 33 33  0     1  0  0  0  0  0999 V2000
   -3.9752   -4.0514    1.7362 H   0  0  0  0  0  0  0  0  0  0  0  0
   -3.9272   -3.1894    1.0653 C   0  0  0  0  0  0  0  0  0  0  0  0
   -4.7394   -2.5023    1.3140 H   0  0  0  0  0  0  0  0  0  0  0  0
   -4.0540   -3.5364    0.0366 H   0  0  0  0  0  0  0  0  0  0  0  0
   -2.5904   -2.4869    1.2097 C   0  0  0  0  0  0  0  0  0  0  0  0
   -1.7615   -2.9055    2.0039 O   0  0  0  0  0  0  0  0  0  0  0  0
   -2.3126   -1.3872    0.4260 N   0  0  0  0  0  0  0  0  0  0  0  0
   -3.0321   -1.0796   -0.2241 H   0  0  0  0  0  0  0  0  0  0  0  0
   -1.0172   -0.6882    0.3846 C   0  0  1  0  0  0  0  0  0  0  0  0
   -0.4380   -0.9532    1.2747 H   0  0  0  0  0  0  0  0  0  0  0  0
   -0.1630   -1.0549   -0.8617 C   0  0  0  0  0  0  0  0  0  0  0  0
    0.0684   -0.1490   -1.4327 H   0  0  0  0  0  0  0  0  0  0  0  0
    0.7935   -1.4527   -0.5087 H   0  0  0  0  0  0  0  0  0  0  0  0
   -0.7925   -2.0513   -1.8165 C   0  0  0  0  0  0  0  0  0  0  0  0
   -0.1671   -3.2779   -2.0870 C   0  0  0  0  0  0  0  0  0  0  0  0
    0.7464   -3.5507   -1.5669 H   0  0  0  0  0  0  0  0  0  0  0  0
   -0.7244   -4.1714   -3.0095 C   0  0  0  0  0  0  0  0  0  0  0  0
   -0.2370   -5.1232   -3.1896 H   0  0  0  0  0  0  0  0  0  0  0  0
   -1.8960   -3.8372   -3.6918 C   0  0  0  0  0  0  0  0  0  0  0  0
   -2.4485   -4.7033   -4.5904 O   0  0  0  0  0  0  0  0  0  0  0  0
   -1.9050   -5.5035   -4.6572 H   0  0  0  0  0  0  0  0  0  0  0  0
   -2.4993   -2.6026   -3.4618 C   0  0  0  0  0  0  0  0  0  0  0  0
   -3.3976   -2.3413   -4.0114 H   0  0  0  0  0  0  0  0  0  0  0  0
   -1.9456   -1.7063   -2.5422 C   0  0  0  0  0  0  0  0  0  0  0  0
   -2.4102   -0.7348   -2.3923 H   0  0  0  0  0  0  0  0  0  0  0  0
   -1.2431    0.8345    0.4363 C   0  0  0  0  0  0  0  0  0  0  0  0
   -2.0983    1.3497   -0.2754 O   0  0  0  0  0  0  0  0  0  0  0  0
   -0.4751    1.6322    1.2647 N   0  0  0  0  0  0  0  0  0  0  0  0
    0.1860    1.1709    1.8832 H   0  0  0  0  0  0  0  0  0  0  0  0
   -0.6520    3.0752    1.3716 C   0  0  0  0  0  0  0  0  0  0  0  0
   -1.6679    3.3135    1.7040 H   0  0  0  0  0  0  0  0  0  0  0  0
    0.0554    3.4909    2.0958 H   0  0  0  0  0  0  0  0  0  0  0  0
   -0.4764    3.5548    0.4028 H   0  0  0  0  0  0  0  0  0  0  0  0
  1  2  1  0  0  0  0
  2  3  1  0  0  0  0
  2  4  1  0  0  0  0
  2  5  1  0  0  0  0
  5  6  2  0  0  0  0
  5  7  1  0  0  0  0
  7  8  1  0  0  0  0
  7  9  1  0  0  0  0
  9 10  1  0  0  0  0
  9 11  1  0  0  0  0
  9 26  1  0  0  0  0
 11 12  1  0  0  0  0
 11 13  1  0  0  0  0
 11 14  1  0  0  0  0
 14 15  2  0  0  0  0
 14 24  1  0  0  0  0
 15 16  1  0  0  0  0
 15 17  1  0  0  0  0
 17 18  1  0  0  0  0
 17 19  2  0  0  0  0
 19 20  1  0  0  0  0
 19 22  1  0  0  0  0
 20 21  1  0  0  0  0
 22 23  1  0  0  0  0
 22 24  2  0  0  0  0
 24 25  1  0  0  0  0
 26 27  2  0  0  0  0
 26 28  1  0  0  0  0
 28 29  1  0  0  0  0
 28 30  1  0  0  0  0
 30 31  1  0  0  0  0
 30 32  1  0  0  0  0
 30 33  1  0  0  0  0
M  END
$$$$

  -OEChem-04042216043D

 33 33  0     1  0  0  0  0  0999 V2000
   -3.9643   -4.0754    1.5965 H   0  0  0  0  0  0  0  0  0  0  0  0
   -3.9070   -3.2030    0.9397 C   0  0  0  0  0  0  0  0  0  0  0  0
   -4.7308   -2.5260    1.1783 H   0  0  0  0  0  0  0  0  0  0  0  0
   -4.0049   -3.5349   -0.0972 H   0  0  0  0  0  0  0  0  0  0  0  0
   -2.5809   -2.4913    1.1289 C   0  0  0  0  0  0  0  0  0  0  0  0
   -1.7695   -2.9135    1.9393 O   0  0  0  0  0  0  0  0  0  0  0  0
   -2.2902   -1.3816    0.3647 N   0  0  0  0  0  0  0  0  0  0  0  0
   -2.9835   -1.0885   -0.3199 H   0  0  0  0  0  0  0  0  0  0  0  0
   -0.9986   -0.6742    0.3621 C   0  0  1  0  0  0  0  0  0  0  0  0
   -0.4359   -0.9484    1.2597 H   0  0  0  0  0  0  0  0  0  0  0  0
   -0.1263   -1.0297   -0.8728 C   0  0  0  0  0  0  0  0  0  0  0  0
    0.1141   -0.1210   -1.4357 H   0  0  0  0  0  0  0  0  0  0  0  0
    0.8254   -1.4360   -0.5161 H   0  0  0  0  0  0  0  0  0  0  0  0
   -0.7628   -2.0198   -1.8258 C   0  0  0  0  0  0  0  0  0  0  0  0
   -0.3343   -3.3544   -1.8673 C   0  0  0  0  0  0  0  0  0  0  0  0
    0.4517   -3.6948   -1.1993 H   0  0  0  0  0  0  0  0  0  0  0  0
   -0.9302   -4.2609   -2.7518 C   0  0  0  0  0  0  0  0  0  0  0  0
   -0.5944   -5.2921   -2.7622 H   0  0  0  0  0  0  0  0  0  0  0  0
   -1.9488   -3.8392   -3.6094 C   0  0  0  0  0  0  0  0  0  0  0  0
   -2.5378   -4.7173   -4.4725 O   0  0  0  0  0  0  0  0  0  0  0  0
   -2.1246   -5.5907   -4.3903 H   0  0  0  0  0  0  0  0  0  0  0  0
   -2.3656   -2.5095   -3.5851 C   0  0  0  0  0  0  0  0  0  0  0  0
   -3.1519   -2.1881   -4.2602 H   0  0  0  0  0  0  0  0  0  0  0  0
   -1.7740   -1.5991   -2.7035 C   0  0  0  0  0  0  0  0  0  0  0  0
   -2.1031   -0.5626   -2.6951 H   0  0  0  0  0  0  0  0  0  0  0  0
   -1.2286    0.8476    0.4246 C   0  0  0  0  0  0  0  0  0  0  0  0
   -2.0594    1.3714   -0.3093 O   0  0  0  0  0  0  0  0  0  0  0  0
   -0.4819    1.6371    1.2801 N   0  0  0  0  0  0  0  0  0  0  0  0
    0.1592    1.1687    1.9143 H   0  0  0  0  0  0  0  0  0  0  0  0
   -0.6617    3.0790    1.3969 C   0  0  0  0  0  0  0  0  0  0  0  0
   -1.6857    3.3142    1.7057 H   0  0  0  0  0  0  0  0  0  0  0  0
    0.0269    3.4869    2.1431 H   0  0  0  0  0  0  0  0  0  0  0  0
   -0.4613    3.5687    0.4381 H   0  0  0  0  0  0  0  0  0  0  0  0
  1  2  1  0  0  0  0
  2  3  1  0  0  0  0
  2  4  1  0  0  0  0
  2  5  1  0  0  0  0
  5  6  2  0  0  0  0
  5  7  1  0  0  0  0
  7  8  1  0  0  0  0
  7  9  1  0  0  0  0
  9 10  1  0  0  0  0
  9 11  1  0  0  0  0
  9 26  1  0  0  0  0
 11 12  1  0  0  0  0
 11 13  1  0  0  0  0
 11 14  1  0  0  0  0
 14 15  2  0  0  0  0
 14 24  1  0  0  0  0
 15 16  1  0  0  0  0
 15 17  1  0  0  0  0
 17 18  1  0  0  0  0
 17 19  2  0  0  0  0
 19 20  1  0  0  0  0
 19 22  1  0  0  0  0
 20 21  1  0  0  0  0
 22 23  1  0  0  0  0
 22 24  2  0  0  0  0
 24 25  1  0  0  0  0
 26 27  2  0  0  0  0
 26 28  1  0  0  0  0
 28 29  1  0  0  0  0
 28 30  1  0  0  0  0
 30 31  1  0  0  0  0
 30 32  1  0  0  0  0
 30 33  1  0  0  0  0
M  END
$$$$

  -OEChem-04042216043D

 33 33  0     1  0  0  0  0  0999 V2000
   -3.9689   -4.0812    1.5312 H   0  0  0  0  0  0  0  0  0  0  0  0
   -3.9085   -3.1991    0.8879 C   0  0  0  0  0  0  0  0  0  0  0  0
   -4.7312   -2.5242    1.1354 H   0  0  0  0  0  0  0  0  0  0  0  0
   -4.0062   -3.5150   -0.1538 H   0  0  0  0  0  0  0  0  0  0  0  0
   -2.5808   -2.4937    1.0888 C   0  0  0  0  0  0  0  0  0  0  0  0
   -1.7678   -2.9345    1.8877 O   0  0  0  0  0  0  0  0  0  0  0  0
   -2.2829   -1.3787    0.3353 N   0  0  0  0  0  0  0  0  0  0  0  0
   -2.9758   -1.0715   -0.3443 H   0  0  0  0  0  0  0  0  0  0  0  0
   -0.9922   -0.6691    0.3493 C   0  0  1  0  0  0  0  0  0  0  0  0
   -0.4381   -0.9484    1.2509 H   0  0  0  0  0  0  0  0  0  0  0  0
   -0.1092   -1.0196   -0.8784 C   0  0  0  0  0  0  0  0  0  0  0  0
    0.1399   -0.1085   -1.4334 H   0  0  0  0  0  0  0  0  0  0  0  0
    0.8380   -1.4331   -0.5183 H   0  0  0  0  0  0  0  0  0  0  0  0
   -0.7418   -2.0078   -1.8344 C   0  0  0  0  0  0  0  0  0  0  0  0
   -0.5464   -3.3872   -1.6697 C   0  0  0  0  0  0  0  0  0  0  0  0
    0.0712   -3.7542   -0.8542 H   0  0  0  0  0  0  0  0  0  0  0  0
   -1.1598   -4.2969   -2.5394 C   0  0  0  0  0  0  0  0  0  0  0  0
   -1.0017   -5.3600   -2.3944 H   0  0  0  0  0  0  0  0  0  0  0  0
   -1.9715   -3.8361   -3.5785 C   0  0  0  0  0  0  0  0  0  0  0  0
   -2.5746   -4.7143   -4.4313 O   0  0  0  0  0  0  0  0  0  0  0  0
   -2.3055   -5.6214   -4.2196 H   0  0  0  0  0  0  0  0  0  0  0  0
   -2.1700   -2.4665   -3.7444 C   0  0  0  0  0  0  0  0  0  0  0  0
   -2.8039   -2.1167   -4.5527 H   0  0  0  0  0  0  0  0  0  0  0  0
   -1.5602   -1.5526   -2.8783 C   0  0  0  0  0  0  0  0  0  0  0  0
   -1.7307   -0.4872   -3.0113 H   0  0  0  0  0  0  0  0  0  0  0  0
   -1.2214    0.8526    0.4192 C   0  0  0  0  0  0  0  0  0  0  0  0
   -2.0433    1.3823   -0.3201 O   0  0  0  0  0  0  0  0  0  0  0  0
   -0.4824    1.6368    1.2861 N   0  0  0  0  0  0  0  0  0  0  0  0
    0.1523    1.1649    1.9240 H   0  0  0  0  0  0  0  0  0  0  0  0
   -0.6603    3.0789    1.4058 C   0  0  0  0  0  0  0  0  0  0  0  0
   -1.6885    3.3157    1.6993 H   0  0  0  0  0  0  0  0  0  0  0  0
    0.0172    3.4829    2.1641 H   0  0  0  0  0  0  0  0  0  0  0  0
   -0.4436    3.5711    0.4518 H   0  0  0  0  0  0  0  0  0  0  0  0
  1  2  1  0  0  0  0
  2  3  1  0  0  0  0
  2  4  1  0  0  0  0
  2  5  1  0  0  0  0
  5  6  2  0  0  0  0
  5  7  1  0  0  0  0
  7  8  1  0  0  0  0
  7  9  1  0  0  0  0
  9 10  1  0  0  0  0
  9 11  1  0  0  0  0
  9 26  1  0  0  0  0
 11 12  1  0  0  0  0
 11 13  1  0  0  0  0
 11 14  1  0  0  0  0
 14 15  2  0  0  0  0
 14 24  1  0  0  0  0
 15 16  1  0  0  0  0
 15 17  1  0  0  0  0
 17 18  1  0  0  0  0
 17 19  2  0  0  0  0
 19 20  1  0  0  0  0
 19 22  1  0  0  0  0
 20 21  1  0  0  0  0
 22 23  1  0  0  0  0
 22 24  2  0  0  0  0
 24 25  1  0  0  0  0
 26 27  2  0  0  0  0
 26 28  1  0  0  0  0
 28 29  1  0  0  0  0
 28 30  1  0  0  0  0
 30 31  1  0  0  0  0
 30 32  1  0  0  0  0
 30 33  1  0  0  0  0
M  END
$$$$

  -OEChem-04042216043D

 33 33  0     1  0  0  0  0  0999 V2000
   -4.0238   -4.0360    1.5925 H   0  0  0  0  0  0  0  0  0  0  0  0
   -3.9509   -3.1617    0.9400 C   0  0  0  0  0  0  0  0  0  0  0  0
   -4.7473   -2.4600    1.1997 H   0  0  0  0  0  0  0  0  0  0  0  0
   -4.0812   -3.4827   -0.0966 H   0  0  0  0  0  0  0  0  0  0  0  0
   -2.5987   -2.4947    1.1045 C   0  0  0  0  0  0  0  0  0  0  0  0
   -1.7731   -2.9632    1.8741 O   0  0  0  0  0  0  0  0  0  0  0  0
   -2.2939   -1.3833    0.3486 N   0  0  0  0  0  0  0  0  0  0  0  0
   -3.0031   -1.0465   -0.2998 H   0  0  0  0  0  0  0  0  0  0  0  0
   -1.0010   -0.6783    0.3515 C   0  0  1  0  0  0  0  0  0  0  0  0
   -0.4455   -0.9569    1.2524 H   0  0  0  0  0  0  0  0  0  0  0  0
   -0.1168   -1.0235   -0.8784 C   0  0  0  0  0  0  0  0  0  0  0  0
    0.1408   -0.1074   -1.4212 H   0  0  0  0  0  0  0  0  0  0  0  0
    0.8266   -1.4423   -0.5138 H   0  0  0  0  0  0  0  0  0  0  0  0
   -0.7267   -2.0109   -1.8520 C   0  0  0  0  0  0  0  0  0  0  0  0
   -0.7855   -3.3781   -1.5389 C   0  0  0  0  0  0  0  0  0  0  0  0
   -0.3655   -3.7358   -0.6020 H   0  0  0  0  0  0  0  0  0  0  0  0
   -1.3870   -4.2835   -2.4203 C   0  0  0  0  0  0  0  0  0  0  0  0
   -1.4176   -5.3363   -2.1618 H   0  0  0  0  0  0  0  0  0  0  0  0
   -1.9456   -3.8302   -3.6171 C   0  0  0  0  0  0  0  0  0  0  0  0
   -2.5378   -4.7042   -4.4820 O   0  0  0  0  0  0  0  0  0  0  0  0
   -2.4426   -5.6116   -4.1538 H   0  0  0  0  0  0  0  0  0  0  0  0
   -1.9024   -2.4720   -3.9278 C   0  0  0  0  0  0  0  0  0  0  0  0
   -2.3455   -2.1267   -4.8562 H   0  0  0  0  0  0  0  0  0  0  0  0
   -1.2986   -1.5630   -3.0516 C   0  0  0  0  0  0  0  0  0  0  0  0
   -1.2864   -0.5056   -3.3017 H   0  0  0  0  0  0  0  0  0  0  0  0
   -1.2273    0.8446    0.4183 C   0  0  0  0  0  0  0  0  0  0  0  0
   -2.0633    1.3733   -0.3057 O   0  0  0  0  0  0  0  0  0  0  0  0
   -0.4805    1.6296    1.2779 N   0  0  0  0  0  0  0  0  0  0  0  0
    0.1675    1.1597    1.9037 H   0  0  0  0  0  0  0  0  0  0  0  0
   -0.6555    3.0719    1.3976 C   0  0  0  0  0  0  0  0  0  0  0  0
   -1.6774    3.3096    1.7110 H   0  0  0  0  0  0  0  0  0  0  0  0
    0.0375    3.4767    2.1413 H   0  0  0  0  0  0  0  0  0  0  0  0
   -0.4579    3.5626    0.4387 H   0  0  0  0  0  0  0  0  0  0  0  0
  1  2  1  0  0  0  0
  2  3  1  0  0  0  0
  2  4  1  0  0  0  0
  2  5  1  0  0  0  0
  5  6  2  0  0  0  0
  5  7  1  0  0  0  0
  7  8  1  0  0  0  0
  7  9  1  0  0  0  0
  9 10  1  0  0  0  0
  9 11  1  0  0  0  0
  9 26  1  0  0  0  0
 11 12  1  0  0  0  0
 11 13  1  0  0  0  0
 11 14  1  0  0  0  0
 14 15  2  0  0  0  0
 14 24  1  0  0  0  0
 15 16  1  0  0  0  0
 15 17  1  0  0  0  0
 17 18  1  0  0  0  0
 17 19  2  0  0  0  0
 19 20  1  0  0  0  0
 19 22  1  0  0  0  0
 20 21  1  0  0  0  0
 22 23  1  0  0  0  0
 22 24  2  0  0  0  0
 24 25  1  0  0  0  0
 26 27  2  0  0  0  0
 26 28  1  0  0  0  0
 28 29  1  0  0  0  0
 28 30  1  0  0  0  0
 30 31  1  0  0  0  0
 30 32  1  0  0  0  0
 30 33  1  0  0  0  0
M  END
$$$$

  -OEChem-04042216043D

 33 33  0     1  0  0  0  0  0999 V2000
   -4.0879   -3.9568    1.7875 H   0  0  0  0  0  0  0  0  0  0  0  0
   -4.0143   -3.1008    1.1109 C   0  0  0  0  0  0  0  0  0  0  0  0
   -4.7729   -2.3653    1.3890 H   0  0  0  0  0  0  0  0  0  0  0  0
   -4.2035   -3.4399    0.0894 H   0  0  0  0  0  0  0  0  0  0  0  0
   -2.6333   -2.4795    1.1997 C   0  0  0  0  0  0  0  0  0  0  0  0
   -1.7927   -2.9587    1.9456 O   0  0  0  0  0  0  0  0  0  0  0  0
   -2.3246   -1.3902    0.4137 N   0  0  0  0  0  0  0  0  0  0  0  0
   -3.0551   -1.0293   -0.1975 H   0  0  0  0  0  0  0  0  0  0  0  0
   -1.0232   -0.7030    0.3729 C   0  0  1  0  0  0  0  0  0  0  0  0
   -0.4547   -0.9672    1.2702 H   0  0  0  0  0  0  0  0  0  0  0  0
   -0.1464   -1.0501   -0.8662 C   0  0  0  0  0  0  0  0  0  0  0  0
    0.1173   -0.1279   -1.3957 H   0  0  0  0  0  0  0  0  0  0  0  0
    0.7949   -1.4699   -0.4973 H   0  0  0  0  0  0  0  0  0  0  0  0
   -0.7157   -2.0377   -1.8696 C   0  0  0  0  0  0  0  0  0  0  0  0
   -1.0480   -3.3515   -1.4992 C   0  0  0  0  0  0  0  0  0  0  0  0
   -0.8386   -3.6974   -0.4908 H   0  0  0  0  0  0  0  0  0  0  0  0
   -1.6211   -4.2330   -2.4224 C   0  0  0  0  0  0  0  0  0  0  0  0
   -1.8580   -5.2455   -2.1146 H   0  0  0  0  0  0  0  0  0  0  0  0
   -1.8797   -3.8099   -3.7269 C   0  0  0  0  0  0  0  0  0  0  0  0
   -2.4390   -4.6606   -4.6361 O   0  0  0  0  0  0  0  0  0  0  0  0
   -2.5608   -5.5367   -4.2391 H   0  0  0  0  0  0  0  0  0  0  0  0
   -1.5644   -2.5058   -4.1023 C   0  0  0  0  0  0  0  0  0  0  0  0
   -1.7742   -2.1818   -5.1164 H   0  0  0  0  0  0  0  0  0  0  0  0
   -0.9888   -1.6222   -3.1823 C   0  0  0  0  0  0  0  0  0  0  0  0
   -0.7664   -0.6054   -3.4932 H   0  0  0  0  0  0  0  0  0  0  0  0
   -1.2466    0.8217    0.4113 C   0  0  0  0  0  0  0  0  0  0  0  0
   -2.1120    1.3368   -0.2873 O   0  0  0  0  0  0  0  0  0  0  0  0
   -0.4782    1.6197    1.2388 N   0  0  0  0  0  0  0  0  0  0  0  0
    0.1933    1.1596    1.8466 H   0  0  0  0  0  0  0  0  0  0  0  0
   -0.6573    3.0618    1.3498 C   0  0  0  0  0  0  0  0  0  0  0  0
   -1.6699    3.2969    1.6943 H   0  0  0  0  0  0  0  0  0  0  0  0
    0.0575    3.4768    2.0668 H   0  0  0  0  0  0  0  0  0  0  0  0
   -0.4935    3.5439    0.3803 H   0  0  0  0  0  0  0  0  0  0  0  0
  1  2  1  0  0  0  0
  2  3  1  0  0  0  0
  2  4  1  0  0  0  0
  2  5  1  0  0  0  0
  5  6  2  0  0  0  0
  5  7  1  0  0  0  0
  7  8  1  0  0  0  0
  7  9  1  0  0  0  0
  9 10  1  0  0  0  0
  9 11  1  0  0  0  0
  9 26  1  0  0  0  0
 11 12  1  0  0  0  0
 11 13  1  0  0  0  0
 11 14  1  0  0  0  0
 14 15  2  0  0  0  0
 14 24  1  0  0  0  0
 15 16  1  0  0  0  0
 15 17  1  0  0  0  0
 17 18  1  0  0  0  0
 17 19  2  0  0  0  0
 19 20  1  0  0  0  0
 19 22  1  0  0  0  0
 20 21  1  0  0  0  0
 22 23  1  0  0  0  0
 22 24  2  0  0  0  0
 24 25  1  0  0  0  0
 26 27  2  0  0  0  0
 26 28  1  0  0  0  0
 28 29  1  0  0  0  0
 28 30  1  0  0  0  0
 30 31  1  0  0  0  0
 30 32  1  0  0  0  0
 30 33  1  0  0  0  0
M  END
$$$$

  -OEChem-04042216043D

 33 33  0     1  0  0  0  0  0999 V2000
   -4.1446   -3.8624    2.0442 H   0  0  0  0  0  0  0  0  0  0  0  0
   -4.0784   -3.0214    1.3485 C   0  0  0  0  0  0  0  0  0  0  0  0
   -4.7857   -2.2492    1.6605 H   0  0  0  0  0  0  0  0  0  0  0  0
   -4.3468   -3.3685    0.3476 H   0  0  0  0  0  0  0  0  0  0  0  0
   -2.6701   -2.4579    1.3391 C   0  0  0  0  0  0  0  0  0  0  0  0
   -1.8067   -2.9543    2.0460 O   0  0  0  0  0  0  0  0  0  0  0  0
   -2.3650   -1.3990    0.5108 N   0  0  0  0  0  0  0  0  0  0  0  0
   -3.1228   -1.0015   -0.0425 H   0  0  0  0  0  0  0  0  0  0  0  0
   -1.0538   -0.7379    0.4057 C   0  0  1  0  0  0  0  0  0  0  0  0
   -0.4640   -0.9822    1.2951 H   0  0  0  0  0  0  0  0  0  0  0  0
   -0.1944   -1.0966   -0.8486 C   0  0  0  0  0  0  0  0  0  0  0  0
    0.0724   -0.1706   -1.3695 H   0  0  0  0  0  0  0  0  0  0  0  0
    0.7462   -1.5145   -0.4768 H   0  0  0  0  0  0  0  0  0  0  0  0
   -0.7179   -2.0848   -1.8836 C   0  0  0  0  0  0  0  0  0  0  0  0
   -1.3202   -3.3090   -1.5464 C   0  0  0  0  0  0  0  0  0  0  0  0
   -1.3316   -3.6445   -0.5163 H   0  0  0  0  0  0  0  0  0  0  0  0
   -1.8485   -4.1512   -2.5315 C   0  0  0  0  0  0  0  0  0  0  0  0
   -2.2906   -5.0978   -2.2413 H   0  0  0  0  0  0  0  0  0  0  0  0
   -1.7939   -3.7788   -3.8744 C   0  0  0  0  0  0  0  0  0  0  0  0
   -2.3057   -4.5912   -4.8445 O   0  0  0  0  0  0  0  0  0  0  0  0
   -2.6514   -5.4052   -4.4475 H   0  0  0  0  0  0  0  0  0  0  0  0
   -1.2060   -2.5670   -4.2257 C   0  0  0  0  0  0  0  0  0  0  0  0
   -1.1695   -2.2802   -5.2715 H   0  0  0  0  0  0  0  0  0  0  0  0
   -0.6739   -1.7261   -3.2421 C   0  0  0  0  0  0  0  0  0  0  0  0
   -0.2353   -0.7804   -3.5460 H   0  0  0  0  0  0  0  0  0  0  0  0
   -1.2739    0.7893    0.4078 C   0  0  0  0  0  0  0  0  0  0  0  0
   -2.1751    1.2851   -0.2593 O   0  0  0  0  0  0  0  0  0  0  0  0
   -0.4766    1.6093    1.1855 N   0  0  0  0  0  0  0  0  0  0  0  0
    0.2201    1.1657    1.7772 H   0  0  0  0  0  0  0  0  0  0  0  0
   -0.6538    3.0542    1.2676 C   0  0  0  0  0  0  0  0  0  0  0  0
   -1.6562    3.2978    1.6354 H   0  0  0  0  0  0  0  0  0  0  0  0
    0.0810    3.4866    1.9538 H   0  0  0  0  0  0  0  0  0  0  0  0
   -0.5186    3.5134    0.2826 H   0  0  0  0  0  0  0  0  0  0  0  0
  1  2  1  0  0  0  0
  2  3  1  0  0  0  0
  2  4  1  0  0  0  0
  2  5  1  0  0  0  0
  5  6  2  0  0  0  0
  5  7  1  0  0  0  0
  7  8  1  0  0  0  0
  7  9  1  0  0  0  0
  9 10  1  0  0  0  0
  9 11  1  0  0  0  0
  9 26  1  0  0  0  0
 11 12  1  0  0  0  0
 11 13  1  0  0  0  0
 11 14  1  0  0  0  0
 14 15  2  0  0  0  0
 14 24  1  0  0  0  0
 15 16  1  0  0  0  0
 15 17  1  0  0  0  0
 17 18  1  0  0  0  0
 17 19  2  0  0  0  0
 19 20  1  0  0  0  0
 19 22  1  0  0  0  0
 20 21  1  0  0  0  0
 22 23  1  0  0  0  0
 22 24  2  0  0  0  0
 24 25  1  0  0  0  0
 26 27  2  0  0  0  0
 26 28  1  0  0  0  0
 28 29  1  0  0  0  0
 28 30  1  0  0  0  0
 30 31  1  0  0  0  0
 30 32  1  0  0  0  0
 30 33  1  0  0  0  0
M  END
$$$$

  -OEChem-04042216043D

 33 33  0     1  0  0  0  0  0999 V2000
   -4.1531   -3.7691    2.3168 H   0  0  0  0  0  0  0  0  0  0  0  0
   -4.1157   -2.9320    1.6141 C   0  0  0  0  0  0  0  0  0  0  0  0
   -4.7565   -2.1295    1.9874 H   0  0  0  0  0  0  0  0  0  0  0  0
   -4.4916   -3.2679    0.6446 H   0  0  0  0  0  0  0  0  0  0  0  0
   -2.6907   -2.4321    1.4713 C   0  0  0  0  0  0  0  0  0  0  0  0
   -1.7918   -2.9577    2.1087 O   0  0  0  0  0  0  0  0  0  0  0  0
   -2.4142   -1.3941    0.6056 N   0  0  0  0  0  0  0  0  0  0  0  0
   -3.2001   -0.9546    0.1276 H   0  0  0  0  0  0  0  0  0  0  0  0
   -1.0969   -0.7642    0.4248 C   0  0  1  0  0  0  0  0  0  0  0  0
   -0.4764   -0.9984    1.2957 H   0  0  0  0  0  0  0  0  0  0  0  0
   -0.2741   -1.1382   -0.8530 C   0  0  0  0  0  0  0  0  0  0  0  0
   -0.0182   -0.2090   -1.3739 H   0  0  0  0  0  0  0  0  0  0  0  0
    0.6733   -1.5517   -0.4933 H   0  0  0  0  0  0  0  0  0  0  0  0
   -0.7738   -2.1218   -1.9110 C   0  0  0  0  0  0  0  0  0  0  0  0
   -1.6236   -3.2174   -1.6720 C   0  0  0  0  0  0  0  0  0  0  0  0
   -1.8999   -3.5023   -0.6684 H   0  0  0  0  0  0  0  0  0  0  0  0
   -2.0751   -4.0292   -2.7199 C   0  0  0  0  0  0  0  0  0  0  0  0
   -2.7175   -4.8744   -2.4999 H   0  0  0  0  0  0  0  0  0  0  0  0
   -1.6897   -3.7619   -4.0325 C   0  0  0  0  0  0  0  0  0  0  0  0
   -2.1211   -4.5481   -5.0616 O   0  0  0  0  0  0  0  0  0  0  0  0
   -2.6796   -5.2634   -4.7210 H   0  0  0  0  0  0  0  0  0  0  0  0
   -0.8481   -2.6856   -4.2904 C   0  0  0  0  0  0  0  0  0  0  0  0
   -0.5496   -2.4802   -5.3131 H   0  0  0  0  0  0  0  0  0  0  0  0
   -0.3953   -1.8755   -3.2441 C   0  0  0  0  0  0  0  0  0  0  0  0
    0.2530   -1.0375   -3.4826 H   0  0  0  0  0  0  0  0  0  0  0  0
   -1.3036    0.7657    0.4120 C   0  0  0  0  0  0  0  0  0  0  0  0
   -2.2438    1.2575   -0.2021 O   0  0  0  0  0  0  0  0  0  0  0  0
   -0.4621    1.5911    1.1357 N   0  0  0  0  0  0  0  0  0  0  0  0
    0.2716    1.1525    1.6851 H   0  0  0  0  0  0  0  0  0  0  0  0
   -0.6312    3.0371    1.2129 C   0  0  0  0  0  0  0  0  0  0  0  0
   -1.6133    3.2871    1.6280 H   0  0  0  0  0  0  0  0  0  0  0  0
    0.1375    3.4738    1.8576 H   0  0  0  0  0  0  0  0  0  0  0  0
   -0.5441    3.4863    0.2179 H   0  0  0  0  0  0  0  0  0  0  0  0
  1  2  1  0  0  0  0
  2  3  1  0  0  0  0
  2  4  1  0  0  0  0
  2  5  1  0  0  0  0
  5  6  2  0  0  0  0
  5  7  1  0  0  0  0
  7  8  1  0  0  0  0
  7  9  1  0  0  0  0
  9 10  1  0  0  0  0
  9 11  1  0  0  0  0
  9 26  1  0  0  0  0
 11 12  1  0  0  0  0
 11 13  1  0  0  0  0
 11 14  1  0  0  0  0
 14 15  2  0  0  0  0
 14 24  1  0  0  0  0
 15 16  1  0  0  0  0
 15 17  1  0  0  0  0
 17 18  1  0  0  0  0
 17 19  2  0  0  0  0
 19 20  1  0  0  0  0
 19 22  1  0  0  0  0
 20 21  1  0  0  0  0
 22 23  1  0  0  0  0
 22 24  2  0  0  0  0
 24 25  1  0  0  0  0
 26 27  2  0  0  0  0
 26 28  1  0  0  0  0
 28 29  1  0  0  0  0
 28 30  1  0  0  0  0
 30 31  1  0  0  0  0
 30 32  1  0  0  0  0
 30 33  1  0  0  0  0
M  END
$$$$

  -OEChem-04042216043D

 33 33  0     1  0  0  0  0  0999 V2000
   -4.1165   -3.7342    2.4678 H   0  0  0  0  0  0  0  0  0  0  0  0
   -4.1112   -2.8829    1.7813 C   0  0  0  0  0  0  0  0  0  0  0  0
   -4.6884   -2.0684    2.2258 H   0  0  0  0  0  0  0  0  0  0  0  0
   -4.5824   -3.1841    0.8426 H   0  0  0  0  0  0  0  0  0  0  0  0
   -2.6871   -2.4264    1.5251 C   0  0  0  0  0  0  0  0  0  0  0  0
   -1.7579   -2.9839    2.0871 O   0  0  0  0  0  0  0  0  0  0  0  0
   -2.4512   -1.3770    0.6595 N   0  0  0  0  0  0  0  0  0  0  0  0
   -3.2594   -0.8896    0.2739 H   0  0  0  0  0  0  0  0  0  0  0  0
   -1.1367   -0.7662    0.4183 C   0  0  1  0  0  0  0  0  0  0  0  0
   -0.4840   -1.0183    1.2603 H   0  0  0  0  0  0  0  0  0  0  0  0
   -0.3631   -1.1452   -0.8886 C   0  0  0  0  0  0  0  0  0  0  0  0
   -0.1308   -0.2122   -1.4144 H   0  0  0  0  0  0  0  0  0  0  0  0
    0.5969   -1.5533   -0.5560 H   0  0  0  0  0  0  0  0  0  0  0  0
   -0.8669   -2.1170   -1.9591 C   0  0  0  0  0  0  0  0  0  0  0  0
   -1.9224   -3.0440   -1.8429 C   0  0  0  0  0  0  0  0  0  0  0  0
   -2.4642   -3.1922   -0.9240 H   0  0  0  0  0  0  0  0  0  0  0  0
   -2.2935   -3.8607   -2.9192 C   0  0  0  0  0  0  0  0  0  0  0  0
   -3.1050   -4.5691   -2.7940 H   0  0  0  0  0  0  0  0  0  0  0  0
   -1.6222   -3.7723   -4.1371 C   0  0  0  0  0  0  0  0  0  0  0  0
   -1.9760   -4.5655   -5.1904 O   0  0  0  0  0  0  0  0  0  0  0  0
   -2.7097   -5.1464   -4.9374 H   0  0  0  0  0  0  0  0  0  0  0  0
   -0.5754   -2.8682   -4.2729 C   0  0  0  0  0  0  0  0  0  0  0  0
   -0.0522   -2.8027   -5.2214 H   0  0  0  0  0  0  0  0  0  0  0  0
   -0.2028   -2.0535   -3.1991 C   0  0  0  0  0  0  0  0  0  0  0  0
    0.6181   -1.3565   -3.3408 H   0  0  0  0  0  0  0  0  0  0  0  0
   -1.3159    0.7671    0.4404 C   0  0  0  0  0  0  0  0  0  0  0  0
   -2.2868    1.2825   -0.1025 O   0  0  0  0  0  0  0  0  0  0  0  0
   -0.4227    1.5673    1.1296 N   0  0  0  0  0  0  0  0  0  0  0  0
    0.3382    1.1098    1.6238 H   0  0  0  0  0  0  0  0  0  0  0  0
   -0.5582    3.0156    1.2305 C   0  0  0  0  0  0  0  0  0  0  0  0
   -1.5073    3.2802    1.7084 H   0  0  0  0  0  0  0  0  0  0  0  0
    0.2577    3.4310    1.8298 H   0  0  0  0  0  0  0  0  0  0  0  0
   -0.5245    3.4738    0.2363 H   0  0  0  0  0  0  0  0  0  0  0  0
  1  2  1  0  0  0  0
  2  3  1  0  0  0  0
  2  4  1  0  0  0  0
  2  5  1  0  0  0  0
  5  6  2  0  0  0  0
  5  7  1  0  0  0  0
  7  8  1  0  0  0  0
  7  9  1  0  0  0  0
  9 10  1  0  0  0  0
  9 11  1  0  0  0  0
  9 26  1  0  0  0  0
 11 12  1  0  0  0  0
 11 13  1  0  0  0  0
 11 14  1  0  0  0  0
 14 15  2  0  0  0  0
 14 24  1  0  0  0  0
 15 16  1  0  0  0  0
 15 17  1  0  0  0  0
 17 18  1  0  0  0  0
 17 19  2  0  0  0  0
 19 20  1  0  0  0  0
 19 22  1  0  0  0  0
 20 21  1  0  0  0  0
 22 23  1  0  0  0  0
 22 24  2  0  0  0  0
 24 25  1  0  0  0  0
 26 27  2  0  0  0  0
 26 28  1  0  0  0  0
 28 29  1  0  0  0  0
 28 30  1  0  0  0  0
 30 31  1  0  0  0  0
 30 32  1  0  0  0  0
 30 33  1  0  0  0  0
M  END
$$$$

  -OEChem-04042216043D

 33 33  0     1  0  0  0  0  0999 V2000
   -4.1627   -3.6053    2.5366 H   0  0  0  0  0  0  0  0  0  0  0  0
   -4.1415   -2.8527    1.7434 C   0  0  0  0  0  0  0  0  0  0  0  0
   -4.7531   -2.0011    2.0512 H   0  0  0  0  0  0  0  0  0  0  0  0
   -4.5641   -3.2860    0.8340 H   0  0  0  0  0  0  0  0  0  0  0  0
   -2.7151   -2.4028    1.4889 C   0  0  0  0  0  0  0  0  0  0  0  0
   -1.7900   -2.9740    2.0438 O   0  0  0  0  0  0  0  0  0  0  0  0
   -2.4737   -1.3392    0.6427 N   0  0  0  0  0  0  0  0  0  0  0  0
   -3.2786   -0.8261    0.2852 H   0  0  0  0  0  0  0  0  0  0  0  0
   -1.1529   -0.7467    0.4014 C   0  0  1  0  0  0  0  0  0  0  0  0
   -0.5015   -1.0228    1.2369 H   0  0  0  0  0  0  0  0  0  0  0  0
   -0.3932   -1.1364   -0.9085 C   0  0  0  0  0  0  0  0  0  0  0  0
   -0.1528   -0.2082   -1.4390 H   0  0  0  0  0  0  0  0  0  0  0  0
    0.5624   -1.5548   -0.5758 H   0  0  0  0  0  0  0  0  0  0  0  0
   -0.9099   -2.0961   -1.9844 C   0  0  0  0  0  0  0  0  0  0  0  0
   -2.1349   -2.7965   -2.0078 C   0  0  0  0  0  0  0  0  0  0  0  0
   -2.8761   -2.7131   -1.2305 H   0  0  0  0  0  0  0  0  0  0  0  0
   -2.4624   -3.6469   -3.0719 C   0  0  0  0  0  0  0  0  0  0  0  0
   -3.4132   -4.1680   -3.0615 H   0  0  0  0  0  0  0  0  0  0  0  0
   -1.5795   -3.8222   -4.1353 C   0  0  0  0  0  0  0  0  0  0  0  0
   -1.8917   -4.6481   -5.1762 O   0  0  0  0  0  0  0  0  0  0  0  0
   -2.7667   -5.0413   -5.0371 H   0  0  0  0  0  0  0  0  0  0  0  0
   -0.3670   -3.1444   -4.1310 C   0  0  0  0  0  0  0  0  0  0  0  0
    0.3193   -3.2829   -4.9598 H   0  0  0  0  0  0  0  0  0  0  0  0
   -0.0378   -2.2944   -3.0712 C   0  0  0  0  0  0  0  0  0  0  0  0
    0.9183   -1.7798   -3.0986 H   0  0  0  0  0  0  0  0  0  0  0  0
   -1.2974    0.7886    0.4546 C   0  0  0  0  0  0  0  0  0  0  0  0
   -2.2652    1.3331   -0.0652 O   0  0  0  0  0  0  0  0  0  0  0  0
   -0.3806    1.5558    1.1501 N   0  0  0  0  0  0  0  0  0  0  0  0
    0.3741    1.0718    1.6282 H   0  0  0  0  0  0  0  0  0  0  0  0
   -0.4954    3.0018    1.2973 C   0  0  0  0  0  0  0  0  0  0  0  0
   -1.4286    3.2629    1.8075 H   0  0  0  0  0  0  0  0  0  0  0  0
    0.3408    3.3897    1.8871 H   0  0  0  0  0  0  0  0  0  0  0  0
   -0.4813    3.4893    0.3168 H   0  0  0  0  0  0  0  0  0  0  0  0
  1  2  1  0  0  0  0
  2  3  1  0  0  0  0
  2  4  1  0  0  0  0
  2  5  1  0  0  0  0
  5  6  2  0  0  0  0
  5  7  1  0  0  0  0
  7  8  1  0  0  0  0
  7  9  1  0  0  0  0
  9 10  1  0  0  0  0
  9 11  1  0  0  0  0
  9 26  1  0  0  0  0
 11 12  1  0  0  0  0
 11 13  1  0  0  0  0
 11 14  1  0  0  0  0
 14 15  2  0  0  0  0
 14 24  1  0  0  0  0
 15 16  1  0  0  0  0
 15 17  1  0  0  0  0
 17 18  1  0  0  0  0
 17 19  2  0  0  0  0
 19 20  1  0  0  0  0
 19 22  1  0  0  0  0
 20 21  1  0  0  0  0
 22 23  1  0  0  0  0
 22 24  2  0  0  0  0
 24 25  1  0  0  0  0
 26 27  2  0  0  0  0
 26 28  1  0  0  0  0
 28 29  1  0  0  0  0
 28 30  1  0  0  0  0
 30 31  1  0  0  0  0
 30 32  1  0  0  0  0
 30 33  1  0  0  0  0
M  END
$$$$

  -OEChem-04042216043D

 33 33  0     1  0  0  0  0  0999 V2000
   -4.1493   -3.7033    2.3398 H   0  0  0  0  0  0  0  0  0  0  0  0
   -4.1256   -2.8975    1.6008 C   0  0  0  0  0  0  0  0  0  0  0  0
   -4.7485   -2.0741    1.9585 H   0  0  0  0  0  0  0  0  0  0  0  0
   -4.5328   -3.2712    0.6583 H   0  0  0  0  0  0  0  0  0  0  0  0
   -2.7007   -2.4199    1.3941 C   0  0  0  0  0  0  0  0  0  0  0  0
   -1.7793   -2.9962    1.9501 O   0  0  0  0  0  0  0  0  0  0  0  0
   -2.4574   -1.3294    0.5845 N   0  0  0  0  0  0  0  0  0  0  0  0
   -3.2624   -0.8048    0.2455 H   0  0  0  0  0  0  0  0  0  0  0  0
   -1.1387   -0.7210    0.3749 C   0  0  1  0  0  0  0  0  0  0  0  0
   -0.4957   -1.0174    1.2102 H   0  0  0  0  0  0  0  0  0  0  0  0
   -0.3694   -1.0900   -0.9336 C   0  0  0  0  0  0  0  0  0  0  0  0
   -0.1335   -0.1584   -1.4594 H   0  0  0  0  0  0  0  0  0  0  0  0
    0.5875   -1.5053   -0.6001 H   0  0  0  0  0  0  0  0  0  0  0  0
   -0.8999   -2.0396   -2.0109 C   0  0  0  0  0  0  0  0  0  0  0  0
   -2.2273   -2.4904   -2.1710 C   0  0  0  0  0  0  0  0  0  0  0  0
   -3.0403   -2.1336   -1.5573 H   0  0  0  0  0  0  0  0  0  0  0  0
   -2.5681   -3.3927   -3.1865 C   0  0  0  0  0  0  0  0  0  0  0  0
   -3.5988   -3.7134   -3.2885 H   0  0  0  0  0  0  0  0  0  0  0  0
   -1.5964   -3.8668   -4.0655 C   0  0  0  0  0  0  0  0  0  0  0  0
   -1.9211   -4.7443   -5.0593 O   0  0  0  0  0  0  0  0  0  0  0  0
   -2.8679   -4.9492   -5.0242 H   0  0  0  0  0  0  0  0  0  0  0  0
   -0.2837   -3.4316   -3.9285 C   0  0  0  0  0  0  0  0  0  0  0  0
    0.4708   -3.8010   -4.6152 H   0  0  0  0  0  0  0  0  0  0  0  0
    0.0594   -2.5307   -2.9157 C   0  0  0  0  0  0  0  0  0  0  0  0
    1.0950   -2.2141   -2.8331 H   0  0  0  0  0  0  0  0  0  0  0  0
   -1.2837    0.8113    0.4708 C   0  0  0  0  0  0  0  0  0  0  0  0
   -2.2476    1.3680   -0.0433 O   0  0  0  0  0  0  0  0  0  0  0  0
   -0.3752    1.5599    1.1966 N   0  0  0  0  0  0  0  0  0  0  0  0
    0.3745    1.0633    1.6699 H   0  0  0  0  0  0  0  0  0  0  0  0
   -0.4948    3.0007    1.3850 C   0  0  0  0  0  0  0  0  0  0  0  0
   -1.4284    3.2435    1.9032 H   0  0  0  0  0  0  0  0  0  0  0  0
    0.3410    3.3740    1.9845 H   0  0  0  0  0  0  0  0  0  0  0  0
   -0.4838    3.5160    0.4188 H   0  0  0  0  0  0  0  0  0  0  0  0
  1  2  1  0  0  0  0
  2  3  1  0  0  0  0
  2  4  1  0  0  0  0
  2  5  1  0  0  0  0
  5  6  2  0  0  0  0
  5  7  1  0  0  0  0
  7  8  1  0  0  0  0
  7  9  1  0  0  0  0
  9 10  1  0  0  0  0
  9 11  1  0  0  0  0
  9 26  1  0  0  0  0
 11 12  1  0  0  0  0
 11 13  1  0  0  0  0
 11 14  1  0  0  0  0
 14 15  2  0  0  0  0
 14 24  1  0  0  0  0
 15 16  1  0  0  0  0
 15 17  1  0  0  0  0
 17 18  1  0  0  0  0
 17 19  2  0  0  0  0
 19 20  1  0  0  0  0
 19 22  1  0  0  0  0
 20 21  1  0  0  0  0
 22 23  1  0  0  0  0
 22 24  2  0  0  0  0
 24 25  1  0  0  0  0
 26 27  2  0  0  0  0
 26 28  1  0  0  0  0
 28 29  1  0  0  0  0
 28 30  1  0  0  0  0
 30 31  1  0  0  0  0
 30 32  1  0  0  0  0
 30 33  1  0  0  0  0
M  END
$$$$

  -OEChem-04042216043D

 33 33  0     1  0  0  0  0  0999 V2000
   -4.1182   -3.8172    2.0912 H   0  0  0  0  0  0  0  0  0  0  0  0
   -4.0825   -2.9795    1.3891 C   0  0  0  0  0  0  0  0  0  0  0  0
   -4.7484   -2.1907    1.7473 H   0  0  0  0  0  0  0  0  0  0  0  0
   -4.4281   -3.3241    0.4115 H   0  0  0  0  0  0  0  0  0  0  0  0
   -2.6648   -2.4517    1.2776 C   0  0  0  0  0  0  0  0  0  0  0  0
   -1.7600   -3.0017    1.8860 O   0  0  0  0  0  0  0  0  0  0  0  0
   -2.4103   -1.3431    0.4969 N   0  0  0  0  0  0  0  0  0  0  0  0
   -3.2100   -0.8405    0.1169 H   0  0  0  0  0  0  0  0  0  0  0  0
   -1.0946   -0.7056    0.3540 C   0  0  1  0  0  0  0  0  0  0  0  0
   -0.4754   -1.0069    1.2050 H   0  0  0  0  0  0  0  0  0  0  0  0
   -0.2872   -1.0484   -0.9370 C   0  0  0  0  0  0  0  0  0  0  0  0
   -0.0509   -0.1135   -1.4563 H   0  0  0  0  0  0  0  0  0  0  0  0
    0.6680   -1.4577   -0.5925 H   0  0  0  0  0  0  0  0  0  0  0  0
   -0.8312   -1.9943   -2.0072 C   0  0  0  0  0  0  0  0  0  0  0  0
   -2.1950   -2.1714   -2.3138 C   0  0  0  0  0  0  0  0  0  0  0  0
   -2.9571   -1.5544   -1.8549 H   0  0  0  0  0  0  0  0  0  0  0  0
   -2.6059   -3.1025   -3.2754 C   0  0  0  0  0  0  0  0  0  0  0  0
   -3.6617   -3.2068   -3.4987 H   0  0  0  0  0  0  0  0  0  0  0  0
   -1.6643   -3.8787   -3.9497 C   0  0  0  0  0  0  0  0  0  0  0  0
   -2.0531   -4.7886   -4.8901 O   0  0  0  0  0  0  0  0  0  0  0  0
   -3.0186   -4.7857   -4.9759 H   0  0  0  0  0  0  0  0  0  0  0  0
   -0.3130   -3.7152   -3.6637 C   0  0  0  0  0  0  0  0  0  0  0  0
    0.4162   -4.3214   -4.1910 H   0  0  0  0  0  0  0  0  0  0  0  0
    0.1001   -2.7842   -2.7049 C   0  0  0  0  0  0  0  0  0  0  0  0
    1.1620   -2.6863   -2.4992 H   0  0  0  0  0  0  0  0  0  0  0  0
   -1.2682    0.8215    0.4675 C   0  0  0  0  0  0  0  0  0  0  0  0
   -2.2108    1.3717   -0.0914 O   0  0  0  0  0  0  0  0  0  0  0  0
   -0.4042    1.5727    1.2431 N   0  0  0  0  0  0  0  0  0  0  0  0
    0.3243    1.0791    1.7513 H   0  0  0  0  0  0  0  0  0  0  0  0
   -0.5515    3.0095    1.4411 C   0  0  0  0  0  0  0  0  0  0  0  0
   -1.5140    3.2351    1.9124 H   0  0  0  0  0  0  0  0  0  0  0  0
    0.2468    3.3863    2.0877 H   0  0  0  0  0  0  0  0  0  0  0  0
   -0.4964    3.5357    0.4822 H   0  0  0  0  0  0  0  0  0  0  0  0
  1  2  1  0  0  0  0
  2  3  1  0  0  0  0
  2  4  1  0  0  0  0
  2  5  1  0  0  0  0
  5  6  2  0  0  0  0
  5  7  1  0  0  0  0
  7  8  1  0  0  0  0
  7  9  1  0  0  0  0
  9 10  1  0  0  0  0
  9 11  1  0  0  0  0
  9 26  1  0  0  0  0
 11 12  1  0  0  0  0
 11 13  1  0  0  0  0
 11 14  1  0  0  0  0
 14 15  2  0  0  0  0
 14 24  1  0  0  0  0
 15 16  1  0  0  0  0
 15 17  1  0  0  0  0
 17 18  1  0  0  0  0
 17 19  2  0  0  0  0
 19 20  1  0  0  0  0
 19 22  1  0  0  0  0
 20 21  1  0  0  0  0
 22 23  1  0  0  0  0
 22 24  2  0  0  0  0
 24 25  1  0  0  0  0
 26 27  2  0  0  0  0
 26 28  1  0  0  0  0
 28 29  1  0  0  0  0
 28 30  1  0  0  0  0
 30 31  1  0  0  0  0
 30 32  1  0  0  0  0
 30 33  1  0  0  0  0
M  END
$$$$

  -OEChem-04042216043D

 33 33  0     1  0  0  0  0  0999 V2000
   -4.0726   -3.9264    1.8660 H   0  0  0  0  0  0  0  0  0  0  0  0
   -4.0188   -3.0803    1.1753 C   0  0  0  0  0  0  0  0  0  0  0  0
   -4.7495   -2.3280    1.4818 H   0  0  0  0  0  0  0  0  0  0  0  0
   -4.2647   -3.4303    0.1698 H   0  0  0  0  0  0  0  0  0  0  0  0
   -2.6239   -2.4842    1.1857 C   0  0  0  0  0  0  0  0  0  0  0  0
   -1.7493   -2.9886    1.8731 O   0  0  0  0  0  0  0  0  0  0  0  0
   -2.3548   -1.3682    0.4212 N   0  0  0  0  0  0  0  0  0  0  0  0
   -3.1348   -0.9266   -0.0601 H   0  0  0  0  0  0  0  0  0  0  0  0
   -1.0488   -0.6956    0.3471 C   0  0  1  0  0  0  0  0  0  0  0  0
   -0.4567   -0.9890    1.2198 H   0  0  0  0  0  0  0  0  0  0  0  0
   -0.1996   -1.0248   -0.9173 C   0  0  0  0  0  0  0  0  0  0  0  0
    0.0301   -0.0927   -1.4447 H   0  0  0  0  0  0  0  0  0  0  0  0
    0.7571   -1.4208   -0.5622 H   0  0  0  0  0  0  0  0  0  0  0  0
   -0.7587   -1.9833   -1.9605 C   0  0  0  0  0  0  0  0  0  0  0  0
   -2.0816   -1.9060   -2.4334 C   0  0  0  0  0  0  0  0  0  0  0  0
   -2.7288   -1.0971   -2.1090 H   0  0  0  0  0  0  0  0  0  0  0  0
   -2.5702   -2.8347   -3.3594 C   0  0  0  0  0  0  0  0  0  0  0  0
   -3.5904   -2.7454   -3.7155 H   0  0  0  0  0  0  0  0  0  0  0  0
   -1.7461   -3.8592   -3.8261 C   0  0  0  0  0  0  0  0  0  0  0  0
   -2.2114   -4.7709   -4.7290 O   0  0  0  0  0  0  0  0  0  0  0  0
   -3.1304   -4.5686   -4.9614 H   0  0  0  0  0  0  0  0  0  0  0  0
   -0.4344   -3.9476   -3.3674 C   0  0  0  0  0  0  0  0  0  0  0  0
    0.2013   -4.7467   -3.7342 H   0  0  0  0  0  0  0  0  0  0  0  0
    0.0574   -3.0206   -2.4419 C   0  0  0  0  0  0  0  0  0  0  0  0
    1.0810   -3.1201   -2.0928 H   0  0  0  0  0  0  0  0  0  0  0  0
   -1.2565    0.8272    0.4511 C   0  0  0  0  0  0  0  0  0  0  0  0
   -2.1625    1.3629   -0.1782 O   0  0  0  0  0  0  0  0  0  0  0  0
   -0.4480    1.5935    1.2702 N   0  0  0  0  0  0  0  0  0  0  0  0
    0.2545    1.1115    1.8238 H   0  0  0  0  0  0  0  0  0  0  0  0
   -0.6135    3.0319    1.4384 C   0  0  0  0  0  0  0  0  0  0  0  0
   -1.6004    3.2579    1.8557 H   0  0  0  0  0  0  0  0  0  0  0  0
    0.1484    3.4232    2.1195 H   0  0  0  0  0  0  0  0  0  0  0  0
   -0.5117    3.5451    0.4763 H   0  0  0  0  0  0  0  0  0  0  0  0
  1  2  1  0  0  0  0
  2  3  1  0  0  0  0
  2  4  1  0  0  0  0
  2  5  1  0  0  0  0
  5  6  2  0  0  0  0
  5  7  1  0  0  0  0
  7  8  1  0  0  0  0
  7  9  1  0  0  0  0
  9 10  1  0  0  0  0
  9 11  1  0  0  0  0
  9 26  1  0  0  0  0
 11 12  1  0  0  0  0
 11 13  1  0  0  0  0
 11 14  1  0  0  0  0
 14 15  2  0  0  0  0
 14 24  1  0  0  0  0
 15 16  1  0  0  0  0
 15 17  1  0  0  0  0
 17 18  1  0  0  0  0
 17 19  2  0  0  0  0
 19 20  1  0  0  0  0
 19 22  1  0  0  0  0
 20 21  1  0  0  0  0
 22 23  1  0  0  0  0
 22 24  2  0  0  0  0
 24 25  1  0  0  0  0
 26 27  2  0  0  0  0
 26 28  1  0  0  0  0
 28 29  1  0  0  0  0
 28 30  1  0  0  0  0
 30 31  1  0  0  0  0
 30 32  1  0  0  0  0
 30 33  1  0  0  0  0
M  END
$$$$

  -OEChem-04042216043D

 33 33  0     1  0  0  0  0  0999 V2000
   -3.9688   -4.0659    1.6067 H   0  0  0  0  0  0  0  0  0  0  0  0
   -3.9116   -3.1941    0.9492 C   0  0  0  0  0  0  0  0  0  0  0  0
   -4.7259   -2.5095    1.1980 H   0  0  0  0  0  0  0  0  0  0  0  0
   -4.0254   -3.5265   -0.0857 H   0  0  0  0  0  0  0  0  0  0  0  0
   -2.5759   -2.4962    1.1195 C   0  0  0  0  0  0  0  0  0  0  0  0
   -1.7560   -2.9298    1.9146 O   0  0  0  0  0  0  0  0  0  0  0  0
   -2.2902   -1.3815    0.3598 N   0  0  0  0  0  0  0  0  0  0  0  0
   -3.0121   -1.0437   -0.2718 H   0  0  0  0  0  0  0  0  0  0  0  0
   -0.9955   -0.6815    0.3485 C   0  0  1  0  0  0  0  0  0  0  0  0
   -0.4284   -0.9621    1.2416 H   0  0  0  0  0  0  0  0  0  0  0  0
   -0.1184   -1.0132   -0.8929 C   0  0  0  0  0  0  0  0  0  0  0  0
    0.1188   -0.0901   -1.4329 H   0  0  0  0  0  0  0  0  0  0  0  0
    0.8338   -1.4127   -0.5299 H   0  0  0  0  0  0  0  0  0  0  0  0
   -0.7081   -1.9857   -1.8988 C   0  0  0  0  0  0  0  0  0  0  0  0
   -1.9141   -1.6932   -2.5593 C   0  0  0  0  0  0  0  0  0  0  0  0
   -2.4026   -0.7373   -2.3867 H   0  0  0  0  0  0  0  0  0  0  0  0
   -2.4807   -2.6102   -3.4517 C   0  0  0  0  0  0  0  0  0  0  0  0
   -3.4064   -2.3594   -3.9580 H   0  0  0  0  0  0  0  0  0  0  0  0
   -1.8538   -3.8347   -3.6882 C   0  0  0  0  0  0  0  0  0  0  0  0
   -2.3976   -4.7372   -4.5556 O   0  0  0  0  0  0  0  0  0  0  0  0
   -3.1952   -4.3668   -4.9636 H   0  0  0  0  0  0  0  0  0  0  0  0
   -0.6627   -4.1374   -3.0316 C   0  0  0  0  0  0  0  0  0  0  0  0
   -0.1852   -5.0939   -3.2167 H   0  0  0  0  0  0  0  0  0  0  0  0
   -0.0905   -3.2223   -2.1406 C   0  0  0  0  0  0  0  0  0  0  0  0
    0.8311   -3.4849   -1.6297 H   0  0  0  0  0  0  0  0  0  0  0  0
   -1.2319    0.8389    0.4264 C   0  0  0  0  0  0  0  0  0  0  0  0
   -2.0858    1.3597   -0.2836 O   0  0  0  0  0  0  0  0  0  0  0  0
   -0.4811    1.6267    1.2792 N   0  0  0  0  0  0  0  0  0  0  0  0
    0.1789    1.1589    1.8943 H   0  0  0  0  0  0  0  0  0  0  0  0
   -0.6745    3.0653    1.4153 C   0  0  0  0  0  0  0  0  0  0  0  0
   -1.6986    3.2859    1.7350 H   0  0  0  0  0  0  0  0  0  0  0  0
    0.0157    3.4705    2.1617 H   0  0  0  0  0  0  0  0  0  0  0  0
   -0.4867    3.5695    0.4613 H   0  0  0  0  0  0  0  0  0  0  0  0
  1  2  1  0  0  0  0
  2  3  1  0  0  0  0
  2  4  1  0  0  0  0
  2  5  1  0  0  0  0
  5  6  2  0  0  0  0
  5  7  1  0  0  0  0
  7  8  1  0  0  0  0
  7  9  1  0  0  0  0
  9 10  1  0  0  0  0
  9 11  1  0  0  0  0
  9 26  1  0  0  0  0
 11 12  1  0  0  0  0
 11 13  1  0  0  0  0
 11 14  1  0  0  0  0
 14 15  2  0  0  0  0
 14 24  1  0  0  0  0
 15 16  1  0  0  0  0
 15 17  1  0  0  0  0
 17 18  1  0  0  0  0
 17 19  2  0  0  0  0
 19 20  1  0  0  0  0
 19 22  1  0  0  0  0
 20 21  1  0  0  0  0
 22 23  1  0  0  0  0
 22 24  2  0  0  0  0
 24 25  1  0  0  0  0
 26 27  2  0  0  0  0
 26 28  1  0  0  0  0
 28 29  1  0  0  0  0
 28 30  1  0  0  0  0
 30 31  1  0  0  0  0
 30 32  1  0  0  0  0
 30 33  1  0  0  0  0
M  END
$$$$

  -OEChem-04042216043D

 33 33  0     1  0  0  0  0  0999 V2000
   -3.9191   -4.1161    1.5051 H   0  0  0  0  0  0  0  0  0  0  0  0
   -3.8645   -3.2344    0.8607 C   0  0  0  0  0  0  0  0  0  0  0  0
   -4.6992   -2.5706    1.0980 H   0  0  0  0  0  0  0  0  0  0  0  0
   -3.9454   -3.5539   -0.1813 H   0  0  0  0  0  0  0  0  0  0  0  0
   -2.5493   -2.5098    1.0749 C   0  0  0  0  0  0  0  0  0  0  0  0
   -1.7503   -2.9213    1.9027 O   0  0  0  0  0  0  0  0  0  0  0  0
   -2.2571   -1.3950    0.3184 N   0  0  0  0  0  0  0  0  0  0  0  0
   -2.9450   -1.1006   -0.3708 H   0  0  0  0  0  0  0  0  0  0  0  0
   -0.9710   -0.6776    0.3408 C   0  0  1  0  0  0  0  0  0  0  0  0
   -0.4185   -0.9511    1.2452 H   0  0  0  0  0  0  0  0  0  0  0  0
   -0.0767   -1.0110   -0.8847 C   0  0  0  0  0  0  0  0  0  0  0  0
    0.1667   -0.0937   -1.4322 H   0  0  0  0  0  0  0  0  0  0  0  0
    0.8720   -1.4148   -0.5176 H   0  0  0  0  0  0  0  0  0  0  0  0
   -0.6852   -1.9943   -1.8621 C   0  0  0  0  0  0  0  0  0  0  0  0
   -1.7057   -1.5775   -2.7312 C   0  0  0  0  0  0  0  0  0  0  0  0
   -2.0287   -0.5391   -2.7232 H   0  0  0  0  0  0  0  0  0  0  0  0
   -2.3076   -2.4881   -3.6067 C   0  0  0  0  0  0  0  0  0  0  0  0
   -3.0904   -2.1461   -4.2749 H   0  0  0  0  0  0  0  0  0  0  0  0
   -1.9013   -3.8241   -3.6157 C   0  0  0  0  0  0  0  0  0  0  0  0
   -2.4812   -4.7203   -4.4661 O   0  0  0  0  0  0  0  0  0  0  0  0
   -3.1121   -4.2677   -5.0469 H   0  0  0  0  0  0  0  0  0  0  0  0
   -0.8967   -4.2464   -2.7463 C   0  0  0  0  0  0  0  0  0  0  0  0
   -0.5918   -5.2879   -2.7550 H   0  0  0  0  0  0  0  0  0  0  0  0
   -0.2893   -3.3395   -1.8704 C   0  0  0  0  0  0  0  0  0  0  0  0
    0.4814   -3.6882   -1.1890 H   0  0  0  0  0  0  0  0  0  0  0  0
   -1.2208    0.8409    0.4051 C   0  0  0  0  0  0  0  0  0  0  0  0
   -2.0439    1.3566   -0.3438 O   0  0  0  0  0  0  0  0  0  0  0  0
   -0.4993    1.6363    1.2762 N   0  0  0  0  0  0  0  0  0  0  0  0
    0.1332    1.1730    1.9228 H   0  0  0  0  0  0  0  0  0  0  0  0
   -0.7028    3.0746    1.3982 C   0  0  0  0  0  0  0  0  0  0  0  0
   -1.7405    3.2935    1.6711 H   0  0  0  0  0  0  0  0  0  0  0  0
   -0.0480    3.4848    2.1729 H   0  0  0  0  0  0  0  0  0  0  0  0
   -0.4741    3.5752    0.4515 H   0  0  0  0  0  0  0  0  0  0  0  0
  1  2  1  0  0  0  0
  2  3  1  0  0  0  0
  2  4  1  0  0  0  0
  2  5  1  0  0  0  0
  5  6  2  0  0  0  0
  5  7  1  0  0  0  0
  7  8  1  0  0  0  0
  7  9  1  0  0  0  0
  9 10  1  0  0  0  0
  9 11  1  0  0  0  0
  9 26  1  0  0  0  0
 11 12  1  0  0  0  0
 11 13  1  0  0  0  0
 11 14  1  0  0  0  0
 14 15  2  0  0  0  0
 14 24  1  0  0  0  0
 15 16  1  0  0  0  0
 15 17  1  0  0  0  0
 17 18  1  0  0  0  0
 17 19  2  0  0  0  0
 19 20  1  0  0  0  0
 19 22  1  0  0  0  0
 20 21  1  0  0  0  0
 22 23  1  0  0  0  0
 22 24  2  0  0  0  0
 24 25  1  0  0  0  0
 26 27  2  0  0  0  0
 26 28  1  0  0  0  0
 28 29  1  0  0  0  0
 28 30  1  0  0  0  0
 30 31  1  0  0  0  0
 30 32  1  0  0  0  0
 30 33  1  0  0  0  0
M  END
$$$$

  -OEChem-04042216043D

 33 33  0     1  0  0  0  0  0999 V2000
   -3.9236   -4.1130    1.5059 H   0  0  0  0  0  0  0  0  0  0  0  0
   -3.8685   -3.2317    0.8608 C   0  0  0  0  0  0  0  0  0  0  0  0
   -4.7024   -2.5669    1.0984 H   0  0  0  0  0  0  0  0  0  0  0  0
   -3.9507   -3.5512   -0.1813 H   0  0  0  0  0  0  0  0  0  0  0  0
   -2.5520   -2.5094    1.0734 C   0  0  0  0  0  0  0  0  0  0  0  0
   -1.7492   -2.9277    1.8943 O   0  0  0  0  0  0  0  0  0  0  0  0
   -2.2569   -1.3958    0.3162 N   0  0  0  0  0  0  0  0  0  0  0  0
   -2.9421   -1.1031   -0.3769 H   0  0  0  0  0  0  0  0  0  0  0  0
   -0.9722   -0.6759    0.3418 C   0  0  1  0  0  0  0  0  0  0  0  0
   -0.4231   -0.9474    1.2488 H   0  0  0  0  0  0  0  0  0  0  0  0
   -0.0764   -1.0160   -0.8796 C   0  0  0  0  0  0  0  0  0  0  0  0
    0.1755   -0.1020   -1.4288 H   0  0  0  0  0  0  0  0  0  0  0  0
    0.8687   -1.4271   -0.5107 H   0  0  0  0  0  0  0  0  0  0  0  0
   -0.6924   -2.0064   -1.8444 C   0  0  0  0  0  0  0  0  0  0  0  0
   -1.4774   -1.5502   -2.9133 C   0  0  0  0  0  0  0  0  0  0  0  0
   -1.6308   -0.4832   -3.0547 H   0  0  0  0  0  0  0  0  0  0  0  0
   -2.0742   -2.4615   -3.7921 C   0  0  0  0  0  0  0  0  0  0  0  0
   -2.6782   -2.0909   -4.6129 H   0  0  0  0  0  0  0  0  0  0  0  0
   -1.8947   -3.8343   -3.6082 C   0  0  0  0  0  0  0  0  0  0  0  0
   -2.4730   -4.7302   -4.4604 O   0  0  0  0  0  0  0  0  0  0  0  0
   -2.9243   -4.2610   -5.1790 H   0  0  0  0  0  0  0  0  0  0  0  0
   -1.1201   -4.2927   -2.5435 C   0  0  0  0  0  0  0  0  0  0  0  0
   -0.9892   -5.3609   -2.4045 H   0  0  0  0  0  0  0  0  0  0  0  0
   -0.5191   -3.3865   -1.6628 C   0  0  0  0  0  0  0  0  0  0  0  0
    0.0699   -3.7577   -0.8284 H   0  0  0  0  0  0  0  0  0  0  0  0
   -1.2185    0.8436    0.4012 C   0  0  0  0  0  0  0  0  0  0  0  0
   -2.0346    1.3619   -0.3530 O   0  0  0  0  0  0  0  0  0  0  0  0
   -0.4979    1.6388    1.2733 N   0  0  0  0  0  0  0  0  0  0  0  0
    0.1281    1.1743    1.9251 H   0  0  0  0  0  0  0  0  0  0  0  0
   -0.6961    3.0783    1.3905 C   0  0  0  0  0  0  0  0  0  0  0  0
   -1.7333    3.3016    1.6623 H   0  0  0  0  0  0  0  0  0  0  0  0
   -0.0402    3.4888    2.1643 H   0  0  0  0  0  0  0  0  0  0  0  0
   -0.4648    3.5752    0.4424 H   0  0  0  0  0  0  0  0  0  0  0  0
  1  2  1  0  0  0  0
  2  3  1  0  0  0  0
  2  4  1  0  0  0  0
  2  5  1  0  0  0  0
  5  6  2  0  0  0  0
  5  7  1  0  0  0  0
  7  8  1  0  0  0  0
  7  9  1  0  0  0  0
  9 10  1  0  0  0  0
  9 11  1  0  0  0  0
  9 26  1  0  0  0  0
 11 12  1  0  0  0  0
 11 13  1  0  0  0  0
 11 14  1  0  0  0  0
 14 15  2  0  0  0  0
 14 24  1  0  0  0  0
 15 16  1  0  0  0  0
 15 17  1  0  0  0  0
 17 18  1  0  0  0  0
 17 19  2  0  0  0  0
 19 20  1  0  0  0  0
 19 22  1  0  0  0  0
 20 21  1  0  0  0  0
 22 23  1  0  0  0  0
 22 24  2  0  0  0  0
 24 25  1  0  0  0  0
 26 27  2  0  0  0  0
 26 28  1  0  0  0  0
 28 29  1  0  0  0  0
 28 30  1  0  0  0  0
 30 31  1  0  0  0  0
 30 32  1  0  0  0  0
 30 33  1  0  0  0  0
M  END
$$$$

  -OEChem-04042216043D

 33 33  0     1  0  0  0  0  0999 V2000
   -3.9835   -4.0662    1.5863 H   0  0  0  0  0  0  0  0  0  0  0  0
   -3.9184   -3.1947    0.9291 C   0  0  0  0  0  0  0  0  0  0  0  0
   -4.7352   -2.5094    1.1677 H   0  0  0  0  0  0  0  0  0  0  0  0
   -4.0204   -3.5263   -0.1074 H   0  0  0  0  0  0  0  0  0  0  0  0
   -2.5857   -2.4954    1.1157 C   0  0  0  0  0  0  0  0  0  0  0  0
   -1.7694   -2.9328    1.9129 O   0  0  0  0  0  0  0  0  0  0  0  0
   -2.2862   -1.3883    0.3509 N   0  0  0  0  0  0  0  0  0  0  0  0
   -2.9838   -1.0796   -0.3232 H   0  0  0  0  0  0  0  0  0  0  0  0
   -0.9954   -0.6794    0.3556 C   0  0  1  0  0  0  0  0  0  0  0  0
   -0.4389   -0.9502    1.2585 H   0  0  0  0  0  0  0  0  0  0  0  0
   -0.1106   -1.0281   -0.8723 C   0  0  0  0  0  0  0  0  0  0  0  0
    0.1469   -0.1141   -1.4184 H   0  0  0  0  0  0  0  0  0  0  0  0
    0.8329   -1.4463   -0.5073 H   0  0  0  0  0  0  0  0  0  0  0  0
   -0.7252   -2.0195   -1.8383 C   0  0  0  0  0  0  0  0  0  0  0  0
   -1.2412   -1.5832   -3.0672 C   0  0  0  0  0  0  0  0  0  0  0  0
   -1.2202   -0.5268   -3.3206 H   0  0  0  0  0  0  0  0  0  0  0  0
   -1.8010   -2.4989   -3.9655 C   0  0  0  0  0  0  0  0  0  0  0  0
   -2.2051   -2.1417   -4.9064 H   0  0  0  0  0  0  0  0  0  0  0  0
   -1.8401   -3.8587   -3.6486 C   0  0  0  0  0  0  0  0  0  0  0  0
   -2.3865   -4.7584   -4.5174 O   0  0  0  0  0  0  0  0  0  0  0  0
   -2.6661   -4.3080   -5.3293 H   0  0  0  0  0  0  0  0  0  0  0  0
   -1.3149   -4.3006   -2.4354 C   0  0  0  0  0  0  0  0  0  0  0  0
   -1.3450   -5.3591   -2.1979 H   0  0  0  0  0  0  0  0  0  0  0  0
   -0.7529   -3.3897   -1.5349 C   0  0  0  0  0  0  0  0  0  0  0  0
   -0.3471   -3.7464   -0.5916 H   0  0  0  0  0  0  0  0  0  0  0  0
   -1.2283    0.8427    0.4106 C   0  0  0  0  0  0  0  0  0  0  0  0
   -2.0514    1.3656   -0.3327 O   0  0  0  0  0  0  0  0  0  0  0  0
   -0.4887    1.6349    1.2695 N   0  0  0  0  0  0  0  0  0  0  0  0
    0.1463    1.1681    1.9111 H   0  0  0  0  0  0  0  0  0  0  0  0
   -0.6669    3.0778    1.3776 C   0  0  0  0  0  0  0  0  0  0  0  0
   -1.6950    3.3167    1.6693 H   0  0  0  0  0  0  0  0  0  0  0  0
    0.0107    3.4871    2.1330 H   0  0  0  0  0  0  0  0  0  0  0  0
   -0.4502    3.5627    0.4200 H   0  0  0  0  0  0  0  0  0  0  0  0
  1  2  1  0  0  0  0
  2  3  1  0  0  0  0
  2  4  1  0  0  0  0
  2  5  1  0  0  0  0
  5  6  2  0  0  0  0
  5  7  1  0  0  0  0
  7  8  1  0  0  0  0
  7  9  1  0  0  0  0
  9 10  1  0  0  0  0
  9 11  1  0  0  0  0
  9 26  1  0  0  0  0
 11 12  1  0  0  0  0
 11 13  1  0  0  0  0
 11 14  1  0  0  0  0
 14 15  2  0  0  0  0
 14 24  1  0  0  0  0
 15 16  1  0  0  0  0
 15 17  1  0  0  0  0
 17 18  1  0  0  0  0
 17 19  2  0  0  0  0
 19 20  1  0  0  0  0
 19 22  1  0  0  0  0
 20 21  1  0  0  0  0
 22 23  1  0  0  0  0
 22 24  2  0  0  0  0
 24 25  1  0  0  0  0
 26 27  2  0  0  0  0
 26 28  1  0  0  0  0
 28 29  1  0  0  0  0
 28 30  1  0  0  0  0
 30 31  1  0  0  0  0
 30 32  1  0  0  0  0
 30 33  1  0  0  0  0
M  END
$$$$

  -OEChem-04042216043D

 33 33  0     1  0  0  0  0  0999 V2000
   -4.0781   -3.9819    1.7402 H   0  0  0  0  0  0  0  0  0  0  0  0
   -4.0035   -3.1282    1.0613 C   0  0  0  0  0  0  0  0  0  0  0  0
   -4.7900   -2.4112    1.3082 H   0  0  0  0  0  0  0  0  0  0  0  0
   -4.1481   -3.4786    0.0363 H   0  0  0  0  0  0  0  0  0  0  0  0
   -2.6427   -2.4715    1.1928 C   0  0  0  0  0  0  0  0  0  0  0  0
   -1.8139   -2.9279    1.9659 O   0  0  0  0  0  0  0  0  0  0  0  0
   -2.3352   -1.3783    0.4110 N   0  0  0  0  0  0  0  0  0  0  0  0
   -3.0509   -1.0432   -0.2311 H   0  0  0  0  0  0  0  0  0  0  0  0
   -1.0327   -0.6917    0.3779 C   0  0  1  0  0  0  0  0  0  0  0  0
   -0.4631   -0.9626    1.2723 H   0  0  0  0  0  0  0  0  0  0  0  0
   -0.1668   -1.0461   -0.8654 C   0  0  0  0  0  0  0  0  0  0  0  0
    0.0943   -0.1284   -1.4037 H   0  0  0  0  0  0  0  0  0  0  0  0
    0.7764   -1.4719   -0.5083 H   0  0  0  0  0  0  0  0  0  0  0  0
   -0.7737   -2.0307   -1.8471 C   0  0  0  0  0  0  0  0  0  0  0  0
   -0.9998   -1.6515   -3.1793 C   0  0  0  0  0  0  0  0  0  0  0  0
   -0.8029   -0.6308   -3.4949 H   0  0  0  0  0  0  0  0  0  0  0  0
   -1.5021   -2.5721   -4.1071 C   0  0  0  0  0  0  0  0  0  0  0  0
   -1.6891   -2.2517   -5.1261 H   0  0  0  0  0  0  0  0  0  0  0  0
   -1.7551   -3.8902   -3.7220 C   0  0  0  0  0  0  0  0  0  0  0  0
   -2.2473   -4.7948   -4.6177 O   0  0  0  0  0  0  0  0  0  0  0  0
   -2.3572   -4.3765   -5.4854 H   0  0  0  0  0  0  0  0  0  0  0  0
   -1.4874   -4.2882   -2.4143 C   0  0  0  0  0  0  0  0  0  0  0  0
   -1.6633   -5.3195   -2.1266 H   0  0  0  0  0  0  0  0  0  0  0  0
   -0.9844   -3.3716   -1.4855 C   0  0  0  0  0  0  0  0  0  0  0  0
   -0.7534   -3.7060   -0.4777 H   0  0  0  0  0  0  0  0  0  0  0  0
   -1.2470    0.8340    0.4222 C   0  0  0  0  0  0  0  0  0  0  0  0
   -2.0895    1.3592   -0.2969 O   0  0  0  0  0  0  0  0  0  0  0  0
   -0.4775    1.6251    1.2556 N   0  0  0  0  0  0  0  0  0  0  0  0
    0.1777    1.1580    1.8760 H   0  0  0  0  0  0  0  0  0  0  0  0
   -0.6269    3.0722    1.3470 C   0  0  0  0  0  0  0  0  0  0  0  0
   -1.6410    3.3339    1.6668 H   0  0  0  0  0  0  0  0  0  0  0  0
    0.0814    3.4803    2.0743 H   0  0  0  0  0  0  0  0  0  0  0  0
   -0.4317    3.5388    0.3756 H   0  0  0  0  0  0  0  0  0  0  0  0
  1  2  1  0  0  0  0
  2  3  1  0  0  0  0
  2  4  1  0  0  0  0
  2  5  1  0  0  0  0
  5  6  2  0  0  0  0
  5  7  1  0  0  0  0
  7  8  1  0  0  0  0
  7  9  1  0  0  0  0
  9 10  1  0  0  0  0
  9 11  1  0  0  0  0
  9 26  1  0  0  0  0
 11 12  1  0  0  0  0
 11 13  1  0  0  0  0
 11 14  1  0  0  0  0
 14 15  2  0  0  0  0
 14 24  1  0  0  0  0
 15 16  1  0  0  0  0
 15 17  1  0  0  0  0
 17 18  1  0  0  0  0
 17 19  2  0  0  0  0
 19 20  1  0  0  0  0
 19 22  1  0  0  0  0
 20 21  1  0  0  0  0
 22 23  1  0  0  0  0
 22 24  2  0  0  0  0
 24 25  1  0  0  0  0
 26 27  2  0  0  0  0
 26 28  1  0  0  0  0
 28 29  1  0  0  0  0
 28 30  1  0  0  0  0
 30 31  1  0  0  0  0
 30 32  1  0  0  0  0
 30 33  1  0  0  0  0
M  END
$$$$

  -OEChem-04042216043D

 33 33  0     1  0  0  0  0  0999 V2000
   -4.1695   -3.8723    1.9135 H   0  0  0  0  0  0  0  0  0  0  0  0
   -4.0902   -3.0279    1.2234 C   0  0  0  0  0  0  0  0  0  0  0  0
   -4.8324   -2.2751    1.4997 H   0  0  0  0  0  0  0  0  0  0  0  0
   -4.2980   -3.3800    0.2099 H   0  0  0  0  0  0  0  0  0  0  0  0
   -2.6981   -2.4294    1.2853 C   0  0  0  0  0  0  0  0  0  0  0  0
   -1.8566   -2.9084    2.0302 O   0  0  0  0  0  0  0  0  0  0  0  0
   -2.3797   -1.3589    0.4768 N   0  0  0  0  0  0  0  0  0  0  0  0
   -3.1141   -0.9901   -0.1251 H   0  0  0  0  0  0  0  0  0  0  0  0
   -1.0614   -0.7079    0.3926 C   0  0  1  0  0  0  0  0  0  0  0  0
   -0.4738   -0.9764    1.2764 H   0  0  0  0  0  0  0  0  0  0  0  0
   -0.2226   -1.0752   -0.8703 C   0  0  0  0  0  0  0  0  0  0  0  0
    0.0466   -0.1555   -1.4012 H   0  0  0  0  0  0  0  0  0  0  0  0
    0.7179   -1.5139   -0.5219 H   0  0  0  0  0  0  0  0  0  0  0  0
   -0.8213   -2.0482   -1.8737 C   0  0  0  0  0  0  0  0  0  0  0  0
   -0.7458   -1.7586   -3.2468 C   0  0  0  0  0  0  0  0  0  0  0  0
   -0.3608   -0.7989   -3.5795 H   0  0  0  0  0  0  0  0  0  0  0  0
   -1.1915   -2.6793   -4.2029 C   0  0  0  0  0  0  0  0  0  0  0  0
   -1.1543   -2.4155   -5.2540 H   0  0  0  0  0  0  0  0  0  0  0  0
   -1.6711   -3.9275   -3.8047 C   0  0  0  0  0  0  0  0  0  0  0  0
   -2.1113   -4.8327   -4.7266 O   0  0  0  0  0  0  0  0  0  0  0  0
   -2.0503   -4.4556   -5.6177 H   0  0  0  0  0  0  0  0  0  0  0  0
   -1.6730   -4.2603   -2.4532 C   0  0  0  0  0  0  0  0  0  0  0  0
   -2.0055   -5.2478   -2.1504 H   0  0  0  0  0  0  0  0  0  0  0  0
   -1.2266   -3.3412   -1.4982 C   0  0  0  0  0  0  0  0  0  0  0  0
   -1.1707   -3.6541   -0.4612 H   0  0  0  0  0  0  0  0  0  0  0  0
   -1.2546    0.8221    0.4179 C   0  0  0  0  0  0  0  0  0  0  0  0
   -2.1247    1.3467   -0.2681 O   0  0  0  0  0  0  0  0  0  0  0  0
   -0.4493    1.6152    1.2150 N   0  0  0  0  0  0  0  0  0  0  0  0
    0.2164    1.1476    1.8238 H   0  0  0  0  0  0  0  0  0  0  0  0
   -0.6067    3.0606    1.3217 C   0  0  0  0  0  0  0  0  0  0  0  0
   -1.6116    3.3114    1.6773 H   0  0  0  0  0  0  0  0  0  0  0  0
    0.1221    3.4694    2.0281 H   0  0  0  0  0  0  0  0  0  0  0  0
   -0.4487    3.5363    0.3482 H   0  0  0  0  0  0  0  0  0  0  0  0
  1  2  1  0  0  0  0
  2  3  1  0  0  0  0
  2  4  1  0  0  0  0
  2  5  1  0  0  0  0
  5  6  2  0  0  0  0
  5  7  1  0  0  0  0
  7  8  1  0  0  0  0
  7  9  1  0  0  0  0
  9 10  1  0  0  0  0
  9 11  1  0  0  0  0
  9 26  1  0  0  0  0
 11 12  1  0  0  0  0
 11 13  1  0  0  0  0
 11 14  1  0  0  0  0
 14 15  2  0  0  0  0
 14 24  1  0  0  0  0
 15 16  1  0  0  0  0
 15 17  1  0  0  0  0
 17 18  1  0  0  0  0
 17 19  2  0  0  0  0
 19 20  1  0  0  0  0
 19 22  1  0  0  0  0
 20 21  1  0  0  0  0
 22 23  1  0  0  0  0
 22 24  2  0  0  0  0
 24 25  1  0  0  0  0
 26 27  2  0  0  0  0
 26 28  1  0  0  0  0
 28 29  1  0  0  0  0
 28 30  1  0  0  0  0
 30 31  1  0  0  0  0
 30 32  1  0  0  0  0
 30 33  1  0  0  0  0
M  END
$$$$

  -OEChem-04042216043D

 33 33  0     1  0  0  0  0  0999 V2000
   -4.2296   -3.7617    2.1797 H   0  0  0  0  0  0  0  0  0  0  0  0
   -4.1654   -2.9258    1.4777 C   0  0  0  0  0  0  0  0  0  0  0  0
   -4.8364   -2.1313    1.8130 H   0  0  0  0  0  0  0  0  0  0  0  0
   -4.4833   -3.2694    0.4903 H   0  0  0  0  0  0  0  0  0  0  0  0
   -2.7419   -2.4063    1.4101 C   0  0  0  0  0  0  0  0  0  0  0  0
   -1.8688   -2.9222    2.0903 O   0  0  0  0  0  0  0  0  0  0  0  0
   -2.4346   -1.3596    0.5658 N   0  0  0  0  0  0  0  0  0  0  0  0
   -3.1990   -0.9375    0.0404 H   0  0  0  0  0  0  0  0  0  0  0  0
   -1.1062   -0.7437    0.4140 C   0  0  1  0  0  0  0  0  0  0  0  0
   -0.4935   -1.0056    1.2825 H   0  0  0  0  0  0  0  0  0  0  0  0
   -0.2973   -1.1151   -0.8716 C   0  0  0  0  0  0  0  0  0  0  0  0
   -0.0265   -0.1890   -1.3905 H   0  0  0  0  0  0  0  0  0  0  0  0
    0.6439   -1.5583   -0.5313 H   0  0  0  0  0  0  0  0  0  0  0  0
   -0.8630   -2.0733   -1.9140 C   0  0  0  0  0  0  0  0  0  0  0  0
   -0.4760   -1.8876   -3.2540 C   0  0  0  0  0  0  0  0  0  0  0  0
    0.1086   -1.0156   -3.5328 H   0  0  0  0  0  0  0  0  0  0  0  0
   -0.8557   -2.7889   -4.2552 C   0  0  0  0  0  0  0  0  0  0  0  0
   -0.5726   -2.5940   -5.2836 H   0  0  0  0  0  0  0  0  0  0  0  0
   -1.5832   -3.9318   -3.9279 C   0  0  0  0  0  0  0  0  0  0  0  0
   -1.9589   -4.8207   -4.8932 O   0  0  0  0  0  0  0  0  0  0  0  0
   -1.6584   -4.5131   -5.7621 H   0  0  0  0  0  0  0  0  0  0  0  0
   -1.8956   -4.1819   -2.5958 C   0  0  0  0  0  0  0  0  0  0  0  0
   -2.4152   -5.0992   -2.3384 H   0  0  0  0  0  0  0  0  0  0  0  0
   -1.5138   -3.2799   -1.5966 C   0  0  0  0  0  0  0  0  0  0  0  0
   -1.6917   -3.5664   -0.5699 H   0  0  0  0  0  0  0  0  0  0  0  0
   -1.2843    0.7895    0.4200 C   0  0  0  0  0  0  0  0  0  0  0  0
   -2.1884    1.3104   -0.2237 O   0  0  0  0  0  0  0  0  0  0  0  0
   -0.4393    1.5892    1.1678 N   0  0  0  0  0  0  0  0  0  0  0  0
    0.2592    1.1277    1.7436 H   0  0  0  0  0  0  0  0  0  0  0  0
   -0.5751    3.0387    1.2488 C   0  0  0  0  0  0  0  0  0  0  0  0
   -1.5562    3.3102    1.6526 H   0  0  0  0  0  0  0  0  0  0  0  0
    0.1958    3.4551    1.9041 H   0  0  0  0  0  0  0  0  0  0  0  0
   -0.4650    3.4895    0.2568 H   0  0  0  0  0  0  0  0  0  0  0  0
  1  2  1  0  0  0  0
  2  3  1  0  0  0  0
  2  4  1  0  0  0  0
  2  5  1  0  0  0  0
  5  6  2  0  0  0  0
  5  7  1  0  0  0  0
  7  8  1  0  0  0  0
  7  9  1  0  0  0  0
  9 10  1  0  0  0  0
  9 11  1  0  0  0  0
  9 26  1  0  0  0  0
 11 12  1  0  0  0  0
 11 13  1  0  0  0  0
 11 14  1  0  0  0  0
 14 15  2  0  0  0  0
 14 24  1  0  0  0  0
 15 16  1  0  0  0  0
 15 17  1  0  0  0  0
 17 18  1  0  0  0  0
 17 19  2  0  0  0  0
 19 20  1  0  0  0  0
 19 22  1  0  0  0  0
 20 21  1  0  0  0  0
 22 23  1  0  0  0  0
 22 24  2  0  0  0  0
 24 25  1  0  0  0  0
 26 27  2  0  0  0  0
 26 28  1  0  0  0  0
 28 29  1  0  0  0  0
 28 30  1  0  0  0  0
 30 31  1  0  0  0  0
 30 32  1  0  0  0  0
 30 33  1  0  0  0  0
M  END
$$$$

  -OEChem-04042216043D

 33 33  0     1  0  0  0  0  0999 V2000
   -4.1773   -3.7220    2.4012 H   0  0  0  0  0  0  0  0  0  0  0  0
   -4.1538   -2.8668    1.7198 C   0  0  0  0  0  0  0  0  0  0  0  0
   -4.7504   -2.0580    2.1487 H   0  0  0  0  0  0  0  0  0  0  0  0
   -4.5917   -3.1660    0.7645 H   0  0  0  0  0  0  0  0  0  0  0  0
   -2.7246   -2.4014    1.5126 C   0  0  0  0  0  0  0  0  0  0  0  0
   -1.8124   -2.9447    2.1151 O   0  0  0  0  0  0  0  0  0  0  0  0
   -2.4618   -1.3625    0.6421 N   0  0  0  0  0  0  0  0  0  0  0  0
   -3.2561   -0.8956    0.2057 H   0  0  0  0  0  0  0  0  0  0  0  0
   -1.1368   -0.7674    0.4163 C   0  0  1  0  0  0  0  0  0  0  0  0
   -0.4938   -1.0222    1.2650 H   0  0  0  0  0  0  0  0  0  0  0  0
   -0.3610   -1.1562   -0.8868 C   0  0  0  0  0  0  0  0  0  0  0  0
   -0.1082   -0.2291   -1.4135 H   0  0  0  0  0  0  0  0  0  0  0  0
    0.5889   -1.5838   -0.5505 H   0  0  0  0  0  0  0  0  0  0  0  0
   -0.8855   -2.1199   -1.9523 C   0  0  0  0  0  0  0  0  0  0  0  0
   -0.2160   -2.0914   -3.1905 C   0  0  0  0  0  0  0  0  0  0  0  0
    0.5767   -1.3683   -3.3585 H   0  0  0  0  0  0  0  0  0  0  0  0
   -0.5570   -2.9615   -4.2319 C   0  0  0  0  0  0  0  0  0  0  0  0
   -0.0329   -2.8919   -5.1787 H   0  0  0  0  0  0  0  0  0  0  0  0
   -1.5580   -3.9121   -4.0475 C   0  0  0  0  0  0  0  0  0  0  0  0
   -1.9048   -4.7671   -5.0535 O   0  0  0  0  0  0  0  0  0  0  0  0
   -1.3817   -4.5753   -5.8468 H   0  0  0  0  0  0  0  0  0  0  0  0
   -2.1932   -3.9995   -2.8139 C   0  0  0  0  0  0  0  0  0  0  0  0
   -2.9488   -4.7637   -2.6641 H   0  0  0  0  0  0  0  0  0  0  0  0
   -1.8505   -3.1303   -1.7717 C   0  0  0  0  0  0  0  0  0  0  0  0
   -2.3405   -3.3016   -0.8283 H   0  0  0  0  0  0  0  0  0  0  0  0
   -1.3019    0.7674    0.4229 C   0  0  0  0  0  0  0  0  0  0  0  0
   -2.2470    1.2910   -0.1565 O   0  0  0  0  0  0  0  0  0  0  0  0
   -0.4111    1.5631    1.1206 N   0  0  0  0  0  0  0  0  0  0  0  0
    0.3200    1.0986    1.6518 H   0  0  0  0  0  0  0  0  0  0  0  0
   -0.5386    3.0124    1.2159 C   0  0  0  0  0  0  0  0  0  0  0  0
   -1.4956    3.2844    1.6733 H   0  0  0  0  0  0  0  0  0  0  0  0
    0.2676    3.4238    1.8311 H   0  0  0  0  0  0  0  0  0  0  0  0
   -0.4811    3.4679    0.2217 H   0  0  0  0  0  0  0  0  0  0  0  0
  1  2  1  0  0  0  0
  2  3  1  0  0  0  0
  2  4  1  0  0  0  0
  2  5  1  0  0  0  0
  5  6  2  0  0  0  0
  5  7  1  0  0  0  0
  7  8  1  0  0  0  0
  7  9  1  0  0  0  0
  9 10  1  0  0  0  0
  9 11  1  0  0  0  0
  9 26  1  0  0  0  0
 11 12  1  0  0  0  0
 11 13  1  0  0  0  0
 11 14  1  0  0  0  0
 14 15  2  0  0  0  0
 14 24  1  0  0  0  0
 15 16  1  0  0  0  0
 15 17  1  0  0  0  0
 17 18  1  0  0  0  0
 17 19  2  0  0  0  0
 19 20  1  0  0  0  0
 19 22  1  0  0  0  0
 20 21  1  0  0  0  0
 22 23  1  0  0  0  0
 22 24  2  0  0  0  0
 24 25  1  0  0  0  0
 26 27  2  0  0  0  0
 26 28  1  0  0  0  0
 28 29  1  0  0  0  0
 28 30  1  0  0  0  0
 30 31  1  0  0  0  0
 30 32  1  0  0  0  0
 30 33  1  0  0  0  0
M  END
$$$$

  -OEChem-04042216043D

 33 33  0     1  0  0  0  0  0999 V2000
   -3.9804   -3.8007    2.4686 H   0  0  0  0  0  0  0  0  0  0  0  0
   -3.9937   -3.0106    1.7126 C   0  0  0  0  0  0  0  0  0  0  0  0
   -4.6328   -2.1973    2.0649 H   0  0  0  0  0  0  0  0  0  0  0  0
   -4.4084   -3.4158    0.7864 H   0  0  0  0  0  0  0  0  0  0  0  0
   -2.5875   -2.4971    1.4674 C   0  0  0  0  0  0  0  0  0  0  0  0
   -1.6382   -3.0289    2.0216 O   0  0  0  0  0  0  0  0  0  0  0  0
   -2.3909   -1.4199    0.6289 N   0  0  0  0  0  0  0  0  0  0  0  0
   -3.2168   -0.9274    0.2916 H   0  0  0  0  0  0  0  0  0  0  0  0
   -1.0958   -0.7756    0.3870 C   0  0  1  0  0  0  0  0  0  0  0  0
   -0.4184   -1.0271    1.2097 H   0  0  0  0  0  0  0  0  0  0  0  0
   -0.3620   -1.1385   -0.9401 C   0  0  0  0  0  0  0  0  0  0  0  0
    0.1074   -0.2267   -1.3255 H   0  0  0  0  0  0  0  0  0  0  0  0
    0.4556   -1.8028   -0.6415 H   0  0  0  0  0  0  0  0  0  0  0  0
   -1.0232   -1.8320   -2.1340 C   0  0  0  0  0  0  0  0  0  0  0  0
   -0.1791   -2.0724   -3.2339 C   0  0  0  0  0  0  0  0  0  0  0  0
    0.8735   -1.8124   -3.1701 H   0  0  0  0  0  0  0  0  0  0  0  0
   -0.6544   -2.6546   -4.4138 C   0  0  0  0  0  0  0  0  0  0  0  0
    0.0322   -2.8386   -5.2326 H   0  0  0  0  0  0  0  0  0  0  0  0
   -2.0010   -2.9891   -4.5335 C   0  0  0  0  0  0  0  0  0  0  0  0
   -2.4813   -3.5570   -5.6783 O   0  0  0  0  0  0  0  0  0  0  0  0
   -1.7623   -3.6738   -6.3181 H   0  0  0  0  0  0  0  0  0  0  0  0
   -2.8644   -2.7237   -3.4764 C   0  0  0  0  0  0  0  0  0  0  0  0
   -3.9172   -2.9627   -3.5846 H   0  0  0  0  0  0  0  0  0  0  0  0
   -2.3909   -2.1408   -2.2950 C   0  0  0  0  0  0  0  0  0  0  0  0
   -3.1369   -1.9276   -1.5458 H   0  0  0  0  0  0  0  0  0  0  0  0
   -1.3022    0.7516    0.4507 C   0  0  0  0  0  0  0  0  0  0  0  0
   -2.2944    1.2592   -0.0604 O   0  0  0  0  0  0  0  0  0  0  0  0
   -0.4157    1.5524    1.1478 N   0  0  0  0  0  0  0  0  0  0  0  0
    0.3579    1.0974    1.6239 H   0  0  0  0  0  0  0  0  0  0  0  0
   -0.5948    2.9904    1.3082 C   0  0  0  0  0  0  0  0  0  0  0  0
   -1.5378    3.2047    1.8223 H   0  0  0  0  0  0  0  0  0  0  0  0
    0.2246    3.4099    1.8999 H   0  0  0  0  0  0  0  0  0  0  0  0
   -0.6053    3.4863    0.3319 H   0  0  0  0  0  0  0  0  0  0  0  0
  1  2  1  0  0  0  0
  2  3  1  0  0  0  0
  2  4  1  0  0  0  0
  2  5  1  0  0  0  0
  5  6  2  0  0  0  0
  5  7  1  0  0  0  0
  7  8  1  0  0  0  0
  7  9  1  0  0  0  0
  9 10  1  0  0  0  0
  9 11  1  0  0  0  0
  9 26  1  0  0  0  0
 11 12  1  0  0  0  0
 11 13  1  0  0  0  0
 11 14  1  0  0  0  0
 14 15  2  0  0  0  0
 14 24  1  0  0  0  0
 15 16  1  0  0  0  0
 15 17  1  0  0  0  0
 17 18  1  0  0  0  0
 17 19  2  0  0  0  0
 19 20  1  0  0  0  0
 19 22  1  0  0  0  0
 20 21  1  0  0  0  0
 22 23  1  0  0  0  0
 22 24  2  0  0  0  0
 24 25  1  0  0  0  0
 26 27  2  0  0  0  0
 26 28  1  0  0  0  0
 28 29  1  0  0  0  0
 28 30  1  0  0  0  0
 30 31  1  0  0  0  0
 30 32  1  0  0  0  0
 30 33  1  0  0  0  0
M  END
$$$$

  -OEChem-04042216043D

 33 33  0     1  0  0  0  0  0999 V2000
   -3.9688   -3.9088    2.2792 H   0  0  0  0  0  0  0  0  0  0  0  0
   -3.9713   -3.0821    1.5633 C   0  0  0  0  0  0  0  0  0  0  0  0
   -4.6439   -2.3018    1.9275 H   0  0  0  0  0  0  0  0  0  0  0  0
   -4.3371   -3.4497    0.6014 H   0  0  0  0  0  0  0  0  0  0  0  0
   -2.5694   -2.5255    1.4029 C   0  0  0  0  0  0  0  0  0  0  0  0
   -1.6388   -3.0245    2.0170 O   0  0  0  0  0  0  0  0  0  0  0  0
   -2.3558   -1.4457    0.5727 N   0  0  0  0  0  0  0  0  0  0  0  0
   -3.1748   -0.9857    0.1804 H   0  0  0  0  0  0  0  0  0  0  0  0
   -1.0611   -0.7733    0.3921 C   0  0  1  0  0  0  0  0  0  0  0  0
   -0.4103   -1.0147    1.2388 H   0  0  0  0  0  0  0  0  0  0  0  0
   -0.2908   -1.1386   -0.9112 C   0  0  0  0  0  0  0  0  0  0  0  0
    0.1766   -0.2322   -1.3106 H   0  0  0  0  0  0  0  0  0  0  0  0
    0.5257   -1.7967   -0.5968 H   0  0  0  0  0  0  0  0  0  0  0  0
   -0.9813   -1.8423   -2.0757 C   0  0  0  0  0  0  0  0  0  0  0  0
   -0.1561   -2.4238   -3.0547 C   0  0  0  0  0  0  0  0  0  0  0  0
    0.9191   -2.4517   -2.9039 H   0  0  0  0  0  0  0  0  0  0  0  0
   -0.6905   -2.9979   -4.2141 C   0  0  0  0  0  0  0  0  0  0  0  0
   -0.0276   -3.4698   -4.9309 H   0  0  0  0  0  0  0  0  0  0  0  0
   -2.0641   -2.9528   -4.4469 C   0  0  0  0  0  0  0  0  0  0  0  0
   -2.6011   -3.5092   -5.5719 O   0  0  0  0  0  0  0  0  0  0  0  0
   -1.9042   -3.9273   -6.1005 H   0  0  0  0  0  0  0  0  0  0  0  0
   -2.8891   -2.3031   -3.5348 C   0  0  0  0  0  0  0  0  0  0  0  0
   -3.9506   -2.2259   -3.7460 H   0  0  0  0  0  0  0  0  0  0  0  0
   -2.3538   -1.7281   -2.3768 C   0  0  0  0  0  0  0  0  0  0  0  0
   -3.0272   -1.1580   -1.7498 H   0  0  0  0  0  0  0  0  0  0  0  0
   -1.2941    0.7497    0.4411 C   0  0  0  0  0  0  0  0  0  0  0  0
   -2.2649    1.2388   -0.1268 O   0  0  0  0  0  0  0  0  0  0  0  0
   -0.4554    1.5663    1.1777 N   0  0  0  0  0  0  0  0  0  0  0  0
    0.2981    1.1240    1.6966 H   0  0  0  0  0  0  0  0  0  0  0  0
   -0.6578    3.0035    1.3153 C   0  0  0  0  0  0  0  0  0  0  0  0
   -1.6264    3.2116    1.7819 H   0  0  0  0  0  0  0  0  0  0  0  0
    0.1282    3.4377    1.9407 H   0  0  0  0  0  0  0  0  0  0  0  0
   -0.6273    3.4904    0.3349 H   0  0  0  0  0  0  0  0  0  0  0  0
  1  2  1  0  0  0  0
  2  3  1  0  0  0  0
  2  4  1  0  0  0  0
  2  5  1  0  0  0  0
  5  6  2  0  0  0  0
  5  7  1  0  0  0  0
  7  8  1  0  0  0  0
  7  9  1  0  0  0  0
  9 10  1  0  0  0  0
  9 11  1  0  0  0  0
  9 26  1  0  0  0  0
 11 12  1  0  0  0  0
 11 13  1  0  0  0  0
 11 14  1  0  0  0  0
 14 15  2  0  0  0  0
 14 24  1  0  0  0  0
 15 16  1  0  0  0  0
 15 17  1  0  0  0  0
 17 18  1  0  0  0  0
 17 19  2  0  0  0  0
 19 20  1  0  0  0  0
 19 22  1  0  0  0  0
 20 21  1  0  0  0  0
 22 23  1  0  0  0  0
 22 24  2  0  0  0  0
 24 25  1  0  0  0  0
 26 27  2  0  0  0  0
 26 28  1  0  0  0  0
 28 29  1  0  0  0  0
 28 30  1  0  0  0  0
 30 31  1  0  0  0  0
 30 32  1  0  0  0  0
 30 33  1  0  0  0  0
M  END
$$$$

  -OEChem-04042216043D

 33 33  0     1  0  0  0  0  0999 V2000
   -3.9527   -3.9970    2.0336 H   0  0  0  0  0  0  0  0  0  0  0  0
   -3.9407   -3.1517    1.3399 C   0  0  0  0  0  0  0  0  0  0  0  0
   -4.6770   -2.4145    1.6685 H   0  0  0  0  0  0  0  0  0  0  0  0
   -4.2131   -3.5097    0.3441 H   0  0  0  0  0  0  0  0  0  0  0  0
   -2.5595   -2.5255    1.3024 C   0  0  0  0  0  0  0  0  0  0  0  0
   -1.6574   -2.9931    1.9806 O   0  0  0  0  0  0  0  0  0  0  0  0
   -2.3290   -1.4282    0.5002 N   0  0  0  0  0  0  0  0  0  0  0  0
   -3.1235   -1.0323    0.0030 H   0  0  0  0  0  0  0  0  0  0  0  0
   -1.0389   -0.7302    0.3810 C   0  0  1  0  0  0  0  0  0  0  0  0
   -0.4125   -0.9811    1.2430 H   0  0  0  0  0  0  0  0  0  0  0  0
   -0.2397   -1.0933   -0.9028 C   0  0  0  0  0  0  0  0  0  0  0  0
    0.2191   -0.1873   -1.3132 H   0  0  0  0  0  0  0  0  0  0  0  0
    0.5816   -1.7422   -0.5822 H   0  0  0  0  0  0  0  0  0  0  0  0
   -0.9636   -1.8023   -2.0391 C   0  0  0  0  0  0  0  0  0  0  0  0
   -0.2369   -2.6800   -2.8613 C   0  0  0  0  0  0  0  0  0  0  0  0
    0.7945   -2.9194   -2.6192 H   0  0  0  0  0  0  0  0  0  0  0  0
   -0.8285   -3.2791   -3.9799 C   0  0  0  0  0  0  0  0  0  0  0  0
   -0.2539   -3.9791   -4.5766 H   0  0  0  0  0  0  0  0  0  0  0  0
   -2.1432   -2.9688   -4.3275 C   0  0  0  0  0  0  0  0  0  0  0  0
   -2.7310   -3.5464   -5.4154 O   0  0  0  0  0  0  0  0  0  0  0  0
   -2.1097   -4.1549   -5.8438 H   0  0  0  0  0  0  0  0  0  0  0  0
   -2.8497   -2.0380   -3.5715 C   0  0  0  0  0  0  0  0  0  0  0  0
   -3.8561   -1.7664   -3.8723 H   0  0  0  0  0  0  0  0  0  0  0  0
   -2.2597   -1.4395   -2.4532 C   0  0  0  0  0  0  0  0  0  0  0  0
   -2.8136   -0.6678   -1.9282 H   0  0  0  0  0  0  0  0  0  0  0  0
   -1.2737    0.7919    0.4427 C   0  0  0  0  0  0  0  0  0  0  0  0
   -2.2077    1.2948   -0.1722 O   0  0  0  0  0  0  0  0  0  0  0  0
   -0.4635    1.5960    1.2234 N   0  0  0  0  0  0  0  0  0  0  0  0
    0.2571    1.1425    1.7778 H   0  0  0  0  0  0  0  0  0  0  0  0
   -0.6666    3.0321    1.3704 C   0  0  0  0  0  0  0  0  0  0  0  0
   -1.6523    3.2382    1.8008 H   0  0  0  0  0  0  0  0  0  0  0  0
    0.0951    3.4561    2.0318 H   0  0  0  0  0  0  0  0  0  0  0  0
   -0.5951    3.5301    0.3978 H   0  0  0  0  0  0  0  0  0  0  0  0
  1  2  1  0  0  0  0
  2  3  1  0  0  0  0
  2  4  1  0  0  0  0
  2  5  1  0  0  0  0
  5  6  2  0  0  0  0
  5  7  1  0  0  0  0
  7  8  1  0  0  0  0
  7  9  1  0  0  0  0
  9 10  1  0  0  0  0
  9 11  1  0  0  0  0
  9 26  1  0  0  0  0
 11 12  1  0  0  0  0
 11 13  1  0  0  0  0
 11 14  1  0  0  0  0
 14 15  2  0  0  0  0
 14 24  1  0  0  0  0
 15 16  1  0  0  0  0
 15 17  1  0  0  0  0
 17 18  1  0  0  0  0
 17 19  2  0  0  0  0
 19 20  1  0  0  0  0
 19 22  1  0  0  0  0
 20 21  1  0  0  0  0
 22 23  1  0  0  0  0
 22 24  2  0  0  0  0
 24 25  1  0  0  0  0
 26 27  2  0  0  0  0
 26 28  1  0  0  0  0
 28 29  1  0  0  0  0
 28 30  1  0  0  0  0
 30 31  1  0  0  0  0
 30 32  1  0  0  0  0
 30 33  1  0  0  0  0
M  END
$$$$

  -OEChem-04042216043D

 33 33  0     1  0  0  0  0  0999 V2000
   -3.9508   -4.0480    1.8094 H   0  0  0  0  0  0  0  0  0  0  0  0
   -3.9184   -3.1892    1.1332 C   0  0  0  0  0  0  0  0  0  0  0  0
   -4.7038   -2.4851    1.4185 H   0  0  0  0  0  0  0  0  0  0  0  0
   -4.1021   -3.5362    0.1131 H   0  0  0  0  0  0  0  0  0  0  0  0
   -2.5631   -2.5122    1.2101 C   0  0  0  0  0  0  0  0  0  0  0  0
   -1.6976   -2.9554    1.9497 O   0  0  0  0  0  0  0  0  0  0  0  0
   -2.3136   -1.4010    0.4341 N   0  0  0  0  0  0  0  0  0  0  0  0
   -3.0659   -1.0651   -0.1629 H   0  0  0  0  0  0  0  0  0  0  0  0
   -1.0266   -0.6897    0.3692 C   0  0  1  0  0  0  0  0  0  0  0  0
   -0.4241   -0.9526    1.2444 H   0  0  0  0  0  0  0  0  0  0  0  0
   -0.2015   -1.0515   -0.8961 C   0  0  0  0  0  0  0  0  0  0  0  0
    0.2569   -0.1464   -1.3088 H   0  0  0  0  0  0  0  0  0  0  0  0
    0.6196   -1.6971   -0.5688 H   0  0  0  0  0  0  0  0  0  0  0  0
   -0.9436   -1.7594   -2.0183 C   0  0  0  0  0  0  0  0  0  0  0  0
   -0.3633   -2.8722   -2.6482 C   0  0  0  0  0  0  0  0  0  0  0  0
    0.5817   -3.2694   -2.2891 H   0  0  0  0  0  0  0  0  0  0  0  0
   -0.9993   -3.4962   -3.7283 C   0  0  0  0  0  0  0  0  0  0  0  0
   -0.5428   -4.3680   -4.1840 H   0  0  0  0  0  0  0  0  0  0  0  0
   -2.2073   -2.9955   -4.2163 C   0  0  0  0  0  0  0  0  0  0  0  0
   -2.8381   -3.5977   -5.2664 O   0  0  0  0  0  0  0  0  0  0  0  0
   -2.3249   -4.3632   -5.5674 H   0  0  0  0  0  0  0  0  0  0  0  0
   -2.7644   -1.8591   -3.6355 C   0  0  0  0  0  0  0  0  0  0  0  0
   -3.6884   -1.4568   -4.0378 H   0  0  0  0  0  0  0  0  0  0  0  0
   -2.1313   -1.2327   -2.5570 C   0  0  0  0  0  0  0  0  0  0  0  0
   -2.5647   -0.3250   -2.1472 H   0  0  0  0  0  0  0  0  0  0  0  0
   -1.2570    0.8329    0.4449 C   0  0  0  0  0  0  0  0  0  0  0  0
   -2.1528    1.3554   -0.2087 O   0  0  0  0  0  0  0  0  0  0  0  0
   -0.4693    1.6212    1.2641 N   0  0  0  0  0  0  0  0  0  0  0  0
    0.2195    1.1540    1.8471 H   0  0  0  0  0  0  0  0  0  0  0  0
   -0.6542    3.0602    1.4072 C   0  0  0  0  0  0  0  0  0  0  0  0
   -1.6520    3.2818    1.8003 H   0  0  0  0  0  0  0  0  0  0  0  0
    0.0890    3.4702    2.0977 H   0  0  0  0  0  0  0  0  0  0  0  0
   -0.5376    3.5589    0.4391 H   0  0  0  0  0  0  0  0  0  0  0  0
  1  2  1  0  0  0  0
  2  3  1  0  0  0  0
  2  4  1  0  0  0  0
  2  5  1  0  0  0  0
  5  6  2  0  0  0  0
  5  7  1  0  0  0  0
  7  8  1  0  0  0  0
  7  9  1  0  0  0  0
  9 10  1  0  0  0  0
  9 11  1  0  0  0  0
  9 26  1  0  0  0  0
 11 12  1  0  0  0  0
 11 13  1  0  0  0  0
 11 14  1  0  0  0  0
 14 15  2  0  0  0  0
 14 24  1  0  0  0  0
 15 16  1  0  0  0  0
 15 17  1  0  0  0  0
 17 18  1  0  0  0  0
 17 19  2  0  0  0  0
 19 20  1  0  0  0  0
 19 22  1  0  0  0  0
 20 21  1  0  0  0  0
 22 23  1  0  0  0  0
 22 24  2  0  0  0  0
 24 25  1  0  0  0  0
 26 27  2  0  0  0  0
 26 28  1  0  0  0  0
 28 29  1  0  0  0  0
 28 30  1  0  0  0  0
 30 31  1  0  0  0  0
 30 32  1  0  0  0  0
 30 33  1  0  0  0  0
M  END
$$$$

  -OEChem-04042216043D

 33 33  0     1  0  0  0  0  0999 V2000
   -3.9419   -4.0824    1.6388 H   0  0  0  0  0  0  0  0  0  0  0  0
   -3.8995   -3.2073    0.9848 C   0  0  0  0  0  0  0  0  0  0  0  0
   -4.7143   -2.5292    1.2495 H   0  0  0  0  0  0  0  0  0  0  0  0
   -4.0276   -3.5347   -0.0499 H   0  0  0  0  0  0  0  0  0  0  0  0
   -2.5662   -2.5008    1.1403 C   0  0  0  0  0  0  0  0  0  0  0  0
   -1.7341   -2.9284    1.9264 O   0  0  0  0  0  0  0  0  0  0  0  0
   -2.2953   -1.3853    0.3777 N   0  0  0  0  0  0  0  0  0  0  0  0
   -3.0048   -1.0884   -0.2890 H   0  0  0  0  0  0  0  0  0  0  0  0
   -1.0088   -0.6698    0.3566 C   0  0  1  0  0  0  0  0  0  0  0  0
   -0.4284   -0.9393    1.2446 H   0  0  0  0  0  0  0  0  0  0  0  0
   -0.1597   -1.0293   -0.8915 C   0  0  0  0  0  0  0  0  0  0  0  0
    0.3048   -0.1256   -1.3004 H   0  0  0  0  0  0  0  0  0  0  0  0
    0.6568   -1.6785   -0.5598 H   0  0  0  0  0  0  0  0  0  0  0  0
   -0.9144   -1.7298   -2.0063 C   0  0  0  0  0  0  0  0  0  0  0  0
   -0.5303   -3.0115   -2.4299 C   0  0  0  0  0  0  0  0  0  0  0  0
    0.2903   -3.5256   -1.9378 H   0  0  0  0  0  0  0  0  0  0  0  0
   -1.2081   -3.6471   -3.4770 C   0  0  0  0  0  0  0  0  0  0  0  0
   -0.9044   -4.6429   -3.7809 H   0  0  0  0  0  0  0  0  0  0  0  0
   -2.2645   -3.0022   -4.1234 C   0  0  0  0  0  0  0  0  0  0  0  0
   -2.9328   -3.6146   -5.1437 O   0  0  0  0  0  0  0  0  0  0  0  0
   -2.5398   -4.4822   -5.3250 H   0  0  0  0  0  0  0  0  0  0  0  0
   -2.6334   -1.7181   -3.7281 C   0  0  0  0  0  0  0  0  0  0  0  0
   -3.4456   -1.2165   -4.2443 H   0  0  0  0  0  0  0  0  0  0  0  0
   -1.9579   -1.0775   -2.6843 C   0  0  0  0  0  0  0  0  0  0  0  0
   -2.2475   -0.0683   -2.4035 H   0  0  0  0  0  0  0  0  0  0  0  0
   -1.2388    0.8527    0.4317 C   0  0  0  0  0  0  0  0  0  0  0  0
   -2.1030    1.3833   -0.2568 O   0  0  0  0  0  0  0  0  0  0  0  0
   -0.4753    1.6346    1.2792 N   0  0  0  0  0  0  0  0  0  0  0  0
    0.1921    1.1625    1.8827 H   0  0  0  0  0  0  0  0  0  0  0  0
   -0.6584    3.0740    1.4203 C   0  0  0  0  0  0  0  0  0  0  0  0
   -1.6726    3.2995    1.7662 H   0  0  0  0  0  0  0  0  0  0  0  0
    0.0530    3.4762    2.1479 H   0  0  0  0  0  0  0  0  0  0  0  0
   -0.4930    3.5767    0.4615 H   0  0  0  0  0  0  0  0  0  0  0  0
  1  2  1  0  0  0  0
  2  3  1  0  0  0  0
  2  4  1  0  0  0  0
  2  5  1  0  0  0  0
  5  6  2  0  0  0  0
  5  7  1  0  0  0  0
  7  8  1  0  0  0  0
  7  9  1  0  0  0  0
  9 10  1  0  0  0  0
  9 11  1  0  0  0  0
  9 26  1  0  0  0  0
 11 12  1  0  0  0  0
 11 13  1  0  0  0  0
 11 14  1  0  0  0  0
 14 15  2  0  0  0  0
 14 24  1  0  0  0  0
 15 16  1  0  0  0  0
 15 17  1  0  0  0  0
 17 18  1  0  0  0  0
 17 19  2  0  0  0  0
 19 20  1  0  0  0  0
 19 22  1  0  0  0  0
 20 21  1  0  0  0  0
 22 23  1  0  0  0  0
 22 24  2  0  0  0  0
 24 25  1  0  0  0  0
 26 27  2  0  0  0  0
 26 28  1  0  0  0  0
 28 29  1  0  0  0  0
 28 30  1  0  0  0  0
 30 31  1  0  0  0  0
 30 32  1  0  0  0  0
 30 33  1  0  0  0  0
M  END
$$$$

  -OEChem-04042216043D

 33 33  0     1  0  0  0  0  0999 V2000
   -3.9473   -4.0933    1.5371 H   0  0  0  0  0  0  0  0  0  0  0  0
   -3.8934   -3.2064    0.8997 C   0  0  0  0  0  0  0  0  0  0  0  0
   -4.7146   -2.5339    1.1589 H   0  0  0  0  0  0  0  0  0  0  0  0
   -3.9998   -3.5145   -0.1435 H   0  0  0  0  0  0  0  0  0  0  0  0
   -2.5653   -2.5003    1.0941 C   0  0  0  0  0  0  0  0  0  0  0  0
   -1.7495   -2.9357    1.8927 O   0  0  0  0  0  0  0  0  0  0  0  0
   -2.2726   -1.3867    0.3381 N   0  0  0  0  0  0  0  0  0  0  0  0
   -2.9646   -1.0869   -0.3460 H   0  0  0  0  0  0  0  0  0  0  0  0
   -0.9859   -0.6717    0.3487 C   0  0  1  0  0  0  0  0  0  0  0  0
   -0.4223   -0.9411    1.2474 H   0  0  0  0  0  0  0  0  0  0  0  0
   -0.1173   -1.0257   -0.8862 C   0  0  0  0  0  0  0  0  0  0  0  0
    0.3578   -0.1228   -1.2850 H   0  0  0  0  0  0  0  0  0  0  0  0
    0.6917   -1.6838   -0.5535 H   0  0  0  0  0  0  0  0  0  0  0  0
   -0.8759   -1.7161   -2.0016 C   0  0  0  0  0  0  0  0  0  0  0  0
   -0.7251   -3.0929   -2.2264 C   0  0  0  0  0  0  0  0  0  0  0  0
   -0.0601   -3.6776   -1.5970 H   0  0  0  0  0  0  0  0  0  0  0  0
   -1.4387   -3.7250   -3.2518 C   0  0  0  0  0  0  0  0  0  0  0  0
   -1.3132   -4.7906   -3.4089 H   0  0  0  0  0  0  0  0  0  0  0  0
   -2.3053   -2.9876   -4.0620 C   0  0  0  0  0  0  0  0  0  0  0  0
   -3.0057   -3.5935   -5.0646 O   0  0  0  0  0  0  0  0  0  0  0  0
   -2.7604   -4.5296   -5.1235 H   0  0  0  0  0  0  0  0  0  0  0  0
   -2.4552   -1.6191   -3.8454 C   0  0  0  0  0  0  0  0  0  0  0  0
   -3.1290   -1.0518   -4.4793 H   0  0  0  0  0  0  0  0  0  0  0  0
   -1.7433   -0.9817   -2.8242 C   0  0  0  0  0  0  0  0  0  0  0  0
   -1.8715    0.0864   -2.6666 H   0  0  0  0  0  0  0  0  0  0  0  0
   -1.2227    0.8500    0.4148 C   0  0  0  0  0  0  0  0  0  0  0  0
   -2.0569    1.3770   -0.3126 O   0  0  0  0  0  0  0  0  0  0  0  0
   -0.4851    1.6379    1.2797 N   0  0  0  0  0  0  0  0  0  0  0  0
    0.1559    1.1689    1.9134 H   0  0  0  0  0  0  0  0  0  0  0  0
   -0.6755    3.0778    1.4071 C   0  0  0  0  0  0  0  0  0  0  0  0
   -1.7066    3.3047    1.6982 H   0  0  0  0  0  0  0  0  0  0  0  0
   -0.0043    3.4822    2.1708 H   0  0  0  0  0  0  0  0  0  0  0  0
   -0.4594    3.5780    0.4572 H   0  0  0  0  0  0  0  0  0  0  0  0
  1  2  1  0  0  0  0
  2  3  1  0  0  0  0
  2  4  1  0  0  0  0
  2  5  1  0  0  0  0
  5  6  2  0  0  0  0
  5  7  1  0  0  0  0
  7  8  1  0  0  0  0
  7  9  1  0  0  0  0
  9 10  1  0  0  0  0
  9 11  1  0  0  0  0
  9 26  1  0  0  0  0
 11 12  1  0  0  0  0
 11 13  1  0  0  0  0
 11 14  1  0  0  0  0
 14 15  2  0  0  0  0
 14 24  1  0  0  0  0
 15 16  1  0  0  0  0
 15 17  1  0  0  0  0
 17 18  1  0  0  0  0
 17 19  2  0  0  0  0
 19 20  1  0  0  0  0
 19 22  1  0  0  0  0
 20 21  1  0  0  0  0
 22 23  1  0  0  0  0
 22 24  2  0  0  0  0
 24 25  1  0  0  0  0
 26 27  2  0  0  0  0
 26 28  1  0  0  0  0
 28 29  1  0  0  0  0
 28 30  1  0  0  0  0
 30 31  1  0  0  0  0
 30 32  1  0  0  0  0
 30 33  1  0  0  0  0
M  END
$$$$

  -OEChem-04042216043D

 33 33  0     1  0  0  0  0  0999 V2000
   -3.9684   -4.0834    1.5279 H   0  0  0  0  0  0  0  0  0  0  0  0
   -3.9094   -3.1939    0.8947 C   0  0  0  0  0  0  0  0  0  0  0  0
   -4.7181   -2.5119    1.1676 H   0  0  0  0  0  0  0  0  0  0  0  0
   -4.0324   -3.4950   -0.1485 H   0  0  0  0  0  0  0  0  0  0  0  0
   -2.5697   -2.5069    1.0781 C   0  0  0  0  0  0  0  0  0  0  0  0
   -1.7513   -2.9597    1.8643 O   0  0  0  0  0  0  0  0  0  0  0  0
   -2.2661   -1.3955    0.3227 N   0  0  0  0  0  0  0  0  0  0  0  0
   -2.9598   -1.0787   -0.3526 H   0  0  0  0  0  0  0  0  0  0  0  0
   -0.9786   -0.6821    0.3449 C   0  0  1  0  0  0  0  0  0  0  0  0
   -0.4226   -0.9504    1.2486 H   0  0  0  0  0  0  0  0  0  0  0  0
   -0.0982   -1.0267   -0.8836 C   0  0  0  0  0  0  0  0  0  0  0  0
    0.3872   -0.1231   -1.2681 H   0  0  0  0  0  0  0  0  0  0  0  0
    0.7042   -1.6932   -0.5508 H   0  0  0  0  0  0  0  0  0  0  0  0
   -0.8479   -1.7101   -2.0075 C   0  0  0  0  0  0  0  0  0  0  0  0
   -0.9466   -3.1092   -2.0551 C   0  0  0  0  0  0  0  0  0  0  0  0
   -0.4642   -3.7120   -1.2904 H   0  0  0  0  0  0  0  0  0  0  0  0
   -1.6725   -3.7333   -3.0764 C   0  0  0  0  0  0  0  0  0  0  0  0
   -1.7368   -4.8157   -3.0990 H   0  0  0  0  0  0  0  0  0  0  0  0
   -2.3108   -2.9653   -4.0531 C   0  0  0  0  0  0  0  0  0  0  0  0
   -3.0232   -3.5640   -5.0516 O   0  0  0  0  0  0  0  0  0  0  0  0
   -2.9546   -4.5281   -4.9769 H   0  0  0  0  0  0  0  0  0  0  0  0
   -2.2246   -1.5747   -4.0033 C   0  0  0  0  0  0  0  0  0  0  0  0
   -2.7292   -0.9840   -4.7611 H   0  0  0  0  0  0  0  0  0  0  0  0
   -1.4992   -0.9456   -2.9856 C   0  0  0  0  0  0  0  0  0  0  0  0
   -1.4541    0.1401   -2.9486 H   0  0  0  0  0  0  0  0  0  0  0  0
   -1.2198    0.8389    0.4042 C   0  0  0  0  0  0  0  0  0  0  0  0
   -2.0382    1.3628   -0.3430 O   0  0  0  0  0  0  0  0  0  0  0  0
   -0.4937    1.6312    1.2748 N   0  0  0  0  0  0  0  0  0  0  0  0
    0.1405    1.1660    1.9181 H   0  0  0  0  0  0  0  0  0  0  0  0
   -0.6825    3.0722    1.3895 C   0  0  0  0  0  0  0  0  0  0  0  0
   -1.7194    3.3035    1.6553 H   0  0  0  0  0  0  0  0  0  0  0  0
   -0.0278    3.4786    2.1663 H   0  0  0  0  0  0  0  0  0  0  0  0
   -0.4433    3.5661    0.4418 H   0  0  0  0  0  0  0  0  0  0  0  0
  1  2  1  0  0  0  0
  2  3  1  0  0  0  0
  2  4  1  0  0  0  0
  2  5  1  0  0  0  0
  5  6  2  0  0  0  0
  5  7  1  0  0  0  0
  7  8  1  0  0  0  0
  7  9  1  0  0  0  0
  9 10  1  0  0  0  0
  9 11  1  0  0  0  0
  9 26  1  0  0  0  0
 11 12  1  0  0  0  0
 11 13  1  0  0  0  0
 11 14  1  0  0  0  0
 14 15  2  0  0  0  0
 14 24  1  0  0  0  0
 15 16  1  0  0  0  0
 15 17  1  0  0  0  0
 17 18  1  0  0  0  0
 17 19  2  0  0  0  0
 19 20  1  0  0  0  0
 19 22  1  0  0  0  0
 20 21  1  0  0  0  0
 22 23  1  0  0  0  0
 22 24  2  0  0  0  0
 24 25  1  0  0  0  0
 26 27  2  0  0  0  0
 26 28  1  0  0  0  0
 28 29  1  0  0  0  0
 28 30  1  0  0  0  0
 30 31  1  0  0  0  0
 30 32  1  0  0  0  0
 30 33  1  0  0  0  0
M  END
$$$$

  -OEChem-04042216043D

 33 33  0     1  0  0  0  0  0999 V2000
   -4.0024   -4.0485    1.6248 H   0  0  0  0  0  0  0  0  0  0  0  0
   -3.9443   -3.1655    0.9822 C   0  0  0  0  0  0  0  0  0  0  0  0
   -4.7288   -2.4635    1.2750 H   0  0  0  0  0  0  0  0  0  0  0  0
   -4.1081   -3.4713   -0.0542 H   0  0  0  0  0  0  0  0  0  0  0  0
   -2.5841   -2.5074    1.1171 C   0  0  0  0  0  0  0  0  0  0  0  0
   -1.7463   -2.9812    1.8692 O   0  0  0  0  0  0  0  0  0  0  0  0
   -2.2829   -1.4017    0.3523 N   0  0  0  0  0  0  0  0  0  0  0  0
   -2.9986   -1.0576   -0.2861 H   0  0  0  0  0  0  0  0  0  0  0  0
   -0.9922   -0.6952    0.3497 C   0  0  1  0  0  0  0  0  0  0  0  0
   -0.4275   -0.9592    1.2493 H   0  0  0  0  0  0  0  0  0  0  0  0
   -0.1146   -1.0320   -0.8849 C   0  0  0  0  0  0  0  0  0  0  0  0
    0.3762   -0.1256   -1.2555 H   0  0  0  0  0  0  0  0  0  0  0  0
    0.6845   -1.7028   -0.5533 H   0  0  0  0  0  0  0  0  0  0  0  0
   -0.8380   -1.7169   -2.0266 C   0  0  0  0  0  0  0  0  0  0  0  0
   -1.1918   -3.0738   -1.9460 C   0  0  0  0  0  0  0  0  0  0  0  0
   -0.9088   -3.6532   -1.0709 H   0  0  0  0  0  0  0  0  0  0  0  0
   -1.9035   -3.6862   -2.9841 C   0  0  0  0  0  0  0  0  0  0  0  0
   -2.1625   -4.7365   -2.9055 H   0  0  0  0  0  0  0  0  0  0  0  0
   -2.2764   -2.9469   -4.1085 C   0  0  0  0  0  0  0  0  0  0  0  0
   -2.9713   -3.5333   -5.1263 O   0  0  0  0  0  0  0  0  0  0  0  0
   -3.0958   -4.4771   -4.9435 H   0  0  0  0  0  0  0  0  0  0  0  0
   -1.9413   -1.5963   -4.1883 C   0  0  0  0  0  0  0  0  0  0  0  0
   -2.2436   -1.0254   -5.0602 H   0  0  0  0  0  0  0  0  0  0  0  0
   -1.2303   -0.9797   -3.1529 C   0  0  0  0  0  0  0  0  0  0  0  0
   -0.9969    0.0793   -3.2210 H   0  0  0  0  0  0  0  0  0  0  0  0
   -1.2335    0.8260    0.4051 C   0  0  0  0  0  0  0  0  0  0  0  0
   -2.0744    1.3449   -0.3201 O   0  0  0  0  0  0  0  0  0  0  0  0
   -0.4930    1.6219    1.2602 N   0  0  0  0  0  0  0  0  0  0  0  0
    0.1603    1.1602    1.8867 H   0  0  0  0  0  0  0  0  0  0  0  0
   -0.6776    3.0637    1.3716 C   0  0  0  0  0  0  0  0  0  0  0  0
   -1.7109    3.2986    1.6480 H   0  0  0  0  0  0  0  0  0  0  0  0
   -0.0137    3.4715    2.1398 H   0  0  0  0  0  0  0  0  0  0  0  0
   -0.4471    3.5536    0.4198 H   0  0  0  0  0  0  0  0  0  0  0  0
  1  2  1  0  0  0  0
  2  3  1  0  0  0  0
  2  4  1  0  0  0  0
  2  5  1  0  0  0  0
  5  6  2  0  0  0  0
  5  7  1  0  0  0  0
  7  8  1  0  0  0  0
  7  9  1  0  0  0  0
  9 10  1  0  0  0  0
  9 11  1  0  0  0  0
  9 26  1  0  0  0  0
 11 12  1  0  0  0  0
 11 13  1  0  0  0  0
 11 14  1  0  0  0  0
 14 15  2  0  0  0  0
 14 24  1  0  0  0  0
 15 16  1  0  0  0  0
 15 17  1  0  0  0  0
 17 18  1  0  0  0  0
 17 19  2  0  0  0  0
 19 20  1  0  0  0  0
 19 22  1  0  0  0  0
 20 21  1  0  0  0  0
 22 23  1  0  0  0  0
 22 24  2  0  0  0  0
 24 25  1  0  0  0  0
 26 27  2  0  0  0  0
 26 28  1  0  0  0  0
 28 29  1  0  0  0  0
 28 30  1  0  0  0  0
 30 31  1  0  0  0  0
 30 32  1  0  0  0  0
 30 33  1  0  0  0  0
M  END
$$$$

  -OEChem-04042216043D

 33 33  0     1  0  0  0  0  0999 V2000
   -4.0543   -3.9589    1.8741 H   0  0  0  0  0  0  0  0  0  0  0  0
   -4.0013   -3.0980    1.2018 C   0  0  0  0  0  0  0  0  0  0  0  0
   -4.7246   -2.3481    1.5315 H   0  0  0  0  0  0  0  0  0  0  0  0
   -4.2596   -3.4228    0.1910 H   0  0  0  0  0  0  0  0  0  0  0  0
   -2.6035   -2.5087    1.2137 C   0  0  0  0  0  0  0  0  0  0  0  0
   -1.7301   -3.0160    1.9001 O   0  0  0  0  0  0  0  0  0  0  0  0
   -2.3166   -1.4174    0.4225 N   0  0  0  0  0  0  0  0  0  0  0  0
   -3.0747   -1.0206   -0.1313 H   0  0  0  0  0  0  0  0  0  0  0  0
   -1.0197   -0.7261    0.3611 C   0  0  1  0  0  0  0  0  0  0  0  0
   -0.4336   -0.9795    1.2502 H   0  0  0  0  0  0  0  0  0  0  0  0
   -0.1554   -1.0540   -0.8900 C   0  0  0  0  0  0  0  0  0  0  0  0
    0.3386   -0.1422   -1.2422 H   0  0  0  0  0  0  0  0  0  0  0  0
    0.6436   -1.7252   -0.5600 H   0  0  0  0  0  0  0  0  0  0  0  0
   -0.8365   -1.7420   -2.0614 C   0  0  0  0  0  0  0  0  0  0  0  0
   -1.4438   -3.0032   -1.9345 C   0  0  0  0  0  0  0  0  0  0  0  0
   -1.3694   -3.5458   -0.9970 H   0  0  0  0  0  0  0  0  0  0  0  0
   -2.1135   -3.5896   -3.0146 C   0  0  0  0  0  0  0  0  0  0  0  0
   -2.5621   -4.5696   -2.8956 H   0  0  0  0  0  0  0  0  0  0  0  0
   -2.1975   -2.9172   -4.2347 C   0  0  0  0  0  0  0  0  0  0  0  0
   -2.8501   -3.4772   -5.2948 O   0  0  0  0  0  0  0  0  0  0  0  0
   -3.1758   -4.3585   -5.0565 H   0  0  0  0  0  0  0  0  0  0  0  0
   -1.6100   -1.6616   -4.3694 C   0  0  0  0  0  0  0  0  0  0  0  0
   -1.6859   -1.1405   -5.3182 H   0  0  0  0  0  0  0  0  0  0  0  0
   -0.9365   -1.0744   -3.2925 C   0  0  0  0  0  0  0  0  0  0  0  0
   -0.5028   -0.0865   -3.4173 H   0  0  0  0  0  0  0  0  0  0  0  0
   -1.2623    0.7961    0.4055 C   0  0  0  0  0  0  0  0  0  0  0  0
   -2.1564    1.2999   -0.2646 O   0  0  0  0  0  0  0  0  0  0  0  0
   -0.4914    1.6044    1.2212 N   0  0  0  0  0  0  0  0  0  0  0  0
    0.2032    1.1547    1.8108 H   0  0  0  0  0  0  0  0  0  0  0  0
   -0.6860    3.0447    1.3340 C   0  0  0  0  0  0  0  0  0  0  0  0
   -1.6961    3.2685    1.6926 H   0  0  0  0  0  0  0  0  0  0  0  0
    0.0339    3.4687    2.0407 H   0  0  0  0  0  0  0  0  0  0  0  0
   -0.5419    3.5276    0.3617 H   0  0  0  0  0  0  0  0  0  0  0  0
  1  2  1  0  0  0  0
  2  3  1  0  0  0  0
  2  4  1  0  0  0  0
  2  5  1  0  0  0  0
  5  6  2  0  0  0  0
  5  7  1  0  0  0  0
  7  8  1  0  0  0  0
  7  9  1  0  0  0  0
  9 10  1  0  0  0  0
  9 11  1  0  0  0  0
  9 26  1  0  0  0  0
 11 12  1  0  0  0  0
 11 13  1  0  0  0  0
 11 14  1  0  0  0  0
 14 15  2  0  0  0  0
 14 24  1  0  0  0  0
 15 16  1  0  0  0  0
 15 17  1  0  0  0  0
 17 18  1  0  0  0  0
 17 19  2  0  0  0  0
 19 20  1  0  0  0  0
 19 22  1  0  0  0  0
 20 21  1  0  0  0  0
 22 23  1  0  0  0  0
 22 24  2  0  0  0  0
 24 25  1  0  0  0  0
 26 27  2  0  0  0  0
 26 28  1  0  0  0  0
 28 29  1  0  0  0  0
 28 30  1  0  0  0  0
 30 31  1  0  0  0  0
 30 32  1  0  0  0  0
 30 33  1  0  0  0  0
M  END
$$$$

  -OEChem-04042216043D

 33 33  0     1  0  0  0  0  0999 V2000
   -4.0547   -3.8821    2.1392 H   0  0  0  0  0  0  0  0  0  0  0  0
   -4.0279   -3.0319    1.4519 C   0  0  0  0  0  0  0  0  0  0  0  0
   -4.6915   -2.2510    1.8312 H   0  0  0  0  0  0  0  0  0  0  0  0
   -4.3848   -3.3585    0.4724 H   0  0  0  0  0  0  0  0  0  0  0  0
   -2.6131   -2.4965    1.3358 C   0  0  0  0  0  0  0  0  0  0  0  0
   -1.7059   -3.0230    1.9606 O   0  0  0  0  0  0  0  0  0  0  0  0
   -2.3543   -1.4237    0.5092 N   0  0  0  0  0  0  0  0  0  0  0  0
   -3.1448   -0.9866    0.0368 H   0  0  0  0  0  0  0  0  0  0  0  0
   -1.0526   -0.7539    0.3737 C   0  0  1  0  0  0  0  0  0  0  0  0
   -0.4353   -0.9950    1.2450 H   0  0  0  0  0  0  0  0  0  0  0  0
   -0.2180   -1.0848   -0.9014 C   0  0  0  0  0  0  0  0  0  0  0  0
    0.2754   -0.1697   -1.2467 H   0  0  0  0  0  0  0  0  0  0  0  0
    0.5836   -1.7556   -0.5766 H   0  0  0  0  0  0  0  0  0  0  0  0
   -0.8663   -1.7762   -2.0964 C   0  0  0  0  0  0  0  0  0  0  0  0
   -1.7183   -2.8906   -1.9912 C   0  0  0  0  0  0  0  0  0  0  0  0
   -1.8731   -3.3765   -1.0360 H   0  0  0  0  0  0  0  0  0  0  0  0
   -2.3315   -3.4419   -3.1225 C   0  0  0  0  0  0  0  0  0  0  0  0
   -2.9710   -4.3105   -3.0116 H   0  0  0  0  0  0  0  0  0  0  0  0
   -2.1117   -2.8844   -4.3817 C   0  0  0  0  0  0  0  0  0  0  0  0
   -2.7036   -3.4134   -5.4924 O   0  0  0  0  0  0  0  0  0  0  0  0
   -3.2375   -4.1850   -5.2487 H   0  0  0  0  0  0  0  0  0  0  0  0
   -1.2746   -1.7797   -4.5040 C   0  0  0  0  0  0  0  0  0  0  0  0
   -1.1093   -1.3476   -5.4855 H   0  0  0  0  0  0  0  0  0  0  0  0
   -0.6593   -1.2285   -3.3749 C   0  0  0  0  0  0  0  0  0  0  0  0
   -0.0235   -0.3574   -3.5022 H   0  0  0  0  0  0  0  0  0  0  0  0
   -1.2920    0.7699    0.4044 C   0  0  0  0  0  0  0  0  0  0  0  0
   -2.2352    1.2615   -0.2049 O   0  0  0  0  0  0  0  0  0  0  0  0
   -0.4815    1.5889    1.1695 N   0  0  0  0  0  0  0  0  0  0  0  0
    0.2486    1.1474    1.7213 H   0  0  0  0  0  0  0  0  0  0  0  0
   -0.6897    3.0262    1.2975 C   0  0  0  0  0  0  0  0  0  0  0  0
   -1.6751    3.2342    1.7274 H   0  0  0  0  0  0  0  0  0  0  0  0
    0.0718    3.4619    1.9516 H   0  0  0  0  0  0  0  0  0  0  0  0
   -0.6228    3.5118    0.3183 H   0  0  0  0  0  0  0  0  0  0  0  0
  1  2  1  0  0  0  0
  2  3  1  0  0  0  0
  2  4  1  0  0  0  0
  2  5  1  0  0  0  0
  5  6  2  0  0  0  0
  5  7  1  0  0  0  0
  7  8  1  0  0  0  0
  7  9  1  0  0  0  0
  9 10  1  0  0  0  0
  9 11  1  0  0  0  0
  9 26  1  0  0  0  0
 11 12  1  0  0  0  0
 11 13  1  0  0  0  0
 11 14  1  0  0  0  0
 14 15  2  0  0  0  0
 14 24  1  0  0  0  0
 15 16  1  0  0  0  0
 15 17  1  0  0  0  0
 17 18  1  0  0  0  0
 17 19  2  0  0  0  0
 19 20  1  0  0  0  0
 19 22  1  0  0  0  0
 20 21  1  0  0  0  0
 22 23  1  0  0  0  0
 22 24  2  0  0  0  0
 24 25  1  0  0  0  0
 26 27  2  0  0  0  0
 26 28  1  0  0  0  0
 28 29  1  0  0  0  0
 28 30  1  0  0  0  0
 30 31  1  0  0  0  0
 30 32  1  0  0  0  0
 30 33  1  0  0  0  0
M  END
$$$$

  -OEChem-04042216043D

 33 33  0     1  0  0  0  0  0999 V2000
   -4.0212   -3.8328    2.3498 H   0  0  0  0  0  0  0  0  0  0  0  0
   -4.0271   -2.9851    1.6590 C   0  0  0  0  0  0  0  0  0  0  0  0
   -4.6398   -2.1872    2.0855 H   0  0  0  0  0  0  0  0  0  0  0  0
   -4.4669   -3.3056    0.7116 H   0  0  0  0  0  0  0  0  0  0  0  0
   -2.6127   -2.4854    1.4324 C   0  0  0  0  0  0  0  0  0  0  0  0
   -1.6757   -3.0268    1.9971 O   0  0  0  0  0  0  0  0  0  0  0  0
   -2.3922   -1.4169    0.5881 N   0  0  0  0  0  0  0  0  0  0  0  0
   -3.2064   -0.9455    0.1949 H   0  0  0  0  0  0  0  0  0  0  0  0
   -1.0924   -0.7651    0.3831 C   0  0  1  0  0  0  0  0  0  0  0  0
   -0.4402   -1.0056    1.2290 H   0  0  0  0  0  0  0  0  0  0  0  0
   -0.3036   -1.1010   -0.9213 C   0  0  0  0  0  0  0  0  0  0  0  0
    0.1786   -0.1810   -1.2697 H   0  0  0  0  0  0  0  0  0  0  0  0
    0.5070   -1.7685   -0.6123 H   0  0  0  0  0  0  0  0  0  0  0  0
   -0.9390   -1.7907   -2.1298 C   0  0  0  0  0  0  0  0  0  0  0  0
   -2.0026   -2.7142   -2.0932 C   0  0  0  0  0  0  0  0  0  0  0  0
   -2.4068   -3.0810   -1.1616 H   0  0  0  0  0  0  0  0  0  0  0  0
   -2.5377   -3.2508   -3.2709 C   0  0  0  0  0  0  0  0  0  0  0  0
   -3.3471   -3.9693   -3.2082 H   0  0  0  0  0  0  0  0  0  0  0  0
   -2.0269   -2.8756   -4.5122 C   0  0  0  0  0  0  0  0  0  0  0  0
   -2.5404   -3.3940   -5.6659 O   0  0  0  0  0  0  0  0  0  0  0  0
   -3.2626   -4.0075   -5.4614 H   0  0  0  0  0  0  0  0  0  0  0  0
   -0.9756   -1.9680   -4.5703 C   0  0  0  0  0  0  0  0  0  0  0  0
   -0.5796   -1.6783   -5.5382 H   0  0  0  0  0  0  0  0  0  0  0  0
   -0.4381   -1.4328   -3.3954 C   0  0  0  0  0  0  0  0  0  0  0  0
    0.3783   -0.7215   -3.4787 H   0  0  0  0  0  0  0  0  0  0  0  0
   -1.3204    0.7604    0.4238 C   0  0  0  0  0  0  0  0  0  0  0  0
   -2.2999    1.2548   -0.1231 O   0  0  0  0  0  0  0  0  0  0  0  0
   -0.4657    1.5754    1.1437 N   0  0  0  0  0  0  0  0  0  0  0  0
    0.2993    1.1323    1.6445 H   0  0  0  0  0  0  0  0  0  0  0  0
   -0.6580    3.0139    1.2804 C   0  0  0  0  0  0  0  0  0  0  0  0
   -1.6094    3.2279    1.7785 H   0  0  0  0  0  0  0  0  0  0  0  0
    0.1502    3.4486    1.8763 H   0  0  0  0  0  0  0  0  0  0  0  0
   -0.6591    3.4953    0.2967 H   0  0  0  0  0  0  0  0  0  0  0  0
  1  2  1  0  0  0  0
  2  3  1  0  0  0  0
  2  4  1  0  0  0  0
  2  5  1  0  0  0  0
  5  6  2  0  0  0  0
  5  7  1  0  0  0  0
  7  8  1  0  0  0  0
  7  9  1  0  0  0  0
  9 10  1  0  0  0  0
  9 11  1  0  0  0  0
  9 26  1  0  0  0  0
 11 12  1  0  0  0  0
 11 13  1  0  0  0  0
 11 14  1  0  0  0  0
 14 15  2  0  0  0  0
 14 24  1  0  0  0  0
 15 16  1  0  0  0  0
 15 17  1  0  0  0  0
 17 18  1  0  0  0  0
 17 19  2  0  0  0  0
 19 20  1  0  0  0  0
 19 22  1  0  0  0  0
 20 21  1  0  0  0  0
 22 23  1  0  0  0  0
 22 24  2  0  0  0  0
 24 25  1  0  0  0  0
 26 27  2  0  0  0  0
 26 28  1  0  0  0  0
 28 29  1  0  0  0  0
 28 30  1  0  0  0  0
 30 31  1  0  0  0  0
 30 32  1  0  0  0  0
 30 33  1  0  0  0  0
M  END
$$$$

  -OEChem-04042216043D

 33 33  0     1  0  0  0  0  0999 V2000
   -3.9953   -3.7680    2.4830 H   0  0  0  0  0  0  0  0  0  0  0  0
   -4.0128   -2.9678    1.7377 C   0  0  0  0  0  0  0  0  0  0  0  0
   -4.6243   -2.1460    2.1183 H   0  0  0  0  0  0  0  0  0  0  0  0
   -4.4618   -3.3515    0.8187 H   0  0  0  0  0  0  0  0  0  0  0  0
   -2.6029   -2.4806    1.4608 C   0  0  0  0  0  0  0  0  0  0  0  0
   -1.6505   -3.0397    1.9812 O   0  0  0  0  0  0  0  0  0  0  0  0
   -2.4057   -1.3998    0.6265 N   0  0  0  0  0  0  0  0  0  0  0  0
   -3.2300   -0.8991    0.2957 H   0  0  0  0  0  0  0  0  0  0  0  0
   -1.1089   -0.7604    0.3812 C   0  0  1  0  0  0  0  0  0  0  0  0
   -0.4310   -1.0191    1.2014 H   0  0  0  0  0  0  0  0  0  0  0  0
   -0.3677   -1.0964   -0.9506 C   0  0  0  0  0  0  0  0  0  0  0  0
    0.1041   -0.1745   -1.3085 H   0  0  0  0  0  0  0  0  0  0  0  0
    0.4497   -1.7663   -0.6642 H   0  0  0  0  0  0  0  0  0  0  0  0
   -1.0151   -1.7707   -2.1640 C   0  0  0  0  0  0  0  0  0  0  0  0
   -2.2470   -2.4575   -2.2096 C   0  0  0  0  0  0  0  0  0  0  0  0
   -2.8659   -2.6101   -1.3406 H   0  0  0  0  0  0  0  0  0  0  0  0
   -2.7248   -3.0100   -3.4048 C   0  0  0  0  0  0  0  0  0  0  0  0
   -3.6732   -3.5350   -3.4055 H   0  0  0  0  0  0  0  0  0  0  0  0
   -1.9891   -2.8928   -4.5821 C   0  0  0  0  0  0  0  0  0  0  0  0
   -2.4494   -3.4268   -5.7510 O   0  0  0  0  0  0  0  0  0  0  0  0
   -3.3126   -3.8442   -5.6082 H   0  0  0  0  0  0  0  0  0  0  0  0
   -0.7701   -2.2265   -4.5586 C   0  0  0  0  0  0  0  0  0  0  0  0
   -0.1975   -2.1392   -5.4761 H   0  0  0  0  0  0  0  0  0  0  0  0
   -0.2901   -1.6744   -3.3669 C   0  0  0  0  0  0  0  0  0  0  0  0
    0.6652   -1.1580   -3.3851 H   0  0  0  0  0  0  0  0  0  0  0  0
   -1.3171    0.7667    0.4565 C   0  0  0  0  0  0  0  0  0  0  0  0
   -2.3155    1.2778   -0.0389 O   0  0  0  0  0  0  0  0  0  0  0  0
   -0.4268    1.5621    1.1548 N   0  0  0  0  0  0  0  0  0  0  0  0
    0.3558    1.1050    1.6140 H   0  0  0  0  0  0  0  0  0  0  0  0
   -0.5985    3.0005    1.3191 C   0  0  0  0  0  0  0  0  0  0  0  0
   -1.5327    3.2173    1.8476 H   0  0  0  0  0  0  0  0  0  0  0  0
    0.2312    3.4169    1.8983 H   0  0  0  0  0  0  0  0  0  0  0  0
   -0.6217    3.4966    0.3431 H   0  0  0  0  0  0  0  0  0  0  0  0
  1  2  1  0  0  0  0
  2  3  1  0  0  0  0
  2  4  1  0  0  0  0
  2  5  1  0  0  0  0
  5  6  2  0  0  0  0
  5  7  1  0  0  0  0
  7  8  1  0  0  0  0
  7  9  1  0  0  0  0
  9 10  1  0  0  0  0
  9 11  1  0  0  0  0
  9 26  1  0  0  0  0
 11 12  1  0  0  0  0
 11 13  1  0  0  0  0
 11 14  1  0  0  0  0
 14 15  2  0  0  0  0
 14 24  1  0  0  0  0
 15 16  1  0  0  0  0
 15 17  1  0  0  0  0
 17 18  1  0  0  0  0
 17 19  2  0  0  0  0
 19 20  1  0  0  0  0
 19 22  1  0  0  0  0
 20 21  1  0  0  0  0
 22 23  1  0  0  0  0
 22 24  2  0  0  0  0
 24 25  1  0  0  0  0
 26 27  2  0  0  0  0
 26 28  1  0  0  0  0
 28 29  1  0  0  0  0
 28 30  1  0  0  0  0
 30 31  1  0  0  0  0
 30 32  1  0  0  0  0
 30 33  1  0  0  0  0
M  END
$$$$

  -OEChem-04042216043D

 33 33  0     1  0  0  0  0  0999 V2000
   -3.9880   -3.7848    2.4116 H   0  0  0  0  0  0  0  0  0  0  0  0
   -4.0057   -2.9803    1.6709 C   0  0  0  0  0  0  0  0  0  0  0  0
   -4.6281   -2.1664    2.0506 H   0  0  0  0  0  0  0  0  0  0  0  0
   -4.4416   -3.3628    0.7448 H   0  0  0  0  0  0  0  0  0  0  0  0
   -2.5976   -2.4796    1.4102 C   0  0  0  0  0  0  0  0  0  0  0  0
   -1.6448   -3.0451    1.9231 O   0  0  0  0  0  0  0  0  0  0  0  0
   -2.4028   -1.3790    0.6021 N   0  0  0  0  0  0  0  0  0  0  0  0
   -3.2275   -0.8582    0.3064 H   0  0  0  0  0  0  0  0  0  0  0  0
   -1.1038   -0.7403    0.3655 C   0  0  1  0  0  0  0  0  0  0  0  0
   -0.4214   -1.0218    1.1743 H   0  0  0  0  0  0  0  0  0  0  0  0
   -0.3799   -1.0640   -0.9775 C   0  0  0  0  0  0  0  0  0  0  0  0
    0.0949   -0.1433   -1.3340 H   0  0  0  0  0  0  0  0  0  0  0  0
    0.4341   -1.7433   -0.7036 H   0  0  0  0  0  0  0  0  0  0  0  0
   -1.0453   -1.7129   -2.1941 C   0  0  0  0  0  0  0  0  0  0  0  0
   -2.3896   -2.1224   -2.3253 C   0  0  0  0  0  0  0  0  0  0  0  0
   -3.1283   -1.9682   -1.5549 H   0  0  0  0  0  0  0  0  0  0  0  0
   -2.8495   -2.7290   -3.5015 C   0  0  0  0  0  0  0  0  0  0  0  0
   -3.8902   -3.0250   -3.5752 H   0  0  0  0  0  0  0  0  0  0  0  0
   -1.9832   -2.9451   -4.5714 C   0  0  0  0  0  0  0  0  0  0  0  0
   -2.4253   -3.5323   -5.7217 O   0  0  0  0  0  0  0  0  0  0  0  0
   -3.3717   -3.7298   -5.6508 H   0  0  0  0  0  0  0  0  0  0  0  0
   -0.6550   -2.5520   -4.4617 C   0  0  0  0  0  0  0  0  0  0  0  0
    0.0178   -2.7214   -5.2957 H   0  0  0  0  0  0  0  0  0  0  0  0
   -0.1931   -1.9458   -3.2895 C   0  0  0  0  0  0  0  0  0  0  0  0
    0.8518   -1.6546   -3.2337 H   0  0  0  0  0  0  0  0  0  0  0  0
   -1.2984    0.7855    0.4792 C   0  0  0  0  0  0  0  0  0  0  0  0
   -2.2978    1.3144    0.0044 O   0  0  0  0  0  0  0  0  0  0  0  0
   -0.3978    1.5566    1.1913 N   0  0  0  0  0  0  0  0  0  0  0  0
    0.3823    1.0820    1.6370 H   0  0  0  0  0  0  0  0  0  0  0  0
   -0.5656    2.9892    1.4031 C   0  0  0  0  0  0  0  0  0  0  0  0
   -1.4994    3.1909    1.9384 H   0  0  0  0  0  0  0  0  0  0  0  0
    0.2651    3.3839    1.9960 H   0  0  0  0  0  0  0  0  0  0  0  0
   -0.5876    3.5176    0.4442 H   0  0  0  0  0  0  0  0  0  0  0  0
  1  2  1  0  0  0  0
  2  3  1  0  0  0  0
  2  4  1  0  0  0  0
  2  5  1  0  0  0  0
  5  6  2  0  0  0  0
  5  7  1  0  0  0  0
  7  8  1  0  0  0  0
  7  9  1  0  0  0  0
  9 10  1  0  0  0  0
  9 11  1  0  0  0  0
  9 26  1  0  0  0  0
 11 12  1  0  0  0  0
 11 13  1  0  0  0  0
 11 14  1  0  0  0  0
 14 15  2  0  0  0  0
 14 24  1  0  0  0  0
 15 16  1  0  0  0  0
 15 17  1  0  0  0  0
 17 18  1  0  0  0  0
 17 19  2  0  0  0  0
 19 20  1  0  0  0  0
 19 22  1  0  0  0  0
 20 21  1  0  0  0  0
 22 23  1  0  0  0  0
 22 24  2  0  0  0  0
 24 25  1  0  0  0  0
 26 27  2  0  0  0  0
 26 28  1  0  0  0  0
 28 29  1  0  0  0  0
 28 30  1  0  0  0  0
 30 31  1  0  0  0  0
 30 32  1  0  0  0  0
 30 33  1  0  0  0  0
M  END
$$$$

  -OEChem-04042216043D

 33 33  0     1  0  0  0  0  0999 V2000
   -4.0108   -3.8694    2.1631 H   0  0  0  0  0  0  0  0  0  0  0  0
   -4.0085   -3.0180    1.4770 C   0  0  0  0  0  0  0  0  0  0  0  0
   -4.6556   -2.2366    1.8826 H   0  0  0  0  0  0  0  0  0  0  0  0
   -4.4021   -3.3432    0.5109 H   0  0  0  0  0  0  0  0  0  0  0  0
   -2.5974   -2.4883    1.3060 C   0  0  0  0  0  0  0  0  0  0  0  0
   -1.6634   -3.0488    1.8582 O   0  0  0  0  0  0  0  0  0  0  0  0
   -2.3788   -1.3716    0.5267 N   0  0  0  0  0  0  0  0  0  0  0  0
   -3.1960   -0.8558    0.2050 H   0  0  0  0  0  0  0  0  0  0  0  0
   -1.0749   -0.7195    0.3509 C   0  0  1  0  0  0  0  0  0  0  0  0
   -0.4171   -1.0143    1.1750 H   0  0  0  0  0  0  0  0  0  0  0  0
   -0.3208   -1.0310   -0.9766 C   0  0  0  0  0  0  0  0  0  0  0  0
    0.1583   -0.1105   -1.3272 H   0  0  0  0  0  0  0  0  0  0  0  0
    0.4890   -1.7116   -0.6930 H   0  0  0  0  0  0  0  0  0  0  0  0
   -0.9958   -1.6663   -2.1925 C   0  0  0  0  0  0  0  0  0  0  0  0
   -2.3841   -1.7752   -2.4134 C   0  0  0  0  0  0  0  0  0  0  0  0
   -3.1052   -1.3125   -1.7538 H   0  0  0  0  0  0  0  0  0  0  0  0
   -2.8872   -2.4287   -3.5453 C   0  0  0  0  0  0  0  0  0  0  0  0
   -3.9598   -2.4846   -3.6943 H   0  0  0  0  0  0  0  0  0  0  0  0
   -2.0182   -2.9903   -4.4793 C   0  0  0  0  0  0  0  0  0  0  0  0
   -2.4994   -3.6269   -5.5868 O   0  0  0  0  0  0  0  0  0  0  0  0
   -3.4680   -3.5897   -5.5961 H   0  0  0  0  0  0  0  0  0  0  0  0
   -0.6455   -2.8912   -4.2803 C   0  0  0  0  0  0  0  0  0  0  0  0
    0.0278   -3.3277   -5.0106 H   0  0  0  0  0  0  0  0  0  0  0  0
   -0.1406   -2.2381   -3.1514 C   0  0  0  0  0  0  0  0  0  0  0  0
    0.9360   -2.1844   -3.0189 H   0  0  0  0  0  0  0  0  0  0  0  0
   -1.2760    0.8035    0.4832 C   0  0  0  0  0  0  0  0  0  0  0  0
   -2.2557    1.3373   -0.0262 O   0  0  0  0  0  0  0  0  0  0  0  0
   -0.4055    1.5654    1.2412 N   0  0  0  0  0  0  0  0  0  0  0  0
    0.3587    1.0852    1.7082 H   0  0  0  0  0  0  0  0  0  0  0  0
   -0.5831    2.9948    1.4669 C   0  0  0  0  0  0  0  0  0  0  0  0
   -1.5410    3.1891    1.9606 H   0  0  0  0  0  0  0  0  0  0  0  0
    0.2184    3.3796    2.1046 H   0  0  0  0  0  0  0  0  0  0  0  0
   -0.5597    3.5381    0.5165 H   0  0  0  0  0  0  0  0  0  0  0  0
  1  2  1  0  0  0  0
  2  3  1  0  0  0  0
  2  4  1  0  0  0  0
  2  5  1  0  0  0  0
  5  6  2  0  0  0  0
  5  7  1  0  0  0  0
  7  8  1  0  0  0  0
  7  9  1  0  0  0  0
  9 10  1  0  0  0  0
  9 11  1  0  0  0  0
  9 26  1  0  0  0  0
 11 12  1  0  0  0  0
 11 13  1  0  0  0  0
 11 14  1  0  0  0  0
 14 15  2  0  0  0  0
 14 24  1  0  0  0  0
 15 16  1  0  0  0  0
 15 17  1  0  0  0  0
 17 18  1  0  0  0  0
 17 19  2  0  0  0  0
 19 20  1  0  0  0  0
 19 22  1  0  0  0  0
 20 21  1  0  0  0  0
 22 23  1  0  0  0  0
 22 24  2  0  0  0  0
 24 25  1  0  0  0  0
 26 27  2  0  0  0  0
 26 28  1  0  0  0  0
 28 29  1  0  0  0  0
 28 30  1  0  0  0  0
 30 31  1  0  0  0  0
 30 32  1  0  0  0  0
 30 33  1  0  0  0  0
M  END
$$$$

  -OEChem-04042216043D

 33 33  0     1  0  0  0  0  0999 V2000
   -4.0214   -3.9287    1.9633 H   0  0  0  0  0  0  0  0  0  0  0  0
   -3.9933   -3.0749    1.2805 C   0  0  0  0  0  0  0  0  0  0  0  0
   -4.6863   -2.3116    1.6423 H   0  0  0  0  0  0  0  0  0  0  0  0
   -4.3106   -3.4063    0.2887 H   0  0  0  0  0  0  0  0  0  0  0  0
   -2.5880   -2.5080    1.2097 C   0  0  0  0  0  0  0  0  0  0  0  0
   -1.6847   -3.0330    1.8424 O   0  0  0  0  0  0  0  0  0  0  0  0
   -2.3415   -1.3883    0.4438 N   0  0  0  0  0  0  0  0  0  0  0  0
   -3.1413   -0.9192    0.0248 H   0  0  0  0  0  0  0  0  0  0  0  0
   -1.0379   -0.7140    0.3446 C   0  0  1  0  0  0  0  0  0  0  0  0
   -0.4160   -1.0039    1.1978 H   0  0  0  0  0  0  0  0  0  0  0  0
   -0.2309   -1.0194   -0.9512 C   0  0  0  0  0  0  0  0  0  0  0  0
    0.2485   -0.0982   -1.2994 H   0  0  0  0  0  0  0  0  0  0  0  0
    0.5770   -1.6926   -0.6467 H   0  0  0  0  0  0  0  0  0  0  0  0
   -0.9119   -1.6585   -2.1572 C   0  0  0  0  0  0  0  0  0  0  0  0
   -2.2685   -1.4715   -2.4847 C   0  0  0  0  0  0  0  0  0  0  0  0
   -2.8809   -0.7742   -1.9234 H   0  0  0  0  0  0  0  0  0  0  0  0
   -2.8431   -2.1273   -3.5795 C   0  0  0  0  0  0  0  0  0  0  0  0
   -3.8870   -1.9536   -3.8158 H   0  0  0  0  0  0  0  0  0  0  0  0
   -2.0746   -2.9854   -4.3657 C   0  0  0  0  0  0  0  0  0  0  0  0
   -2.6243   -3.6291   -5.4365 O   0  0  0  0  0  0  0  0  0  0  0  0
   -3.5562   -3.3797   -5.5310 H   0  0  0  0  0  0  0  0  0  0  0  0
   -0.7311   -3.1791   -4.0577 C   0  0  0  0  0  0  0  0  0  0  0  0
   -0.1377   -3.8463   -4.6744 H   0  0  0  0  0  0  0  0  0  0  0  0
   -0.1537   -2.5229   -2.9654 C   0  0  0  0  0  0  0  0  0  0  0  0
    0.8948   -2.6983   -2.7436 H   0  0  0  0  0  0  0  0  0  0  0  0
   -1.2625    0.8062    0.4625 C   0  0  0  0  0  0  0  0  0  0  0  0
   -2.2034    1.3329   -0.1222 O   0  0  0  0  0  0  0  0  0  0  0  0
   -0.4456    1.5769    1.2696 N   0  0  0  0  0  0  0  0  0  0  0  0
    0.2828    1.1017    1.7952 H   0  0  0  0  0  0  0  0  0  0  0  0
   -0.6341    3.0096    1.4633 C   0  0  0  0  0  0  0  0  0  0  0  0
   -1.6111    3.2101    1.9156 H   0  0  0  0  0  0  0  0  0  0  0  0
    0.1419    3.4071    2.1246 H   0  0  0  0  0  0  0  0  0  0  0  0
   -0.5737    3.5367    0.5052 H   0  0  0  0  0  0  0  0  0  0  0  0
  1  2  1  0  0  0  0
  2  3  1  0  0  0  0
  2  4  1  0  0  0  0
  2  5  1  0  0  0  0
  5  6  2  0  0  0  0
  5  7  1  0  0  0  0
  7  8  1  0  0  0  0
  7  9  1  0  0  0  0
  9 10  1  0  0  0  0
  9 11  1  0  0  0  0
  9 26  1  0  0  0  0
 11 12  1  0  0  0  0
 11 13  1  0  0  0  0
 11 14  1  0  0  0  0
 14 15  2  0  0  0  0
 14 24  1  0  0  0  0
 15 16  1  0  0  0  0
 15 17  1  0  0  0  0
 17 18  1  0  0  0  0
 17 19  2  0  0  0  0
 19 20  1  0  0  0  0
 19 22  1  0  0  0  0
 20 21  1  0  0  0  0
 22 23  1  0  0  0  0
 22 24  2  0  0  0  0
 24 25  1  0  0  0  0
 26 27  2  0  0  0  0
 26 28  1  0  0  0  0
 28 29  1  0  0  0  0
 28 30  1  0  0  0  0
 30 31  1  0  0  0  0
 30 32  1  0  0  0  0
 30 33  1  0  0  0  0
M  END
$$$$

  -OEChem-04042216043D

 33 33  0     1  0  0  0  0  0999 V2000
   -3.9745   -4.0428    1.6735 H   0  0  0  0  0  0  0  0  0  0  0  0
   -3.9290   -3.1727    1.0127 C   0  0  0  0  0  0  0  0  0  0  0  0
   -4.7211   -2.4746    1.2936 H   0  0  0  0  0  0  0  0  0  0  0  0
   -4.0912   -3.5035   -0.0162 H   0  0  0  0  0  0  0  0  0  0  0  0
   -2.5756   -2.4976    1.1291 C   0  0  0  0  0  0  0  0  0  0  0  0
   -1.7275   -2.9538    1.8807 O   0  0  0  0  0  0  0  0  0  0  0  0
   -2.3066   -1.3743    0.3763 N   0  0  0  0  0  0  0  0  0  0  0  0
   -3.0502   -1.0142   -0.2166 H   0  0  0  0  0  0  0  0  0  0  0  0
   -1.0118   -0.6753    0.3441 C   0  0  1  0  0  0  0  0  0  0  0  0
   -0.4234   -0.9592    1.2225 H   0  0  0  0  0  0  0  0  0  0  0  0
   -0.1653   -1.0029   -0.9178 C   0  0  0  0  0  0  0  0  0  0  0  0
    0.3109   -0.0883   -1.2869 H   0  0  0  0  0  0  0  0  0  0  0  0
    0.6437   -1.6630   -0.5892 H   0  0  0  0  0  0  0  0  0  0  0  0
   -0.8662   -1.6704   -2.0928 C   0  0  0  0  0  0  0  0  0  0  0  0
   -2.1170   -1.2312   -2.5648 C   0  0  0  0  0  0  0  0  0  0  0  0
   -2.5869   -0.3542   -2.1290 H   0  0  0  0  0  0  0  0  0  0  0  0
   -2.7564   -1.8886   -3.6218 C   0  0  0  0  0  0  0  0  0  0  0  0
   -3.7146   -1.5231   -3.9742 H   0  0  0  0  0  0  0  0  0  0  0  0
   -2.1583   -2.9978   -4.2210 C   0  0  0  0  0  0  0  0  0  0  0  0
   -2.7717   -3.6463   -5.2534 O   0  0  0  0  0  0  0  0  0  0  0  0
   -3.5997   -3.1972   -5.4825 H   0  0  0  0  0  0  0  0  0  0  0  0
   -0.9210   -3.4434   -3.7623 C   0  0  0  0  0  0  0  0  0  0  0  0
   -0.4625   -4.3072   -4.2325 H   0  0  0  0  0  0  0  0  0  0  0  0
   -0.2776   -2.7875   -2.7070 C   0  0  0  0  0  0  0  0  0  0  0  0
    0.6828   -3.1599   -2.3633 H   0  0  0  0  0  0  0  0  0  0  0  0
   -1.2403    0.8462    0.4454 C   0  0  0  0  0  0  0  0  0  0  0  0
   -2.1285    1.3805   -0.2099 O   0  0  0  0  0  0  0  0  0  0  0  0
   -0.4644    1.6179    1.2911 N   0  0  0  0  0  0  0  0  0  0  0  0
    0.2246    1.1409    1.8659 H   0  0  0  0  0  0  0  0  0  0  0  0
   -0.6495    3.0542    1.4580 C   0  0  0  0  0  0  0  0  0  0  0  0
   -1.6528    3.2694    1.8402 H   0  0  0  0  0  0  0  0  0  0  0  0
    0.0836    3.4500    2.1673 H   0  0  0  0  0  0  0  0  0  0  0  0
   -0.5180    3.5710    0.5016 H   0  0  0  0  0  0  0  0  0  0  0  0
  1  2  1  0  0  0  0
  2  3  1  0  0  0  0
  2  4  1  0  0  0  0
  2  5  1  0  0  0  0
  5  6  2  0  0  0  0
  5  7  1  0  0  0  0
  7  8  1  0  0  0  0
  7  9  1  0  0  0  0
  9 10  1  0  0  0  0
  9 11  1  0  0  0  0
  9 26  1  0  0  0  0
 11 12  1  0  0  0  0
 11 13  1  0  0  0  0
 11 14  1  0  0  0  0
 14 15  2  0  0  0  0
 14 24  1  0  0  0  0
 15 16  1  0  0  0  0
 15 17  1  0  0  0  0
 17 18  1  0  0  0  0
 17 19  2  0  0  0  0
 19 20  1  0  0  0  0
 19 22  1  0  0  0  0
 20 21  1  0  0  0  0
 22 23  1  0  0  0  0
 22 24  2  0  0  0  0
 24 25  1  0  0  0  0
 26 27  2  0  0  0  0
 26 28  1  0  0  0  0
 28 29  1  0  0  0  0
 28 30  1  0  0  0  0
 30 31  1  0  0  0  0
 30 32  1  0  0  0  0
 30 33  1  0  0  0  0
M  END
$$$$

  -OEChem-04042216043D

 33 33  0     1  0  0  0  0  0999 V2000
   -3.9299   -4.0987    1.5020 H   0  0  0  0  0  0  0  0  0  0  0  0
   -3.8773   -3.2171    0.8573 C   0  0  0  0  0  0  0  0  0  0  0  0
   -4.7069   -2.5499    1.1025 H   0  0  0  0  0  0  0  0  0  0  0  0
   -3.9699   -3.5362   -0.1838 H   0  0  0  0  0  0  0  0  0  0  0  0
   -2.5574   -2.4979    1.0605 C   0  0  0  0  0  0  0  0  0  0  0  0
   -1.7475   -2.9213    1.8714 O   0  0  0  0  0  0  0  0  0  0  0  0
   -2.2738   -1.3739    0.3151 N   0  0  0  0  0  0  0  0  0  0  0  0
   -2.9644   -1.0792   -0.3713 H   0  0  0  0  0  0  0  0  0  0  0  0
   -0.9879   -0.6571    0.3315 C   0  0  1  0  0  0  0  0  0  0  0  0
   -0.4260   -0.9345    1.2290 H   0  0  0  0  0  0  0  0  0  0  0  0
   -0.1102   -0.9993   -0.9022 C   0  0  0  0  0  0  0  0  0  0  0  0
    0.3641   -0.0893   -1.2852 H   0  0  0  0  0  0  0  0  0  0  0  0
    0.6989   -1.6519   -0.5593 H   0  0  0  0  0  0  0  0  0  0  0  0
   -0.8295   -1.6857   -2.0503 C   0  0  0  0  0  0  0  0  0  0  0  0
   -1.9069   -1.0613   -2.7021 C   0  0  0  0  0  0  0  0  0  0  0  0
   -2.2075   -0.0568   -2.4165 H   0  0  0  0  0  0  0  0  0  0  0  0
   -2.5940   -1.7156   -3.7306 C   0  0  0  0  0  0  0  0  0  0  0  0
   -3.4185   -1.2118   -4.2234 H   0  0  0  0  0  0  0  0  0  0  0  0
   -2.2163   -3.0024   -4.1178 C   0  0  0  0  0  0  0  0  0  0  0  0
   -2.8789   -3.6489   -5.1209 O   0  0  0  0  0  0  0  0  0  0  0  0
   -3.5598   -3.0695   -5.4962 H   0  0  0  0  0  0  0  0  0  0  0  0
   -1.1534   -3.6317   -3.4731 C   0  0  0  0  0  0  0  0  0  0  0  0
   -0.8685   -4.6334   -3.7780 H   0  0  0  0  0  0  0  0  0  0  0  0
   -0.4627   -2.9819   -2.4441 C   0  0  0  0  0  0  0  0  0  0  0  0
    0.3553   -3.4961   -1.9480 H   0  0  0  0  0  0  0  0  0  0  0  0
   -1.2243    0.8640    0.4180 C   0  0  0  0  0  0  0  0  0  0  0  0
   -2.0741    1.3996   -0.2851 O   0  0  0  0  0  0  0  0  0  0  0  0
   -0.4830    1.6387    1.2914 N   0  0  0  0  0  0  0  0  0  0  0  0
    0.1684    1.1608    1.9076 H   0  0  0  0  0  0  0  0  0  0  0  0
   -0.6787    3.0746    1.4496 C   0  0  0  0  0  0  0  0  0  0  0  0
   -1.7014    3.2881    1.7778 H   0  0  0  0  0  0  0  0  0  0  0  0
    0.0145    3.4705    2.1978 H   0  0  0  0  0  0  0  0  0  0  0  0
   -0.4970    3.5925    0.5020 H   0  0  0  0  0  0  0  0  0  0  0  0
  1  2  1  0  0  0  0
  2  3  1  0  0  0  0
  2  4  1  0  0  0  0
  2  5  1  0  0  0  0
  5  6  2  0  0  0  0
  5  7  1  0  0  0  0
  7  8  1  0  0  0  0
  7  9  1  0  0  0  0
  9 10  1  0  0  0  0
  9 11  1  0  0  0  0
  9 26  1  0  0  0  0
 11 12  1  0  0  0  0
 11 13  1  0  0  0  0
 11 14  1  0  0  0  0
 14 15  2  0  0  0  0
 14 24  1  0  0  0  0
 15 16  1  0  0  0  0
 15 17  1  0  0  0  0
 17 18  1  0  0  0  0
 17 19  2  0  0  0  0
 19 20  1  0  0  0  0
 19 22  1  0  0  0  0
 20 21  1  0  0  0  0
 22 23  1  0  0  0  0
 22 24  2  0  0  0  0
 24 25  1  0  0  0  0
 26 27  2  0  0  0  0
 26 28  1  0  0  0  0
 28 29  1  0  0  0  0
 28 30  1  0  0  0  0
 30 31  1  0  0  0  0
 30 32  1  0  0  0  0
 30 33  1  0  0  0  0
M  END
$$$$

  -OEChem-04042216043D

 33 33  0     1  0  0  0  0  0999 V2000
   -3.9225   -4.1175    1.4692 H   0  0  0  0  0  0  0  0  0  0  0  0
   -3.8649   -3.2339    0.8275 C   0  0  0  0  0  0  0  0  0  0  0  0
   -4.6998   -2.5701    1.0644 H   0  0  0  0  0  0  0  0  0  0  0  0
   -3.9440   -3.5497   -0.2159 H   0  0  0  0  0  0  0  0  0  0  0  0
   -2.5496   -2.5113    1.0489 C   0  0  0  0  0  0  0  0  0  0  0  0
   -1.7555   -2.9248    1.8803 O   0  0  0  0  0  0  0  0  0  0  0  0
   -2.2505   -1.3963    0.2963 N   0  0  0  0  0  0  0  0  0  0  0  0
   -2.9203   -1.1176   -0.4177 H   0  0  0  0  0  0  0  0  0  0  0  0
   -0.9684   -0.6732    0.3335 C   0  0  1  0  0  0  0  0  0  0  0  0
   -0.4197   -0.9394    1.2425 H   0  0  0  0  0  0  0  0  0  0  0  0
   -0.0743   -1.0147   -0.8864 C   0  0  0  0  0  0  0  0  0  0  0  0
    0.4051   -0.1078   -1.2707 H   0  0  0  0  0  0  0  0  0  0  0  0
    0.7306   -1.6715   -0.5416 H   0  0  0  0  0  0  0  0  0  0  0  0
   -0.8063   -1.7034   -2.0196 C   0  0  0  0  0  0  0  0  0  0  0  0
   -1.6605   -0.9687   -2.8558 C   0  0  0  0  0  0  0  0  0  0  0  0
   -1.7781    0.1018   -2.7053 H   0  0  0  0  0  0  0  0  0  0  0  0
   -2.3688   -1.6055   -3.8808 C   0  0  0  0  0  0  0  0  0  0  0  0
   -3.0225   -1.0195   -4.5176 H   0  0  0  0  0  0  0  0  0  0  0  0
   -2.2341   -2.9816   -4.0765 C   0  0  0  0  0  0  0  0  0  0  0  0
   -2.9236   -3.6120   -5.0714 O   0  0  0  0  0  0  0  0  0  0  0  0
   -3.4350   -2.9649   -5.5815 H   0  0  0  0  0  0  0  0  0  0  0  0
   -1.3912   -3.7178   -3.2453 C   0  0  0  0  0  0  0  0  0  0  0  0
   -1.2945   -4.7871   -3.4023 H   0  0  0  0  0  0  0  0  0  0  0  0
   -0.6796   -3.0863   -2.2193 C   0  0  0  0  0  0  0  0  0  0  0  0
   -0.0368   -3.6762   -1.5719 H   0  0  0  0  0  0  0  0  0  0  0  0
   -1.2192    0.8466    0.3932 C   0  0  0  0  0  0  0  0  0  0  0  0
   -2.0389    1.3683   -0.3551 O   0  0  0  0  0  0  0  0  0  0  0  0
   -0.5055    1.6390    1.2736 N   0  0  0  0  0  0  0  0  0  0  0  0
    0.1237    1.1729    1.9213 H   0  0  0  0  0  0  0  0  0  0  0  0
   -0.7074    3.0772    1.4002 C   0  0  0  0  0  0  0  0  0  0  0  0
   -1.7424    3.2963    1.6831 H   0  0  0  0  0  0  0  0  0  0  0  0
   -0.0451    3.4851    2.1697 H   0  0  0  0  0  0  0  0  0  0  0  0
   -0.4864    3.5803    0.4530 H   0  0  0  0  0  0  0  0  0  0  0  0
  1  2  1  0  0  0  0
  2  3  1  0  0  0  0
  2  4  1  0  0  0  0
  2  5  1  0  0  0  0
  5  6  2  0  0  0  0
  5  7  1  0  0  0  0
  7  8  1  0  0  0  0
  7  9  1  0  0  0  0
  9 10  1  0  0  0  0
  9 11  1  0  0  0  0
  9 26  1  0  0  0  0
 11 12  1  0  0  0  0
 11 13  1  0  0  0  0
 11 14  1  0  0  0  0
 14 15  2  0  0  0  0
 14 24  1  0  0  0  0
 15 16  1  0  0  0  0
 15 17  1  0  0  0  0
 17 18  1  0  0  0  0
 17 19  2  0  0  0  0
 19 20  1  0  0  0  0
 19 22  1  0  0  0  0
 20 21  1  0  0  0  0
 22 23  1  0  0  0  0
 22 24  2  0  0  0  0
 24 25  1  0  0  0  0
 26 27  2  0  0  0  0
 26 28  1  0  0  0  0
 28 29  1  0  0  0  0
 28 30  1  0  0  0  0
 30 31  1  0  0  0  0
 30 32  1  0  0  0  0
 30 33  1  0  0  0  0
M  END
$$$$

  -OEChem-04042216043D

 33 33  0     1  0  0  0  0  0999 V2000
   -3.9391   -4.1081    1.5140 H   0  0  0  0  0  0  0  0  0  0  0  0
   -3.8814   -3.2223    0.8757 C   0  0  0  0  0  0  0  0  0  0  0  0
   -4.7066   -2.5515    1.1263 H   0  0  0  0  0  0  0  0  0  0  0  0
   -3.9774   -3.5327   -0.1679 H   0  0  0  0  0  0  0  0  0  0  0  0
   -2.5568   -2.5130    1.0819 C   0  0  0  0  0  0  0  0  0  0  0  0
   -1.7545   -2.9359    1.9004 O   0  0  0  0  0  0  0  0  0  0  0  0
   -2.2517   -1.4080    0.3176 N   0  0  0  0  0  0  0  0  0  0  0  0
   -2.9294   -1.1190   -0.3852 H   0  0  0  0  0  0  0  0  0  0  0  0
   -0.9673   -0.6896    0.3463 C   0  0  1  0  0  0  0  0  0  0  0  0
   -0.4155   -0.9484    1.2556 H   0  0  0  0  0  0  0  0  0  0  0  0
   -0.0789   -1.0327   -0.8768 C   0  0  0  0  0  0  0  0  0  0  0  0
    0.4084   -0.1290   -1.2587 H   0  0  0  0  0  0  0  0  0  0  0  0
    0.7209   -1.6987   -0.5381 H   0  0  0  0  0  0  0  0  0  0  0  0
   -0.8201   -1.7199   -2.0035 C   0  0  0  0  0  0  0  0  0  0  0  0
   -1.4217   -0.9576   -3.0144 C   0  0  0  0  0  0  0  0  0  0  0  0
   -1.3603    0.1276   -2.9827 H   0  0  0  0  0  0  0  0  0  0  0  0
   -2.1184   -1.5847   -4.0537 C   0  0  0  0  0  0  0  0  0  0  0  0
   -2.5828   -0.9775   -4.8230 H   0  0  0  0  0  0  0  0  0  0  0  0
   -2.2162   -2.9775   -4.0929 C   0  0  0  0  0  0  0  0  0  0  0  0
   -2.8947   -3.5973   -5.1017 O   0  0  0  0  0  0  0  0  0  0  0  0
   -3.2168   -2.9393   -5.7369 H   0  0  0  0  0  0  0  0  0  0  0  0
   -1.6167   -3.7406   -3.0920 C   0  0  0  0  0  0  0  0  0  0  0  0
   -1.6968   -4.8221   -3.1307 H   0  0  0  0  0  0  0  0  0  0  0  0
   -0.9185   -3.1191   -2.0507 C   0  0  0  0  0  0  0  0  0  0  0  0
   -0.4607   -3.7247   -1.2730 H   0  0  0  0  0  0  0  0  0  0  0  0
   -1.2186    0.8302    0.3884 C   0  0  0  0  0  0  0  0  0  0  0  0
   -2.0253    1.3432   -0.3796 O   0  0  0  0  0  0  0  0  0  0  0  0
   -0.5064    1.6348    1.2592 N   0  0  0  0  0  0  0  0  0  0  0  0
    0.1152    1.1775    1.9204 H   0  0  0  0  0  0  0  0  0  0  0  0
   -0.7086    3.0749    1.3621 C   0  0  0  0  0  0  0  0  0  0  0  0
   -1.7471    3.2979    1.6285 H   0  0  0  0  0  0  0  0  0  0  0  0
   -0.0561    3.4945    2.1337 H   0  0  0  0  0  0  0  0  0  0  0  0
   -0.4761    3.5631    0.4100 H   0  0  0  0  0  0  0  0  0  0  0  0
  1  2  1  0  0  0  0
  2  3  1  0  0  0  0
  2  4  1  0  0  0  0
  2  5  1  0  0  0  0
  5  6  2  0  0  0  0
  5  7  1  0  0  0  0
  7  8  1  0  0  0  0
  7  9  1  0  0  0  0
  9 10  1  0  0  0  0
  9 11  1  0  0  0  0
  9 26  1  0  0  0  0
 11 12  1  0  0  0  0
 11 13  1  0  0  0  0
 11 14  1  0  0  0  0
 14 15  2  0  0  0  0
 14 24  1  0  0  0  0
 15 16  1  0  0  0  0
 15 17  1  0  0  0  0
 17 18  1  0  0  0  0
 17 19  2  0  0  0  0
 19 20  1  0  0  0  0
 19 22  1  0  0  0  0
 20 21  1  0  0  0  0
 22 23  1  0  0  0  0
 22 24  2  0  0  0  0
 24 25  1  0  0  0  0
 26 27  2  0  0  0  0
 26 28  1  0  0  0  0
 28 29  1  0  0  0  0
 28 30  1  0  0  0  0
 30 31  1  0  0  0  0
 30 32  1  0  0  0  0
 30 33  1  0  0  0  0
M  END
$$$$

  -OEChem-04042216043D

 33 33  0     1  0  0  0  0  0999 V2000
   -3.9890   -4.0596    1.6279 H   0  0  0  0  0  0  0  0  0  0  0  0
   -3.9301   -3.1836    0.9762 C   0  0  0  0  0  0  0  0  0  0  0  0
   -4.7287   -2.4884    1.2455 H   0  0  0  0  0  0  0  0  0  0  0  0
   -4.0698   -3.5043   -0.0593 H   0  0  0  0  0  0  0  0  0  0  0  0
   -2.5818   -2.5060    1.1287 C   0  0  0  0  0  0  0  0  0  0  0  0
   -1.7531   -2.9561    1.9051 O   0  0  0  0  0  0  0  0  0  0  0  0
   -2.2835   -1.4031    0.3581 N   0  0  0  0  0  0  0  0  0  0  0  0
   -2.9903   -1.0819   -0.3012 H   0  0  0  0  0  0  0  0  0  0  0  0
   -0.9935   -0.6948    0.3553 C   0  0  1  0  0  0  0  0  0  0  0  0
   -0.4272   -0.9562    1.2546 H   0  0  0  0  0  0  0  0  0  0  0  0
   -0.1208   -1.0367   -0.8809 C   0  0  0  0  0  0  0  0  0  0  0  0
    0.3690   -0.1324   -1.2575 H   0  0  0  0  0  0  0  0  0  0  0  0
    0.6792   -1.7077   -0.5519 H   0  0  0  0  0  0  0  0  0  0  0  0
   -0.8590   -1.7234   -2.0120 C   0  0  0  0  0  0  0  0  0  0  0  0
   -1.1941   -1.0099   -3.1718 C   0  0  0  0  0  0  0  0  0  0  0  0
   -0.9618    0.0492   -3.2433 H   0  0  0  0  0  0  0  0  0  0  0  0
   -1.8497   -1.6471   -4.2319 C   0  0  0  0  0  0  0  0  0  0  0  0
   -2.1140   -1.0745   -5.1141 H   0  0  0  0  0  0  0  0  0  0  0  0
   -2.1610   -3.0060   -4.1498 C   0  0  0  0  0  0  0  0  0  0  0  0
   -2.8020   -3.6353   -5.1773 O   0  0  0  0  0  0  0  0  0  0  0  0
   -2.9514   -3.0125   -5.9053 H   0  0  0  0  0  0  0  0  0  0  0  0
   -1.8094   -3.7271   -3.0103 C   0  0  0  0  0  0  0  0  0  0  0  0
   -2.0457   -4.7849   -2.9582 H   0  0  0  0  0  0  0  0  0  0  0  0
   -1.1532   -3.0952   -1.9490 C   0  0  0  0  0  0  0  0  0  0  0  0
   -0.8750   -3.6701   -1.0697 H   0  0  0  0  0  0  0  0  0  0  0  0
   -1.2339    0.8269    0.4034 C   0  0  0  0  0  0  0  0  0  0  0  0
   -2.0609    1.3452   -0.3385 O   0  0  0  0  0  0  0  0  0  0  0  0
   -0.4950    1.6265    1.2565 N   0  0  0  0  0  0  0  0  0  0  0  0
    0.1466    1.1664    1.8962 H   0  0  0  0  0  0  0  0  0  0  0  0
   -0.6777    3.0695    1.3575 C   0  0  0  0  0  0  0  0  0  0  0  0
   -1.7073    3.3067    1.6457 H   0  0  0  0  0  0  0  0  0  0  0  0
   -0.0034    3.4848    2.1125 H   0  0  0  0  0  0  0  0  0  0  0  0
   -0.4604    3.5505    0.3981 H   0  0  0  0  0  0  0  0  0  0  0  0
  1  2  1  0  0  0  0
  2  3  1  0  0  0  0
  2  4  1  0  0  0  0
  2  5  1  0  0  0  0
  5  6  2  0  0  0  0
  5  7  1  0  0  0  0
  7  8  1  0  0  0  0
  7  9  1  0  0  0  0
  9 10  1  0  0  0  0
  9 11  1  0  0  0  0
  9 26  1  0  0  0  0
 11 12  1  0  0  0  0
 11 13  1  0  0  0  0
 11 14  1  0  0  0  0
 14 15  2  0  0  0  0
 14 24  1  0  0  0  0
 15 16  1  0  0  0  0
 15 17  1  0  0  0  0
 17 18  1  0  0  0  0
 17 19  2  0  0  0  0
 19 20  1  0  0  0  0
 19 22  1  0  0  0  0
 20 21  1  0  0  0  0
 22 23  1  0  0  0  0
 22 24  2  0  0  0  0
 24 25  1  0  0  0  0
 26 27  2  0  0  0  0
 26 28  1  0  0  0  0
 28 29  1  0  0  0  0
 28 30  1  0  0  0  0
 30 31  1  0  0  0  0
 30 32  1  0  0  0  0
 30 33  1  0  0  0  0
M  END
$$$$

  -OEChem-04042216043D

 33 33  0     1  0  0  0  0  0999 V2000
   -4.0581   -3.9740    1.8077 H   0  0  0  0  0  0  0  0  0  0  0  0
   -4.0008   -3.1134    1.1356 C   0  0  0  0  0  0  0  0  0  0  0  0
   -4.7545   -2.3813    1.4350 H   0  0  0  0  0  0  0  0  0  0  0  0
   -4.2118   -3.4468    0.1163 H   0  0  0  0  0  0  0  0  0  0  0  0
   -2.6191   -2.4905    1.1993 C   0  0  0  0  0  0  0  0  0  0  0  0
   -1.7596   -2.9770    1.9178 O   0  0  0  0  0  0  0  0  0  0  0  0
   -2.3266   -1.3952    0.4156 N   0  0  0  0  0  0  0  0  0  0  0  0
   -3.0675   -1.0259   -0.1783 H   0  0  0  0  0  0  0  0  0  0  0  0
   -1.0267   -0.7074    0.3653 C   0  0  1  0  0  0  0  0  0  0  0  0
   -0.4399   -0.9707    1.2509 H   0  0  0  0  0  0  0  0  0  0  0  0
   -0.1776   -1.0452   -0.8918 C   0  0  0  0  0  0  0  0  0  0  0  0
    0.3179   -0.1393   -1.2571 H   0  0  0  0  0  0  0  0  0  0  0  0
    0.6195   -1.7255   -0.5752 H   0  0  0  0  0  0  0  0  0  0  0  0
   -0.9072   -1.7235   -2.0372 C   0  0  0  0  0  0  0  0  0  0  0  0
   -0.9661   -1.1052   -3.2960 C   0  0  0  0  0  0  0  0  0  0  0  0
   -0.5644   -0.1048   -3.4294 H   0  0  0  0  0  0  0  0  0  0  0  0
   -1.5670   -1.7524   -4.3825 C   0  0  0  0  0  0  0  0  0  0  0  0
   -1.6249   -1.2435   -5.3383 H   0  0  0  0  0  0  0  0  0  0  0  0
   -2.0827   -3.0411   -4.2347 C   0  0  0  0  0  0  0  0  0  0  0  0
   -2.6726   -3.6803   -5.2865 O   0  0  0  0  0  0  0  0  0  0  0  0
   -2.6719   -3.1045   -6.0665 H   0  0  0  0  0  0  0  0  0  0  0  0
   -1.9787   -3.6860   -3.0048 C   0  0  0  0  0  0  0  0  0  0  0  0
   -2.3571   -4.6978   -2.9041 H   0  0  0  0  0  0  0  0  0  0  0  0
   -1.3797   -3.0416   -1.9174 C   0  0  0  0  0  0  0  0  0  0  0  0
   -1.2716   -3.5743   -0.9770 H   0  0  0  0  0  0  0  0  0  0  0  0
   -1.2550    0.8163    0.4168 C   0  0  0  0  0  0  0  0  0  0  0  0
   -2.1231    1.3356   -0.2754 O   0  0  0  0  0  0  0  0  0  0  0  0
   -0.4809    1.6125    1.2413 N   0  0  0  0  0  0  0  0  0  0  0  0
    0.1976    1.1519    1.8413 H   0  0  0  0  0  0  0  0  0  0  0  0
   -0.6498    3.0567    1.3467 C   0  0  0  0  0  0  0  0  0  0  0  0
   -1.6632    3.3013    1.6820 H   0  0  0  0  0  0  0  0  0  0  0  0
    0.0623    3.4688    2.0681 H   0  0  0  0  0  0  0  0  0  0  0  0
   -0.4746    3.5344    0.3769 H   0  0  0  0  0  0  0  0  0  0  0  0
  1  2  1  0  0  0  0
  2  3  1  0  0  0  0
  2  4  1  0  0  0  0
  2  5  1  0  0  0  0
  5  6  2  0  0  0  0
  5  7  1  0  0  0  0
  7  8  1  0  0  0  0
  7  9  1  0  0  0  0
  9 10  1  0  0  0  0
  9 11  1  0  0  0  0
  9 26  1  0  0  0  0
 11 12  1  0  0  0  0
 11 13  1  0  0  0  0
 11 14  1  0  0  0  0
 14 15  2  0  0  0  0
 14 24  1  0  0  0  0
 15 16  1  0  0  0  0
 15 17  1  0  0  0  0
 17 18  1  0  0  0  0
 17 19  2  0  0  0  0
 19 20  1  0  0  0  0
 19 22  1  0  0  0  0
 20 21  1  0  0  0  0
 22 23  1  0  0  0  0
 22 24  2  0  0  0  0
 24 25  1  0  0  0  0
 26 27  2  0  0  0  0
 26 28  1  0  0  0  0
 28 29  1  0  0  0  0
 28 30  1  0  0  0  0
 30 31  1  0  0  0  0
 30 32  1  0  0  0  0
 30 33  1  0  0  0  0
M  END
$$$$

  -OEChem-04042216043D

 33 33  0     1  0  0  0  0  0999 V2000
   -4.0988   -3.8907    2.0170 H   0  0  0  0  0  0  0  0  0  0  0  0
   -4.0555   -3.0358    1.3363 C   0  0  0  0  0  0  0  0  0  0  0  0
   -4.7562   -2.2727    1.6837 H   0  0  0  0  0  0  0  0  0  0  0  0
   -4.3518   -3.3644    0.3370 H   0  0  0  0  0  0  0  0  0  0  0  0
   -2.6493   -2.4681    1.2977 C   0  0  0  0  0  0  0  0  0  0  0  0
   -1.7635   -2.9791    1.9649 O   0  0  0  0  0  0  0  0  0  0  0  0
   -2.3696   -1.3880    0.4875 N   0  0  0  0  0  0  0  0  0  0  0  0
   -3.1379   -0.9834   -0.0461 H   0  0  0  0  0  0  0  0  0  0  0  0
   -1.0601   -0.7272    0.3739 C   0  0  1  0  0  0  0  0  0  0  0  0
   -0.4461   -0.9894    1.2415 H   0  0  0  0  0  0  0  0  0  0  0  0
   -0.2421   -1.0610   -0.9090 C   0  0  0  0  0  0  0  0  0  0  0  0
    0.2561   -0.1523   -1.2637 H   0  0  0  0  0  0  0  0  0  0  0  0
    0.5553   -1.7473   -0.6067 H   0  0  0  0  0  0  0  0  0  0  0  0
   -0.9549   -1.7280   -2.0763 C   0  0  0  0  0  0  0  0  0  0  0  0
   -0.7316   -1.2431   -3.3765 C   0  0  0  0  0  0  0  0  0  0  0  0
   -0.1482   -0.3393   -3.5261 H   0  0  0  0  0  0  0  0  0  0  0  0
   -1.2788   -1.8875   -4.4925 C   0  0  0  0  0  0  0  0  0  0  0  0
   -1.1190   -1.4696   -5.4804 H   0  0  0  0  0  0  0  0  0  0  0  0
   -2.0153   -3.0611   -4.3327 C   0  0  0  0  0  0  0  0  0  0  0  0
   -2.5536   -3.6996   -5.4123 O   0  0  0  0  0  0  0  0  0  0  0  0
   -2.3592   -3.2027   -6.2218 H   0  0  0  0  0  0  0  0  0  0  0  0
   -2.1756   -3.5999   -3.0595 C   0  0  0  0  0  0  0  0  0  0  0  0
   -2.7110   -4.5366   -2.9447 H   0  0  0  0  0  0  0  0  0  0  0  0
   -1.6300   -2.9551   -1.9447 C   0  0  0  0  0  0  0  0  0  0  0  0
   -1.7100   -3.4394   -0.9785 H   0  0  0  0  0  0  0  0  0  0  0  0
   -1.2747    0.7995    0.4183 C   0  0  0  0  0  0  0  0  0  0  0  0
   -2.1805    1.3178   -0.2247 O   0  0  0  0  0  0  0  0  0  0  0  0
   -0.4590    1.5961    1.2013 N   0  0  0  0  0  0  0  0  0  0  0  0
    0.2407    1.1338    1.7750 H   0  0  0  0  0  0  0  0  0  0  0  0
   -0.6300    3.0387    1.3237 C   0  0  0  0  0  0  0  0  0  0  0  0
   -1.6264    3.2753    1.7118 H   0  0  0  0  0  0  0  0  0  0  0  0
    0.1154    3.4510    2.0105 H   0  0  0  0  0  0  0  0  0  0  0  0
   -0.5068    3.5229    0.3491 H   0  0  0  0  0  0  0  0  0  0  0  0
  1  2  1  0  0  0  0
  2  3  1  0  0  0  0
  2  4  1  0  0  0  0
  2  5  1  0  0  0  0
  5  6  2  0  0  0  0
  5  7  1  0  0  0  0
  7  8  1  0  0  0  0
  7  9  1  0  0  0  0
  9 10  1  0  0  0  0
  9 11  1  0  0  0  0
  9 26  1  0  0  0  0
 11 12  1  0  0  0  0
 11 13  1  0  0  0  0
 11 14  1  0  0  0  0
 14 15  2  0  0  0  0
 14 24  1  0  0  0  0
 15 16  1  0  0  0  0
 15 17  1  0  0  0  0
 17 18  1  0  0  0  0
 17 19  2  0  0  0  0
 19 20  1  0  0  0  0
 19 22  1  0  0  0  0
 20 21  1  0  0  0  0
 22 23  1  0  0  0  0
 22 24  2  0  0  0  0
 24 25  1  0  0  0  0
 26 27  2  0  0  0  0
 26 28  1  0  0  0  0
 28 29  1  0  0  0  0
 28 30  1  0  0  0  0
 30 31  1  0  0  0  0
 30 32  1  0  0  0  0
 30 33  1  0  0  0  0
M  END
$$$$

  -OEChem-04042216043D

 33 33  0     1  0  0  0  0  0999 V2000
   -4.0894   -3.8310    2.2392 H   0  0  0  0  0  0  0  0  0  0  0  0
   -4.0752   -2.9733    1.5609 C   0  0  0  0  0  0  0  0  0  0  0  0
   -4.7145   -2.1883    1.9721 H   0  0  0  0  0  0  0  0  0  0  0  0
   -4.4707   -3.2844    0.5910 H   0  0  0  0  0  0  0  0  0  0  0  0
   -2.6579   -2.4560    1.4009 C   0  0  0  0  0  0  0  0  0  0  0  0
   -1.7406   -2.9906    2.0039 O   0  0  0  0  0  0  0  0  0  0  0  0
   -2.4098   -1.3858    0.5661 N   0  0  0  0  0  0  0  0  0  0  0  0
   -3.2077   -0.9360    0.1184 H   0  0  0  0  0  0  0  0  0  0  0  0
   -1.0983   -0.7488    0.3806 C   0  0  1  0  0  0  0  0  0  0  0  0
   -0.4530   -1.0083    1.2257 H   0  0  0  0  0  0  0  0  0  0  0  0
   -0.3170   -1.0843   -0.9279 C   0  0  0  0  0  0  0  0  0  0  0  0
    0.1776   -0.1715   -1.2775 H   0  0  0  0  0  0  0  0  0  0  0  0
    0.4839   -1.7704   -0.6343 H   0  0  0  0  0  0  0  0  0  0  0  0
   -0.9971   -1.7480   -2.1231 C   0  0  0  0  0  0  0  0  0  0  0  0
   -0.4958   -1.4401   -3.4016 C   0  0  0  0  0  0  0  0  0  0  0  0
    0.2745   -0.6828   -3.5133 H   0  0  0  0  0  0  0  0  0  0  0  0
   -0.9872   -2.0686   -4.5514 C   0  0  0  0  0  0  0  0  0  0  0  0
   -0.6007   -1.7819   -5.5231 H   0  0  0  0  0  0  0  0  0  0  0  0
   -1.9591   -3.0612   -4.4439 C   0  0  0  0  0  0  0  0  0  0  0  0
   -2.4467   -3.6844   -5.5561 O   0  0  0  0  0  0  0  0  0  0  0  0
   -2.0392   -3.3086   -6.3515 H   0  0  0  0  0  0  0  0  0  0  0  0
   -2.4113   -3.4381   -3.1839 C   0  0  0  0  0  0  0  0  0  0  0  0
   -3.1349   -4.2425   -3.1033 H   0  0  0  0  0  0  0  0  0  0  0  0
   -1.9197   -2.8089   -2.0346 C   0  0  0  0  0  0  0  0  0  0  0  0
   -2.2464   -3.2001   -1.0822 H   0  0  0  0  0  0  0  0  0  0  0  0
   -1.3010    0.7802    0.4264 C   0  0  0  0  0  0  0  0  0  0  0  0
   -2.2476    1.2979   -0.1554 O   0  0  0  0  0  0  0  0  0  0  0  0
   -0.4419    1.5773    1.1613 N   0  0  0  0  0  0  0  0  0  0  0  0
    0.2927    1.1164    1.6906 H   0  0  0  0  0  0  0  0  0  0  0  0
   -0.6045    3.0204    1.2903 C   0  0  0  0  0  0  0  0  0  0  0  0
   -1.5816    3.2587    1.7238 H   0  0  0  0  0  0  0  0  0  0  0  0
    0.1721    3.4325    1.9420 H   0  0  0  0  0  0  0  0  0  0  0  0
   -0.5259    3.5034    0.3106 H   0  0  0  0  0  0  0  0  0  0  0  0
  1  2  1  0  0  0  0
  2  3  1  0  0  0  0
  2  4  1  0  0  0  0
  2  5  1  0  0  0  0
  5  6  2  0  0  0  0
  5  7  1  0  0  0  0
  7  8  1  0  0  0  0
  7  9  1  0  0  0  0
  9 10  1  0  0  0  0
  9 11  1  0  0  0  0
  9 26  1  0  0  0  0
 11 12  1  0  0  0  0
 11 13  1  0  0  0  0
 11 14  1  0  0  0  0
 14 15  2  0  0  0  0
 14 24  1  0  0  0  0
 15 16  1  0  0  0  0
 15 17  1  0  0  0  0
 17 18  1  0  0  0  0
 17 19  2  0  0  0  0
 19 20  1  0  0  0  0
 19 22  1  0  0  0  0
 20 21  1  0  0  0  0
 22 23  1  0  0  0  0
 22 24  2  0  0  0  0
 24 25  1  0  0  0  0
 26 27  2  0  0  0  0
 26 28  1  0  0  0  0
 28 29  1  0  0  0  0
 28 30  1  0  0  0  0
 30 31  1  0  0  0  0
 30 32  1  0  0  0  0
 30 33  1  0  0  0  0
M  END
$$$$

  -OEChem-04042216043D

 33 33  0     1  0  0  0  0  0999 V2000
   -4.0370   -3.7646    2.4456 H   0  0  0  0  0  0  0  0  0  0  0  0
   -4.0432   -2.9563    1.7088 C   0  0  0  0  0  0  0  0  0  0  0  0
   -4.6663   -2.1417    2.0859 H   0  0  0  0  0  0  0  0  0  0  0  0
   -4.4718   -3.3322    0.7765 H   0  0  0  0  0  0  0  0  0  0  0  0
   -2.6306   -2.4588    1.4661 C   0  0  0  0  0  0  0  0  0  0  0  0
   -1.6883   -3.0022    2.0208 O   0  0  0  0  0  0  0  0  0  0  0  0
   -2.4190   -1.3874    0.6229 N   0  0  0  0  0  0  0  0  0  0  0  0
   -3.2371   -0.9039    0.2537 H   0  0  0  0  0  0  0  0  0  0  0  0
   -1.1160   -0.7591    0.3804 C   0  0  1  0  0  0  0  0  0  0  0  0
   -0.4438   -1.0157    1.2054 H   0  0  0  0  0  0  0  0  0  0  0  0
   -0.3717   -1.1129   -0.9457 C   0  0  0  0  0  0  0  0  0  0  0  0
    0.1099   -0.1990   -1.3111 H   0  0  0  0  0  0  0  0  0  0  0  0
    0.4384   -1.7879   -0.6510 H   0  0  0  0  0  0  0  0  0  0  0  0
   -1.0253   -1.7929   -2.1523 C   0  0  0  0  0  0  0  0  0  0  0  0
   -0.2953   -1.7279   -3.3545 C   0  0  0  0  0  0  0  0  0  0  0  0
    0.6460   -1.1868   -3.3856 H   0  0  0  0  0  0  0  0  0  0  0  0
   -0.7544   -2.3343   -4.5287 C   0  0  0  0  0  0  0  0  0  0  0  0
   -0.1680   -2.2503   -5.4371 H   0  0  0  0  0  0  0  0  0  0  0  0
   -1.9534   -3.0425   -4.5254 C   0  0  0  0  0  0  0  0  0  0  0  0
   -2.4177   -3.6358   -5.6638 O   0  0  0  0  0  0  0  0  0  0  0  0
   -1.8225   -3.4429   -6.4043 H   0  0  0  0  0  0  0  0  0  0  0  0
   -2.6747   -3.1537   -3.3422 C   0  0  0  0  0  0  0  0  0  0  0  0
   -3.5979   -3.7237   -3.3417 H   0  0  0  0  0  0  0  0  0  0  0  0
   -2.2157   -2.5505   -2.1654 C   0  0  0  0  0  0  0  0  0  0  0  0
   -2.8165   -2.7195   -1.2866 H   0  0  0  0  0  0  0  0  0  0  0  0
   -1.3105    0.7704    0.4390 C   0  0  0  0  0  0  0  0  0  0  0  0
   -2.2925    1.2896   -0.0799 O   0  0  0  0  0  0  0  0  0  0  0  0
   -0.4162    1.5626    1.1363 N   0  0  0  0  0  0  0  0  0  0  0  0
    0.3465    1.0989    1.6218 H   0  0  0  0  0  0  0  0  0  0  0  0
   -0.5778    3.0031    1.2917 C   0  0  0  0  0  0  0  0  0  0  0  0
   -1.5137    3.2303    1.8133 H   0  0  0  0  0  0  0  0  0  0  0  0
    0.2516    3.4163    1.8735 H   0  0  0  0  0  0  0  0  0  0  0  0
   -0.5914    3.4943    0.3130 H   0  0  0  0  0  0  0  0  0  0  0  0
  1  2  1  0  0  0  0
  2  3  1  0  0  0  0
  2  4  1  0  0  0  0
  2  5  1  0  0  0  0
  5  6  2  0  0  0  0
  5  7  1  0  0  0  0
  7  8  1  0  0  0  0
  7  9  1  0  0  0  0
  9 10  1  0  0  0  0
  9 11  1  0  0  0  0
  9 26  1  0  0  0  0
 11 12  1  0  0  0  0
 11 13  1  0  0  0  0
 11 14  1  0  0  0  0
 14 15  2  0  0  0  0
 14 24  1  0  0  0  0
 15 16  1  0  0  0  0
 15 17  1  0  0  0  0
 17 18  1  0  0  0  0
 17 19  2  0  0  0  0
 19 20  1  0  0  0  0
 19 22  1  0  0  0  0
 20 21  1  0  0  0  0
 22 23  1  0  0  0  0
 22 24  2  0  0  0  0
 24 25  1  0  0  0  0
 26 27  2  0  0  0  0
 26 28  1  0  0  0  0
 28 29  1  0  0  0  0
 28 30  1  0  0  0  0
 30 31  1  0  0  0  0
 30 32  1  0  0  0  0
 30 33  1  0  0  0  0
M  END
$$$$

  -OEChem-04042216043D

 33 33  0     1  0  0  0  0  0999 V2000
   -3.8973   -3.9457    2.2559 H   0  0  0  0  0  0  0  0  0  0  0  0
   -3.9234   -3.1028    1.5598 C   0  0  0  0  0  0  0  0  0  0  0  0
   -4.5749   -2.3272    1.9696 H   0  0  0  0  0  0  0  0  0  0  0  0
   -4.3312   -3.4459    0.6059 H   0  0  0  0  0  0  0  0  0  0  0  0
   -2.5256   -2.5510    1.3534 C   0  0  0  0  0  0  0  0  0  0  0  0
   -1.5728   -3.0715    1.9130 O   0  0  0  0  0  0  0  0  0  0  0  0
   -2.3395   -1.4539    0.5394 N   0  0  0  0  0  0  0  0  0  0  0  0
   -3.1728   -0.9718    0.2078 H   0  0  0  0  0  0  0  0  0  0  0  0
   -1.0558   -0.7639    0.3512 C   0  0  1  0  0  0  0  0  0  0  0  0
   -0.3860   -1.0141    1.1801 H   0  0  0  0  0  0  0  0  0  0  0  0
   -0.3123   -1.1033   -0.9696 C   0  0  0  0  0  0  0  0  0  0  0  0
    0.3574   -0.2697   -1.2064 H   0  0  0  0  0  0  0  0  0  0  0  0
    0.3264   -1.9613   -0.7349 H   0  0  0  0  0  0  0  0  0  0  0  0
   -1.0507   -1.4801   -2.2527 C   0  0  0  0  0  0  0  0  0  0  0  0
   -0.2472   -1.7691   -3.3704 C   0  0  0  0  0  0  0  0  0  0  0  0
    0.8333   -1.7940   -3.2624 H   0  0  0  0  0  0  0  0  0  0  0  0
   -0.8067   -2.0500   -4.6223 C   0  0  0  0  0  0  0  0  0  0  0  0
   -0.1574   -2.2930   -5.4561 H   0  0  0  0  0  0  0  0  0  0  0  0
   -2.1889   -2.0085   -4.7945 C   0  0  0  0  0  0  0  0  0  0  0  0
   -2.7503   -2.2793   -6.0091 O   0  0  0  0  0  0  0  0  0  0  0  0
   -2.0585   -2.4935   -6.6535 H   0  0  0  0  0  0  0  0  0  0  0  0
   -2.9994   -1.6613   -3.7190 C   0  0  0  0  0  0  0  0  0  0  0  0
   -4.0718   -1.5916   -3.8687 H   0  0  0  0  0  0  0  0  0  0  0  0
   -2.4410   -1.3781   -2.4673 C   0  0  0  0  0  0  0  0  0  0  0  0
   -3.1221   -1.0422   -1.6983 H   0  0  0  0  0  0  0  0  0  0  0  0
   -1.2995    0.7564    0.4308 C   0  0  0  0  0  0  0  0  0  0  0  0
   -2.2999    1.2450   -0.0832 O   0  0  0  0  0  0  0  0  0  0  0  0
   -0.4553    1.5664    1.1684 N   0  0  0  0  0  0  0  0  0  0  0  0
    0.3226    1.1247    1.6502 H   0  0  0  0  0  0  0  0  0  0  0  0
   -0.6809    2.9951    1.3538 C   0  0  0  0  0  0  0  0  0  0  0  0
   -1.6425    3.1713    1.8475 H   0  0  0  0  0  0  0  0  0  0  0  0
    0.1102    3.4265    1.9746 H   0  0  0  0  0  0  0  0  0  0  0  0
   -0.6817    3.5103    0.3875 H   0  0  0  0  0  0  0  0  0  0  0  0
  1  2  1  0  0  0  0
  2  3  1  0  0  0  0
  2  4  1  0  0  0  0
  2  5  1  0  0  0  0
  5  6  2  0  0  0  0
  5  7  1  0  0  0  0
  7  8  1  0  0  0  0
  7  9  1  0  0  0  0
  9 10  1  0  0  0  0
  9 11  1  0  0  0  0
  9 26  1  0  0  0  0
 11 12  1  0  0  0  0
 11 13  1  0  0  0  0
 11 14  1  0  0  0  0
 14 15  2  0  0  0  0
 14 24  1  0  0  0  0
 15 16  1  0  0  0  0
 15 17  1  0  0  0  0
 17 18  1  0  0  0  0
 17 19  2  0  0  0  0
 19 20  1  0  0  0  0
 19 22  1  0  0  0  0
 20 21  1  0  0  0  0
 22 23  1  0  0  0  0
 22 24  2  0  0  0  0
 24 25  1  0  0  0  0
 26 27  2  0  0  0  0
 26 28  1  0  0  0  0
 28 29  1  0  0  0  0
 28 30  1  0  0  0  0
 30 31  1  0  0  0  0
 30 32  1  0  0  0  0
 30 33  1  0  0  0  0
M  END
$$$$

  -OEChem-04042216043D

 33 33  0     1  0  0  0  0  0999 V2000
   -3.8857   -4.0292    2.0235 H   0  0  0  0  0  0  0  0  0  0  0  0
   -3.9041   -3.1670    1.3512 C   0  0  0  0  0  0  0  0  0  0  0  0
   -4.6119   -2.4314    1.7408 H   0  0  0  0  0  0  0  0  0  0  0  0
   -4.2372   -3.4964    0.3639 H   0  0  0  0  0  0  0  0  0  0  0  0
   -2.5208   -2.5531    1.2488 C   0  0  0  0  0  0  0  0  0  0  0  0
   -1.5838   -3.0512    1.8539 O   0  0  0  0  0  0  0  0  0  0  0  0
   -2.3288   -1.4297    0.4730 N   0  0  0  0  0  0  0  0  0  0  0  0
   -3.1523   -0.9989    0.0588 H   0  0  0  0  0  0  0  0  0  0  0  0
   -1.0517   -0.7112    0.3408 C   0  0  1  0  0  0  0  0  0  0  0  0
   -0.4032   -0.9766    1.1819 H   0  0  0  0  0  0  0  0  0  0  0  0
   -0.2822   -1.0544   -0.9616 C   0  0  0  0  0  0  0  0  0  0  0  0
    0.3776   -0.2168   -1.2107 H   0  0  0  0  0  0  0  0  0  0  0  0
    0.3635   -1.9037   -0.7153 H   0  0  0  0  0  0  0  0  0  0  0  0
   -1.0453   -1.4419   -2.2234 C   0  0  0  0  0  0  0  0  0  0  0  0
   -0.3179   -2.0533   -3.2591 C   0  0  0  0  0  0  0  0  0  0  0  0
    0.7277   -2.3059   -3.1081 H   0  0  0  0  0  0  0  0  0  0  0  0
   -0.9204   -2.3680   -4.4827 C   0  0  0  0  0  0  0  0  0  0  0  0
   -0.3390   -2.8644   -5.2518 H   0  0  0  0  0  0  0  0  0  0  0  0
   -2.2554   -2.0366   -4.7111 C   0  0  0  0  0  0  0  0  0  0  0  0
   -2.8555   -2.3376   -5.8998 O   0  0  0  0  0  0  0  0  0  0  0  0
   -2.2261   -2.7866   -6.4847 H   0  0  0  0  0  0  0  0  0  0  0  0
   -2.9725   -1.3691   -3.7230 C   0  0  0  0  0  0  0  0  0  0  0  0
   -3.9987   -1.0779   -3.9212 H   0  0  0  0  0  0  0  0  0  0  0  0
   -2.3716   -1.0536   -2.4994 C   0  0  0  0  0  0  0  0  0  0  0  0
   -2.9516   -0.4752   -1.7903 H   0  0  0  0  0  0  0  0  0  0  0  0
   -1.2851    0.8092    0.4517 C   0  0  0  0  0  0  0  0  0  0  0  0
   -2.2616    1.3263   -0.0791 O   0  0  0  0  0  0  0  0  0  0  0  0
   -0.4512    1.5882    1.2334 N   0  0  0  0  0  0  0  0  0  0  0  0
    0.2984    1.1197    1.7344 H   0  0  0  0  0  0  0  0  0  0  0  0
   -0.6607    3.0142    1.4531 C   0  0  0  0  0  0  0  0  0  0  0  0
   -1.6274    3.1900    1.9365 H   0  0  0  0  0  0  0  0  0  0  0  0
    0.1267    3.4170    2.0973 H   0  0  0  0  0  0  0  0  0  0  0  0
   -0.6385    3.5556    0.5014 H   0  0  0  0  0  0  0  0  0  0  0  0
  1  2  1  0  0  0  0
  2  3  1  0  0  0  0
  2  4  1  0  0  0  0
  2  5  1  0  0  0  0
  5  6  2  0  0  0  0
  5  7  1  0  0  0  0
  7  8  1  0  0  0  0
  7  9  1  0  0  0  0
  9 10  1  0  0  0  0
  9 11  1  0  0  0  0
  9 26  1  0  0  0  0
 11 12  1  0  0  0  0
 11 13  1  0  0  0  0
 11 14  1  0  0  0  0
 14 15  2  0  0  0  0
 14 24  1  0  0  0  0
 15 16  1  0  0  0  0
 15 17  1  0  0  0  0
 17 18  1  0  0  0  0
 17 19  2  0  0  0  0
 19 20  1  0  0  0  0
 19 22  1  0  0  0  0
 20 21  1  0  0  0  0
 22 23  1  0  0  0  0
 22 24  2  0  0  0  0
 24 25  1  0  0  0  0
 26 27  2  0  0  0  0
 26 28  1  0  0  0  0
 28 29  1  0  0  0  0
 28 30  1  0  0  0  0
 30 31  1  0  0  0  0
 30 32  1  0  0  0  0
 30 33  1  0  0  0  0
M  END
$$$$

  -OEChem-04042216043D

 33 33  0     1  0  0  0  0  0999 V2000
   -3.8976   -4.0650    1.7998 H   0  0  0  0  0  0  0  0  0  0  0  0
   -3.8989   -3.1903    1.1435 C   0  0  0  0  0  0  0  0  0  0  0  0
   -4.6645   -2.4915    1.4888 H   0  0  0  0  0  0  0  0  0  0  0  0
   -4.1405   -3.5121    0.1274 H   0  0  0  0  0  0  0  0  0  0  0  0
   -2.5383   -2.5199    1.1616 C   0  0  0  0  0  0  0  0  0  0  0  0
   -1.6294   -2.9979    1.8233 O   0  0  0  0  0  0  0  0  0  0  0  0
   -2.3319   -1.3774    0.4182 N   0  0  0  0  0  0  0  0  0  0  0  0
   -3.1240   -1.0028   -0.0990 H   0  0  0  0  0  0  0  0  0  0  0  0
   -1.0573   -0.6471    0.3310 C   0  0  1  0  0  0  0  0  0  0  0  0
   -0.4323   -0.9299    1.1839 H   0  0  0  0  0  0  0  0  0  0  0  0
   -0.2621   -1.0058   -0.9490 C   0  0  0  0  0  0  0  0  0  0  0  0
    0.3947   -0.1691   -1.2089 H   0  0  0  0  0  0  0  0  0  0  0  0
    0.3861   -1.8473   -0.6838 H   0  0  0  0  0  0  0  0  0  0  0  0
   -1.0398   -1.4055   -2.1962 C   0  0  0  0  0  0  0  0  0  0  0  0
   -0.4436   -2.3055   -3.0952 C   0  0  0  0  0  0  0  0  0  0  0  0
    0.5225   -2.7435   -2.8611 H   0  0  0  0  0  0  0  0  0  0  0  0
   -1.0811   -2.6624   -4.2893 C   0  0  0  0  0  0  0  0  0  0  0  0
   -0.6053   -3.3734   -4.9557 H   0  0  0  0  0  0  0  0  0  0  0  0
   -2.3153   -2.1024   -4.6191 C   0  0  0  0  0  0  0  0  0  0  0  0
   -2.9455   -2.4399   -5.7818 O   0  0  0  0  0  0  0  0  0  0  0  0
   -2.4029   -3.0678   -6.2829 H   0  0  0  0  0  0  0  0  0  0  0  0
   -2.8989   -1.1760   -3.7598 C   0  0  0  0  0  0  0  0  0  0  0  0
   -3.8469   -0.7235   -4.0326 H   0  0  0  0  0  0  0  0  0  0  0  0
   -2.2629   -0.8158   -2.5672 C   0  0  0  0  0  0  0  0  0  0  0  0
   -2.7324   -0.0604   -1.9485 H   0  0  0  0  0  0  0  0  0  0  0  0
   -1.2645    0.8761    0.4679 C   0  0  0  0  0  0  0  0  0  0  0  0
   -2.2199    1.4288   -0.0640 O   0  0  0  0  0  0  0  0  0  0  0  0
   -0.4311    1.6217    1.2823 N   0  0  0  0  0  0  0  0  0  0  0  0
    0.3083    1.1311    1.7771 H   0  0  0  0  0  0  0  0  0  0  0  0
   -0.6103    3.0494    1.5178 C   0  0  0  0  0  0  0  0  0  0  0  0
   -1.5849    3.2426    1.9781 H   0  0  0  0  0  0  0  0  0  0  0  0
    0.1692    3.4236    2.1882 H   0  0  0  0  0  0  0  0  0  0  0  0
   -0.5500    3.6026    0.5747 H   0  0  0  0  0  0  0  0  0  0  0  0
  1  2  1  0  0  0  0
  2  3  1  0  0  0  0
  2  4  1  0  0  0  0
  2  5  1  0  0  0  0
  5  6  2  0  0  0  0
  5  7  1  0  0  0  0
  7  8  1  0  0  0  0
  7  9  1  0  0  0  0
  9 10  1  0  0  0  0
  9 11  1  0  0  0  0
  9 26  1  0  0  0  0
 11 12  1  0  0  0  0
 11 13  1  0  0  0  0
 11 14  1  0  0  0  0
 14 15  2  0  0  0  0
 14 24  1  0  0  0  0
 15 16  1  0  0  0  0
 15 17  1  0  0  0  0
 17 18  1  0  0  0  0
 17 19  2  0  0  0  0
 19 20  1  0  0  0  0
 19 22  1  0  0  0  0
 20 21  1  0  0  0  0
 22 23  1  0  0  0  0
 22 24  2  0  0  0  0
 24 25  1  0  0  0  0
 26 27  2  0  0  0  0
 26 28  1  0  0  0  0
 28 29  1  0  0  0  0
 28 30  1  0  0  0  0
 30 31  1  0  0  0  0
 30 32  1  0  0  0  0
 30 33  1  0  0  0  0
M  END
$$$$

  -OEChem-04042216043D

 33 33  0     1  0  0  0  0  0999 V2000
   -3.9036   -4.0687    1.6418 H   0  0  0  0  0  0  0  0  0  0  0  0
   -3.8950   -3.1787    1.0066 C   0  0  0  0  0  0  0  0  0  0  0  0
   -4.6770   -2.4953    1.3460 H   0  0  0  0  0  0  0  0  0  0  0  0
   -4.1038   -3.4781   -0.0234 H   0  0  0  0  0  0  0  0  0  0  0  0
   -2.5428   -2.4956    1.0811 C   0  0  0  0  0  0  0  0  0  0  0  0
   -1.6521   -2.9741    1.7672 O   0  0  0  0  0  0  0  0  0  0  0  0
   -2.3214   -1.3430    0.3582 N   0  0  0  0  0  0  0  0  0  0  0  0
   -3.0900   -0.9846   -0.2047 H   0  0  0  0  0  0  0  0  0  0  0  0
   -1.0475   -0.6083    0.3088 C   0  0  1  0  0  0  0  0  0  0  0  0
   -0.4459   -0.8993    1.1756 H   0  0  0  0  0  0  0  0  0  0  0  0
   -0.2253   -0.9801   -0.9490 C   0  0  0  0  0  0  0  0  0  0  0  0
    0.4288   -0.1431   -1.2142 H   0  0  0  0  0  0  0  0  0  0  0  0
    0.4255   -1.8149   -0.6692 H   0  0  0  0  0  0  0  0  0  0  0  0
   -1.0145   -1.3852   -2.1850 C   0  0  0  0  0  0  0  0  0  0  0  0
   -0.6100   -2.5146   -2.9159 C   0  0  0  0  0  0  0  0  0  0  0  0
    0.2289   -3.1132   -2.5725 H   0  0  0  0  0  0  0  0  0  0  0  0
   -1.2844   -2.8957   -4.0820 C   0  0  0  0  0  0  0  0  0  0  0  0
   -0.9615   -3.7809   -4.6189 H   0  0  0  0  0  0  0  0  0  0  0  0
   -2.3599   -2.1392   -4.5485 C   0  0  0  0  0  0  0  0  0  0  0  0
   -3.0262   -2.5014   -5.6832 O   0  0  0  0  0  0  0  0  0  0  0  0
   -2.6237   -3.2964   -6.0651 H   0  0  0  0  0  0  0  0  0  0  0  0
   -2.7475   -0.9968   -3.8537 C   0  0  0  0  0  0  0  0  0  0  0  0
   -3.5711   -0.3999   -4.2318 H   0  0  0  0  0  0  0  0  0  0  0  0
   -2.0762   -0.6128   -2.6883 C   0  0  0  0  0  0  0  0  0  0  0  0
   -2.3896    0.2985   -2.1927 H   0  0  0  0  0  0  0  0  0  0  0  0
   -1.2482    0.9143    0.4596 C   0  0  0  0  0  0  0  0  0  0  0  0
   -2.1957    1.4809   -0.0713 O   0  0  0  0  0  0  0  0  0  0  0  0
   -0.4247    1.6397    1.3018 N   0  0  0  0  0  0  0  0  0  0  0  0
    0.2956    1.1323    1.8077 H   0  0  0  0  0  0  0  0  0  0  0  0
   -0.6100    3.0595    1.5767 C   0  0  0  0  0  0  0  0  0  0  0  0
   -1.5858    3.2358    2.0417 H   0  0  0  0  0  0  0  0  0  0  0  0
    0.1678    3.4177    2.2579 H   0  0  0  0  0  0  0  0  0  0  0  0
   -0.5509    3.6403    0.6501 H   0  0  0  0  0  0  0  0  0  0  0  0
  1  2  1  0  0  0  0
  2  3  1  0  0  0  0
  2  4  1  0  0  0  0
  2  5  1  0  0  0  0
  5  6  2  0  0  0  0
  5  7  1  0  0  0  0
  7  8  1  0  0  0  0
  7  9  1  0  0  0  0
  9 10  1  0  0  0  0
  9 11  1  0  0  0  0
  9 26  1  0  0  0  0
 11 12  1  0  0  0  0
 11 13  1  0  0  0  0
 11 14  1  0  0  0  0
 14 15  2  0  0  0  0
 14 24  1  0  0  0  0
 15 16  1  0  0  0  0
 15 17  1  0  0  0  0
 17 18  1  0  0  0  0
 17 19  2  0  0  0  0
 19 20  1  0  0  0  0
 19 22  1  0  0  0  0
 20 21  1  0  0  0  0
 22 23  1  0  0  0  0
 22 24  2  0  0  0  0
 24 25  1  0  0  0  0
 26 27  2  0  0  0  0
 26 28  1  0  0  0  0
 28 29  1  0  0  0  0
 28 30  1  0  0  0  0
 30 31  1  0  0  0  0
 30 32  1  0  0  0  0
 30 33  1  0  0  0  0
M  END
$$$$

  -OEChem-04042216043D

 33 33  0     1  0  0  0  0  0999 V2000
   -3.9217   -4.0684    1.5607 H   0  0  0  0  0  0  0  0  0  0  0  0
   -3.8954   -3.1754    0.9300 C   0  0  0  0  0  0  0  0  0  0  0  0
   -4.6867   -2.4935    1.2510 H   0  0  0  0  0  0  0  0  0  0  0  0
   -4.0768   -3.4701   -0.1067 H   0  0  0  0  0  0  0  0  0  0  0  0
   -2.5449   -2.4931    1.0440 C   0  0  0  0  0  0  0  0  0  0  0  0
   -1.6754   -2.9719    1.7564 O   0  0  0  0  0  0  0  0  0  0  0  0
   -2.2973   -1.3458    0.3218 N   0  0  0  0  0  0  0  0  0  0  0  0
   -3.0444   -0.9906   -0.2722 H   0  0  0  0  0  0  0  0  0  0  0  0
   -1.0207   -0.6143    0.3057 C   0  0  1  0  0  0  0  0  0  0  0  0
   -0.4374   -0.9029    1.1859 H   0  0  0  0  0  0  0  0  0  0  0  0
   -0.1781   -0.9862   -0.9375 C   0  0  0  0  0  0  0  0  0  0  0  0
    0.4829   -0.1524   -1.1956 H   0  0  0  0  0  0  0  0  0  0  0  0
    0.4664   -1.8260   -0.6588 H   0  0  0  0  0  0  0  0  0  0  0  0
   -0.9785   -1.3763   -2.1675 C   0  0  0  0  0  0  0  0  0  0  0  0
   -0.8167   -2.6533   -2.7286 C   0  0  0  0  0  0  0  0  0  0  0  0
   -0.1452   -3.3709   -2.2660 H   0  0  0  0  0  0  0  0  0  0  0  0
   -1.5262   -3.0244   -3.8767 C   0  0  0  0  0  0  0  0  0  0  0  0
   -1.3945   -4.0203   -4.2852 H   0  0  0  0  0  0  0  0  0  0  0  0
   -2.3937   -2.1182   -4.4887 C   0  0  0  0  0  0  0  0  0  0  0  0
   -3.0903   -2.4694   -5.6087 O   0  0  0  0  0  0  0  0  0  0  0  0
   -2.8519   -3.3693   -5.8792 H   0  0  0  0  0  0  0  0  0  0  0  0
   -2.5415   -0.8403   -3.9545 C   0  0  0  0  0  0  0  0  0  0  0  0
   -3.2075   -0.1354   -4.4416 H   0  0  0  0  0  0  0  0  0  0  0  0
   -1.8337   -0.4644   -2.8078 C   0  0  0  0  0  0  0  0  0  0  0  0
   -1.9532    0.5453   -2.4286 H   0  0  0  0  0  0  0  0  0  0  0  0
   -1.2341    0.9075    0.4416 C   0  0  0  0  0  0  0  0  0  0  0  0
   -2.1598    1.4658   -0.1350 O   0  0  0  0  0  0  0  0  0  0  0  0
   -0.4420    1.6446    1.3037 N   0  0  0  0  0  0  0  0  0  0  0  0
    0.2639    1.1454    1.8373 H   0  0  0  0  0  0  0  0  0  0  0  0
   -0.6418    3.0664    1.5585 C   0  0  0  0  0  0  0  0  0  0  0  0
   -1.6318    3.2430    1.9924 H   0  0  0  0  0  0  0  0  0  0  0  0
    0.1140    3.4343    2.2591 H   0  0  0  0  0  0  0  0  0  0  0  0
   -0.5575    3.6382    0.6281 H   0  0  0  0  0  0  0  0  0  0  0  0
  1  2  1  0  0  0  0
  2  3  1  0  0  0  0
  2  4  1  0  0  0  0
  2  5  1  0  0  0  0
  5  6  2  0  0  0  0
  5  7  1  0  0  0  0
  7  8  1  0  0  0  0
  7  9  1  0  0  0  0
  9 10  1  0  0  0  0
  9 11  1  0  0  0  0
  9 26  1  0  0  0  0
 11 12  1  0  0  0  0
 11 13  1  0  0  0  0
 11 14  1  0  0  0  0
 14 15  2  0  0  0  0
 14 24  1  0  0  0  0
 15 16  1  0  0  0  0
 15 17  1  0  0  0  0
 17 18  1  0  0  0  0
 17 19  2  0  0  0  0
 19 20  1  0  0  0  0
 19 22  1  0  0  0  0
 20 21  1  0  0  0  0
 22 23  1  0  0  0  0
 22 24  2  0  0  0  0
 24 25  1  0  0  0  0
 26 27  2  0  0  0  0
 26 28  1  0  0  0  0
 28 29  1  0  0  0  0
 28 30  1  0  0  0  0
 30 31  1  0  0  0  0
 30 32  1  0  0  0  0
 30 33  1  0  0  0  0
M  END
$$$$

  -OEChem-04042216043D

 33 33  0     1  0  0  0  0  0999 V2000
   -3.9476   -4.0678    1.5224 H   0  0  0  0  0  0  0  0  0  0  0  0
   -3.9011   -3.1766    0.8904 C   0  0  0  0  0  0  0  0  0  0  0  0
   -4.6951   -2.4889    1.1910 H   0  0  0  0  0  0  0  0  0  0  0  0
   -4.0589   -3.4725   -0.1496 H   0  0  0  0  0  0  0  0  0  0  0  0
   -2.5505   -2.5017    1.0343 C   0  0  0  0  0  0  0  0  0  0  0  0
   -1.7043   -2.9762    1.7768 O   0  0  0  0  0  0  0  0  0  0  0  0
   -2.2745   -1.3679    0.3021 N   0  0  0  0  0  0  0  0  0  0  0  0
   -2.9998   -1.0184   -0.3220 H   0  0  0  0  0  0  0  0  0  0  0  0
   -0.9956   -0.6409    0.3141 C   0  0  1  0  0  0  0  0  0  0  0  0
   -0.4283   -0.9222    1.2069 H   0  0  0  0  0  0  0  0  0  0  0  0
   -0.1344   -1.0006   -0.9188 C   0  0  0  0  0  0  0  0  0  0  0  0
    0.5355   -0.1684   -1.1596 H   0  0  0  0  0  0  0  0  0  0  0  0
    0.5020   -1.8494   -0.6490 H   0  0  0  0  0  0  0  0  0  0  0  0
   -0.9362   -1.3696   -2.1516 C   0  0  0  0  0  0  0  0  0  0  0  0
   -1.0376   -2.7112   -2.5527 C   0  0  0  0  0  0  0  0  0  0  0  0
   -0.5481   -3.4897   -1.9742 H   0  0  0  0  0  0  0  0  0  0  0  0
   -1.7747   -3.0594   -3.6908 C   0  0  0  0  0  0  0  0  0  0  0  0
   -1.8433   -4.1014   -3.9830 H   0  0  0  0  0  0  0  0  0  0  0  0
   -2.4151   -2.0711   -4.4411 C   0  0  0  0  0  0  0  0  0  0  0  0
   -3.1372   -2.3996   -5.5520 O   0  0  0  0  0  0  0  0  0  0  0  0
   -3.0871   -3.3545   -5.7109 H   0  0  0  0  0  0  0  0  0  0  0  0
   -2.3139   -0.7370   -4.0518 C   0  0  0  0  0  0  0  0  0  0  0  0
   -2.8129    0.0270   -4.6391 H   0  0  0  0  0  0  0  0  0  0  0  0
   -1.5763   -0.3831   -2.9170 C   0  0  0  0  0  0  0  0  0  0  0  0
   -1.5088    0.6634   -2.6333 H   0  0  0  0  0  0  0  0  0  0  0  0
   -1.2232    0.8807    0.4180 C   0  0  0  0  0  0  0  0  0  0  0  0
   -2.1086    1.4265   -0.2298 O   0  0  0  0  0  0  0  0  0  0  0  0
   -0.4658    1.6390    1.2926 N   0  0  0  0  0  0  0  0  0  0  0  0
    0.2094    1.1517    1.8748 H   0  0  0  0  0  0  0  0  0  0  0  0
   -0.6684    3.0686    1.4950 C   0  0  0  0  0  0  0  0  0  0  0  0
   -1.6782    3.2632    1.8710 H   0  0  0  0  0  0  0  0  0  0  0  0
    0.0522    3.4532    2.2230 H   0  0  0  0  0  0  0  0  0  0  0  0
   -0.5318    3.6118    0.5541 H   0  0  0  0  0  0  0  0  0  0  0  0
  1  2  1  0  0  0  0
  2  3  1  0  0  0  0
  2  4  1  0  0  0  0
  2  5  1  0  0  0  0
  5  6  2  0  0  0  0
  5  7  1  0  0  0  0
  7  8  1  0  0  0  0
  7  9  1  0  0  0  0
  9 10  1  0  0  0  0
  9 11  1  0  0  0  0
  9 26  1  0  0  0  0
 11 12  1  0  0  0  0
 11 13  1  0  0  0  0
 11 14  1  0  0  0  0
 14 15  2  0  0  0  0
 14 24  1  0  0  0  0
 15 16  1  0  0  0  0
 15 17  1  0  0  0  0
 17 18  1  0  0  0  0
 17 19  2  0  0  0  0
 19 20  1  0  0  0  0
 19 22  1  0  0  0  0
 20 21  1  0  0  0  0
 22 23  1  0  0  0  0
 22 24  2  0  0  0  0
 24 25  1  0  0  0  0
 26 27  2  0  0  0  0
 26 28  1  0  0  0  0
 28 29  1  0  0  0  0
 28 30  1  0  0  0  0
 30 31  1  0  0  0  0
 30 32  1  0  0  0  0
 30 33  1  0  0  0  0
M  END
$$$$

  -OEChem-04042216043D

 33 33  0     1  0  0  0  0  0999 V2000
   -3.9799   -4.0570    1.5448 H   0  0  0  0  0  0  0  0  0  0  0  0
   -3.9203   -3.1710    0.9068 C   0  0  0  0  0  0  0  0  0  0  0  0
   -4.7030   -2.4688    1.2036 H   0  0  0  0  0  0  0  0  0  0  0  0
   -4.0851   -3.4712   -0.1308 H   0  0  0  0  0  0  0  0  0  0  0  0
   -2.5591   -2.5162    1.0453 C   0  0  0  0  0  0  0  0  0  0  0  0
   -1.7210   -2.9959    1.7932 O   0  0  0  0  0  0  0  0  0  0  0  0
   -2.2641   -1.3954    0.3008 N   0  0  0  0  0  0  0  0  0  0  0  0
   -2.9834   -1.0398   -0.3273 H   0  0  0  0  0  0  0  0  0  0  0  0
   -0.9828   -0.6730    0.3223 C   0  0  1  0  0  0  0  0  0  0  0  0
   -0.4229   -0.9461    1.2221 H   0  0  0  0  0  0  0  0  0  0  0  0
   -0.1075   -1.0162   -0.9052 C   0  0  0  0  0  0  0  0  0  0  0  0
    0.5714   -0.1853   -1.1247 H   0  0  0  0  0  0  0  0  0  0  0  0
    0.5201   -1.8742   -0.6436 H   0  0  0  0  0  0  0  0  0  0  0  0
   -0.8975   -1.3706   -2.1479 C   0  0  0  0  0  0  0  0  0  0  0  0
   -1.2629   -2.7014   -2.4055 C   0  0  0  0  0  0  0  0  0  0  0  0
   -0.9601   -3.4871   -1.7186 H   0  0  0  0  0  0  0  0  0  0  0  0
   -2.0141   -3.0243   -3.5417 C   0  0  0  0  0  0  0  0  0  0  0  0
   -2.2798   -4.0587   -3.7290 H   0  0  0  0  0  0  0  0  0  0  0  0
   -2.4172   -2.0199   -4.4244 C   0  0  0  0  0  0  0  0  0  0  0  0
   -3.1510   -2.3233   -5.5349 O   0  0  0  0  0  0  0  0  0  0  0  0
   -3.2785   -3.2822   -5.5982 H   0  0  0  0  0  0  0  0  0  0  0  0
   -2.0698   -0.6950   -4.1659 C   0  0  0  0  0  0  0  0  0  0  0  0
   -2.3943    0.0822   -4.8502 H   0  0  0  0  0  0  0  0  0  0  0  0
   -1.3149   -0.3674   -3.0342 C   0  0  0  0  0  0  0  0  0  0  0  0
   -1.0671    0.6726   -2.8388 H   0  0  0  0  0  0  0  0  0  0  0  0
   -1.2209    0.8487    0.3982 C   0  0  0  0  0  0  0  0  0  0  0  0
   -2.0759    1.3812   -0.2998 O   0  0  0  0  0  0  0  0  0  0  0  0
   -0.4849    1.6278    1.2728 N   0  0  0  0  0  0  0  0  0  0  0  0
    0.1707    1.1540    1.8876 H   0  0  0  0  0  0  0  0  0  0  0  0
   -0.6845    3.0640    1.4273 C   0  0  0  0  0  0  0  0  0  0  0  0
   -1.7058    3.2756    1.7609 H   0  0  0  0  0  0  0  0  0  0  0  0
    0.0121    3.4651    2.1698 H   0  0  0  0  0  0  0  0  0  0  0  0
   -0.5101    3.5799    0.4771 H   0  0  0  0  0  0  0  0  0  0  0  0
  1  2  1  0  0  0  0
  2  3  1  0  0  0  0
  2  4  1  0  0  0  0
  2  5  1  0  0  0  0
  5  6  2  0  0  0  0
  5  7  1  0  0  0  0
  7  8  1  0  0  0  0
  7  9  1  0  0  0  0
  9 10  1  0  0  0  0
  9 11  1  0  0  0  0
  9 26  1  0  0  0  0
 11 12  1  0  0  0  0
 11 13  1  0  0  0  0
 11 14  1  0  0  0  0
 14 15  2  0  0  0  0
 14 24  1  0  0  0  0
 15 16  1  0  0  0  0
 15 17  1  0  0  0  0
 17 18  1  0  0  0  0
 17 19  2  0  0  0  0
 19 20  1  0  0  0  0
 19 22  1  0  0  0  0
 20 21  1  0  0  0  0
 22 23  1  0  0  0  0
 22 24  2  0  0  0  0
 24 25  1  0  0  0  0
 26 27  2  0  0  0  0
 26 28  1  0  0  0  0
 28 29  1  0  0  0  0
 28 30  1  0  0  0  0
 30 31  1  0  0  0  0
 30 32  1  0  0  0  0
 30 33  1  0  0  0  0
M  END
$$$$

  -OEChem-04042216043D

 33 33  0     1  0  0  0  0  0999 V2000
   -3.9929   -4.0418    1.6644 H   0  0  0  0  0  0  0  0  0  0  0  0
   -3.9411   -3.1647    1.0132 C   0  0  0  0  0  0  0  0  0  0  0  0
   -4.7049   -2.4481    1.3252 H   0  0  0  0  0  0  0  0  0  0  0  0
   -4.1417   -3.4758   -0.0150 H   0  0  0  0  0  0  0  0  0  0  0  0
   -2.5669   -2.5284    1.1015 C   0  0  0  0  0  0  0  0  0  0  0  0
   -1.7104   -3.0190    1.8204 O   0  0  0  0  0  0  0  0  0  0  0  0
   -2.2783   -1.4175    0.3395 N   0  0  0  0  0  0  0  0  0  0  0  0
   -3.0180   -1.0384   -0.2503 H   0  0  0  0  0  0  0  0  0  0  0  0
   -0.9934   -0.7022    0.3341 C   0  0  1  0  0  0  0  0  0  0  0  0
   -0.4222   -0.9662    1.2297 H   0  0  0  0  0  0  0  0  0  0  0  0
   -0.1202   -1.0281   -0.9022 C   0  0  0  0  0  0  0  0  0  0  0  0
    0.5644   -0.1968   -1.1023 H   0  0  0  0  0  0  0  0  0  0  0  0
    0.5037   -1.8912   -0.6491 H   0  0  0  0  0  0  0  0  0  0  0  0
   -0.8867   -1.3788   -2.1625 C   0  0  0  0  0  0  0  0  0  0  0  0
   -1.5068   -2.6303   -2.3137 C   0  0  0  0  0  0  0  0  0  0  0  0
   -1.4040   -3.3795   -1.5336 H   0  0  0  0  0  0  0  0  0  0  0  0
   -2.2452   -2.9257   -3.4656 C   0  0  0  0  0  0  0  0  0  0  0  0
   -2.7079   -3.9008   -3.5671 H   0  0  0  0  0  0  0  0  0  0  0  0
   -2.3808   -1.9703   -4.4747 C   0  0  0  0  0  0  0  0  0  0  0  0
   -3.0963   -2.2473   -5.6037 O   0  0  0  0  0  0  0  0  0  0  0  0
   -3.4348   -3.1548   -5.5683 H   0  0  0  0  0  0  0  0  0  0  0  0
   -1.7829   -0.7205   -4.3247 C   0  0  0  0  0  0  0  0  0  0  0  0
   -1.9023    0.0219   -5.1071 H   0  0  0  0  0  0  0  0  0  0  0  0
   -1.0439   -0.4210   -3.1748 C   0  0  0  0  0  0  0  0  0  0  0  0
   -0.6047    0.5667   -3.0662 H   0  0  0  0  0  0  0  0  0  0  0  0
   -1.2404    0.8183    0.3971 C   0  0  0  0  0  0  0  0  0  0  0  0
   -2.1077    1.3359   -0.2971 O   0  0  0  0  0  0  0  0  0  0  0  0
   -0.4982    1.6131    1.2520 N   0  0  0  0  0  0  0  0  0  0  0  0
    0.1756    1.1541    1.8582 H   0  0  0  0  0  0  0  0  0  0  0  0
   -0.6904    3.0534    1.3730 C   0  0  0  0  0  0  0  0  0  0  0  0
   -1.7200    3.2801    1.6692 H   0  0  0  0  0  0  0  0  0  0  0  0
   -0.0151    3.4635    2.1299 H   0  0  0  0  0  0  0  0  0  0  0  0
   -0.4814    3.5483    0.4187 H   0  0  0  0  0  0  0  0  0  0  0  0
  1  2  1  0  0  0  0
  2  3  1  0  0  0  0
  2  4  1  0  0  0  0
  2  5  1  0  0  0  0
  5  6  2  0  0  0  0
  5  7  1  0  0  0  0
  7  8  1  0  0  0  0
  7  9  1  0  0  0  0
  9 10  1  0  0  0  0
  9 11  1  0  0  0  0
  9 26  1  0  0  0  0
 11 12  1  0  0  0  0
 11 13  1  0  0  0  0
 11 14  1  0  0  0  0
 14 15  2  0  0  0  0
 14 24  1  0  0  0  0
 15 16  1  0  0  0  0
 15 17  1  0  0  0  0
 17 18  1  0  0  0  0
 17 19  2  0  0  0  0
 19 20  1  0  0  0  0
 19 22  1  0  0  0  0
 20 21  1  0  0  0  0
 22 23  1  0  0  0  0
 22 24  2  0  0  0  0
 24 25  1  0  0  0  0
 26 27  2  0  0  0  0
 26 28  1  0  0  0  0
 28 29  1  0  0  0  0
 28 30  1  0  0  0  0
 30 31  1  0  0  0  0
 30 32  1  0  0  0  0
 30 33  1  0  0  0  0
M  END
$$$$

  -OEChem-04042216043D

 33 33  0     1  0  0  0  0  0999 V2000
   -4.0120   -3.9748    1.8912 H   0  0  0  0  0  0  0  0  0  0  0  0
   -3.9729   -3.1151    1.2162 C   0  0  0  0  0  0  0  0  0  0  0  0
   -4.6777   -2.3584    1.5694 H   0  0  0  0  0  0  0  0  0  0  0  0
   -4.2679   -3.4381    0.2147 H   0  0  0  0  0  0  0  0  0  0  0  0
   -2.5702   -2.5377    1.1827 C   0  0  0  0  0  0  0  0  0  0  0  0
   -1.6775   -3.0563    1.8345 O   0  0  0  0  0  0  0  0  0  0  0  0
   -2.3057   -1.4357    0.3987 N   0  0  0  0  0  0  0  0  0  0  0  0
   -3.0844   -1.0116   -0.1044 H   0  0  0  0  0  0  0  0  0  0  0  0
   -1.0175   -0.7310    0.3336 C   0  0  1  0  0  0  0  0  0  0  0  0
   -0.4221   -0.9864    1.2157 H   0  0  0  0  0  0  0  0  0  0  0  0
   -0.1580   -1.0408   -0.9206 C   0  0  0  0  0  0  0  0  0  0  0  0
    0.5250   -0.2046   -1.1046 H   0  0  0  0  0  0  0  0  0  0  0  0
    0.4699   -1.9027   -0.6727 H   0  0  0  0  0  0  0  0  0  0  0  0
   -0.8885   -1.3983   -2.2049 C   0  0  0  0  0  0  0  0  0  0  0  0
   -1.7402   -2.5126   -2.3019 C   0  0  0  0  0  0  0  0  0  0  0  0
   -1.8356   -3.1966   -1.4649 H   0  0  0  0  0  0  0  0  0  0  0  0
   -2.4407   -2.7809   -3.4836 C   0  0  0  0  0  0  0  0  0  0  0  0
   -3.0802   -3.6548   -3.5376 H   0  0  0  0  0  0  0  0  0  0  0  0
   -2.3109   -1.9317   -4.5830 C   0  0  0  0  0  0  0  0  0  0  0  0
   -2.9898   -2.1829   -5.7402 O   0  0  0  0  0  0  0  0  0  0  0  0
   -3.5193   -2.9892   -5.6457 H   0  0  0  0  0  0  0  0  0  0  0  0
   -1.4815   -0.8166   -4.4953 C   0  0  0  0  0  0  0  0  0  0  0  0
   -1.3938   -0.1538   -5.3499 H   0  0  0  0  0  0  0  0  0  0  0  0
   -0.7773   -0.5475   -3.3165 C   0  0  0  0  0  0  0  0  0  0  0  0
   -0.1529    0.3397   -3.2681 H   0  0  0  0  0  0  0  0  0  0  0  0
   -1.2694    0.7890    0.3946 C   0  0  0  0  0  0  0  0  0  0  0  0
   -2.1939    1.2907   -0.2345 O   0  0  0  0  0  0  0  0  0  0  0  0
   -0.4951    1.5926    1.2120 N   0  0  0  0  0  0  0  0  0  0  0  0
    0.2259    1.1439    1.7696 H   0  0  0  0  0  0  0  0  0  0  0  0
   -0.7072    3.0276    1.3562 C   0  0  0  0  0  0  0  0  0  0  0  0
   -1.7188    3.2315    1.7230 H   0  0  0  0  0  0  0  0  0  0  0  0
    0.0096    3.4459    2.0692 H   0  0  0  0  0  0  0  0  0  0  0  0
   -0.5725    3.5325    0.3938 H   0  0  0  0  0  0  0  0  0  0  0  0
  1  2  1  0  0  0  0
  2  3  1  0  0  0  0
  2  4  1  0  0  0  0
  2  5  1  0  0  0  0
  5  6  2  0  0  0  0
  5  7  1  0  0  0  0
  7  8  1  0  0  0  0
  7  9  1  0  0  0  0
  9 10  1  0  0  0  0
  9 11  1  0  0  0  0
  9 26  1  0  0  0  0
 11 12  1  0  0  0  0
 11 13  1  0  0  0  0
 11 14  1  0  0  0  0
 14 15  2  0  0  0  0
 14 24  1  0  0  0  0
 15 16  1  0  0  0  0
 15 17  1  0  0  0  0
 17 18  1  0  0  0  0
 17 19  2  0  0  0  0
 19 20  1  0  0  0  0
 19 22  1  0  0  0  0
 20 21  1  0  0  0  0
 22 23  1  0  0  0  0
 22 24  2  0  0  0  0
 24 25  1  0  0  0  0
 26 27  2  0  0  0  0
 26 28  1  0  0  0  0
 28 29  1  0  0  0  0
 28 30  1  0  0  0  0
 30 31  1  0  0  0  0
 30 32  1  0  0  0  0
 30 33  1  0  0  0  0
M  END
$$$$

  -OEChem-04042216043D

 33 33  0     1  0  0  0  0  0999 V2000
   -3.9743   -3.9264    2.1227 H   0  0  0  0  0  0  0  0  0  0  0  0
   -3.9694   -3.0725    1.4393 C   0  0  0  0  0  0  0  0  0  0  0  0
   -4.6216   -2.2945    1.8437 H   0  0  0  0  0  0  0  0  0  0  0  0
   -4.3561   -3.3942    0.4692 H   0  0  0  0  0  0  0  0  0  0  0  0
   -2.5594   -2.5350    1.2832 C   0  0  0  0  0  0  0  0  0  0  0  0
   -1.6316   -3.0708    1.8684 O   0  0  0  0  0  0  0  0  0  0  0  0
   -2.3317   -1.4410    0.4756 N   0  0  0  0  0  0  0  0  0  0  0  0
   -3.1411   -0.9790    0.0618 H   0  0  0  0  0  0  0  0  0  0  0  0
   -1.0420   -0.7523    0.3374 C   0  0  1  0  0  0  0  0  0  0  0  0
   -0.4097   -1.0013    1.1958 H   0  0  0  0  0  0  0  0  0  0  0  0
   -0.2225   -1.0584   -0.9479 C   0  0  0  0  0  0  0  0  0  0  0  0
    0.4601   -0.2214   -1.1292 H   0  0  0  0  0  0  0  0  0  0  0  0
    0.4077   -1.9213   -0.7100 H   0  0  0  0  0  0  0  0  0  0  0  0
   -0.9334   -1.4200   -2.2491 C   0  0  0  0  0  0  0  0  0  0  0  0
   -1.9990   -2.3351   -2.3448 C   0  0  0  0  0  0  0  0  0  0  0  0
   -2.3160   -2.9130   -1.4862 H   0  0  0  0  0  0  0  0  0  0  0  0
   -2.6398   -2.5737   -3.5666 C   0  0  0  0  0  0  0  0  0  0  0  0
   -3.4484   -3.2946   -3.6123 H   0  0  0  0  0  0  0  0  0  0  0  0
   -2.2339   -1.8975   -4.7167 C   0  0  0  0  0  0  0  0  0  0  0  0
   -2.8522   -2.1210   -5.9131 O   0  0  0  0  0  0  0  0  0  0  0  0
   -3.5690   -2.7639   -5.8013 H   0  0  0  0  0  0  0  0  0  0  0  0
   -1.1840   -0.9880   -4.6404 C   0  0  0  0  0  0  0  0  0  0  0  0
   -0.8736   -0.4617   -5.5371 H   0  0  0  0  0  0  0  0  0  0  0  0
   -0.5414   -0.7492   -3.4212 C   0  0  0  0  0  0  0  0  0  0  0  0
    0.2646   -0.0223   -3.3937 H   0  0  0  0  0  0  0  0  0  0  0  0
   -1.2957    0.7675    0.4033 C   0  0  0  0  0  0  0  0  0  0  0  0
   -2.2701    1.2578   -0.1562 O   0  0  0  0  0  0  0  0  0  0  0  0
   -0.4828    1.5788    1.1742 N   0  0  0  0  0  0  0  0  0  0  0  0
    0.2685    1.1359    1.6955 H   0  0  0  0  0  0  0  0  0  0  0  0
   -0.7203    3.0060    1.3547 C   0  0  0  0  0  0  0  0  0  0  0  0
   -1.6875    3.1746    1.8402 H   0  0  0  0  0  0  0  0  0  0  0  0
    0.0633    3.4442    1.9804 H   0  0  0  0  0  0  0  0  0  0  0  0
   -0.7170    3.5204    0.3878 H   0  0  0  0  0  0  0  0  0  0  0  0
  1  2  1  0  0  0  0
  2  3  1  0  0  0  0
  2  4  1  0  0  0  0
  2  5  1  0  0  0  0
  5  6  2  0  0  0  0
  5  7  1  0  0  0  0
  7  8  1  0  0  0  0
  7  9  1  0  0  0  0
  9 10  1  0  0  0  0
  9 11  1  0  0  0  0
  9 26  1  0  0  0  0
 11 12  1  0  0  0  0
 11 13  1  0  0  0  0
 11 14  1  0  0  0  0
 14 15  2  0  0  0  0
 14 24  1  0  0  0  0
 15 16  1  0  0  0  0
 15 17  1  0  0  0  0
 17 18  1  0  0  0  0
 17 19  2  0  0  0  0
 19 20  1  0  0  0  0
 19 22  1  0  0  0  0
 20 21  1  0  0  0  0
 22 23  1  0  0  0  0
 22 24  2  0  0  0  0
 24 25  1  0  0  0  0
 26 27  2  0  0  0  0
 26 28  1  0  0  0  0
 28 29  1  0  0  0  0
 28 30  1  0  0  0  0
 30 31  1  0  0  0  0
 30 32  1  0  0  0  0
 30 33  1  0  0  0  0
M  END
$$$$

  -OEChem-04042216043D

 33 33  0     1  0  0  0  0  0999 V2000
   -3.9130   -3.9125    2.2762 H   0  0  0  0  0  0  0  0  0  0  0  0
   -3.9392   -3.0714    1.5775 C   0  0  0  0  0  0  0  0  0  0  0  0
   -4.5785   -2.2887    1.9931 H   0  0  0  0  0  0  0  0  0  0  0  0
   -4.3620   -3.4134    0.6299 H   0  0  0  0  0  0  0  0  0  0  0  0
   -2.5387   -2.5325    1.3541 C   0  0  0  0  0  0  0  0  0  0  0  0
   -1.5841   -3.0733    1.8896 O   0  0  0  0  0  0  0  0  0  0  0  0
   -2.3502   -1.4329    0.5432 N   0  0  0  0  0  0  0  0  0  0  0  0
   -3.1793   -0.9471    0.2022 H   0  0  0  0  0  0  0  0  0  0  0  0
   -1.0657   -0.7522    0.3438 C   0  0  1  0  0  0  0  0  0  0  0  0
   -0.3959   -1.0083    1.1710 H   0  0  0  0  0  0  0  0  0  0  0  0
   -0.3006   -1.0520   -0.9776 C   0  0  0  0  0  0  0  0  0  0  0  0
    0.3730   -0.2097   -1.1680 H   0  0  0  0  0  0  0  0  0  0  0  0
    0.3384   -1.9139   -0.7604 H   0  0  0  0  0  0  0  0  0  0  0  0
   -1.0132   -1.4081   -2.2841 C   0  0  0  0  0  0  0  0  0  0  0  0
   -2.2480   -2.0785   -2.4057 C   0  0  0  0  0  0  0  0  0  0  0  0
   -2.7815   -2.4654   -1.5506 H   0  0  0  0  0  0  0  0  0  0  0  0
   -2.8221   -2.3162   -3.6611 C   0  0  0  0  0  0  0  0  0  0  0  0
   -3.7700   -2.8389   -3.7217 H   0  0  0  0  0  0  0  0  0  0  0  0
   -2.1788   -1.8942   -4.8230 C   0  0  0  0  0  0  0  0  0  0  0  0
   -2.7321   -2.1206   -6.0502 O   0  0  0  0  0  0  0  0  0  0  0  0
   -3.5950   -2.5511   -5.9510 H   0  0  0  0  0  0  0  0  0  0  0  0
   -0.9558   -1.2412   -4.7255 C   0  0  0  0  0  0  0  0  0  0  0  0
   -0.4554   -0.9176   -5.6322 H   0  0  0  0  0  0  0  0  0  0  0  0
   -0.3805   -1.0012   -3.4738 C   0  0  0  0  0  0  0  0  0  0  0  0
    0.5733   -0.4833   -3.4359 H   0  0  0  0  0  0  0  0  0  0  0  0
   -1.3120    0.7680    0.4358 C   0  0  0  0  0  0  0  0  0  0  0  0
   -2.3202    1.2602   -0.0590 O   0  0  0  0  0  0  0  0  0  0  0  0
   -0.4599    1.5735    1.1698 N   0  0  0  0  0  0  0  0  0  0  0  0
    0.3218    1.1279    1.6416 H   0  0  0  0  0  0  0  0  0  0  0  0
   -0.6899    2.9980    1.3791 C   0  0  0  0  0  0  0  0  0  0  0  0
   -1.6335    3.1592    1.9108 H   0  0  0  0  0  0  0  0  0  0  0  0
    0.1204    3.4298    1.9742 H   0  0  0  0  0  0  0  0  0  0  0  0
   -0.7316    3.5250    0.4200 H   0  0  0  0  0  0  0  0  0  0  0  0
  1  2  1  0  0  0  0
  2  3  1  0  0  0  0
  2  4  1  0  0  0  0
  2  5  1  0  0  0  0
  5  6  2  0  0  0  0
  5  7  1  0  0  0  0
  7  8  1  0  0  0  0
  7  9  1  0  0  0  0
  9 10  1  0  0  0  0
  9 11  1  0  0  0  0
  9 26  1  0  0  0  0
 11 12  1  0  0  0  0
 11 13  1  0  0  0  0
 11 14  1  0  0  0  0
 14 15  2  0  0  0  0
 14 24  1  0  0  0  0
 15 16  1  0  0  0  0
 15 17  1  0  0  0  0
 17 18  1  0  0  0  0
 17 19  2  0  0  0  0
 19 20  1  0  0  0  0
 19 22  1  0  0  0  0
 20 21  1  0  0  0  0
 22 23  1  0  0  0  0
 22 24  2  0  0  0  0
 24 25  1  0  0  0  0
 26 27  2  0  0  0  0
 26 28  1  0  0  0  0
 28 29  1  0  0  0  0
 28 30  1  0  0  0  0
 30 31  1  0  0  0  0
 30 32  1  0  0  0  0
 30 33  1  0  0  0  0
M  END
$$$$

  -OEChem-04042216043D

 33 33  0     1  0  0  0  0  0999 V2000
   -3.8773   -3.8871    2.3451 H   0  0  0  0  0  0  0  0  0  0  0  0
   -3.9178   -3.0687    1.6209 C   0  0  0  0  0  0  0  0  0  0  0  0
   -4.5426   -2.2700    2.0279 H   0  0  0  0  0  0  0  0  0  0  0  0
   -4.3666   -3.4376    0.6957 H   0  0  0  0  0  0  0  0  0  0  0  0
   -2.5207   -2.5458    1.3449 C   0  0  0  0  0  0  0  0  0  0  0  0
   -1.5512   -3.1063    1.8315 O   0  0  0  0  0  0  0  0  0  0  0  0
   -2.3539   -1.4283    0.5545 N   0  0  0  0  0  0  0  0  0  0  0  0
   -3.1915   -0.9167    0.2794 H   0  0  0  0  0  0  0  0  0  0  0  0
   -1.0729   -0.7471    0.3387 C   0  0  1  0  0  0  0  0  0  0  0  0
   -0.3824   -1.0221    1.1427 H   0  0  0  0  0  0  0  0  0  0  0  0
   -0.3472   -1.0271   -1.0079 C   0  0  0  0  0  0  0  0  0  0  0  0
    0.3234   -0.1828   -1.2020 H   0  0  0  0  0  0  0  0  0  0  0  0
    0.2936   -1.8940   -0.8164 H   0  0  0  0  0  0  0  0  0  0  0  0
   -1.0722   -1.3562   -2.3153 C   0  0  0  0  0  0  0  0  0  0  0  0
   -2.4200   -1.7439   -2.4712 C   0  0  0  0  0  0  0  0  0  0  0  0
   -3.1019   -1.8421   -1.6417 H   0  0  0  0  0  0  0  0  0  0  0  0
   -2.9512   -2.0199   -3.7377 C   0  0  0  0  0  0  0  0  0  0  0  0
   -3.9924   -2.3096   -3.8252 H   0  0  0  0  0  0  0  0  0  0  0  0
   -2.1533   -1.9226   -4.8761 C   0  0  0  0  0  0  0  0  0  0  0  0
   -2.6639   -2.1885   -6.1139 O   0  0  0  0  0  0  0  0  0  0  0  0
   -3.6071   -2.4014   -6.0450 H   0  0  0  0  0  0  0  0  0  0  0  0
   -0.8212   -1.5501   -4.7436 C   0  0  0  0  0  0  0  0  0  0  0  0
   -0.2015   -1.4768   -5.6314 H   0  0  0  0  0  0  0  0  0  0  0  0
   -0.2883   -1.2723   -3.4811 C   0  0  0  0  0  0  0  0  0  0  0  0
    0.7571   -0.9858   -3.4129 H   0  0  0  0  0  0  0  0  0  0  0  0
   -1.3122    0.7709    0.4720 C   0  0  0  0  0  0  0  0  0  0  0  0
   -2.3344    1.2747    0.0189 O   0  0  0  0  0  0  0  0  0  0  0  0
   -0.4394    1.5568    1.2028 N   0  0  0  0  0  0  0  0  0  0  0  0
    0.3586    1.1003    1.6353 H   0  0  0  0  0  0  0  0  0  0  0  0
   -0.6494    2.9802    1.4377 C   0  0  0  0  0  0  0  0  0  0  0  0
   -1.5947    3.1471    1.9646 H   0  0  0  0  0  0  0  0  0  0  0  0
    0.1626    3.3868    2.0481 H   0  0  0  0  0  0  0  0  0  0  0  0
   -0.6738    3.5250    0.4880 H   0  0  0  0  0  0  0  0  0  0  0  0
  1  2  1  0  0  0  0
  2  3  1  0  0  0  0
  2  4  1  0  0  0  0
  2  5  1  0  0  0  0
  5  6  2  0  0  0  0
  5  7  1  0  0  0  0
  7  8  1  0  0  0  0
  7  9  1  0  0  0  0
  9 10  1  0  0  0  0
  9 11  1  0  0  0  0
  9 26  1  0  0  0  0
 11 12  1  0  0  0  0
 11 13  1  0  0  0  0
 11 14  1  0  0  0  0
 14 15  2  0  0  0  0
 14 24  1  0  0  0  0
 15 16  1  0  0  0  0
 15 17  1  0  0  0  0
 17 18  1  0  0  0  0
 17 19  2  0  0  0  0
 19 20  1  0  0  0  0
 19 22  1  0  0  0  0
 20 21  1  0  0  0  0
 22 23  1  0  0  0  0
 22 24  2  0  0  0  0
 24 25  1  0  0  0  0
 26 27  2  0  0  0  0
 26 28  1  0  0  0  0
 28 29  1  0  0  0  0
 28 30  1  0  0  0  0
 30 31  1  0  0  0  0
 30 32  1  0  0  0  0
 30 33  1  0  0  0  0
M  END
$$$$

  -OEChem-04042216043D

 33 33  0     1  0  0  0  0  0999 V2000
   -3.9128   -3.9211    2.1864 H   0  0  0  0  0  0  0  0  0  0  0  0
   -3.9412   -3.0623    1.5099 C   0  0  0  0  0  0  0  0  0  0  0  0
   -4.5596   -2.2811    1.9588 H   0  0  0  0  0  0  0  0  0  0  0  0
   -4.3885   -3.3735    0.5628 H   0  0  0  0  0  0  0  0  0  0  0  0
   -2.5373   -2.5397    1.2708 C   0  0  0  0  0  0  0  0  0  0  0  0
   -1.5797   -3.1089    1.7711 O   0  0  0  0  0  0  0  0  0  0  0  0
   -2.3512   -1.4098    0.5029 N   0  0  0  0  0  0  0  0  0  0  0  0
   -3.1823   -0.8870    0.2318 H   0  0  0  0  0  0  0  0  0  0  0  0
   -1.0612   -0.7294    0.3287 C   0  0  1  0  0  0  0  0  0  0  0  0
   -0.3863   -1.0229    1.1395 H   0  0  0  0  0  0  0  0  0  0  0  0
   -0.3245   -1.0018   -1.0113 C   0  0  0  0  0  0  0  0  0  0  0  0
    0.3531   -0.1625   -1.2009 H   0  0  0  0  0  0  0  0  0  0  0  0
    0.3069   -1.8761   -0.8206 H   0  0  0  0  0  0  0  0  0  0  0  0
   -1.0524   -1.3048   -2.3203 C   0  0  0  0  0  0  0  0  0  0  0  0
   -2.4474   -1.3769   -2.5120 C   0  0  0  0  0  0  0  0  0  0  0  0
   -3.1511   -1.1359   -1.7289 H   0  0  0  0  0  0  0  0  0  0  0  0
   -2.9879   -1.7105   -3.7604 C   0  0  0  0  0  0  0  0  0  0  0  0
   -4.0649   -1.7450   -3.8811 H   0  0  0  0  0  0  0  0  0  0  0  0
   -2.1517   -1.9837   -4.8415 C   0  0  0  0  0  0  0  0  0  0  0  0
   -2.6710   -2.3074   -6.0616 O   0  0  0  0  0  0  0  0  0  0  0  0
   -3.6394   -2.2868   -6.0252 H   0  0  0  0  0  0  0  0  0  0  0  0
   -0.7732   -1.9189   -4.6715 C   0  0  0  0  0  0  0  0  0  0  0  0
   -0.1246   -2.1319   -5.5149 H   0  0  0  0  0  0  0  0  0  0  0  0
   -0.2310   -1.5846   -3.4268 C   0  0  0  0  0  0  0  0  0  0  0  0
    0.8494   -1.5490   -3.3216 H   0  0  0  0  0  0  0  0  0  0  0  0
   -1.2920    0.7872    0.4807 C   0  0  0  0  0  0  0  0  0  0  0  0
   -2.2992    1.3042    0.0087 O   0  0  0  0  0  0  0  0  0  0  0  0
   -0.4310    1.5545    1.2440 N   0  0  0  0  0  0  0  0  0  0  0  0
    0.3527    1.0846    1.6886 H   0  0  0  0  0  0  0  0  0  0  0  0
   -0.6405    2.9737    1.5019 C   0  0  0  0  0  0  0  0  0  0  0  0
   -1.5914    3.1319    2.0213 H   0  0  0  0  0  0  0  0  0  0  0  0
    0.1657    3.3674    2.1282 H   0  0  0  0  0  0  0  0  0  0  0  0
   -0.6537    3.5356    0.5619 H   0  0  0  0  0  0  0  0  0  0  0  0
  1  2  1  0  0  0  0
  2  3  1  0  0  0  0
  2  4  1  0  0  0  0
  2  5  1  0  0  0  0
  5  6  2  0  0  0  0
  5  7  1  0  0  0  0
  7  8  1  0  0  0  0
  7  9  1  0  0  0  0
  9 10  1  0  0  0  0
  9 11  1  0  0  0  0
  9 26  1  0  0  0  0
 11 12  1  0  0  0  0
 11 13  1  0  0  0  0
 11 14  1  0  0  0  0
 14 15  2  0  0  0  0
 14 24  1  0  0  0  0
 15 16  1  0  0  0  0
 15 17  1  0  0  0  0
 17 18  1  0  0  0  0
 17 19  2  0  0  0  0
 19 20  1  0  0  0  0
 19 22  1  0  0  0  0
 20 21  1  0  0  0  0
 22 23  1  0  0  0  0
 22 24  2  0  0  0  0
 24 25  1  0  0  0  0
 26 27  2  0  0  0  0
 26 28  1  0  0  0  0
 28 29  1  0  0  0  0
 28 30  1  0  0  0  0
 30 31  1  0  0  0  0
 30 32  1  0  0  0  0
 30 33  1  0  0  0  0
M  END
$$$$

  -OEChem-04042216043D

 33 33  0     1  0  0  0  0  0999 V2000
   -3.9424   -3.9667    1.9646 H   0  0  0  0  0  0  0  0  0  0  0  0
   -3.9436   -3.0967    1.3021 C   0  0  0  0  0  0  0  0  0  0  0  0
   -4.6138   -2.3397    1.7163 H   0  0  0  0  0  0  0  0  0  0  0  0
   -4.3120   -3.4021    0.3197 H   0  0  0  0  0  0  0  0  0  0  0  0
   -2.5404   -2.5343    1.1757 C   0  0  0  0  0  0  0  0  0  0  0  0
   -1.6094   -3.0801    1.7476 O   0  0  0  0  0  0  0  0  0  0  0  0
   -2.3270   -1.3943    0.4302 N   0  0  0  0  0  0  0  0  0  0  0  0
   -3.1470   -0.9073    0.0749 H   0  0  0  0  0  0  0  0  0  0  0  0
   -1.0354   -0.6989    0.3222 C   0  0  1  0  0  0  0  0  0  0  0  0
   -0.3913   -0.9989    1.1552 H   0  0  0  0  0  0  0  0  0  0  0  0
   -0.2613   -0.9826   -0.9929 C   0  0  0  0  0  0  0  0  0  0  0  0
    0.4174   -0.1452   -1.1855 H   0  0  0  0  0  0  0  0  0  0  0  0
    0.3671   -1.8544   -0.7816 H   0  0  0  0  0  0  0  0  0  0  0  0
   -0.9955   -1.2911   -2.2948 C   0  0  0  0  0  0  0  0  0  0  0  0
   -2.3648   -1.0575   -2.5296 C   0  0  0  0  0  0  0  0  0  0  0  0
   -2.9812   -0.5454   -1.8012 H   0  0  0  0  0  0  0  0  0  0  0  0
   -2.9601   -1.4195   -3.7440 C   0  0  0  0  0  0  0  0  0  0  0  0
   -4.0129   -1.2132   -3.9016 H   0  0  0  0  0  0  0  0  0  0  0  0
   -2.2031   -2.0262   -4.7453 C   0  0  0  0  0  0  0  0  0  0  0  0
   -2.7742   -2.3818   -5.9330 O   0  0  0  0  0  0  0  0  0  0  0  0
   -3.7093   -2.1262   -5.9403 H   0  0  0  0  0  0  0  0  0  0  0  0
   -0.8491   -2.2624   -4.5308 C   0  0  0  0  0  0  0  0  0  0  0  0
   -0.2637   -2.7329   -5.3138 H   0  0  0  0  0  0  0  0  0  0  0  0
   -0.2510   -1.8991   -3.3199 C   0  0  0  0  0  0  0  0  0  0  0  0
    0.8062   -2.1014   -3.1759 H   0  0  0  0  0  0  0  0  0  0  0  0
   -1.2662    0.8176    0.4774 C   0  0  0  0  0  0  0  0  0  0  0  0
   -2.2429    1.3472   -0.0422 O   0  0  0  0  0  0  0  0  0  0  0  0
   -0.4364    1.5737    1.2853 N   0  0  0  0  0  0  0  0  0  0  0  0
    0.3211    1.0947    1.7638 H   0  0  0  0  0  0  0  0  0  0  0  0
   -0.6429    2.9946    1.5382 C   0  0  0  0  0  0  0  0  0  0  0  0
   -1.6115    3.1622    2.0208 H   0  0  0  0  0  0  0  0  0  0  0  0
    0.1423    3.3795    2.1960 H   0  0  0  0  0  0  0  0  0  0  0  0
   -0.6140    3.5581    0.5997 H   0  0  0  0  0  0  0  0  0  0  0  0
  1  2  1  0  0  0  0
  2  3  1  0  0  0  0
  2  4  1  0  0  0  0
  2  5  1  0  0  0  0
  5  6  2  0  0  0  0
  5  7  1  0  0  0  0
  7  8  1  0  0  0  0
  7  9  1  0  0  0  0
  9 10  1  0  0  0  0
  9 11  1  0  0  0  0
  9 26  1  0  0  0  0
 11 12  1  0  0  0  0
 11 13  1  0  0  0  0
 11 14  1  0  0  0  0
 14 15  2  0  0  0  0
 14 24  1  0  0  0  0
 15 16  1  0  0  0  0
 15 17  1  0  0  0  0
 17 18  1  0  0  0  0
 17 19  2  0  0  0  0
 19 20  1  0  0  0  0
 19 22  1  0  0  0  0
 20 21  1  0  0  0  0
 22 23  1  0  0  0  0
 22 24  2  0  0  0  0
 24 25  1  0  0  0  0
 26 27  2  0  0  0  0
 26 28  1  0  0  0  0
 28 29  1  0  0  0  0
 28 30  1  0  0  0  0
 30 31  1  0  0  0  0
 30 32  1  0  0  0  0
 30 33  1  0  0  0  0
M  END
$$$$

  -OEChem-04042216043D

 33 33  0     1  0  0  0  0  0999 V2000
   -3.9420   -4.0277    1.7032 H   0  0  0  0  0  0  0  0  0  0  0  0
   -3.9248   -3.1457    1.0569 C   0  0  0  0  0  0  0  0  0  0  0  0
   -4.6786   -2.4366    1.4077 H   0  0  0  0  0  0  0  0  0  0  0  0
   -4.1682   -3.4517    0.0364 H   0  0  0  0  0  0  0  0  0  0  0  0
   -2.5521   -2.5014    1.0878 C   0  0  0  0  0  0  0  0  0  0  0  0
   -1.6548   -3.0058    1.7454 O   0  0  0  0  0  0  0  0  0  0  0  0
   -2.3239   -1.3485    0.3674 N   0  0  0  0  0  0  0  0  0  0  0  0
   -3.1124   -0.9372   -0.1262 H   0  0  0  0  0  0  0  0  0  0  0  0
   -1.0396   -0.6324    0.3133 C   0  0  1  0  0  0  0  0  0  0  0  0
   -0.4291   -0.9375    1.1691 H   0  0  0  0  0  0  0  0  0  0  0  0
   -0.2249   -0.9557   -0.9651 C   0  0  0  0  0  0  0  0  0  0  0  0
    0.4451   -0.1173   -1.1812 H   0  0  0  0  0  0  0  0  0  0  0  0
    0.4107   -1.8109   -0.7123 H   0  0  0  0  0  0  0  0  0  0  0  0
   -0.9659   -1.3089   -2.2497 C   0  0  0  0  0  0  0  0  0  0  0  0
   -2.2402   -0.8107   -2.5822 C   0  0  0  0  0  0  0  0  0  0  0  0
   -2.7429   -0.0944   -1.9427 H   0  0  0  0  0  0  0  0  0  0  0  0
   -2.8773   -1.1983   -3.7666 C   0  0  0  0  0  0  0  0  0  0  0  0
   -3.8549   -0.7920   -4.0011 H   0  0  0  0  0  0  0  0  0  0  0  0
   -2.2550   -2.0900   -4.6400 C   0  0  0  0  0  0  0  0  0  0  0  0
   -2.8677   -2.4733   -5.7978 O   0  0  0  0  0  0  0  0  0  0  0  0
   -3.7245   -2.0277   -5.8824 H   0  0  0  0  0  0  0  0  0  0  0  0
   -0.9936   -2.5880   -4.3268 C   0  0  0  0  0  0  0  0  0  0  0  0
   -0.5131   -3.2799   -5.0108 H   0  0  0  0  0  0  0  0  0  0  0  0
   -0.3533   -2.2018   -3.1445 C   0  0  0  0  0  0  0  0  0  0  0  0
    0.6292   -2.6081   -2.9231 H   0  0  0  0  0  0  0  0  0  0  0  0
   -1.2462    0.8877    0.4756 C   0  0  0  0  0  0  0  0  0  0  0  0
   -2.1904    1.4503   -0.0670 O   0  0  0  0  0  0  0  0  0  0  0  0
   -0.4250    1.6156    1.3177 N   0  0  0  0  0  0  0  0  0  0  0  0
    0.3017    1.1122    1.8187 H   0  0  0  0  0  0  0  0  0  0  0  0
   -0.6041    3.0386    1.5802 C   0  0  0  0  0  0  0  0  0  0  0  0
   -1.5764    3.2229    2.0491 H   0  0  0  0  0  0  0  0  0  0  0  0
    0.1791    3.4002    2.2534 H   0  0  0  0  0  0  0  0  0  0  0  0
   -0.5482    3.6106    0.6479 H   0  0  0  0  0  0  0  0  0  0  0  0
  1  2  1  0  0  0  0
  2  3  1  0  0  0  0
  2  4  1  0  0  0  0
  2  5  1  0  0  0  0
  5  6  2  0  0  0  0
  5  7  1  0  0  0  0
  7  8  1  0  0  0  0
  7  9  1  0  0  0  0
  9 10  1  0  0  0  0
  9 11  1  0  0  0  0
  9 26  1  0  0  0  0
 11 12  1  0  0  0  0
 11 13  1  0  0  0  0
 11 14  1  0  0  0  0
 14 15  2  0  0  0  0
 14 24  1  0  0  0  0
 15 16  1  0  0  0  0
 15 17  1  0  0  0  0
 17 18  1  0  0  0  0
 17 19  2  0  0  0  0
 19 20  1  0  0  0  0
 19 22  1  0  0  0  0
 20 21  1  0  0  0  0
 22 23  1  0  0  0  0
 22 24  2  0  0  0  0
 24 25  1  0  0  0  0
 26 27  2  0  0  0  0
 26 28  1  0  0  0  0
 28 29  1  0  0  0  0
 28 30  1  0  0  0  0
 30 31  1  0  0  0  0
 30 32  1  0  0  0  0
 30 33  1  0  0  0  0
M  END
$$$$

  -OEChem-04042216043D

 33 33  0     1  0  0  0  0  0999 V2000
   -3.9226   -4.0614    1.4971 H   0  0  0  0  0  0  0  0  0  0  0  0
   -3.8959   -3.1620    0.8759 C   0  0  0  0  0  0  0  0  0  0  0  0
   -4.6930   -2.4874    1.1973 H   0  0  0  0  0  0  0  0  0  0  0  0
   -4.0666   -3.4477   -0.1650 H   0  0  0  0  0  0  0  0  0  0  0  0
   -2.5501   -2.4744    1.0078 C   0  0  0  0  0  0  0  0  0  0  0  0
   -1.6856   -2.9539    1.7255 O   0  0  0  0  0  0  0  0  0  0  0  0
   -2.3054   -1.3151    0.3030 N   0  0  0  0  0  0  0  0  0  0  0  0
   -3.0515   -0.9572   -0.2889 H   0  0  0  0  0  0  0  0  0  0  0  0
   -1.0257   -0.5887    0.2936 C   0  0  1  0  0  0  0  0  0  0  0  0
   -0.4444   -0.8937    1.1696 H   0  0  0  0  0  0  0  0  0  0  0  0
   -0.1770   -0.9458   -0.9517 C   0  0  0  0  0  0  0  0  0  0  0  0
    0.4914   -0.1105   -1.1846 H   0  0  0  0  0  0  0  0  0  0  0  0
    0.4596   -1.7903   -0.6677 H   0  0  0  0  0  0  0  0  0  0  0  0
   -0.9286   -1.3268   -2.2201 C   0  0  0  0  0  0  0  0  0  0  0  0
   -2.0380   -0.6028   -2.6935 C   0  0  0  0  0  0  0  0  0  0  0  0
   -2.3753    0.2930   -2.1850 H   0  0  0  0  0  0  0  0  0  0  0  0
   -2.7198   -1.0078   -3.8466 C   0  0  0  0  0  0  0  0  0  0  0  0
   -3.5684   -0.4276   -4.1920 H   0  0  0  0  0  0  0  0  0  0  0  0
   -2.3061   -2.1416   -4.5458 C   0  0  0  0  0  0  0  0  0  0  0  0
   -2.9633   -2.5432   -5.6726 O   0  0  0  0  0  0  0  0  0  0  0  0
   -3.6789   -1.9221   -5.8781 H   0  0  0  0  0  0  0  0  0  0  0  0
   -1.2096   -2.8674   -4.0884 C   0  0  0  0  0  0  0  0  0  0  0  0
   -0.8928   -3.7485   -4.6369 H   0  0  0  0  0  0  0  0  0  0  0  0
   -0.5249   -2.4661   -2.9360 C   0  0  0  0  0  0  0  0  0  0  0  0
    0.3237   -3.0537   -2.5982 H   0  0  0  0  0  0  0  0  0  0  0  0
   -1.2239    0.9332    0.4575 C   0  0  0  0  0  0  0  0  0  0  0  0
   -2.1513    1.5114   -0.0969 O   0  0  0  0  0  0  0  0  0  0  0  0
   -0.4198    1.6469    1.3282 N   0  0  0  0  0  0  0  0  0  0  0  0
    0.2840    1.1312    1.8490 H   0  0  0  0  0  0  0  0  0  0  0  0
   -0.6131    3.0625    1.6198 C   0  0  0  0  0  0  0  0  0  0  0  0
   -1.5977    3.2300    2.0692 H   0  0  0  0  0  0  0  0  0  0  0  0
    0.1513    3.4123    2.3205 H   0  0  0  0  0  0  0  0  0  0  0  0
   -0.5379    3.6564    0.7028 H   0  0  0  0  0  0  0  0  0  0  0  0
  1  2  1  0  0  0  0
  2  3  1  0  0  0  0
  2  4  1  0  0  0  0
  2  5  1  0  0  0  0
  5  6  2  0  0  0  0
  5  7  1  0  0  0  0
  7  8  1  0  0  0  0
  7  9  1  0  0  0  0
  9 10  1  0  0  0  0
  9 11  1  0  0  0  0
  9 26  1  0  0  0  0
 11 12  1  0  0  0  0
 11 13  1  0  0  0  0
 11 14  1  0  0  0  0
 14 15  2  0  0  0  0
 14 24  1  0  0  0  0
 15 16  1  0  0  0  0
 15 17  1  0  0  0  0
 17 18  1  0  0  0  0
 17 19  2  0  0  0  0
 19 20  1  0  0  0  0
 19 22  1  0  0  0  0
 20 21  1  0  0  0  0
 22 23  1  0  0  0  0
 22 24  2  0  0  0  0
 24 25  1  0  0  0  0
 26 27  2  0  0  0  0
 26 28  1  0  0  0  0
 28 29  1  0  0  0  0
 28 30  1  0  0  0  0
 30 31  1  0  0  0  0
 30 32  1  0  0  0  0
 30 33  1  0  0  0  0
M  END
$$$$

  -OEChem-04042216043D

 33 33  0     1  0  0  0  0  0999 V2000
   -3.9186   -4.0761    1.3987 H   0  0  0  0  0  0  0  0  0  0  0  0
   -3.8769   -3.1738    0.7823 C   0  0  0  0  0  0  0  0  0  0  0  0
   -4.6910   -2.5073    1.0768 H   0  0  0  0  0  0  0  0  0  0  0  0
   -4.0069   -3.4562   -0.2654 H   0  0  0  0  0  0  0  0  0  0  0  0
   -2.5433   -2.4749    0.9667 C   0  0  0  0  0  0  0  0  0  0  0  0
   -1.7079   -2.9401    1.7270 O   0  0  0  0  0  0  0  0  0  0  0  0
   -2.2740   -1.3238    0.2583 N   0  0  0  0  0  0  0  0  0  0  0  0
   -2.9875   -0.9889   -0.3857 H   0  0  0  0  0  0  0  0  0  0  0  0
   -0.9968   -0.5939    0.2862 C   0  0  1  0  0  0  0  0  0  0  0  0
   -0.4402   -0.8886    1.1816 H   0  0  0  0  0  0  0  0  0  0  0  0
   -0.1195   -0.9637   -0.9342 C   0  0  0  0  0  0  0  0  0  0  0  0
    0.5516   -0.1309   -1.1683 H   0  0  0  0  0  0  0  0  0  0  0  0
    0.5145   -1.8062   -0.6394 H   0  0  0  0  0  0  0  0  0  0  0  0
   -0.8799   -1.3478   -2.1926 C   0  0  0  0  0  0  0  0  0  0  0  0
   -1.7661   -0.4570   -2.8210 C   0  0  0  0  0  0  0  0  0  0  0  0
   -1.8919    0.5530   -2.4453 H   0  0  0  0  0  0  0  0  0  0  0  0
   -2.4902   -0.8494   -3.9526 C   0  0  0  0  0  0  0  0  0  0  0  0
   -3.1642   -0.1412   -4.4223 H   0  0  0  0  0  0  0  0  0  0  0  0
   -2.3426   -2.1373   -4.4691 C   0  0  0  0  0  0  0  0  0  0  0  0
   -3.0456   -2.5294   -5.5710 O   0  0  0  0  0  0  0  0  0  0  0  0
   -3.5847   -1.7931   -5.8988 H   0  0  0  0  0  0  0  0  0  0  0  0
   -1.4697   -3.0297   -3.8517 C   0  0  0  0  0  0  0  0  0  0  0  0
   -1.3613   -4.0304   -4.2571 H   0  0  0  0  0  0  0  0  0  0  0  0
   -0.7430   -2.6419   -2.7208 C   0  0  0  0  0  0  0  0  0  0  0  0
   -0.0768   -3.3593   -2.2505 H   0  0  0  0  0  0  0  0  0  0  0  0
   -1.2099    0.9281    0.4243 C   0  0  0  0  0  0  0  0  0  0  0  0
   -2.1144    1.4939   -0.1787 O   0  0  0  0  0  0  0  0  0  0  0  0
   -0.4424    1.6570    1.3152 N   0  0  0  0  0  0  0  0  0  0  0  0
    0.2369    1.1492    1.8749 H   0  0  0  0  0  0  0  0  0  0  0  0
   -0.6594    3.0725    1.5889 C   0  0  0  0  0  0  0  0  0  0  0  0
   -1.6586    3.2334    2.0071 H   0  0  0  0  0  0  0  0  0  0  0  0
    0.0799    3.4355    2.3094 H   0  0  0  0  0  0  0  0  0  0  0  0
   -0.5627    3.6604    0.6700 H   0  0  0  0  0  0  0  0  0  0  0  0
  1  2  1  0  0  0  0
  2  3  1  0  0  0  0
  2  4  1  0  0  0  0
  2  5  1  0  0  0  0
  5  6  2  0  0  0  0
  5  7  1  0  0  0  0
  7  8  1  0  0  0  0
  7  9  1  0  0  0  0
  9 10  1  0  0  0  0
  9 11  1  0  0  0  0
  9 26  1  0  0  0  0
 11 12  1  0  0  0  0
 11 13  1  0  0  0  0
 11 14  1  0  0  0  0
 14 15  2  0  0  0  0
 14 24  1  0  0  0  0
 15 16  1  0  0  0  0
 15 17  1  0  0  0  0
 17 18  1  0  0  0  0
 17 19  2  0  0  0  0
 19 20  1  0  0  0  0
 19 22  1  0  0  0  0
 20 21  1  0  0  0  0
 22 23  1  0  0  0  0
 22 24  2  0  0  0  0
 24 25  1  0  0  0  0
 26 27  2  0  0  0  0
 26 28  1  0  0  0  0
 28 29  1  0  0  0  0
 28 30  1  0  0  0  0
 30 31  1  0  0  0  0
 30 32  1  0  0  0  0
 30 33  1  0  0  0  0
M  END
$$$$

  -OEChem-04042216043D

 33 33  0     1  0  0  0  0  0999 V2000
   -3.9341   -4.0899    1.4149 H   0  0  0  0  0  0  0  0  0  0  0  0
   -3.8770   -3.1955    0.7883 C   0  0  0  0  0  0  0  0  0  0  0  0
   -4.6939   -2.5219    1.0582 H   0  0  0  0  0  0  0  0  0  0  0  0
   -3.9875   -3.4897   -0.2584 H   0  0  0  0  0  0  0  0  0  0  0  0
   -2.5450   -2.4986    0.9898 C   0  0  0  0  0  0  0  0  0  0  0  0
   -1.7306   -2.9487    1.7815 O   0  0  0  0  0  0  0  0  0  0  0  0
   -2.2519   -1.3678    0.2594 N   0  0  0  0  0  0  0  0  0  0  0  0
   -2.9454   -1.0474   -0.4141 H   0  0  0  0  0  0  0  0  0  0  0  0
   -0.9752   -0.6381    0.3040 C   0  0  1  0  0  0  0  0  0  0  0  0
   -0.4303   -0.9142    1.2120 H   0  0  0  0  0  0  0  0  0  0  0  0
   -0.0826   -1.0004   -0.9064 C   0  0  0  0  0  0  0  0  0  0  0  0
    0.5937   -0.1693   -1.1322 H   0  0  0  0  0  0  0  0  0  0  0  0
    0.5464   -1.8496   -0.6196 H   0  0  0  0  0  0  0  0  0  0  0  0
   -0.8555   -1.3727   -2.1564 C   0  0  0  0  0  0  0  0  0  0  0  0
   -1.4882   -0.3883   -2.9308 C   0  0  0  0  0  0  0  0  0  0  0  0
   -1.4107    0.6597   -2.6545 H   0  0  0  0  0  0  0  0  0  0  0  0
   -2.2299   -0.7436   -4.0631 C   0  0  0  0  0  0  0  0  0  0  0  0
   -2.7125    0.0337   -4.6454 H   0  0  0  0  0  0  0  0  0  0  0  0
   -2.3481   -2.0845   -4.4332 C   0  0  0  0  0  0  0  0  0  0  0  0
   -3.0730   -2.4400   -5.5335 O   0  0  0  0  0  0  0  0  0  0  0  0
   -3.4299   -1.6480   -5.9645 H   0  0  0  0  0  0  0  0  0  0  0  0
   -1.7227   -3.0678   -3.6693 C   0  0  0  0  0  0  0  0  0  0  0  0
   -1.8193   -4.1078   -3.9634 H   0  0  0  0  0  0  0  0  0  0  0  0
   -0.9804   -2.7183   -2.5359 C   0  0  0  0  0  0  0  0  0  0  0  0
   -0.5079   -3.4990   -1.9464 H   0  0  0  0  0  0  0  0  0  0  0  0
   -1.2108    0.8834    0.3940 C   0  0  0  0  0  0  0  0  0  0  0  0
   -2.0725    1.4260   -0.2884 O   0  0  0  0  0  0  0  0  0  0  0  0
   -0.4811    1.6479    1.2863 N   0  0  0  0  0  0  0  0  0  0  0  0
    0.1705    1.1633    1.8973 H   0  0  0  0  0  0  0  0  0  0  0  0
   -0.6968    3.0770    1.4787 C   0  0  0  0  0  0  0  0  0  0  0  0
   -1.7192    3.2674    1.8217 H   0  0  0  0  0  0  0  0  0  0  0  0
   -0.0018    3.4672    2.2284 H   0  0  0  0  0  0  0  0  0  0  0  0
   -0.5330    3.6187    0.5413 H   0  0  0  0  0  0  0  0  0  0  0  0
  1  2  1  0  0  0  0
  2  3  1  0  0  0  0
  2  4  1  0  0  0  0
  2  5  1  0  0  0  0
  5  6  2  0  0  0  0
  5  7  1  0  0  0  0
  7  8  1  0  0  0  0
  7  9  1  0  0  0  0
  9 10  1  0  0  0  0
  9 11  1  0  0  0  0
  9 26  1  0  0  0  0
 11 12  1  0  0  0  0
 11 13  1  0  0  0  0
 11 14  1  0  0  0  0
 14 15  2  0  0  0  0
 14 24  1  0  0  0  0
 15 16  1  0  0  0  0
 15 17  1  0  0  0  0
 17 18  1  0  0  0  0
 17 19  2  0  0  0  0
 19 20  1  0  0  0  0
 19 22  1  0  0  0  0
 20 21  1  0  0  0  0
 22 23  1  0  0  0  0
 22 24  2  0  0  0  0
 24 25  1  0  0  0  0
 26 27  2  0  0  0  0
 26 28  1  0  0  0  0
 28 29  1  0  0  0  0
 28 30  1  0  0  0  0
 30 31  1  0  0  0  0
 30 32  1  0  0  0  0
 30 33  1  0  0  0  0
M  END
$$$$

  -OEChem-04042216043D

 33 33  0     1  0  0  0  0  0999 V2000
   -3.9545   -4.0896    1.5005 H   0  0  0  0  0  0  0  0  0  0  0  0
   -3.8963   -3.2009    0.8658 C   0  0  0  0  0  0  0  0  0  0  0  0
   -4.7030   -2.5172    1.1408 H   0  0  0  0  0  0  0  0  0  0  0  0
   -4.0242   -3.5031   -0.1766 H   0  0  0  0  0  0  0  0  0  0  0  0
   -2.5546   -2.5158    1.0439 C   0  0  0  0  0  0  0  0  0  0  0  0
   -1.7365   -2.9643    1.8323 O   0  0  0  0  0  0  0  0  0  0  0  0
   -2.2541   -1.4010    0.2922 N   0  0  0  0  0  0  0  0  0  0  0  0
   -2.9512   -1.0796   -0.3775 H   0  0  0  0  0  0  0  0  0  0  0  0
   -0.9751   -0.6746    0.3253 C   0  0  1  0  0  0  0  0  0  0  0  0
   -0.4230   -0.9387    1.2327 H   0  0  0  0  0  0  0  0  0  0  0  0
   -0.0894   -1.0243   -0.8933 C   0  0  0  0  0  0  0  0  0  0  0  0
    0.5900   -0.1940   -1.1136 H   0  0  0  0  0  0  0  0  0  0  0  0
    0.5370   -1.8806   -0.6232 H   0  0  0  0  0  0  0  0  0  0  0  0
   -0.8746   -1.3855   -2.1370 C   0  0  0  0  0  0  0  0  0  0  0  0
   -1.2465   -0.3919   -3.0540 C   0  0  0  0  0  0  0  0  0  0  0  0
   -0.9880    0.6467   -2.8641 H   0  0  0  0  0  0  0  0  0  0  0  0
   -1.9717   -0.7247   -4.2038 C   0  0  0  0  0  0  0  0  0  0  0  0
   -2.2597    0.0601   -4.8948 H   0  0  0  0  0  0  0  0  0  0  0  0
   -2.3243   -2.0530   -4.4515 C   0  0  0  0  0  0  0  0  0  0  0  0
   -3.0345   -2.3856   -5.5683 O   0  0  0  0  0  0  0  0  0  0  0  0
   -3.2084   -1.5916   -6.0973 H   0  0  0  0  0  0  0  0  0  0  0  0
   -1.9483   -3.0471   -3.5497 C   0  0  0  0  0  0  0  0  0  0  0  0
   -2.2230   -4.0771   -3.7522 H   0  0  0  0  0  0  0  0  0  0  0  0
   -1.2238   -2.7198   -2.3986 C   0  0  0  0  0  0  0  0  0  0  0  0
   -0.9366   -3.5038   -1.7034 H   0  0  0  0  0  0  0  0  0  0  0  0
   -1.2184    0.8468    0.3837 C   0  0  0  0  0  0  0  0  0  0  0  0
   -2.0497    1.3743   -0.3467 O   0  0  0  0  0  0  0  0  0  0  0  0
   -0.4972    1.6355    1.2618 N   0  0  0  0  0  0  0  0  0  0  0  0
    0.1401    1.1677    1.9003 H   0  0  0  0  0  0  0  0  0  0  0  0
   -0.6993    3.0732    1.3961 C   0  0  0  0  0  0  0  0  0  0  0  0
   -1.7363    3.2906    1.6732 H   0  0  0  0  0  0  0  0  0  0  0  0
   -0.0424    3.4771    2.1725 H   0  0  0  0  0  0  0  0  0  0  0  0
   -0.4727    3.5814    0.4528 H   0  0  0  0  0  0  0  0  0  0  0  0
  1  2  1  0  0  0  0
  2  3  1  0  0  0  0
  2  4  1  0  0  0  0
  2  5  1  0  0  0  0
  5  6  2  0  0  0  0
  5  7  1  0  0  0  0
  7  8  1  0  0  0  0
  7  9  1  0  0  0  0
  9 10  1  0  0  0  0
  9 11  1  0  0  0  0
  9 26  1  0  0  0  0
 11 12  1  0  0  0  0
 11 13  1  0  0  0  0
 11 14  1  0  0  0  0
 14 15  2  0  0  0  0
 14 24  1  0  0  0  0
 15 16  1  0  0  0  0
 15 17  1  0  0  0  0
 17 18  1  0  0  0  0
 17 19  2  0  0  0  0
 19 20  1  0  0  0  0
 19 22  1  0  0  0  0
 20 21  1  0  0  0  0
 22 23  1  0  0  0  0
 22 24  2  0  0  0  0
 24 25  1  0  0  0  0
 26 27  2  0  0  0  0
 26 28  1  0  0  0  0
 28 29  1  0  0  0  0
 28 30  1  0  0  0  0
 30 31  1  0  0  0  0
 30 32  1  0  0  0  0
 30 33  1  0  0  0  0
M  END
$$$$

  -OEChem-04042216043D

 33 33  0     1  0  0  0  0  0999 V2000
   -3.9778   -4.0596    1.6266 H   0  0  0  0  0  0  0  0  0  0  0  0
   -3.9279   -3.1798    0.9790 C   0  0  0  0  0  0  0  0  0  0  0  0
   -4.7152   -2.4810    1.2721 H   0  0  0  0  0  0  0  0  0  0  0  0
   -4.0946   -3.4925   -0.0547 H   0  0  0  0  0  0  0  0  0  0  0  0
   -2.5704   -2.5146    1.1047 C   0  0  0  0  0  0  0  0  0  0  0  0
   -1.7288   -2.9782    1.8584 O   0  0  0  0  0  0  0  0  0  0  0  0
   -2.2794   -1.4061    0.3398 N   0  0  0  0  0  0  0  0  0  0  0  0
   -3.0012   -1.0609   -0.2913 H   0  0  0  0  0  0  0  0  0  0  0  0
   -0.9943   -0.6906    0.3377 C   0  0  1  0  0  0  0  0  0  0  0  0
   -0.4233   -0.9535    1.2338 H   0  0  0  0  0  0  0  0  0  0  0  0
   -0.1280   -1.0292   -0.8993 C   0  0  0  0  0  0  0  0  0  0  0  0
    0.5570   -0.2015   -1.1118 H   0  0  0  0  0  0  0  0  0  0  0  0
    0.4952   -1.8928   -0.6455 H   0  0  0  0  0  0  0  0  0  0  0  0
   -0.9168   -1.3822   -2.1450 C   0  0  0  0  0  0  0  0  0  0  0  0
   -1.0271   -0.4589   -3.1948 C   0  0  0  0  0  0  0  0  0  0  0  0
   -0.5962    0.5331   -3.0923 H   0  0  0  0  0  0  0  0  0  0  0  0
   -1.7146   -0.7942   -4.3673 C   0  0  0  0  0  0  0  0  0  0  0  0
   -1.8030   -0.0593   -5.1596 H   0  0  0  0  0  0  0  0  0  0  0  0
   -2.2816   -2.0621   -4.5109 C   0  0  0  0  0  0  0  0  0  0  0  0
   -2.9540   -2.3971   -5.6503 O   0  0  0  0  0  0  0  0  0  0  0  0
   -2.9534   -1.6480   -6.2660 H   0  0  0  0  0  0  0  0  0  0  0  0
   -2.1528   -2.9952   -3.4841 C   0  0  0  0  0  0  0  0  0  0  0  0
   -2.5848   -3.9828   -3.6088 H   0  0  0  0  0  0  0  0  0  0  0  0
   -1.4659   -2.6645   -2.3112 C   0  0  0  0  0  0  0  0  0  0  0  0
   -1.3565   -3.4074   -1.5262 H   0  0  0  0  0  0  0  0  0  0  0  0
   -1.2349    0.8310    0.3943 C   0  0  0  0  0  0  0  0  0  0  0  0
   -2.0814    1.3552   -0.3207 O   0  0  0  0  0  0  0  0  0  0  0  0
   -0.4915    1.6227    1.2511 N   0  0  0  0  0  0  0  0  0  0  0  0
    0.1611    1.1572    1.8755 H   0  0  0  0  0  0  0  0  0  0  0  0
   -0.6788    3.0634    1.3743 C   0  0  0  0  0  0  0  0  0  0  0  0
   -1.7113    3.2935    1.6578 H   0  0  0  0  0  0  0  0  0  0  0  0
   -0.0117    3.4679    2.1418 H   0  0  0  0  0  0  0  0  0  0  0  0
   -0.4549    3.5605    0.4246 H   0  0  0  0  0  0  0  0  0  0  0  0
  1  2  1  0  0  0  0
  2  3  1  0  0  0  0
  2  4  1  0  0  0  0
  2  5  1  0  0  0  0
  5  6  2  0  0  0  0
  5  7  1  0  0  0  0
  7  8  1  0  0  0  0
  7  9  1  0  0  0  0
  9 10  1  0  0  0  0
  9 11  1  0  0  0  0
  9 26  1  0  0  0  0
 11 12  1  0  0  0  0
 11 13  1  0  0  0  0
 11 14  1  0  0  0  0
 14 15  2  0  0  0  0
 14 24  1  0  0  0  0
 15 16  1  0  0  0  0
 15 17  1  0  0  0  0
 17 18  1  0  0  0  0
 17 19  2  0  0  0  0
 19 20  1  0  0  0  0
 19 22  1  0  0  0  0
 20 21  1  0  0  0  0
 22 23  1  0  0  0  0
 22 24  2  0  0  0  0
 24 25  1  0  0  0  0
 26 27  2  0  0  0  0
 26 28  1  0  0  0  0
 28 29  1  0  0  0  0
 28 30  1  0  0  0  0
 30 31  1  0  0  0  0
 30 32  1  0  0  0  0
 30 33  1  0  0  0  0
M  END
$$$$

  -OEChem-04042216043D

 33 33  0     1  0  0  0  0  0999 V2000
   -4.0166   -3.9910    1.8210 H   0  0  0  0  0  0  0  0  0  0  0  0
   -3.9758   -3.1249    1.1544 C   0  0  0  0  0  0  0  0  0  0  0  0
   -4.7138   -2.3902    1.4855 H   0  0  0  0  0  0  0  0  0  0  0  0
   -4.2236   -3.4483    0.1405 H   0  0  0  0  0  0  0  0  0  0  0  0
   -2.5883   -2.5119    1.1768 C   0  0  0  0  0  0  0  0  0  0  0  0
   -1.7113   -3.0074    1.8670 O   0  0  0  0  0  0  0  0  0  0  0  0
   -2.3159   -1.4081    0.3977 N   0  0  0  0  0  0  0  0  0  0  0  0
   -3.0760   -1.0179   -0.1580 H   0  0  0  0  0  0  0  0  0  0  0  0
   -1.0236   -0.7088    0.3415 C   0  0  1  0  0  0  0  0  0  0  0  0
   -0.4260   -0.9742    1.2191 H   0  0  0  0  0  0  0  0  0  0  0  0
   -0.1830   -1.0295   -0.9209 C   0  0  0  0  0  0  0  0  0  0  0  0
    0.5047   -0.2009   -1.1216 H   0  0  0  0  0  0  0  0  0  0  0  0
    0.4393   -1.8988   -0.6853 H   0  0  0  0  0  0  0  0  0  0  0  0
   -0.9610   -1.3723   -2.1792 C   0  0  0  0  0  0  0  0  0  0  0  0
   -0.8127   -0.5764   -3.3261 C   0  0  0  0  0  0  0  0  0  0  0  0
   -0.2151    0.3295   -3.2846 H   0  0  0  0  0  0  0  0  0  0  0  0
   -1.4537   -0.9180   -4.5228 C   0  0  0  0  0  0  0  0  0  0  0  0
   -1.3470   -0.2710   -5.3864 H   0  0  0  0  0  0  0  0  0  0  0  0
   -2.2190   -2.0825   -4.6013 C   0  0  0  0  0  0  0  0  0  0  0  0
   -2.8472   -2.4245   -5.7636 O   0  0  0  0  0  0  0  0  0  0  0  0
   -2.6920   -1.7430   -6.4356 H   0  0  0  0  0  0  0  0  0  0  0  0
   -2.3269   -2.9107   -3.4869 C   0  0  0  0  0  0  0  0  0  0  0  0
   -2.8998   -3.8290   -3.5632 H   0  0  0  0  0  0  0  0  0  0  0  0
   -1.6897   -2.5695   -2.2893 C   0  0  0  0  0  0  0  0  0  0  0  0
   -1.7498   -3.2506   -1.4464 H   0  0  0  0  0  0  0  0  0  0  0  0
   -1.2564    0.8139    0.4061 C   0  0  0  0  0  0  0  0  0  0  0  0
   -2.1480    1.3353   -0.2536 O   0  0  0  0  0  0  0  0  0  0  0  0
   -0.4756    1.6043    1.2305 N   0  0  0  0  0  0  0  0  0  0  0  0
    0.2137    1.1393    1.8145 H   0  0  0  0  0  0  0  0  0  0  0  0
   -0.6644    3.0430    1.3721 C   0  0  0  0  0  0  0  0  0  0  0  0
   -1.6768    3.2636    1.7264 H   0  0  0  0  0  0  0  0  0  0  0  0
    0.0505    3.4498    2.0939 H   0  0  0  0  0  0  0  0  0  0  0  0
   -0.5100    3.5457    0.4115 H   0  0  0  0  0  0  0  0  0  0  0  0
  1  2  1  0  0  0  0
  2  3  1  0  0  0  0
  2  4  1  0  0  0  0
  2  5  1  0  0  0  0
  5  6  2  0  0  0  0
  5  7  1  0  0  0  0
  7  8  1  0  0  0  0
  7  9  1  0  0  0  0
  9 10  1  0  0  0  0
  9 11  1  0  0  0  0
  9 26  1  0  0  0  0
 11 12  1  0  0  0  0
 11 13  1  0  0  0  0
 11 14  1  0  0  0  0
 14 15  2  0  0  0  0
 14 24  1  0  0  0  0
 15 16  1  0  0  0  0
 15 17  1  0  0  0  0
 17 18  1  0  0  0  0
 17 19  2  0  0  0  0
 19 20  1  0  0  0  0
 19 22  1  0  0  0  0
 20 21  1  0  0  0  0
 22 23  1  0  0  0  0
 22 24  2  0  0  0  0
 24 25  1  0  0  0  0
 26 27  2  0  0  0  0
 26 28  1  0  0  0  0
 28 29  1  0  0  0  0
 28 30  1  0  0  0  0
 30 31  1  0  0  0  0
 30 32  1  0  0  0  0
 30 33  1  0  0  0  0
M  END
$$$$

  -OEChem-04042216043D

 33 33  0     1  0  0  0  0  0999 V2000
   -4.0137   -3.9329    2.0293 H   0  0  0  0  0  0  0  0  0  0  0  0
   -3.9966   -3.0779    1.3480 C   0  0  0  0  0  0  0  0  0  0  0  0
   -4.6865   -2.3169    1.7206 H   0  0  0  0  0  0  0  0  0  0  0  0
   -4.3275   -3.4072    0.3601 H   0  0  0  0  0  0  0  0  0  0  0  0
   -2.5937   -2.5072    1.2603 C   0  0  0  0  0  0  0  0  0  0  0  0
   -1.6809   -3.0289    1.8814 O   0  0  0  0  0  0  0  0  0  0  0  0
   -2.3509   -1.4063    0.4660 N   0  0  0  0  0  0  0  0  0  0  0  0
   -3.1449   -0.9723   -0.0040 H   0  0  0  0  0  0  0  0  0  0  0  0
   -1.0546   -0.7250    0.3439 C   0  0  1  0  0  0  0  0  0  0  0  0
   -0.4246   -0.9925    1.1982 H   0  0  0  0  0  0  0  0  0  0  0  0
   -0.2487   -1.0310   -0.9486 C   0  0  0  0  0  0  0  0  0  0  0  0
    0.4379   -0.1997   -1.1392 H   0  0  0  0  0  0  0  0  0  0  0  0
    0.3763   -1.9031   -0.7305 H   0  0  0  0  0  0  0  0  0  0  0  0
   -1.0084   -1.3663   -2.2253 C   0  0  0  0  0  0  0  0  0  0  0  0
   -0.6084   -0.7510   -3.4243 C   0  0  0  0  0  0  0  0  0  0  0  0
    0.1559    0.0205   -3.4105 H   0  0  0  0  0  0  0  0  0  0  0  0
   -1.1997   -1.0914   -4.6465 C   0  0  0  0  0  0  0  0  0  0  0  0
   -0.8911   -0.5756   -5.5491 H   0  0  0  0  0  0  0  0  0  0  0  0
   -2.1704   -2.0910   -4.7003 C   0  0  0  0  0  0  0  0  0  0  0  0
   -2.7536   -2.4343   -5.8854 O   0  0  0  0  0  0  0  0  0  0  0  0
   -2.4104   -1.8736   -6.5979 H   0  0  0  0  0  0  0  0  0  0  0  0
   -2.5257   -2.7623   -3.5346 C   0  0  0  0  0  0  0  0  0  0  0  0
   -3.2520   -3.5663   -3.5894 H   0  0  0  0  0  0  0  0  0  0  0  0
   -1.9362   -2.4213   -2.3125 C   0  0  0  0  0  0  0  0  0  0  0  0
   -2.1897   -3.0147   -1.4428 H   0  0  0  0  0  0  0  0  0  0  0  0
   -1.2834    0.7982    0.4224 C   0  0  0  0  0  0  0  0  0  0  0  0
   -2.2235    1.3172   -0.1685 O   0  0  0  0  0  0  0  0  0  0  0  0
   -0.4616    1.5873    1.2068 N   0  0  0  0  0  0  0  0  0  0  0  0
    0.2682    1.1236    1.7403 H   0  0  0  0  0  0  0  0  0  0  0  0
   -0.6489    3.0241    1.3685 C   0  0  0  0  0  0  0  0  0  0  0  0
   -1.6439    3.2381    1.7731 H   0  0  0  0  0  0  0  0  0  0  0  0
    0.0987    3.4280    2.0579 H   0  0  0  0  0  0  0  0  0  0  0  0
   -0.5427    3.5351    0.4058 H   0  0  0  0  0  0  0  0  0  0  0  0
  1  2  1  0  0  0  0
  2  3  1  0  0  0  0
  2  4  1  0  0  0  0
  2  5  1  0  0  0  0
  5  6  2  0  0  0  0
  5  7  1  0  0  0  0
  7  8  1  0  0  0  0
  7  9  1  0  0  0  0
  9 10  1  0  0  0  0
  9 11  1  0  0  0  0
  9 26  1  0  0  0  0
 11 12  1  0  0  0  0
 11 13  1  0  0  0  0
 11 14  1  0  0  0  0
 14 15  2  0  0  0  0
 14 24  1  0  0  0  0
 15 16  1  0  0  0  0
 15 17  1  0  0  0  0
 17 18  1  0  0  0  0
 17 19  2  0  0  0  0
 19 20  1  0  0  0  0
 19 22  1  0  0  0  0
 20 21  1  0  0  0  0
 22 23  1  0  0  0  0
 22 24  2  0  0  0  0
 24 25  1  0  0  0  0
 26 27  2  0  0  0  0
 26 28  1  0  0  0  0
 28 29  1  0  0  0  0
 28 30  1  0  0  0  0
 30 31  1  0  0  0  0
 30 32  1  0  0  0  0
 30 33  1  0  0  0  0
M  END
$$$$

  -OEChem-04042216043D

 33 33  0     1  0  0  0  0  0999 V2000
   -3.9687   -3.8838    2.2261 H   0  0  0  0  0  0  0  0  0  0  0  0
   -3.9795   -3.0450    1.5244 C   0  0  0  0  0  0  0  0  0  0  0  0
   -4.6295   -2.2614    1.9215 H   0  0  0  0  0  0  0  0  0  0  0  0
   -4.3796   -3.3902    0.5679 H   0  0  0  0  0  0  0  0  0  0  0  0
   -2.5742   -2.5060    1.3341 C   0  0  0  0  0  0  0  0  0  0  0  0
   -1.6314   -3.0456    1.8916 O   0  0  0  0  0  0  0  0  0  0  0  0
   -2.3672   -1.4067    0.5276 N   0  0  0  0  0  0  0  0  0  0  0  0
   -3.1872   -0.9323    0.1505 H   0  0  0  0  0  0  0  0  0  0  0  0
   -1.0751   -0.7373    0.3398 C   0  0  1  0  0  0  0  0  0  0  0  0
   -0.4119   -1.0037    1.1691 H   0  0  0  0  0  0  0  0  0  0  0  0
   -0.3096   -1.0429   -0.9795 C   0  0  0  0  0  0  0  0  0  0  0  0
    0.3722   -0.2080   -1.1734 H   0  0  0  0  0  0  0  0  0  0  0  0
    0.3208   -1.9121   -0.7665 H   0  0  0  0  0  0  0  0  0  0  0  0
   -1.0434   -1.3866   -2.2754 C   0  0  0  0  0  0  0  0  0  0  0  0
   -0.4155   -1.0143   -3.4786 C   0  0  0  0  0  0  0  0  0  0  0  0
    0.5087   -0.4447   -3.4535 H   0  0  0  0  0  0  0  0  0  0  0  0
   -0.9661   -1.3394   -4.7234 C   0  0  0  0  0  0  0  0  0  0  0  0
   -0.4683   -1.0116   -5.6293 H   0  0  0  0  0  0  0  0  0  0  0  0
   -2.1415   -2.0838   -4.7944 C   0  0  0  0  0  0  0  0  0  0  0  0
   -2.6921   -2.4062   -6.0009 O   0  0  0  0  0  0  0  0  0  0  0  0
   -2.1806   -1.9997   -6.7171 H   0  0  0  0  0  0  0  0  0  0  0  0
   -2.7433   -2.5205   -3.6195 C   0  0  0  0  0  0  0  0  0  0  0  0
   -3.6380   -3.1309   -3.6824 H   0  0  0  0  0  0  0  0  0  0  0  0
   -2.1938   -2.1959   -2.3740 C   0  0  0  0  0  0  0  0  0  0  0  0
   -2.6765   -2.6223   -1.5072 H   0  0  0  0  0  0  0  0  0  0  0  0
   -1.3011    0.7858    0.4319 C   0  0  0  0  0  0  0  0  0  0  0  0
   -2.2865    1.2986   -0.0866 O   0  0  0  0  0  0  0  0  0  0  0  0
   -0.4421    1.5759    1.1744 N   0  0  0  0  0  0  0  0  0  0  0  0
    0.3161    1.1132    1.6675 H   0  0  0  0  0  0  0  0  0  0  0  0
   -0.6484    3.0046    1.3797 C   0  0  0  0  0  0  0  0  0  0  0  0
   -1.5973    3.1844    1.8960 H   0  0  0  0  0  0  0  0  0  0  0  0
    0.1608    3.4204    1.9877 H   0  0  0  0  0  0  0  0  0  0  0  0
   -0.6645    3.5313    0.4196 H   0  0  0  0  0  0  0  0  0  0  0  0
  1  2  1  0  0  0  0
  2  3  1  0  0  0  0
  2  4  1  0  0  0  0
  2  5  1  0  0  0  0
  5  6  2  0  0  0  0
  5  7  1  0  0  0  0
  7  8  1  0  0  0  0
  7  9  1  0  0  0  0
  9 10  1  0  0  0  0
  9 11  1  0  0  0  0
  9 26  1  0  0  0  0
 11 12  1  0  0  0  0
 11 13  1  0  0  0  0
 11 14  1  0  0  0  0
 14 15  2  0  0  0  0
 14 24  1  0  0  0  0
 15 16  1  0  0  0  0
 15 17  1  0  0  0  0
 17 18  1  0  0  0  0
 17 19  2  0  0  0  0
 19 20  1  0  0  0  0
 19 22  1  0  0  0  0
 20 21  1  0  0  0  0
 22 23  1  0  0  0  0
 22 24  2  0  0  0  0
 24 25  1  0  0  0  0
 26 27  2  0  0  0  0
 26 28  1  0  0  0  0
 28 29  1  0  0  0  0
 28 30  1  0  0  0  0
 30 31  1  0  0  0  0
 30 32  1  0  0  0  0
 30 33  1  0  0  0  0
M  END
$$$$

  -OEChem-04042216043D

 33 33  0     1  0  0  0  0  0999 V2000
   -3.8929   -3.8941    2.3468 H   0  0  0  0  0  0  0  0  0  0  0  0
   -3.9266   -3.0802    1.6172 C   0  0  0  0  0  0  0  0  0  0  0  0
   -4.5762   -2.2899    2.0007 H   0  0  0  0  0  0  0  0  0  0  0  0
   -4.3419   -3.4623    0.6817 H   0  0  0  0  0  0  0  0  0  0  0  0
   -2.5316   -2.5351    1.3769 C   0  0  0  0  0  0  0  0  0  0  0  0
   -1.5672   -3.0715    1.8998 O   0  0  0  0  0  0  0  0  0  0  0  0
   -2.3595   -1.4318    0.5677 N   0  0  0  0  0  0  0  0  0  0  0  0
   -3.1961   -0.9406    0.2548 H   0  0  0  0  0  0  0  0  0  0  0  0
   -1.0781   -0.7542    0.3440 C   0  0  1  0  0  0  0  0  0  0  0  0
   -0.3915   -1.0163    1.1555 H   0  0  0  0  0  0  0  0  0  0  0  0
   -0.3488   -1.0669   -0.9934 C   0  0  0  0  0  0  0  0  0  0  0  0
    0.3208   -0.2265   -1.2061 H   0  0  0  0  0  0  0  0  0  0  0  0
    0.2928   -1.9280   -0.7796 H   0  0  0  0  0  0  0  0  0  0  0  0
   -1.0714   -1.4275   -2.2943 C   0  0  0  0  0  0  0  0  0  0  0  0
   -0.2899   -1.3561   -3.4626 C   0  0  0  0  0  0  0  0  0  0  0  0
    0.7536   -1.0627   -3.3958 H   0  0  0  0  0  0  0  0  0  0  0  0
   -0.8206   -1.6568   -4.7219 C   0  0  0  0  0  0  0  0  0  0  0  0
   -0.1862   -1.5904   -5.5989 H   0  0  0  0  0  0  0  0  0  0  0  0
   -2.1544   -2.0386   -4.8443 C   0  0  0  0  0  0  0  0  0  0  0  0
   -2.6887   -2.3313   -6.0658 O   0  0  0  0  0  0  0  0  0  0  0  0
   -2.0242   -2.1968   -6.7586 H   0  0  0  0  0  0  0  0  0  0  0  0
   -2.9467   -2.1199   -3.7049 C   0  0  0  0  0  0  0  0  0  0  0  0
   -3.9848   -2.4180   -3.8078 H   0  0  0  0  0  0  0  0  0  0  0  0
   -2.4190   -1.8203   -2.4434 C   0  0  0  0  0  0  0  0  0  0  0  0
   -3.1046   -1.9083   -1.6156 H   0  0  0  0  0  0  0  0  0  0  0  0
   -1.3106    0.7669    0.4477 C   0  0  0  0  0  0  0  0  0  0  0  0
   -2.3229    1.2697   -0.0273 O   0  0  0  0  0  0  0  0  0  0  0  0
   -0.4361    1.5621    1.1665 N   0  0  0  0  0  0  0  0  0  0  0  0
    0.3532    1.1083    1.6175 H   0  0  0  0  0  0  0  0  0  0  0  0
   -0.6454    2.9892    1.3811 C   0  0  0  0  0  0  0  0  0  0  0  0
   -1.5931    3.1649    1.9010 H   0  0  0  0  0  0  0  0  0  0  0  0
    0.1640    3.4035    1.9901 H   0  0  0  0  0  0  0  0  0  0  0  0
   -0.6647    3.5212    0.4240 H   0  0  0  0  0  0  0  0  0  0  0  0
  1  2  1  0  0  0  0
  2  3  1  0  0  0  0
  2  4  1  0  0  0  0
  2  5  1  0  0  0  0
  5  6  2  0  0  0  0
  5  7  1  0  0  0  0
  7  8  1  0  0  0  0
  7  9  1  0  0  0  0
  9 10  1  0  0  0  0
  9 11  1  0  0  0  0
  9 26  1  0  0  0  0
 11 12  1  0  0  0  0
 11 13  1  0  0  0  0
 11 14  1  0  0  0  0
 14 15  2  0  0  0  0
 14 24  1  0  0  0  0
 15 16  1  0  0  0  0
 15 17  1  0  0  0  0
 17 18  1  0  0  0  0
 17 19  2  0  0  0  0
 19 20  1  0  0  0  0
 19 22  1  0  0  0  0
 20 21  1  0  0  0  0
 22 23  1  0  0  0  0
 22 24  2  0  0  0  0
 24 25  1  0  0  0  0
 26 27  2  0  0  0  0
 26 28  1  0  0  0  0
 28 29  1  0  0  0  0
 28 30  1  0  0  0  0
 30 31  1  0  0  0  0
 30 32  1  0  0  0  0
 30 33  1  0  0  0  0
M  END
$$$$

  -OEChem-04042216043D

 33 33  0     1  0  0  0  0  0999 V2000
   -3.8298   -4.0601    1.9569 H   0  0  0  0  0  0  0  0  0  0  0  0
   -3.8718   -3.1775    1.3127 C   0  0  0  0  0  0  0  0  0  0  0  0
   -4.5556   -2.4497    1.7560 H   0  0  0  0  0  0  0  0  0  0  0  0
   -4.2516   -3.4743    0.3321 H   0  0  0  0  0  0  0  0  0  0  0  0
   -2.4899   -2.5690    1.1677 C   0  0  0  0  0  0  0  0  0  0  0  0
   -1.5309   -3.0926    1.7138 O   0  0  0  0  0  0  0  0  0  0  0  0
   -2.3245   -1.4191    0.4248 N   0  0  0  0  0  0  0  0  0  0  0  0
   -3.1649   -0.9611    0.0787 H   0  0  0  0  0  0  0  0  0  0  0  0
   -1.0583   -0.6802    0.3011 C   0  0  1  0  0  0  0  0  0  0  0  0
   -0.4025   -0.9663    1.1299 H   0  0  0  0  0  0  0  0  0  0  0  0
   -0.2958   -0.9999   -1.0065 C   0  0  0  0  0  0  0  0  0  0  0  0
    0.5254   -0.2819   -1.1013 H   0  0  0  0  0  0  0  0  0  0  0  0
    0.1576   -1.9863   -0.8640 H   0  0  0  0  0  0  0  0  0  0  0  0
   -1.0254   -1.0513   -2.3445 C   0  0  0  0  0  0  0  0  0  0  0  0
   -0.2485   -1.3542   -3.4758 C   0  0  0  0  0  0  0  0  0  0  0  0
    0.8057   -1.5874   -3.3574 H   0  0  0  0  0  0  0  0  0  0  0  0
   -0.8083   -1.3788   -4.7584 C   0  0  0  0  0  0  0  0  0  0  0  0
   -0.1846   -1.6334   -5.6083 H   0  0  0  0  0  0  0  0  0  0  0  0
   -2.1562   -1.0726   -4.9388 C   0  0  0  0  0  0  0  0  0  0  0  0
   -2.7145   -1.0901   -6.1844 O   0  0  0  0  0  0  0  0  0  0  0  0
   -2.0455   -1.3269   -6.8448 H   0  0  0  0  0  0  0  0  0  0  0  0
   -2.9323   -0.7289   -3.8364 C   0  0  0  0  0  0  0  0  0  0  0  0
   -3.9738   -0.4641   -3.9857 H   0  0  0  0  0  0  0  0  0  0  0  0
   -2.3754   -0.7039   -2.5527 C   0  0  0  0  0  0  0  0  0  0  0  0
   -3.0166   -0.3817   -1.7427 H   0  0  0  0  0  0  0  0  0  0  0  0
   -1.2914    0.8361    0.4606 C   0  0  0  0  0  0  0  0  0  0  0  0
   -2.3006    1.3609    0.0038 O   0  0  0  0  0  0  0  0  0  0  0  0
   -0.4463    1.5897    1.2553 N   0  0  0  0  0  0  0  0  0  0  0  0
    0.3310    1.1123    1.7025 H   0  0  0  0  0  0  0  0  0  0  0  0
   -0.6704    2.9998    1.5503 C   0  0  0  0  0  0  0  0  0  0  0  0
   -1.6257    3.1362    2.0680 H   0  0  0  0  0  0  0  0  0  0  0  0
    0.1285    3.3841    2.1919 H   0  0  0  0  0  0  0  0  0  0  0  0
   -0.6832    3.5868    0.6259 H   0  0  0  0  0  0  0  0  0  0  0  0
  1  2  1  0  0  0  0
  2  3  1  0  0  0  0
  2  4  1  0  0  0  0
  2  5  1  0  0  0  0
  5  6  2  0  0  0  0
  5  7  1  0  0  0  0
  7  8  1  0  0  0  0
  7  9  1  0  0  0  0
  9 10  1  0  0  0  0
  9 11  1  0  0  0  0
  9 26  1  0  0  0  0
 11 12  1  0  0  0  0
 11 13  1  0  0  0  0
 11 14  1  0  0  0  0
 14 15  2  0  0  0  0
 14 24  1  0  0  0  0
 15 16  1  0  0  0  0
 15 17  1  0  0  0  0
 17 18  1  0  0  0  0
 17 19  2  0  0  0  0
 19 20  1  0  0  0  0
 19 22  1  0  0  0  0
 20 21  1  0  0  0  0
 22 23  1  0  0  0  0
 22 24  2  0  0  0  0
 24 25  1  0  0  0  0
 26 27  2  0  0  0  0
 26 28  1  0  0  0  0
 28 29  1  0  0  0  0
 28 30  1  0  0  0  0
 30 31  1  0  0  0  0
 30 32  1  0  0  0  0
 30 33  1  0  0  0  0
M  END
$$$$

  -OEChem-04042216043D

 33 33  0     1  0  0  0  0  0999 V2000
   -3.8465   -4.0650    1.7731 H   0  0  0  0  0  0  0  0  0  0  0  0
   -3.8759   -3.1763    1.1364 C   0  0  0  0  0  0  0  0  0  0  0  0
   -4.6063   -2.4740    1.5455 H   0  0  0  0  0  0  0  0  0  0  0  0
   -4.1877   -3.4720    0.1317 H   0  0  0  0  0  0  0  0  0  0  0  0
   -2.5062   -2.5269    1.0802 C   0  0  0  0  0  0  0  0  0  0  0  0
   -1.5575   -3.0500    1.6447 O   0  0  0  0  0  0  0  0  0  0  0  0
   -2.3375   -1.3500    0.3822 N   0  0  0  0  0  0  0  0  0  0  0  0
   -3.1673   -0.9201   -0.0203 H   0  0  0  0  0  0  0  0  0  0  0  0
   -1.0758   -0.5990    0.2908 C   0  0  1  0  0  0  0  0  0  0  0  0
   -0.4382   -0.9085    1.1250 H   0  0  0  0  0  0  0  0  0  0  0  0
   -0.2926   -0.9380   -0.9980 C   0  0  0  0  0  0  0  0  0  0  0  0
    0.5255   -0.2184   -1.1031 H   0  0  0  0  0  0  0  0  0  0  0  0
    0.1640   -1.9198   -0.8322 H   0  0  0  0  0  0  0  0  0  0  0  0
   -1.0284   -1.0095   -2.3303 C   0  0  0  0  0  0  0  0  0  0  0  0
   -0.3617   -1.6284   -3.4011 C   0  0  0  0  0  0  0  0  0  0  0  0
    0.6258   -2.0542   -3.2476 H   0  0  0  0  0  0  0  0  0  0  0  0
   -0.9504   -1.7169   -4.6677 C   0  0  0  0  0  0  0  0  0  0  0  0
   -0.4148   -2.2098   -5.4715 H   0  0  0  0  0  0  0  0  0  0  0  0
   -2.2147   -1.1727   -4.8911 C   0  0  0  0  0  0  0  0  0  0  0  0
   -2.8002   -1.2516   -6.1214 O   0  0  0  0  0  0  0  0  0  0  0  0
   -2.2056   -1.6976   -6.7436 H   0  0  0  0  0  0  0  0  0  0  0  0
   -2.8799   -0.5355   -3.8481 C   0  0  0  0  0  0  0  0  0  0  0  0
   -3.8574   -0.1008   -4.0306 H   0  0  0  0  0  0  0  0  0  0  0  0
   -2.2937   -0.4446   -2.5810 C   0  0  0  0  0  0  0  0  0  0  0  0
   -2.8460    0.0800   -1.8127 H   0  0  0  0  0  0  0  0  0  0  0  0
   -1.2724    0.9184    0.4975 C   0  0  0  0  0  0  0  0  0  0  0  0
   -2.2756    1.4855    0.0816 O   0  0  0  0  0  0  0  0  0  0  0  0
   -0.4072    1.6213    1.3170 N   0  0  0  0  0  0  0  0  0  0  0  0
    0.3720    1.1141    1.7266 H   0  0  0  0  0  0  0  0  0  0  0  0
   -0.5908    3.0266    1.6595 C   0  0  0  0  0  0  0  0  0  0  0  0
   -1.5468    3.1749    2.1725 H   0  0  0  0  0  0  0  0  0  0  0  0
    0.2124    3.3624    2.3220 H   0  0  0  0  0  0  0  0  0  0  0  0
   -0.5754    3.6452    0.7562 H   0  0  0  0  0  0  0  0  0  0  0  0
  1  2  1  0  0  0  0
  2  3  1  0  0  0  0
  2  4  1  0  0  0  0
  2  5  1  0  0  0  0
  5  6  2  0  0  0  0
  5  7  1  0  0  0  0
  7  8  1  0  0  0  0
  7  9  1  0  0  0  0
  9 10  1  0  0  0  0
  9 11  1  0  0  0  0
  9 26  1  0  0  0  0
 11 12  1  0  0  0  0
 11 13  1  0  0  0  0
 11 14  1  0  0  0  0
 14 15  2  0  0  0  0
 14 24  1  0  0  0  0
 15 16  1  0  0  0  0
 15 17  1  0  0  0  0
 17 18  1  0  0  0  0
 17 19  2  0  0  0  0
 19 20  1  0  0  0  0
 19 22  1  0  0  0  0
 20 21  1  0  0  0  0
 22 23  1  0  0  0  0
 22 24  2  0  0  0  0
 24 25  1  0  0  0  0
 26 27  2  0  0  0  0
 26 28  1  0  0  0  0
 28 29  1  0  0  0  0
 28 30  1  0  0  0  0
 30 31  1  0  0  0  0
 30 32  1  0  0  0  0
 30 33  1  0  0  0  0
M  END
$$$$

  -OEChem-04042216043D

 33 33  0     1  0  0  0  0  0999 V2000
   -3.8555   -4.0501    1.6313 H   0  0  0  0  0  0  0  0  0  0  0  0
   -3.8787   -3.1411    1.0239 C   0  0  0  0  0  0  0  0  0  0  0  0
   -4.6175   -2.4547    1.4445 H   0  0  0  0  0  0  0  0  0  0  0  0
   -4.1748   -3.4042    0.0054 H   0  0  0  0  0  0  0  0  0  0  0  0
   -2.5110   -2.4854    1.0103 C   0  0  0  0  0  0  0  0  0  0  0  0
   -1.5707   -3.0174    1.5807 O   0  0  0  0  0  0  0  0  0  0  0  0
   -2.3345   -1.2940    0.3397 N   0  0  0  0  0  0  0  0  0  0  0  0
   -3.1541   -0.8703   -0.0903 H   0  0  0  0  0  0  0  0  0  0  0  0
   -1.0728   -0.5423    0.2678 C   0  0  1  0  0  0  0  0  0  0  0  0
   -0.4509   -0.8641    1.1091 H   0  0  0  0  0  0  0  0  0  0  0  0
   -0.2739   -0.9081   -1.0033 C   0  0  0  0  0  0  0  0  0  0  0  0
    0.5436   -0.1896   -1.1204 H   0  0  0  0  0  0  0  0  0  0  0  0
    0.1836   -1.8846   -0.8122 H   0  0  0  0  0  0  0  0  0  0  0  0
   -1.0166   -0.9977   -2.3302 C   0  0  0  0  0  0  0  0  0  0  0  0
   -0.5286   -1.8961   -3.2949 C   0  0  0  0  0  0  0  0  0  0  0  0
    0.3370   -2.5131   -3.0721 H   0  0  0  0  0  0  0  0  0  0  0  0
   -1.1432   -2.0199   -4.5461 C   0  0  0  0  0  0  0  0  0  0  0  0
   -0.7483   -2.7275   -5.2665 H   0  0  0  0  0  0  0  0  0  0  0  0
   -2.2533   -1.2371   -4.8608 C   0  0  0  0  0  0  0  0  0  0  0  0
   -2.8623   -1.3472   -6.0773 O   0  0  0  0  0  0  0  0  0  0  0  0
   -2.3964   -1.9984   -6.6237 H   0  0  0  0  0  0  0  0  0  0  0  0
   -2.7385   -0.3297   -3.9239 C   0  0  0  0  0  0  0  0  0  0  0  0
   -3.5964    0.2852   -4.1767 H   0  0  0  0  0  0  0  0  0  0  0  0
   -2.1255   -0.2021   -2.6727 C   0  0  0  0  0  0  0  0  0  0  0  0
   -2.5347    0.5301   -1.9904 H   0  0  0  0  0  0  0  0  0  0  0  0
   -1.2512    0.9733    0.5043 C   0  0  0  0  0  0  0  0  0  0  0  0
   -2.2668    1.5535    0.1404 O   0  0  0  0  0  0  0  0  0  0  0  0
   -0.3762    1.6463    1.3387 N   0  0  0  0  0  0  0  0  0  0  0  0
    0.3969    1.1190    1.7341 H   0  0  0  0  0  0  0  0  0  0  0  0
   -0.5752    3.0267    1.7647 C   0  0  0  0  0  0  0  0  0  0  0  0
   -1.5127    3.1250    2.3220 H   0  0  0  0  0  0  0  0  0  0  0  0
    0.2472    3.3443    2.4126 H   0  0  0  0  0  0  0  0  0  0  0  0
   -0.6101    3.6945    0.8976 H   0  0  0  0  0  0  0  0  0  0  0  0
  1  2  1  0  0  0  0
  2  3  1  0  0  0  0
  2  4  1  0  0  0  0
  2  5  1  0  0  0  0
  5  6  2  0  0  0  0
  5  7  1  0  0  0  0
  7  8  1  0  0  0  0
  7  9  1  0  0  0  0
  9 10  1  0  0  0  0
  9 11  1  0  0  0  0
  9 26  1  0  0  0  0
 11 12  1  0  0  0  0
 11 13  1  0  0  0  0
 11 14  1  0  0  0  0
 14 15  2  0  0  0  0
 14 24  1  0  0  0  0
 15 16  1  0  0  0  0
 15 17  1  0  0  0  0
 17 18  1  0  0  0  0
 17 19  2  0  0  0  0
 19 20  1  0  0  0  0
 19 22  1  0  0  0  0
 20 21  1  0  0  0  0
 22 23  1  0  0  0  0
 22 24  2  0  0  0  0
 24 25  1  0  0  0  0
 26 27  2  0  0  0  0
 26 28  1  0  0  0  0
 28 29  1  0  0  0  0
 28 30  1  0  0  0  0
 30 31  1  0  0  0  0
 30 32  1  0  0  0  0
 30 33  1  0  0  0  0
M  END
$$$$

  -OEChem-04042216043D

 33 33  0     1  0  0  0  0  0999 V2000
   -3.8766   -4.0405    1.5690 H   0  0  0  0  0  0  0  0  0  0  0  0
   -3.8868   -3.1262    0.9693 C   0  0  0  0  0  0  0  0  0  0  0  0
   -4.6239   -2.4374    1.3889 H   0  0  0  0  0  0  0  0  0  0  0  0
   -4.1753   -3.3779   -0.0541 H   0  0  0  0  0  0  0  0  0  0  0  0
   -2.5138   -2.4815    0.9742 C   0  0  0  0  0  0  0  0  0  0  0  0
   -1.5864   -3.0191    1.5603 O   0  0  0  0  0  0  0  0  0  0  0  0
   -2.3176   -1.2925    0.3057 N   0  0  0  0  0  0  0  0  0  0  0  0
   -3.1239   -0.8678   -0.1489 H   0  0  0  0  0  0  0  0  0  0  0  0
   -1.0535   -0.5436    0.2620 C   0  0  1  0  0  0  0  0  0  0  0  0
   -0.4492   -0.8635    1.1168 H   0  0  0  0  0  0  0  0  0  0  0  0
   -0.2359   -0.9211   -0.9931 C   0  0  0  0  0  0  0  0  0  0  0  0
    0.5817   -0.2029   -1.1103 H   0  0  0  0  0  0  0  0  0  0  0  0
    0.2224   -1.8956   -0.7944 H   0  0  0  0  0  0  0  0  0  0  0  0
   -0.9908   -1.0030   -2.3115 C   0  0  0  0  0  0  0  0  0  0  0  0
   -0.7506   -2.1016   -3.1548 C   0  0  0  0  0  0  0  0  0  0  0  0
   -0.0671   -2.8866   -2.8440 H   0  0  0  0  0  0  0  0  0  0  0  0
   -1.3930   -2.2152   -4.3929 C   0  0  0  0  0  0  0  0  0  0  0  0
   -1.2003   -3.0820   -5.0152 H   0  0  0  0  0  0  0  0  0  0  0  0
   -2.2705   -1.2191   -4.8207 C   0  0  0  0  0  0  0  0  0  0  0  0
   -2.9041   -1.3184   -6.0256 O   0  0  0  0  0  0  0  0  0  0  0  0
   -2.6434   -2.1389   -6.4710 H   0  0  0  0  0  0  0  0  0  0  0  0
   -2.4905   -0.1075   -4.0122 C   0  0  0  0  0  0  0  0  0  0  0  0
   -3.1598    0.6743   -4.3566 H   0  0  0  0  0  0  0  0  0  0  0  0
   -1.8499    0.0094   -2.7737 C   0  0  0  0  0  0  0  0  0  0  0  0
   -2.0284    0.9075   -2.1968 H   0  0  0  0  0  0  0  0  0  0  0  0
   -1.2460    0.9703    0.4914 C   0  0  0  0  0  0  0  0  0  0  0  0
   -2.2590    1.5406    0.1043 O   0  0  0  0  0  0  0  0  0  0  0  0
   -0.3955    1.6489    1.3463 N   0  0  0  0  0  0  0  0  0  0  0  0
    0.3674    1.1240    1.7642 H   0  0  0  0  0  0  0  0  0  0  0  0
   -0.6138    3.0271    1.7699 C   0  0  0  0  0  0  0  0  0  0  0  0
   -1.5518    3.1120    2.3286 H   0  0  0  0  0  0  0  0  0  0  0  0
    0.2052    3.3583    2.4155 H   0  0  0  0  0  0  0  0  0  0  0  0
   -0.6585    3.6924    0.9012 H   0  0  0  0  0  0  0  0  0  0  0  0
  1  2  1  0  0  0  0
  2  3  1  0  0  0  0
  2  4  1  0  0  0  0
  2  5  1  0  0  0  0
  5  6  2  0  0  0  0
  5  7  1  0  0  0  0
  7  8  1  0  0  0  0
  7  9  1  0  0  0  0
  9 10  1  0  0  0  0
  9 11  1  0  0  0  0
  9 26  1  0  0  0  0
 11 12  1  0  0  0  0
 11 13  1  0  0  0  0
 11 14  1  0  0  0  0
 14 15  2  0  0  0  0
 14 24  1  0  0  0  0
 15 16  1  0  0  0  0
 15 17  1  0  0  0  0
 17 18  1  0  0  0  0
 17 19  2  0  0  0  0
 19 20  1  0  0  0  0
 19 22  1  0  0  0  0
 20 21  1  0  0  0  0
 22 23  1  0  0  0  0
 22 24  2  0  0  0  0
 24 25  1  0  0  0  0
 26 27  2  0  0  0  0
 26 28  1  0  0  0  0
 28 29  1  0  0  0  0
 28 30  1  0  0  0  0
 30 31  1  0  0  0  0
 30 32  1  0  0  0  0
 30 33  1  0  0  0  0
M  END
$$$$

  -OEChem-04042216043D

 33 33  0     1  0  0  0  0  0999 V2000
   -3.9062   -4.0402    1.5303 H   0  0  0  0  0  0  0  0  0  0  0  0
   -3.8909   -3.1337    0.9189 C   0  0  0  0  0  0  0  0  0  0  0  0
   -4.6412   -2.4374    1.3012 H   0  0  0  0  0  0  0  0  0  0  0  0
   -4.1407   -3.3982   -0.1115 H   0  0  0  0  0  0  0  0  0  0  0  0
   -2.5175   -2.4919    0.9688 C   0  0  0  0  0  0  0  0  0  0  0  0
   -1.6161   -3.0217    1.6006 O   0  0  0  0  0  0  0  0  0  0  0  0
   -2.2883   -1.3192    0.2827 N   0  0  0  0  0  0  0  0  0  0  0  0
   -3.0716   -0.9012   -0.2168 H   0  0  0  0  0  0  0  0  0  0  0  0
   -1.0200   -0.5763    0.2739 C   0  0  1  0  0  0  0  0  0  0  0  0
   -0.4348   -0.8851    1.1459 H   0  0  0  0  0  0  0  0  0  0  0  0
   -0.1838   -0.9530   -0.9681 C   0  0  0  0  0  0  0  0  0  0  0  0
    0.6408   -0.2409   -1.0751 H   0  0  0  0  0  0  0  0  0  0  0  0
    0.2658   -1.9333   -0.7785 H   0  0  0  0  0  0  0  0  0  0  0  0
   -0.9525   -1.0087   -2.2765 C   0  0  0  0  0  0  0  0  0  0  0  0
   -1.0019   -2.2148   -2.9946 C   0  0  0  0  0  0  0  0  0  0  0  0
   -0.5251   -3.1053   -2.5956 H   0  0  0  0  0  0  0  0  0  0  0  0
   -1.6739   -2.2935   -4.2198 C   0  0  0  0  0  0  0  0  0  0  0  0
   -1.7089   -3.2395   -4.7489 H   0  0  0  0  0  0  0  0  0  0  0  0
   -2.2904   -1.1616   -4.7544 C   0  0  0  0  0  0  0  0  0  0  0  0
   -2.9503   -1.2263   -5.9476 O   0  0  0  0  0  0  0  0  0  0  0  0
   -2.9011   -2.1256   -6.3061 H   0  0  0  0  0  0  0  0  0  0  0  0
   -2.2217    0.0469   -4.0660 C   0  0  0  0  0  0  0  0  0  0  0  0
   -2.6910    0.9277   -4.4918 H   0  0  0  0  0  0  0  0  0  0  0  0
   -1.5497    0.1299   -2.8417 C   0  0  0  0  0  0  0  0  0  0  0  0
   -1.4941    1.0937   -2.3474 H   0  0  0  0  0  0  0  0  0  0  0  0
   -1.2339    0.9398    0.4624 C   0  0  0  0  0  0  0  0  0  0  0  0
   -2.2136    1.4990   -0.0165 O   0  0  0  0  0  0  0  0  0  0  0  0
   -0.4286    1.6479    1.3367 N   0  0  0  0  0  0  0  0  0  0  0  0
    0.3089    1.1384    1.8150 H   0  0  0  0  0  0  0  0  0  0  0  0
   -0.6607    3.0438    1.6884 C   0  0  0  0  0  0  0  0  0  0  0  0
   -1.6358    3.1601    2.1729 H   0  0  0  0  0  0  0  0  0  0  0  0
    0.1127    3.3934    2.3789 H   0  0  0  0  0  0  0  0  0  0  0  0
   -0.6343    3.6743    0.7934 H   0  0  0  0  0  0  0  0  0  0  0  0
  1  2  1  0  0  0  0
  2  3  1  0  0  0  0
  2  4  1  0  0  0  0
  2  5  1  0  0  0  0
  5  6  2  0  0  0  0
  5  7  1  0  0  0  0
  7  8  1  0  0  0  0
  7  9  1  0  0  0  0
  9 10  1  0  0  0  0
  9 11  1  0  0  0  0
  9 26  1  0  0  0  0
 11 12  1  0  0  0  0
 11 13  1  0  0  0  0
 11 14  1  0  0  0  0
 14 15  2  0  0  0  0
 14 24  1  0  0  0  0
 15 16  1  0  0  0  0
 15 17  1  0  0  0  0
 17 18  1  0  0  0  0
 17 19  2  0  0  0  0
 19 20  1  0  0  0  0
 19 22  1  0  0  0  0
 20 21  1  0  0  0  0
 22 23  1  0  0  0  0
 22 24  2  0  0  0  0
 24 25  1  0  0  0  0
 26 27  2  0  0  0  0
 26 28  1  0  0  0  0
 28 29  1  0  0  0  0
 28 30  1  0  0  0  0
 30 31  1  0  0  0  0
 30 32  1  0  0  0  0
 30 33  1  0  0  0  0
M  END
$$$$

  -OEChem-04042216043D

 33 33  0     1  0  0  0  0  0999 V2000
   -3.9394   -4.0404    1.5075 H   0  0  0  0  0  0  0  0  0  0  0  0
   -3.9027   -3.1399    0.8882 C   0  0  0  0  0  0  0  0  0  0  0  0
   -4.6618   -2.4379    1.2417 H   0  0  0  0  0  0  0  0  0  0  0  0
   -4.1233   -3.4132   -0.1465 H   0  0  0  0  0  0  0  0  0  0  0  0
   -2.5289   -2.5020    0.9720 C   0  0  0  0  0  0  0  0  0  0  0  0
   -1.6538   -3.0198    1.6488 O   0  0  0  0  0  0  0  0  0  0  0  0
   -2.2686   -1.3474    0.2666 N   0  0  0  0  0  0  0  0  0  0  0  0
   -3.0280   -0.9417   -0.2783 H   0  0  0  0  0  0  0  0  0  0  0  0
   -0.9970   -0.6099    0.2843 C   0  0  1  0  0  0  0  0  0  0  0  0
   -0.4275   -0.9077    1.1703 H   0  0  0  0  0  0  0  0  0  0  0  0
   -0.1416   -0.9757   -0.9458 C   0  0  0  0  0  0  0  0  0  0  0  0
    0.6884   -0.2674   -1.0354 H   0  0  0  0  0  0  0  0  0  0  0  0
    0.3005   -1.9621   -0.7702 H   0  0  0  0  0  0  0  0  0  0  0  0
   -0.9114   -1.0072   -2.2512 C   0  0  0  0  0  0  0  0  0  0  0  0
   -1.2449   -2.2399   -2.8343 C   0  0  0  0  0  0  0  0  0  0  0  0
   -0.9665   -3.1664   -2.3401 H   0  0  0  0  0  0  0  0  0  0  0  0
   -1.9404   -2.2892   -4.0480 C   0  0  0  0  0  0  0  0  0  0  0  0
   -2.1915   -3.2517   -4.4800 H   0  0  0  0  0  0  0  0  0  0  0  0
   -2.3041   -1.1074   -4.6961 C   0  0  0  0  0  0  0  0  0  0  0  0
   -2.9807   -1.1455   -5.8809 O   0  0  0  0  0  0  0  0  0  0  0  0
   -3.1278   -2.0652   -6.1497 H   0  0  0  0  0  0  0  0  0  0  0  0
   -1.9698    0.1202   -4.1280 C   0  0  0  0  0  0  0  0  0  0  0  0
   -2.2554    1.0358   -4.6356 H   0  0  0  0  0  0  0  0  0  0  0  0
   -1.2739    0.1748   -2.9153 C   0  0  0  0  0  0  0  0  0  0  0  0
   -1.0234    1.1437   -2.4928 H   0  0  0  0  0  0  0  0  0  0  0  0
   -1.2205    0.9092    0.4287 C   0  0  0  0  0  0  0  0  0  0  0  0
   -2.1504    1.4639   -0.1449 O   0  0  0  0  0  0  0  0  0  0  0  0
   -0.4501    1.6414    1.3140 N   0  0  0  0  0  0  0  0  0  0  0  0
    0.2493    1.1407    1.8547 H   0  0  0  0  0  0  0  0  0  0  0  0
   -0.6801    3.0530    1.5974 C   0  0  0  0  0  0  0  0  0  0  0  0
   -1.6759    3.1993    2.0288 H   0  0  0  0  0  0  0  0  0  0  0  0
    0.0637    3.4225    2.3099 H   0  0  0  0  0  0  0  0  0  0  0  0
   -0.6026    3.6456    0.6799 H   0  0  0  0  0  0  0  0  0  0  0  0
  1  2  1  0  0  0  0
  2  3  1  0  0  0  0
  2  4  1  0  0  0  0
  2  5  1  0  0  0  0
  5  6  2  0  0  0  0
  5  7  1  0  0  0  0
  7  8  1  0  0  0  0
  7  9  1  0  0  0  0
  9 10  1  0  0  0  0
  9 11  1  0  0  0  0
  9 26  1  0  0  0  0
 11 12  1  0  0  0  0
 11 13  1  0  0  0  0
 11 14  1  0  0  0  0
 14 15  2  0  0  0  0
 14 24  1  0  0  0  0
 15 16  1  0  0  0  0
 15 17  1  0  0  0  0
 17 18  1  0  0  0  0
 17 19  2  0  0  0  0
 19 20  1  0  0  0  0
 19 22  1  0  0  0  0
 20 21  1  0  0  0  0
 22 23  1  0  0  0  0
 22 24  2  0  0  0  0
 24 25  1  0  0  0  0
 26 27  2  0  0  0  0
 26 28  1  0  0  0  0
 28 29  1  0  0  0  0
 28 30  1  0  0  0  0
 30 31  1  0  0  0  0
 30 32  1  0  0  0  0
 30 33  1  0  0  0  0
M  END
$$$$

  -OEChem-04042216043D

 33 33  0     1  0  0  0  0  0999 V2000
   -3.9642   -4.0367    1.5510 H   0  0  0  0  0  0  0  0  0  0  0  0
   -3.9171   -3.1486    0.9146 C   0  0  0  0  0  0  0  0  0  0  0  0
   -4.6741   -2.4350    1.2488 H   0  0  0  0  0  0  0  0  0  0  0  0
   -4.1320   -3.4406   -0.1160 H   0  0  0  0  0  0  0  0  0  0  0  0
   -2.5400   -2.5180    0.9958 C   0  0  0  0  0  0  0  0  0  0  0  0
   -1.6720   -3.0314    1.6847 O   0  0  0  0  0  0  0  0  0  0  0  0
   -2.2664   -1.3783    0.2715 N   0  0  0  0  0  0  0  0  0  0  0  0
   -3.0203   -0.9711   -0.2803 H   0  0  0  0  0  0  0  0  0  0  0  0
   -0.9922   -0.6459    0.2947 C   0  0  1  0  0  0  0  0  0  0  0  0
   -0.4301   -0.9329    1.1890 H   0  0  0  0  0  0  0  0  0  0  0  0
   -0.1223   -0.9945   -0.9307 C   0  0  0  0  0  0  0  0  0  0  0  0
    0.7124   -0.2893   -0.9988 H   0  0  0  0  0  0  0  0  0  0  0  0
    0.3130   -1.9862   -0.7685 H   0  0  0  0  0  0  0  0  0  0  0  0
   -0.8794   -1.0113   -2.2427 C   0  0  0  0  0  0  0  0  0  0  0  0
   -1.4810   -2.1944   -2.7003 C   0  0  0  0  0  0  0  0  0  0  0  0
   -1.3968   -3.1047   -2.1133 H   0  0  0  0  0  0  0  0  0  0  0  0
   -2.1843   -2.2131   -3.9107 C   0  0  0  0  0  0  0  0  0  0  0  0
   -2.6374   -3.1377   -4.2506 H   0  0  0  0  0  0  0  0  0  0  0  0
   -2.2978   -1.0487   -4.6734 C   0  0  0  0  0  0  0  0  0  0  0  0
   -2.9781   -1.0558   -5.8572 O   0  0  0  0  0  0  0  0  0  0  0  0
   -3.3102   -1.9469   -6.0445 H   0  0  0  0  0  0  0  0  0  0  0  0
   -1.7119    0.1316   -4.2198 C   0  0  0  0  0  0  0  0  0  0  0  0
   -1.8131    1.0352   -4.8118 H   0  0  0  0  0  0  0  0  0  0  0  0
   -1.0069    0.1551   -3.0113 C   0  0  0  0  0  0  0  0  0  0  0  0
   -0.5707    1.0885   -2.6672 H   0  0  0  0  0  0  0  0  0  0  0  0
   -1.2243    0.8744    0.4069 C   0  0  0  0  0  0  0  0  0  0  0  0
   -2.1261    1.4175   -0.2200 O   0  0  0  0  0  0  0  0  0  0  0  0
   -0.4730    1.6290    1.2900 N   0  0  0  0  0  0  0  0  0  0  0  0
    0.2119    1.1424    1.8612 H   0  0  0  0  0  0  0  0  0  0  0  0
   -0.6876    3.0544    1.5094 C   0  0  0  0  0  0  0  0  0  0  0  0
   -1.6962    3.2360    1.8955 H   0  0  0  0  0  0  0  0  0  0  0  0
    0.0352    3.4380    2.2358 H   0  0  0  0  0  0  0  0  0  0  0  0
   -0.5634    3.6092    0.5735 H   0  0  0  0  0  0  0  0  0  0  0  0
  1  2  1  0  0  0  0
  2  3  1  0  0  0  0
  2  4  1  0  0  0  0
  2  5  1  0  0  0  0
  5  6  2  0  0  0  0
  5  7  1  0  0  0  0
  7  8  1  0  0  0  0
  7  9  1  0  0  0  0
  9 10  1  0  0  0  0
  9 11  1  0  0  0  0
  9 26  1  0  0  0  0
 11 12  1  0  0  0  0
 11 13  1  0  0  0  0
 11 14  1  0  0  0  0
 14 15  2  0  0  0  0
 14 24  1  0  0  0  0
 15 16  1  0  0  0  0
 15 17  1  0  0  0  0
 17 18  1  0  0  0  0
 17 19  2  0  0  0  0
 19 20  1  0  0  0  0
 19 22  1  0  0  0  0
 20 21  1  0  0  0  0
 22 23  1  0  0  0  0
 22 24  2  0  0  0  0
 24 25  1  0  0  0  0
 26 27  2  0  0  0  0
 26 28  1  0  0  0  0
 28 29  1  0  0  0  0
 28 30  1  0  0  0  0
 30 31  1  0  0  0  0
 30 32  1  0  0  0  0
 30 33  1  0  0  0  0
M  END
$$$$

  -OEChem-04042216043D

 33 33  0     1  0  0  0  0  0999 V2000
   -3.9885   -4.0058    1.6710 H   0  0  0  0  0  0  0  0  0  0  0  0
   -3.9412   -3.1287    1.0196 C   0  0  0  0  0  0  0  0  0  0  0  0
   -4.6663   -2.3901    1.3702 H   0  0  0  0  0  0  0  0  0  0  0  0
   -4.2021   -3.4298    0.0022 H   0  0  0  0  0  0  0  0  0  0  0  0
   -2.5454   -2.5348    1.0423 C   0  0  0  0  0  0  0  0  0  0  0  0
   -1.6679   -3.0587    1.7105 O   0  0  0  0  0  0  0  0  0  0  0  0
   -2.2701   -1.4099    0.2960 N   0  0  0  0  0  0  0  0  0  0  0  0
   -3.0381   -0.9806   -0.2188 H   0  0  0  0  0  0  0  0  0  0  0  0
   -0.9907   -0.6861    0.2943 C   0  0  1  0  0  0  0  0  0  0  0  0
   -0.4213   -0.9614    1.1876 H   0  0  0  0  0  0  0  0  0  0  0  0
   -0.1158   -1.0136   -0.9355 C   0  0  0  0  0  0  0  0  0  0  0  0
    0.7207   -0.3084   -0.9829 H   0  0  0  0  0  0  0  0  0  0  0  0
    0.3178   -2.0076   -0.7853 H   0  0  0  0  0  0  0  0  0  0  0  0
   -0.8529   -1.0240   -2.2601 C   0  0  0  0  0  0  0  0  0  0  0  0
   -1.6982   -2.0883   -2.6140 C   0  0  0  0  0  0  0  0  0  0  0  0
   -1.8020   -2.9388   -1.9470 H   0  0  0  0  0  0  0  0  0  0  0  0
   -2.3954   -2.0726   -3.8277 C   0  0  0  0  0  0  0  0  0  0  0  0
   -3.0361   -2.9083   -4.0862 H   0  0  0  0  0  0  0  0  0  0  0  0
   -2.2636   -0.9883   -4.6974 C   0  0  0  0  0  0  0  0  0  0  0  0
   -2.9352   -0.9637   -5.8857 O   0  0  0  0  0  0  0  0  0  0  0  0
   -3.4565   -1.7742   -5.9890 H   0  0  0  0  0  0  0  0  0  0  0  0
   -1.4399    0.0793   -4.3467 C   0  0  0  0  0  0  0  0  0  0  0  0
   -1.3534    0.9249   -5.0211 H   0  0  0  0  0  0  0  0  0  0  0  0
   -0.7398    0.0666   -3.1354 C   0  0  0  0  0  0  0  0  0  0  0  0
   -0.1181    0.9175   -2.8737 H   0  0  0  0  0  0  0  0  0  0  0  0
   -1.2349    0.8336    0.3830 C   0  0  0  0  0  0  0  0  0  0  0  0
   -2.1553    1.3539   -0.2365 O   0  0  0  0  0  0  0  0  0  0  0  0
   -0.4830    1.6100    1.2463 N   0  0  0  0  0  0  0  0  0  0  0  0
    0.2211    1.1422    1.8099 H   0  0  0  0  0  0  0  0  0  0  0  0
   -0.7191    3.0338    1.4523 C   0  0  0  0  0  0  0  0  0  0  0  0
   -1.7286    3.2021    1.8420 H   0  0  0  0  0  0  0  0  0  0  0  0
    0.0010    3.4365    2.1710 H   0  0  0  0  0  0  0  0  0  0  0  0
   -0.6088    3.5806    0.5098 H   0  0  0  0  0  0  0  0  0  0  0  0
  1  2  1  0  0  0  0
  2  3  1  0  0  0  0
  2  4  1  0  0  0  0
  2  5  1  0  0  0  0
  5  6  2  0  0  0  0
  5  7  1  0  0  0  0
  7  8  1  0  0  0  0
  7  9  1  0  0  0  0
  9 10  1  0  0  0  0
  9 11  1  0  0  0  0
  9 26  1  0  0  0  0
 11 12  1  0  0  0  0
 11 13  1  0  0  0  0
 11 14  1  0  0  0  0
 14 15  2  0  0  0  0
 14 24  1  0  0  0  0
 15 16  1  0  0  0  0
 15 17  1  0  0  0  0
 17 18  1  0  0  0  0
 17 19  2  0  0  0  0
 19 20  1  0  0  0  0
 19 22  1  0  0  0  0
 20 21  1  0  0  0  0
 22 23  1  0  0  0  0
 22 24  2  0  0  0  0
 24 25  1  0  0  0  0
 26 27  2  0  0  0  0
 26 28  1  0  0  0  0
 28 29  1  0  0  0  0
 28 30  1  0  0  0  0
 30 31  1  0  0  0  0
 30 32  1  0  0  0  0
 30 33  1  0  0  0  0
M  END
$$$$

  -OEChem-04042216043D

 33 33  0     1  0  0  0  0  0999 V2000
   -3.9663   -3.9848    1.8557 H   0  0  0  0  0  0  0  0  0  0  0  0
   -3.9441   -3.1195    1.1873 C   0  0  0  0  0  0  0  0  0  0  0  0
   -4.6354   -2.3635    1.5676 H   0  0  0  0  0  0  0  0  0  0  0  0
   -4.2693   -3.4333    0.1925 H   0  0  0  0  0  0  0  0  0  0  0  0
   -2.5405   -2.5481    1.1178 C   0  0  0  0  0  0  0  0  0  0  0  0
   -1.6327   -3.0798    1.7374 O   0  0  0  0  0  0  0  0  0  0  0  0
   -2.2946   -1.4294    0.3506 N   0  0  0  0  0  0  0  0  0  0  0  0
   -3.0911   -0.9723   -0.0924 H   0  0  0  0  0  0  0  0  0  0  0  0
   -1.0131   -0.7124    0.2955 C   0  0  1  0  0  0  0  0  0  0  0  0
   -0.4180   -0.9798    1.1744 H   0  0  0  0  0  0  0  0  0  0  0  0
   -0.1534   -1.0213   -0.9544 C   0  0  0  0  0  0  0  0  0  0  0  0
    0.6826   -0.3148   -0.9886 H   0  0  0  0  0  0  0  0  0  0  0  0
    0.2826   -2.0152   -0.8114 H   0  0  0  0  0  0  0  0  0  0  0  0
   -0.8641   -1.0392   -2.2984 C   0  0  0  0  0  0  0  0  0  0  0  0
   -1.9185   -1.9233   -2.5870 C   0  0  0  0  0  0  0  0  0  0  0  0
   -2.2134   -2.6768   -1.8651 H   0  0  0  0  0  0  0  0  0  0  0  0
   -2.5786   -1.8749   -3.8206 C   0  0  0  0  0  0  0  0  0  0  0  0
   -3.3822   -2.5738   -4.0237 H   0  0  0  0  0  0  0  0  0  0  0  0
   -2.2003   -0.9377   -4.7827 C   0  0  0  0  0  0  0  0  0  0  0  0
   -2.8393   -0.8793   -5.9877 O   0  0  0  0  0  0  0  0  0  0  0  0
   -3.5623   -1.5244   -6.0105 H   0  0  0  0  0  0  0  0  0  0  0  0
   -1.1607   -0.0535   -4.5077 C   0  0  0  0  0  0  0  0  0  0  0  0
   -0.8758    0.6771   -5.2574 H   0  0  0  0  0  0  0  0  0  0  0  0
   -0.4989   -0.0988   -3.2760 C   0  0  0  0  0  0  0  0  0  0  0  0
    0.2968    0.6143   -3.0819 H   0  0  0  0  0  0  0  0  0  0  0  0
   -1.2667    0.8060    0.3837 C   0  0  0  0  0  0  0  0  0  0  0  0
   -2.2263    1.3098   -0.1886 O   0  0  0  0  0  0  0  0  0  0  0  0
   -0.4894    1.5936    1.2138 N   0  0  0  0  0  0  0  0  0  0  0  0
    0.2430    1.1352    1.7482 H   0  0  0  0  0  0  0  0  0  0  0  0
   -0.7373    3.0136    1.4319 C   0  0  0  0  0  0  0  0  0  0  0  0
   -1.7304    3.1672    1.8672 H   0  0  0  0  0  0  0  0  0  0  0  0
    0.0087    3.4266    2.1175 H   0  0  0  0  0  0  0  0  0  0  0  0
   -0.6781    3.5626    0.4862 H   0  0  0  0  0  0  0  0  0  0  0  0
  1  2  1  0  0  0  0
  2  3  1  0  0  0  0
  2  4  1  0  0  0  0
  2  5  1  0  0  0  0
  5  6  2  0  0  0  0
  5  7  1  0  0  0  0
  7  8  1  0  0  0  0
  7  9  1  0  0  0  0
  9 10  1  0  0  0  0
  9 11  1  0  0  0  0
  9 26  1  0  0  0  0
 11 12  1  0  0  0  0
 11 13  1  0  0  0  0
 11 14  1  0  0  0  0
 14 15  2  0  0  0  0
 14 24  1  0  0  0  0
 15 16  1  0  0  0  0
 15 17  1  0  0  0  0
 17 18  1  0  0  0  0
 17 19  2  0  0  0  0
 19 20  1  0  0  0  0
 19 22  1  0  0  0  0
 20 21  1  0  0  0  0
 22 23  1  0  0  0  0
 22 24  2  0  0  0  0
 24 25  1  0  0  0  0
 26 27  2  0  0  0  0
 26 28  1  0  0  0  0
 28 29  1  0  0  0  0
 28 30  1  0  0  0  0
 30 31  1  0  0  0  0
 30 32  1  0  0  0  0
 30 33  1  0  0  0  0
M  END
$$$$

  -OEChem-04042216043D

 33 33  0     1  0  0  0  0  0999 V2000
   -3.9182   -3.9678    2.0430 H   0  0  0  0  0  0  0  0  0  0  0  0
   -3.9228   -3.1230    1.3486 C   0  0  0  0  0  0  0  0  0  0  0  0
   -4.5897   -2.3502    1.7387 H   0  0  0  0  0  0  0  0  0  0  0  0
   -4.2975   -3.4634    0.3804 H   0  0  0  0  0  0  0  0  0  0  0  0
   -2.5201   -2.5669    1.1936 C   0  0  0  0  0  0  0  0  0  0  0  0
   -1.5810   -3.1104    1.7533 O   0  0  0  0  0  0  0  0  0  0  0  0
   -2.3127   -1.4458    0.4187 N   0  0  0  0  0  0  0  0  0  0  0  0
   -3.1340   -0.9647    0.0532 H   0  0  0  0  0  0  0  0  0  0  0  0
   -1.0352   -0.7319    0.3043 C   0  0  1  0  0  0  0  0  0  0  0  0
   -0.4036   -0.9998    1.1573 H   0  0  0  0  0  0  0  0  0  0  0  0
   -0.2153   -1.0197   -0.9796 C   0  0  0  0  0  0  0  0  0  0  0  0
    0.6169   -0.3088   -1.0130 H   0  0  0  0  0  0  0  0  0  0  0  0
    0.2282   -2.0126   -0.8531 H   0  0  0  0  0  0  0  0  0  0  0  0
   -0.9166   -1.0385   -2.3347 C   0  0  0  0  0  0  0  0  0  0  0  0
   -2.1408   -1.6864   -2.5895 C   0  0  0  0  0  0  0  0  0  0  0  0
   -2.6273   -2.2886   -1.8338 H   0  0  0  0  0  0  0  0  0  0  0  0
   -2.7456   -1.6161   -3.8505 C   0  0  0  0  0  0  0  0  0  0  0  0
   -3.6837   -2.1322   -4.0214 H   0  0  0  0  0  0  0  0  0  0  0  0
   -2.1429   -0.8954   -4.8808 C   0  0  0  0  0  0  0  0  0  0  0  0
   -2.7255   -0.8197   -6.1130 O   0  0  0  0  0  0  0  0  0  0  0  0
   -3.5801   -1.2770   -6.1035 H   0  0  0  0  0  0  0  0  0  0  0  0
   -0.9325   -0.2514   -4.6473 C   0  0  0  0  0  0  0  0  0  0  0  0
   -0.4685    0.3094   -5.4517 H   0  0  0  0  0  0  0  0  0  0  0  0
   -0.3256   -0.3198   -3.3891 C   0  0  0  0  0  0  0  0  0  0  0  0
    0.6134    0.2037   -3.2379 H   0  0  0  0  0  0  0  0  0  0  0  0
   -1.2964    0.7840    0.4120 C   0  0  0  0  0  0  0  0  0  0  0  0
   -2.2919    1.2775   -0.1062 O   0  0  0  0  0  0  0  0  0  0  0  0
   -0.4888    1.5779    1.2067 N   0  0  0  0  0  0  0  0  0  0  0  0
    0.2799    1.1291    1.6965 H   0  0  0  0  0  0  0  0  0  0  0  0
   -0.7321    2.9985    1.4274 C   0  0  0  0  0  0  0  0  0  0  0  0
   -1.7146    3.1536    1.8857 H   0  0  0  0  0  0  0  0  0  0  0  0
    0.0292    3.4131    2.0950 H   0  0  0  0  0  0  0  0  0  0  0  0
   -0.6953    3.5450    0.4790 H   0  0  0  0  0  0  0  0  0  0  0  0
  1  2  1  0  0  0  0
  2  3  1  0  0  0  0
  2  4  1  0  0  0  0
  2  5  1  0  0  0  0
  5  6  2  0  0  0  0
  5  7  1  0  0  0  0
  7  8  1  0  0  0  0
  7  9  1  0  0  0  0
  9 10  1  0  0  0  0
  9 11  1  0  0  0  0
  9 26  1  0  0  0  0
 11 12  1  0  0  0  0
 11 13  1  0  0  0  0
 11 14  1  0  0  0  0
 14 15  2  0  0  0  0
 14 24  1  0  0  0  0
 15 16  1  0  0  0  0
 15 17  1  0  0  0  0
 17 18  1  0  0  0  0
 17 19  2  0  0  0  0
 19 20  1  0  0  0  0
 19 22  1  0  0  0  0
 20 21  1  0  0  0  0
 22 23  1  0  0  0  0
 22 24  2  0  0  0  0
 24 25  1  0  0  0  0
 26 27  2  0  0  0  0
 26 28  1  0  0  0  0
 28 29  1  0  0  0  0
 28 30  1  0  0  0  0
 30 31  1  0  0  0  0
 30 32  1  0  0  0  0
 30 33  1  0  0  0  0
M  END
$$$$

  -OEChem-04042216043D

 33 33  0     1  0  0  0  0  0999 V2000
   -3.8541   -3.9938    2.1120 H   0  0  0  0  0  0  0  0  0  0  0  0
   -3.8927   -3.1260    1.4475 C   0  0  0  0  0  0  0  0  0  0  0  0
   -4.5282   -2.3623    1.9023 H   0  0  0  0  0  0  0  0  0  0  0  0
   -4.3283   -3.4320    0.4934 H   0  0  0  0  0  0  0  0  0  0  0  0
   -2.4965   -2.5748    1.2268 C   0  0  0  0  0  0  0  0  0  0  0  0
   -1.5334   -3.1296    1.7324 O   0  0  0  0  0  0  0  0  0  0  0  0
   -2.3220   -1.4423    0.4597 N   0  0  0  0  0  0  0  0  0  0  0  0
   -3.1592   -0.9371    0.1717 H   0  0  0  0  0  0  0  0  0  0  0  0
   -1.0479   -0.7296    0.3045 C   0  0  1  0  0  0  0  0  0  0  0  0
   -0.3844   -1.0099    1.1290 H   0  0  0  0  0  0  0  0  0  0  0  0
   -0.2757   -0.9969   -1.0133 C   0  0  0  0  0  0  0  0  0  0  0  0
    0.5511   -0.2802   -1.0559 H   0  0  0  0  0  0  0  0  0  0  0  0
    0.1749   -1.9892   -0.9095 H   0  0  0  0  0  0  0  0  0  0  0  0
   -0.9824   -1.0009   -2.3685 C   0  0  0  0  0  0  0  0  0  0  0  0
   -2.3241   -1.3652   -2.6024 C   0  0  0  0  0  0  0  0  0  0  0  0
   -2.9759   -1.7100   -1.8141 H   0  0  0  0  0  0  0  0  0  0  0  0
   -2.8724   -1.3130   -3.8899 C   0  0  0  0  0  0  0  0  0  0  0  0
   -3.9084   -1.5969   -4.0373 H   0  0  0  0  0  0  0  0  0  0  0  0
   -2.0954   -0.9041   -4.9724 C   0  0  0  0  0  0  0  0  0  0  0  0
   -2.6231   -0.8503   -6.2302 O   0  0  0  0  0  0  0  0  0  0  0  0
   -3.5643   -1.0812   -6.2041 H   0  0  0  0  0  0  0  0  0  0  0  0
   -0.7667   -0.5524   -4.7638 C   0  0  0  0  0  0  0  0  0  0  0  0
   -0.1640   -0.2383   -5.6094 H   0  0  0  0  0  0  0  0  0  0  0  0
   -0.2166   -0.6004   -3.4791 C   0  0  0  0  0  0  0  0  0  0  0  0
    0.8240   -0.3172   -3.3516 H   0  0  0  0  0  0  0  0  0  0  0  0
   -1.3071    0.7839    0.4464 C   0  0  0  0  0  0  0  0  0  0  0  0
   -2.3317    1.2775   -0.0125 O   0  0  0  0  0  0  0  0  0  0  0  0
   -0.4707    1.5685    1.2197 N   0  0  0  0  0  0  0  0  0  0  0  0
    0.3265    1.1183    1.6600 H   0  0  0  0  0  0  0  0  0  0  0  0
   -0.7198    2.9801    1.4866 C   0  0  0  0  0  0  0  0  0  0  0  0
   -1.6689    3.1084    2.0179 H   0  0  0  0  0  0  0  0  0  0  0  0
    0.0816    3.3957    2.1051 H   0  0  0  0  0  0  0  0  0  0  0  0
   -0.7615    3.5456    0.5496 H   0  0  0  0  0  0  0  0  0  0  0  0
  1  2  1  0  0  0  0
  2  3  1  0  0  0  0
  2  4  1  0  0  0  0
  2  5  1  0  0  0  0
  5  6  2  0  0  0  0
  5  7  1  0  0  0  0
  7  8  1  0  0  0  0
  7  9  1  0  0  0  0
  9 10  1  0  0  0  0
  9 11  1  0  0  0  0
  9 26  1  0  0  0  0
 11 12  1  0  0  0  0
 11 13  1  0  0  0  0
 11 14  1  0  0  0  0
 14 15  2  0  0  0  0
 14 24  1  0  0  0  0
 15 16  1  0  0  0  0
 15 17  1  0  0  0  0
 17 18  1  0  0  0  0
 17 19  2  0  0  0  0
 19 20  1  0  0  0  0
 19 22  1  0  0  0  0
 20 21  1  0  0  0  0
 22 23  1  0  0  0  0
 22 24  2  0  0  0  0
 24 25  1  0  0  0  0
 26 27  2  0  0  0  0
 26 28  1  0  0  0  0
 28 29  1  0  0  0  0
 28 30  1  0  0  0  0
 30 31  1  0  0  0  0
 30 32  1  0  0  0  0
 30 33  1  0  0  0  0
M  END
$$$$

  -OEChem-04042216043D

 33 33  0     1  0  0  0  0  0999 V2000
   -3.8425   -4.0066    2.0585 H   0  0  0  0  0  0  0  0  0  0  0  0
   -3.8829   -3.1295    1.4064 C   0  0  0  0  0  0  0  0  0  0  0  0
   -4.5171   -2.3724    1.8739 H   0  0  0  0  0  0  0  0  0  0  0  0
   -4.3208   -3.4221    0.4491 H   0  0  0  0  0  0  0  0  0  0  0  0
   -2.4879   -2.5750    1.1878 C   0  0  0  0  0  0  0  0  0  0  0  0
   -1.5220   -3.1403    1.6763 O   0  0  0  0  0  0  0  0  0  0  0  0
   -2.3189   -1.4256    0.4451 N   0  0  0  0  0  0  0  0  0  0  0  0
   -3.1589   -0.9079    0.1921 H   0  0  0  0  0  0  0  0  0  0  0  0
   -1.0434   -0.7103    0.3030 C   0  0  1  0  0  0  0  0  0  0  0  0
   -0.3736   -1.0095    1.1157 H   0  0  0  0  0  0  0  0  0  0  0  0
   -0.2930   -0.9640   -1.0283 C   0  0  0  0  0  0  0  0  0  0  0  0
    0.5357   -0.2498   -1.0770 H   0  0  0  0  0  0  0  0  0  0  0  0
    0.1528   -1.9602   -0.9398 H   0  0  0  0  0  0  0  0  0  0  0  0
   -1.0062   -0.9434   -2.3787 C   0  0  0  0  0  0  0  0  0  0  0  0
   -2.3989   -0.9957   -2.5910 C   0  0  0  0  0  0  0  0  0  0  0  0
   -3.1079   -1.0069   -1.7771 H   0  0  0  0  0  0  0  0  0  0  0  0
   -2.9312   -0.9985   -3.8864 C   0  0  0  0  0  0  0  0  0  0  0  0
   -4.0071   -1.0271   -4.0181 H   0  0  0  0  0  0  0  0  0  0  0  0
   -2.0887   -0.9580   -4.9960 C   0  0  0  0  0  0  0  0  0  0  0  0
   -2.5999   -0.9569   -6.2615 O   0  0  0  0  0  0  0  0  0  0  0  0
   -3.5686   -0.9441   -6.2266 H   0  0  0  0  0  0  0  0  0  0  0  0
   -0.7121   -0.9165   -4.8063 C   0  0  0  0  0  0  0  0  0  0  0  0
   -0.0593   -0.8889   -5.6725 H   0  0  0  0  0  0  0  0  0  0  0  0
   -0.1775   -0.9105   -3.5143 C   0  0  0  0  0  0  0  0  0  0  0  0
    0.9017   -0.8836   -3.3978 H   0  0  0  0  0  0  0  0  0  0  0  0
   -1.2959    0.8001    0.4789 C   0  0  0  0  0  0  0  0  0  0  0  0
   -2.3212    1.3060    0.0345 O   0  0  0  0  0  0  0  0  0  0  0  0
   -0.4545    1.5640    1.2672 N   0  0  0  0  0  0  0  0  0  0  0  0
    0.3457    1.1025    1.6904 H   0  0  0  0  0  0  0  0  0  0  0  0
   -0.6940    2.9718    1.5606 C   0  0  0  0  0  0  0  0  0  0  0  0
   -1.6545    3.0994    2.0710 H   0  0  0  0  0  0  0  0  0  0  0  0
    0.0961    3.3635    2.2083 H   0  0  0  0  0  0  0  0  0  0  0  0
   -0.7053    3.5584    0.6359 H   0  0  0  0  0  0  0  0  0  0  0  0
  1  2  1  0  0  0  0
  2  3  1  0  0  0  0
  2  4  1  0  0  0  0
  2  5  1  0  0  0  0
  5  6  2  0  0  0  0
  5  7  1  0  0  0  0
  7  8  1  0  0  0  0
  7  9  1  0  0  0  0
  9 10  1  0  0  0  0
  9 11  1  0  0  0  0
  9 26  1  0  0  0  0
 11 12  1  0  0  0  0
 11 13  1  0  0  0  0
 11 14  1  0  0  0  0
 14 15  2  0  0  0  0
 14 24  1  0  0  0  0
 15 16  1  0  0  0  0
 15 17  1  0  0  0  0
 17 18  1  0  0  0  0
 17 19  2  0  0  0  0
 19 20  1  0  0  0  0
 19 22  1  0  0  0  0
 20 21  1  0  0  0  0
 22 23  1  0  0  0  0
 22 24  2  0  0  0  0
 24 25  1  0  0  0  0
 26 27  2  0  0  0  0
 26 28  1  0  0  0  0
 28 29  1  0  0  0  0
 28 30  1  0  0  0  0
 30 31  1  0  0  0  0
 30 32  1  0  0  0  0
 30 33  1  0  0  0  0
M  END
$$$$

  -OEChem-04042216043D

 33 33  0     1  0  0  0  0  0999 V2000
   -3.8660   -4.0215    1.8881 H   0  0  0  0  0  0  0  0  0  0  0  0
   -3.8917   -3.1354    1.2476 C   0  0  0  0  0  0  0  0  0  0  0  0
   -4.5637   -2.3979    1.6931 H   0  0  0  0  0  0  0  0  0  0  0  0
   -4.2739   -3.4213    0.2646 H   0  0  0  0  0  0  0  0  0  0  0  0
   -2.4991   -2.5504    1.1086 C   0  0  0  0  0  0  0  0  0  0  0  0
   -1.5476   -3.1060    1.6351 O   0  0  0  0  0  0  0  0  0  0  0  0
   -2.3159   -1.3850    0.3946 N   0  0  0  0  0  0  0  0  0  0  0  0
   -3.1505   -0.8917    0.0854 H   0  0  0  0  0  0  0  0  0  0  0  0
   -1.0394   -0.6605    0.2977 C   0  0  1  0  0  0  0  0  0  0  0  0
   -0.3902   -0.9752    1.1210 H   0  0  0  0  0  0  0  0  0  0  0  0
   -0.2708   -0.9333   -1.0178 C   0  0  0  0  0  0  0  0  0  0  0  0
    0.5606   -0.2230   -1.0748 H   0  0  0  0  0  0  0  0  0  0  0  0
    0.1695   -1.9302   -0.9110 H   0  0  0  0  0  0  0  0  0  0  0  0
   -0.9833   -0.9218   -2.3666 C   0  0  0  0  0  0  0  0  0  0  0  0
   -2.3547   -0.6704   -2.5699 C   0  0  0  0  0  0  0  0  0  0  0  0
   -3.0090   -0.3878   -1.7560 H   0  0  0  0  0  0  0  0  0  0  0  0
   -2.9142   -0.7255   -3.8521 C   0  0  0  0  0  0  0  0  0  0  0  0
   -3.9700   -0.5137   -3.9791 H   0  0  0  0  0  0  0  0  0  0  0  0
   -2.1208   -1.0384   -4.9551 C   0  0  0  0  0  0  0  0  0  0  0  0
   -2.6588   -1.0920   -6.2086 O   0  0  0  0  0  0  0  0  0  0  0  0
   -3.5985   -0.8556   -6.1754 H   0  0  0  0  0  0  0  0  0  0  0  0
   -0.7654   -1.2920   -4.7718 C   0  0  0  0  0  0  0  0  0  0  0  0
   -0.1518   -1.5349   -5.6330 H   0  0  0  0  0  0  0  0  0  0  0  0
   -0.2026   -1.2352   -3.4925 C   0  0  0  0  0  0  0  0  0  0  0  0
    0.8568   -1.4445   -3.3762 H   0  0  0  0  0  0  0  0  0  0  0  0
   -1.2715    0.8514    0.4948 C   0  0  0  0  0  0  0  0  0  0  0  0
   -2.2772    1.3862    0.0401 O   0  0  0  0  0  0  0  0  0  0  0  0
   -0.4331    1.5843    1.3153 N   0  0  0  0  0  0  0  0  0  0  0  0
    0.3461    1.0979    1.7495 H   0  0  0  0  0  0  0  0  0  0  0  0
   -0.6522    2.9899    1.6350 C   0  0  0  0  0  0  0  0  0  0  0  0
   -1.6229    3.1262    2.1232 H   0  0  0  0  0  0  0  0  0  0  0  0
    0.1281    3.3498    2.3123 H   0  0  0  0  0  0  0  0  0  0  0  0
   -0.6267    3.5979    0.7246 H   0  0  0  0  0  0  0  0  0  0  0  0
  1  2  1  0  0  0  0
  2  3  1  0  0  0  0
  2  4  1  0  0  0  0
  2  5  1  0  0  0  0
  5  6  2  0  0  0  0
  5  7  1  0  0  0  0
  7  8  1  0  0  0  0
  7  9  1  0  0  0  0
  9 10  1  0  0  0  0
  9 11  1  0  0  0  0
  9 26  1  0  0  0  0
 11 12  1  0  0  0  0
 11 13  1  0  0  0  0
 11 14  1  0  0  0  0
 14 15  2  0  0  0  0
 14 24  1  0  0  0  0
 15 16  1  0  0  0  0
 15 17  1  0  0  0  0
 17 18  1  0  0  0  0
 17 19  2  0  0  0  0
 19 20  1  0  0  0  0
 19 22  1  0  0  0  0
 20 21  1  0  0  0  0
 22 23  1  0  0  0  0
 22 24  2  0  0  0  0
 24 25  1  0  0  0  0
 26 27  2  0  0  0  0
 26 28  1  0  0  0  0
 28 29  1  0  0  0  0
 28 30  1  0  0  0  0
 30 31  1  0  0  0  0
 30 32  1  0  0  0  0
 30 33  1  0  0  0  0
M  END
$$$$

  -OEChem-04042216043D

 33 33  0     1  0  0  0  0  0999 V2000
   -3.8728   -4.0430    1.6938 H   0  0  0  0  0  0  0  0  0  0  0  0
   -3.8898   -3.1405    1.0765 C   0  0  0  0  0  0  0  0  0  0  0  0
   -4.6098   -2.4369    1.5013 H   0  0  0  0  0  0  0  0  0  0  0  0
   -4.2064   -3.4102    0.0660 H   0  0  0  0  0  0  0  0  0  0  0  0
   -2.5110   -2.5093    1.0335 C   0  0  0  0  0  0  0  0  0  0  0  0
   -1.5745   -3.0473    1.6038 O   0  0  0  0  0  0  0  0  0  0  0  0
   -2.3236   -1.3263    0.3503 N   0  0  0  0  0  0  0  0  0  0  0  0
   -3.1465   -0.8786   -0.0464 H   0  0  0  0  0  0  0  0  0  0  0  0
   -1.0542   -0.5853    0.2853 C   0  0  1  0  0  0  0  0  0  0  0  0
   -0.4274   -0.9104    1.1219 H   0  0  0  0  0  0  0  0  0  0  0  0
   -0.2583   -0.9016   -1.0022 C   0  0  0  0  0  0  0  0  0  0  0  0
    0.5658   -0.1852   -1.0808 H   0  0  0  0  0  0  0  0  0  0  0  0
    0.1904   -1.8895   -0.8518 H   0  0  0  0  0  0  0  0  0  0  0  0
   -0.9724   -0.9390   -2.3483 C   0  0  0  0  0  0  0  0  0  0  0  0
   -2.2575   -0.4182   -2.5951 C   0  0  0  0  0  0  0  0  0  0  0  0
   -2.8242    0.0823   -1.8209 H   0  0  0  0  0  0  0  0  0  0  0  0
   -2.8395   -0.5116   -3.8650 C   0  0  0  0  0  0  0  0  0  0  0  0
   -3.8274   -0.0949   -4.0272 H   0  0  0  0  0  0  0  0  0  0  0  0
   -2.1527   -1.1270   -4.9109 C   0  0  0  0  0  0  0  0  0  0  0  0
   -2.7123   -1.2198   -6.1523 O   0  0  0  0  0  0  0  0  0  0  0  0
   -3.5768   -0.7811   -6.1588 H   0  0  0  0  0  0  0  0  0  0  0  0
   -0.8822   -1.6466   -4.6833 C   0  0  0  0  0  0  0  0  0  0  0  0
   -0.3516   -2.1242   -5.5005 H   0  0  0  0  0  0  0  0  0  0  0  0
   -0.2966   -1.5527   -3.4164 C   0  0  0  0  0  0  0  0  0  0  0  0
    0.6959   -1.9669   -3.2647 H   0  0  0  0  0  0  0  0  0  0  0  0
   -1.2523    0.9295    0.5074 C   0  0  0  0  0  0  0  0  0  0  0  0
   -2.2465    1.5025    0.0768 O   0  0  0  0  0  0  0  0  0  0  0  0
   -0.3993    1.6215    1.3486 N   0  0  0  0  0  0  0  0  0  0  0  0
    0.3633    1.1037    1.7760 H   0  0  0  0  0  0  0  0  0  0  0  0
   -0.5944    3.0189    1.7173 C   0  0  0  0  0  0  0  0  0  0  0  0
   -1.5509    3.1498    2.2343 H   0  0  0  0  0  0  0  0  0  0  0  0
    0.2072    3.3492    2.3850 H   0  0  0  0  0  0  0  0  0  0  0  0
   -0.5852    3.6550    0.8259 H   0  0  0  0  0  0  0  0  0  0  0  0
  1  2  1  0  0  0  0
  2  3  1  0  0  0  0
  2  4  1  0  0  0  0
  2  5  1  0  0  0  0
  5  6  2  0  0  0  0
  5  7  1  0  0  0  0
  7  8  1  0  0  0  0
  7  9  1  0  0  0  0
  9 10  1  0  0  0  0
  9 11  1  0  0  0  0
  9 26  1  0  0  0  0
 11 12  1  0  0  0  0
 11 13  1  0  0  0  0
 11 14  1  0  0  0  0
 14 15  2  0  0  0  0
 14 24  1  0  0  0  0
 15 16  1  0  0  0  0
 15 17  1  0  0  0  0
 17 18  1  0  0  0  0
 17 19  2  0  0  0  0
 19 20  1  0  0  0  0
 19 22  1  0  0  0  0
 20 21  1  0  0  0  0
 22 23  1  0  0  0  0
 22 24  2  0  0  0  0
 24 25  1  0  0  0  0
 26 27  2  0  0  0  0
 26 28  1  0  0  0  0
 28 29  1  0  0  0  0
 28 30  1  0  0  0  0
 30 31  1  0  0  0  0
 30 32  1  0  0  0  0
 30 33  1  0  0  0  0
M  END
$$$$

  -OEChem-04042216043D

 33 33  0     1  0  0  0  0  0999 V2000
   -3.8757   -4.0407    1.5379 H   0  0  0  0  0  0  0  0  0  0  0  0
   -3.8870   -3.1248    0.9405 C   0  0  0  0  0  0  0  0  0  0  0  0
   -4.6328   -2.4424    1.3552 H   0  0  0  0  0  0  0  0  0  0  0  0
   -4.1637   -3.3765   -0.0863 H   0  0  0  0  0  0  0  0  0  0  0  0
   -2.5187   -2.4705    0.9605 C   0  0  0  0  0  0  0  0  0  0  0  0
   -1.5936   -3.0051    1.5526 O   0  0  0  0  0  0  0  0  0  0  0  0
   -2.3262   -1.2732    0.3046 N   0  0  0  0  0  0  0  0  0  0  0  0
   -3.1336   -0.8496   -0.1472 H   0  0  0  0  0  0  0  0  0  0  0  0
   -1.0602   -0.5255    0.2651 C   0  0  1  0  0  0  0  0  0  0  0  0
   -0.4550   -0.8596    1.1139 H   0  0  0  0  0  0  0  0  0  0  0  0
   -0.2385   -0.8766   -0.9961 C   0  0  0  0  0  0  0  0  0  0  0  0
    0.5814   -0.1572   -1.0870 H   0  0  0  0  0  0  0  0  0  0  0  0
    0.2153   -1.8557   -0.8093 H   0  0  0  0  0  0  0  0  0  0  0  0
   -0.9517   -0.9464   -2.3410 C   0  0  0  0  0  0  0  0  0  0  0  0
   -2.0835   -0.1822   -2.6808 C   0  0  0  0  0  0  0  0  0  0  0  0
   -2.5125    0.5314   -1.9913 H   0  0  0  0  0  0  0  0  0  0  0  0
   -2.6900   -0.3141   -3.9355 C   0  0  0  0  0  0  0  0  0  0  0  0
   -3.5596    0.2904   -4.1693 H   0  0  0  0  0  0  0  0  0  0  0  0
   -2.1792   -1.2099   -4.8740 C   0  0  0  0  0  0  0  0  0  0  0  0
   -2.7658   -1.3452   -6.0989 O   0  0  0  0  0  0  0  0  0  0  0  0
   -3.5141   -0.7337   -6.1772 H   0  0  0  0  0  0  0  0  0  0  0  0
   -1.0582   -1.9700   -4.5550 C   0  0  0  0  0  0  0  0  0  0  0  0
   -0.6635   -2.6650   -5.2889 H   0  0  0  0  0  0  0  0  0  0  0  0
   -0.4486   -1.8396   -3.3027 C   0  0  0  0  0  0  0  0  0  0  0  0
    0.4242   -2.4463   -3.0792 H   0  0  0  0  0  0  0  0  0  0  0  0
   -1.2351    0.9889    0.5130 C   0  0  0  0  0  0  0  0  0  0  0  0
   -2.2345    1.5819    0.1244 O   0  0  0  0  0  0  0  0  0  0  0  0
   -0.3725    1.6480    1.3713 N   0  0  0  0  0  0  0  0  0  0  0  0
    0.3822    1.1084    1.7858 H   0  0  0  0  0  0  0  0  0  0  0  0
   -0.5670    3.0274    1.8021 C   0  0  0  0  0  0  0  0  0  0  0  0
   -1.5133    3.1301    2.3436 H   0  0  0  0  0  0  0  0  0  0  0  0
    0.2466    3.3345    2.4663 H   0  0  0  0  0  0  0  0  0  0  0  0
   -0.5800    3.7007    0.9386 H   0  0  0  0  0  0  0  0  0  0  0  0
  1  2  1  0  0  0  0
  2  3  1  0  0  0  0
  2  4  1  0  0  0  0
  2  5  1  0  0  0  0
  5  6  2  0  0  0  0
  5  7  1  0  0  0  0
  7  8  1  0  0  0  0
  7  9  1  0  0  0  0
  9 10  1  0  0  0  0
  9 11  1  0  0  0  0
  9 26  1  0  0  0  0
 11 12  1  0  0  0  0
 11 13  1  0  0  0  0
 11 14  1  0  0  0  0
 14 15  2  0  0  0  0
 14 24  1  0  0  0  0
 15 16  1  0  0  0  0
 15 17  1  0  0  0  0
 17 18  1  0  0  0  0
 17 19  2  0  0  0  0
 19 20  1  0  0  0  0
 19 22  1  0  0  0  0
 20 21  1  0  0  0  0
 22 23  1  0  0  0  0
 22 24  2  0  0  0  0
 24 25  1  0  0  0  0
 26 27  2  0  0  0  0
 26 28  1  0  0  0  0
 28 29  1  0  0  0  0
 28 30  1  0  0  0  0
 30 31  1  0  0  0  0
 30 32  1  0  0  0  0
 30 33  1  0  0  0  0
M  END
$$$$

  -OEChem-04042216043D

 33 33  0     1  0  0  0  0  0999 V2000
   -3.8932   -4.0327    1.4124 H   0  0  0  0  0  0  0  0  0  0  0  0
   -3.8858   -3.1082    0.8284 C   0  0  0  0  0  0  0  0  0  0  0  0
   -4.6487   -2.4343    1.2254 H   0  0  0  0  0  0  0  0  0  0  0  0
   -4.1243   -3.3454   -0.2114 H   0  0  0  0  0  0  0  0  0  0  0  0
   -2.5212   -2.4504    0.9076 C   0  0  0  0  0  0  0  0  0  0  0  0
   -1.6211   -2.9829    1.5393 O   0  0  0  0  0  0  0  0  0  0  0  0
   -2.2999   -1.2567    0.2543 N   0  0  0  0  0  0  0  0  0  0  0  0
   -3.0831   -0.8391   -0.2443 H   0  0  0  0  0  0  0  0  0  0  0  0
   -1.0298   -0.5159    0.2531 C   0  0  1  0  0  0  0  0  0  0  0  0
   -0.4519   -0.8470    1.1218 H   0  0  0  0  0  0  0  0  0  0  0  0
   -0.1805   -0.8912   -0.9821 C   0  0  0  0  0  0  0  0  0  0  0  0
    0.6460   -0.1787   -1.0691 H   0  0  0  0  0  0  0  0  0  0  0  0
    0.2651   -1.8700   -0.7756 H   0  0  0  0  0  0  0  0  0  0  0  0
   -0.8910   -0.9603   -2.3270 C   0  0  0  0  0  0  0  0  0  0  0  0
   -1.7983    0.0153   -2.7770 C   0  0  0  0  0  0  0  0  0  0  0  0
   -1.9977    0.9081   -2.1993 H   0  0  0  0  0  0  0  0  0  0  0  0
   -2.4520   -0.1246   -4.0069 C   0  0  0  0  0  0  0  0  0  0  0  0
   -3.1418    0.6477   -4.3299 H   0  0  0  0  0  0  0  0  0  0  0  0
   -2.2146   -1.2417   -4.8074 C   0  0  0  0  0  0  0  0  0  0  0  0
   -2.8498   -1.3868   -6.0066 O   0  0  0  0  0  0  0  0  0  0  0  0
   -3.4193   -0.6201   -6.1744 H   0  0  0  0  0  0  0  0  0  0  0  0
   -1.3190   -2.2155   -4.3755 C   0  0  0  0  0  0  0  0  0  0  0  0
   -1.1384   -3.0832   -5.0016 H   0  0  0  0  0  0  0  0  0  0  0  0
   -0.6629   -2.0785   -3.1476 C   0  0  0  0  0  0  0  0  0  0  0  0
    0.0238   -2.8586   -2.8320 H   0  0  0  0  0  0  0  0  0  0  0  0
   -1.2152    0.9982    0.4899 C   0  0  0  0  0  0  0  0  0  0  0  0
   -2.2104    1.5825    0.0777 O   0  0  0  0  0  0  0  0  0  0  0  0
   -0.3832    1.6622    1.3742 N   0  0  0  0  0  0  0  0  0  0  0  0
    0.3598    1.1255    1.8128 H   0  0  0  0  0  0  0  0  0  0  0  0
   -0.6095    3.0345    1.8129 C   0  0  0  0  0  0  0  0  0  0  0  0
   -1.5650    3.1147    2.3419 H   0  0  0  0  0  0  0  0  0  0  0  0
    0.1887    3.3516    2.4909 H   0  0  0  0  0  0  0  0  0  0  0  0
   -0.6233    3.7143    0.9544 H   0  0  0  0  0  0  0  0  0  0  0  0
  1  2  1  0  0  0  0
  2  3  1  0  0  0  0
  2  4  1  0  0  0  0
  2  5  1  0  0  0  0
  5  6  2  0  0  0  0
  5  7  1  0  0  0  0
  7  8  1  0  0  0  0
  7  9  1  0  0  0  0
  9 10  1  0  0  0  0
  9 11  1  0  0  0  0
  9 26  1  0  0  0  0
 11 12  1  0  0  0  0
 11 13  1  0  0  0  0
 11 14  1  0  0  0  0
 14 15  2  0  0  0  0
 14 24  1  0  0  0  0
 15 16  1  0  0  0  0
 15 17  1  0  0  0  0
 17 18  1  0  0  0  0
 17 19  2  0  0  0  0
 19 20  1  0  0  0  0
 19 22  1  0  0  0  0
 20 21  1  0  0  0  0
 22 23  1  0  0  0  0
 22 24  2  0  0  0  0
 24 25  1  0  0  0  0
 26 27  2  0  0  0  0
 26 28  1  0  0  0  0
 28 29  1  0  0  0  0
 28 30  1  0  0  0  0
 30 31  1  0  0  0  0
 30 32  1  0  0  0  0
 30 33  1  0  0  0  0
M  END
$$$$

  -OEChem-04042216043D

 33 33  0     1  0  0  0  0  0999 V2000
   -3.9172   -4.0384    1.3572 H   0  0  0  0  0  0  0  0  0  0  0  0
   -3.8837   -3.1198    0.7647 C   0  0  0  0  0  0  0  0  0  0  0  0
   -4.6637   -2.4423    1.1203 H   0  0  0  0  0  0  0  0  0  0  0  0
   -4.0755   -3.3679   -0.2821 H   0  0  0  0  0  0  0  0  0  0  0  0
   -2.5241   -2.4595    0.8976 C   0  0  0  0  0  0  0  0  0  0  0  0
   -1.6581   -2.9747    1.5884 O   0  0  0  0  0  0  0  0  0  0  0  0
   -2.2656   -1.2864    0.2217 N   0  0  0  0  0  0  0  0  0  0  0  0
   -3.0150   -0.8899   -0.3426 H   0  0  0  0  0  0  0  0  0  0  0  0
   -0.9938   -0.5495    0.2585 C   0  0  1  0  0  0  0  0  0  0  0  0
   -0.4415   -0.8617    1.1505 H   0  0  0  0  0  0  0  0  0  0  0  0
   -0.1175   -0.9375   -0.9526 C   0  0  0  0  0  0  0  0  0  0  0  0
    0.7141   -0.2303   -1.0328 H   0  0  0  0  0  0  0  0  0  0  0  0
    0.3200   -1.9190   -0.7422 H   0  0  0  0  0  0  0  0  0  0  0  0
   -0.8337   -0.9956   -2.2912 C   0  0  0  0  0  0  0  0  0  0  0  0
   -1.4745    0.1223   -2.8504 C   0  0  0  0  0  0  0  0  0  0  0  0
   -1.4246    1.0907   -2.3653 H   0  0  0  0  0  0  0  0  0  0  0  0
   -2.1712    0.0173   -4.0596 C   0  0  0  0  0  0  0  0  0  0  0  0
   -2.6542    0.8974   -4.4700 H   0  0  0  0  0  0  0  0  0  0  0  0
   -2.2410   -1.2061   -4.7265 C   0  0  0  0  0  0  0  0  0  0  0  0
   -2.9207   -1.3186   -5.9046 O   0  0  0  0  0  0  0  0  0  0  0  0
   -3.2950   -0.4594   -6.1537 H   0  0  0  0  0  0  0  0  0  0  0  0
   -1.6116   -2.3221   -4.1815 C   0  0  0  0  0  0  0  0  0  0  0  0
   -1.6717   -3.2707   -4.7045 H   0  0  0  0  0  0  0  0  0  0  0  0
   -0.9146   -2.2215   -2.9726 C   0  0  0  0  0  0  0  0  0  0  0  0
   -0.4431   -3.1088   -2.5601 H   0  0  0  0  0  0  0  0  0  0  0  0
   -1.2017    0.9683    0.4422 C   0  0  0  0  0  0  0  0  0  0  0  0
   -2.1579    1.5395   -0.0697 O   0  0  0  0  0  0  0  0  0  0  0  0
   -0.4199    1.6657    1.3459 N   0  0  0  0  0  0  0  0  0  0  0  0
    0.2846    1.1420    1.8577 H   0  0  0  0  0  0  0  0  0  0  0  0
   -0.6688    3.0537    1.7173 C   0  0  0  0  0  0  0  0  0  0  0  0
   -1.6512    3.1524    2.1911 H   0  0  0  0  0  0  0  0  0  0  0  0
    0.0926    3.3987    2.4235 H   0  0  0  0  0  0  0  0  0  0  0  0
   -0.6367    3.6994    0.8335 H   0  0  0  0  0  0  0  0  0  0  0  0
  1  2  1  0  0  0  0
  2  3  1  0  0  0  0
  2  4  1  0  0  0  0
  2  5  1  0  0  0  0
  5  6  2  0  0  0  0
  5  7  1  0  0  0  0
  7  8  1  0  0  0  0
  7  9  1  0  0  0  0
  9 10  1  0  0  0  0
  9 11  1  0  0  0  0
  9 26  1  0  0  0  0
 11 12  1  0  0  0  0
 11 13  1  0  0  0  0
 11 14  1  0  0  0  0
 14 15  2  0  0  0  0
 14 24  1  0  0  0  0
 15 16  1  0  0  0  0
 15 17  1  0  0  0  0
 17 18  1  0  0  0  0
 17 19  2  0  0  0  0
 19 20  1  0  0  0  0
 19 22  1  0  0  0  0
 20 21  1  0  0  0  0
 22 23  1  0  0  0  0
 22 24  2  0  0  0  0
 24 25  1  0  0  0  0
 26 27  2  0  0  0  0
 26 28  1  0  0  0  0
 28 29  1  0  0  0  0
 28 30  1  0  0  0  0
 30 31  1  0  0  0  0
 30 32  1  0  0  0  0
 30 33  1  0  0  0  0
M  END
$$$$

  -OEChem-04042216043D

 33 33  0     1  0  0  0  0  0999 V2000
   -3.9380   -4.0534    1.3943 H   0  0  0  0  0  0  0  0  0  0  0  0
   -3.8863   -3.1511    0.7786 C   0  0  0  0  0  0  0  0  0  0  0  0
   -4.6773   -2.4649    1.0905 H   0  0  0  0  0  0  0  0  0  0  0  0
   -4.0446   -3.4271   -0.2668 H   0  0  0  0  0  0  0  0  0  0  0  0
   -2.5324   -2.4855    0.9366 C   0  0  0  0  0  0  0  0  0  0  0  0
   -1.6881   -2.9784    1.6690 O   0  0  0  0  0  0  0  0  0  0  0  0
   -2.2523   -1.3360    0.2306 N   0  0  0  0  0  0  0  0  0  0  0  0
   -2.9815   -0.9614   -0.3742 H   0  0  0  0  0  0  0  0  0  0  0  0
   -0.9816   -0.5985    0.2788 C   0  0  1  0  0  0  0  0  0  0  0  0
   -0.4381   -0.8898    1.1829 H   0  0  0  0  0  0  0  0  0  0  0  0
   -0.0949   -0.9813   -0.9247 C   0  0  0  0  0  0  0  0  0  0  0  0
    0.7381   -0.2753   -1.0011 H   0  0  0  0  0  0  0  0  0  0  0  0
    0.3402   -1.9663   -0.7267 H   0  0  0  0  0  0  0  0  0  0  0  0
   -0.8301   -1.0265   -2.2498 C   0  0  0  0  0  0  0  0  0  0  0  0
   -1.2003    0.1495   -2.9201 C   0  0  0  0  0  0  0  0  0  0  0  0
   -0.9492    1.1205   -2.5030 H   0  0  0  0  0  0  0  0  0  0  0  0
   -1.9023    0.0881   -4.1293 C   0  0  0  0  0  0  0  0  0  0  0  0
   -2.1827    1.0104   -4.6261 H   0  0  0  0  0  0  0  0  0  0  0  0
   -2.2406   -1.1476   -4.6835 C   0  0  0  0  0  0  0  0  0  0  0  0
   -2.9272   -1.2166   -5.8609 O   0  0  0  0  0  0  0  0  0  0  0  0
   -3.1046   -0.3225   -6.1917 H   0  0  0  0  0  0  0  0  0  0  0  0
   -1.8751   -2.3204   -4.0263 C   0  0  0  0  0  0  0  0  0  0  0  0
   -2.1410   -3.2771   -4.4638 H   0  0  0  0  0  0  0  0  0  0  0  0
   -1.1751   -2.2642   -2.8162 C   0  0  0  0  0  0  0  0  0  0  0  0
   -0.9047   -3.1888   -2.3142 H   0  0  0  0  0  0  0  0  0  0  0  0
   -1.2048    0.9224    0.4062 C   0  0  0  0  0  0  0  0  0  0  0  0
   -2.1081    1.4806   -0.2060 O   0  0  0  0  0  0  0  0  0  0  0  0
   -0.4562    1.6569    1.3085 N   0  0  0  0  0  0  0  0  0  0  0  0
    0.2203    1.1548    1.8766 H   0  0  0  0  0  0  0  0  0  0  0  0
   -0.6880    3.0707    1.5788 C   0  0  0  0  0  0  0  0  0  0  0  0
   -1.7129    3.2313    1.9295 H   0  0  0  0  0  0  0  0  0  0  0  0
    0.0009    3.4252    2.3516 H   0  0  0  0  0  0  0  0  0  0  0  0
   -0.5278    3.6652    0.6733 H   0  0  0  0  0  0  0  0  0  0  0  0
  1  2  1  0  0  0  0
  2  3  1  0  0  0  0
  2  4  1  0  0  0  0
  2  5  1  0  0  0  0
  5  6  2  0  0  0  0
  5  7  1  0  0  0  0
  7  8  1  0  0  0  0
  7  9  1  0  0  0  0
  9 10  1  0  0  0  0
  9 11  1  0  0  0  0
  9 26  1  0  0  0  0
 11 12  1  0  0  0  0
 11 13  1  0  0  0  0
 11 14  1  0  0  0  0
 14 15  2  0  0  0  0
 14 24  1  0  0  0  0
 15 16  1  0  0  0  0
 15 17  1  0  0  0  0
 17 18  1  0  0  0  0
 17 19  2  0  0  0  0
 19 20  1  0  0  0  0
 19 22  1  0  0  0  0
 20 21  1  0  0  0  0
 22 23  1  0  0  0  0
 22 24  2  0  0  0  0
 24 25  1  0  0  0  0
 26 27  2  0  0  0  0
 26 28  1  0  0  0  0
 28 29  1  0  0  0  0
 28 30  1  0  0  0  0
 30 31  1  0  0  0  0
 30 32  1  0  0  0  0
 30 33  1  0  0  0  0
M  END
$$$$

  -OEChem-04042216043D

 33 33  0     1  0  0  0  0  0999 V2000
   -3.9671   -4.0535    1.4830 H   0  0  0  0  0  0  0  0  0  0  0  0
   -3.9087   -3.1631    0.8510 C   0  0  0  0  0  0  0  0  0  0  0  0
   -4.6893   -2.4620    1.1566 H   0  0  0  0  0  0  0  0  0  0  0  0
   -4.0784   -3.4563   -0.1880 H   0  0  0  0  0  0  0  0  0  0  0  0
   -2.5459   -2.5111    0.9882 C   0  0  0  0  0  0  0  0  0  0  0  0
   -1.7069   -2.9949    1.7323 O   0  0  0  0  0  0  0  0  0  0  0  0
   -2.2541   -1.3811    0.2559 N   0  0  0  0  0  0  0  0  0  0  0  0
   -2.9816   -1.0085   -0.3528 H   0  0  0  0  0  0  0  0  0  0  0  0
   -0.9807   -0.6473    0.2958 C   0  0  1  0  0  0  0  0  0  0  0  0
   -0.4336   -0.9244    1.2023 H   0  0  0  0  0  0  0  0  0  0  0  0
   -0.0924   -1.0103   -0.9120 C   0  0  0  0  0  0  0  0  0  0  0  0
    0.7434   -0.3059   -0.9779 H   0  0  0  0  0  0  0  0  0  0  0  0
    0.3394   -2.0007   -0.7349 H   0  0  0  0  0  0  0  0  0  0  0  0
   -0.8407   -1.0371   -2.2282 C   0  0  0  0  0  0  0  0  0  0  0  0
   -0.9453    0.1180   -3.0165 C   0  0  0  0  0  0  0  0  0  0  0  0
   -0.5092    1.0516   -2.6727 H   0  0  0  0  0  0  0  0  0  0  0  0
   -1.6344    0.0861   -4.2343 C   0  0  0  0  0  0  0  0  0  0  0  0
   -1.7154    0.9946   -4.8209 H   0  0  0  0  0  0  0  0  0  0  0  0
   -2.2164   -1.1019   -4.6815 C   0  0  0  0  0  0  0  0  0  0  0  0
   -2.8941   -1.1407   -5.8656 O   0  0  0  0  0  0  0  0  0  0  0  0
   -2.8999   -0.2597   -6.2707 H   0  0  0  0  0  0  0  0  0  0  0  0
   -2.1038   -2.2574   -3.9107 C   0  0  0  0  0  0  0  0  0  0  0  0
   -2.5536   -3.1775   -4.2688 H   0  0  0  0  0  0  0  0  0  0  0  0
   -1.4182   -2.2298   -2.6915 C   0  0  0  0  0  0  0  0  0  0  0  0
   -1.3367   -3.1382   -2.1013 H   0  0  0  0  0  0  0  0  0  0  0  0
   -1.2140    0.8746    0.3825 C   0  0  0  0  0  0  0  0  0  0  0  0
   -2.0900    1.4147   -0.2829 O   0  0  0  0  0  0  0  0  0  0  0  0
   -0.4803    1.6395    1.2712 N   0  0  0  0  0  0  0  0  0  0  0  0
    0.1796    1.1562    1.8740 H   0  0  0  0  0  0  0  0  0  0  0  0
   -0.6992    3.0674    1.4686 C   0  0  0  0  0  0  0  0  0  0  0  0
   -1.7136    3.2523    1.8375 H   0  0  0  0  0  0  0  0  0  0  0  0
    0.0127    3.4616    2.2002 H   0  0  0  0  0  0  0  0  0  0  0  0
   -0.5621    3.6100    0.5273 H   0  0  0  0  0  0  0  0  0  0  0  0
  1  2  1  0  0  0  0
  2  3  1  0  0  0  0
  2  4  1  0  0  0  0
  2  5  1  0  0  0  0
  5  6  2  0  0  0  0
  5  7  1  0  0  0  0
  7  8  1  0  0  0  0
  7  9  1  0  0  0  0
  9 10  1  0  0  0  0
  9 11  1  0  0  0  0
  9 26  1  0  0  0  0
 11 12  1  0  0  0  0
 11 13  1  0  0  0  0
 11 14  1  0  0  0  0
 14 15  2  0  0  0  0
 14 24  1  0  0  0  0
 15 16  1  0  0  0  0
 15 17  1  0  0  0  0
 17 18  1  0  0  0  0
 17 19  2  0  0  0  0
 19 20  1  0  0  0  0
 19 22  1  0  0  0  0
 20 21  1  0  0  0  0
 22 23  1  0  0  0  0
 22 24  2  0  0  0  0
 24 25  1  0  0  0  0
 26 27  2  0  0  0  0
 26 28  1  0  0  0  0
 28 29  1  0  0  0  0
 28 30  1  0  0  0  0
 30 31  1  0  0  0  0
 30 32  1  0  0  0  0
 30 33  1  0  0  0  0
M  END
$$$$

  -OEChem-04042216043D

 33 33  0     1  0  0  0  0  0999 V2000
   -3.9899   -4.0197    1.6223 H   0  0  0  0  0  0  0  0  0  0  0  0
   -3.9363   -3.1408    0.9739 C   0  0  0  0  0  0  0  0  0  0  0  0
   -4.6847   -2.4150    1.3015 H   0  0  0  0  0  0  0  0  0  0  0  0
   -4.1588   -3.4446   -0.0518 H   0  0  0  0  0  0  0  0  0  0  0  0
   -2.5522   -2.5235    1.0424 C   0  0  0  0  0  0  0  0  0  0  0  0
   -1.6907   -3.0246    1.7482 O   0  0  0  0  0  0  0  0  0  0  0  0
   -2.2689   -1.4014    0.2950 N   0  0  0  0  0  0  0  0  0  0  0  0
   -3.0200   -1.0015   -0.2662 H   0  0  0  0  0  0  0  0  0  0  0  0
   -0.9897   -0.6772    0.3015 C   0  0  1  0  0  0  0  0  0  0  0  0
   -0.4235   -0.9519    1.1970 H   0  0  0  0  0  0  0  0  0  0  0  0
   -0.1176   -1.0175   -0.9261 C   0  0  0  0  0  0  0  0  0  0  0  0
    0.7217   -0.3165   -0.9831 H   0  0  0  0  0  0  0  0  0  0  0  0
    0.3114   -2.0133   -0.7731 H   0  0  0  0  0  0  0  0  0  0  0  0
   -0.8715   -1.0289   -2.2403 C   0  0  0  0  0  0  0  0  0  0  0  0
   -0.7254    0.0287   -3.1505 C   0  0  0  0  0  0  0  0  0  0  0  0
   -0.1149    0.8890   -2.8920 H   0  0  0  0  0  0  0  0  0  0  0  0
   -1.3856    0.0007   -4.3845 C   0  0  0  0  0  0  0  0  0  0  0  0
   -1.2756    0.8377   -5.0651 H   0  0  0  0  0  0  0  0  0  0  0  0
   -2.1793   -1.0945   -4.7316 C   0  0  0  0  0  0  0  0  0  0  0  0
   -2.8278   -1.1298   -5.9318 O   0  0  0  0  0  0  0  0  0  0  0  0
   -2.6763   -0.3015   -6.4124 H   0  0  0  0  0  0  0  0  0  0  0  0
   -2.3044   -2.1635   -3.8470 C   0  0  0  0  0  0  0  0  0  0  0  0
   -2.9123   -3.0164   -4.1304 H   0  0  0  0  0  0  0  0  0  0  0  0
   -1.6488   -2.1379   -2.6119 C   0  0  0  0  0  0  0  0  0  0  0  0
   -1.7402   -2.9865   -1.9403 H   0  0  0  0  0  0  0  0  0  0  0  0
   -1.2272    0.8443    0.3820 C   0  0  0  0  0  0  0  0  0  0  0  0
   -2.1204    1.3729   -0.2697 O   0  0  0  0  0  0  0  0  0  0  0  0
   -0.4789    1.6206    1.2488 N   0  0  0  0  0  0  0  0  0  0  0  0
    0.1959    1.1464    1.8423 H   0  0  0  0  0  0  0  0  0  0  0  0
   -0.7041    3.0483    1.4391 C   0  0  0  0  0  0  0  0  0  0  0  0
   -1.7137    3.2287    1.8230 H   0  0  0  0  0  0  0  0  0  0  0  0
    0.0168    3.4530    2.1557 H   0  0  0  0  0  0  0  0  0  0  0  0
   -0.5862    3.5841    0.4913 H   0  0  0  0  0  0  0  0  0  0  0  0
  1  2  1  0  0  0  0
  2  3  1  0  0  0  0
  2  4  1  0  0  0  0
  2  5  1  0  0  0  0
  5  6  2  0  0  0  0
  5  7  1  0  0  0  0
  7  8  1  0  0  0  0
  7  9  1  0  0  0  0
  9 10  1  0  0  0  0
  9 11  1  0  0  0  0
  9 26  1  0  0  0  0
 11 12  1  0  0  0  0
 11 13  1  0  0  0  0
 11 14  1  0  0  0  0
 14 15  2  0  0  0  0
 14 24  1  0  0  0  0
 15 16  1  0  0  0  0
 15 17  1  0  0  0  0
 17 18  1  0  0  0  0
 17 19  2  0  0  0  0
 19 20  1  0  0  0  0
 19 22  1  0  0  0  0
 20 21  1  0  0  0  0
 22 23  1  0  0  0  0
 22 24  2  0  0  0  0
 24 25  1  0  0  0  0
 26 27  2  0  0  0  0
 26 28  1  0  0  0  0
 28 29  1  0  0  0  0
 28 30  1  0  0  0  0
 30 31  1  0  0  0  0
 30 32  1  0  0  0  0
 30 33  1  0  0  0  0
M  END
$$$$

  -OEChem-04042216043D

 33 33  0     1  0  0  0  0  0999 V2000
   -3.9830   -3.9873    1.7983 H   0  0  0  0  0  0  0  0  0  0  0  0
   -3.9530   -3.1189    1.1342 C   0  0  0  0  0  0  0  0  0  0  0  0
   -4.6654   -2.3737    1.4964 H   0  0  0  0  0  0  0  0  0  0  0  0
   -4.2445   -3.4334    0.1291 H   0  0  0  0  0  0  0  0  0  0  0  0
   -2.5559   -2.5284    1.1085 C   0  0  0  0  0  0  0  0  0  0  0  0
   -1.6599   -3.0491    1.7544 O   0  0  0  0  0  0  0  0  0  0  0  0
   -2.3007   -1.4071    0.3487 N   0  0  0  0  0  0  0  0  0  0  0  0
   -3.0848   -0.9700   -0.1346 H   0  0  0  0  0  0  0  0  0  0  0  0
   -1.0168   -0.6938    0.3032 C   0  0  1  0  0  0  0  0  0  0  0  0
   -0.4227   -0.9698    1.1801 H   0  0  0  0  0  0  0  0  0  0  0  0
   -0.1690   -1.0109   -0.9509 C   0  0  0  0  0  0  0  0  0  0  0  0
    0.6702   -0.3093   -0.9987 H   0  0  0  0  0  0  0  0  0  0  0  0
    0.2621   -2.0082   -0.8156 H   0  0  0  0  0  0  0  0  0  0  0  0
   -0.9139   -1.0155   -2.2748 C   0  0  0  0  0  0  0  0  0  0  0  0
   -0.5306   -0.1213   -3.2875 C   0  0  0  0  0  0  0  0  0  0  0  0
    0.2395    0.6200   -3.0958 H   0  0  0  0  0  0  0  0  0  0  0  0
   -1.1505   -0.1499   -4.5424 C   0  0  0  0  0  0  0  0  0  0  0  0
   -0.8542    0.5689   -5.2981 H   0  0  0  0  0  0  0  0  0  0  0  0
   -2.1384   -1.0969   -4.8156 C   0  0  0  0  0  0  0  0  0  0  0  0
   -2.7519   -1.1317   -6.0343 O   0  0  0  0  0  0  0  0  0  0  0  0
   -2.4336   -0.4003   -6.5853 H   0  0  0  0  0  0  0  0  0  0  0  0
   -2.4892   -2.0244   -3.8384 C   0  0  0  0  0  0  0  0  0  0  0  0
   -3.2392   -2.7740   -4.0685 H   0  0  0  0  0  0  0  0  0  0  0  0
   -1.8730   -1.9964   -2.5825 C   0  0  0  0  0  0  0  0  0  0  0  0
   -2.1343   -2.7564   -1.8539 H   0  0  0  0  0  0  0  0  0  0  0  0
   -1.2541    0.8267    0.3965 C   0  0  0  0  0  0  0  0  0  0  0  0
   -2.1857    1.3498   -0.2037 O   0  0  0  0  0  0  0  0  0  0  0  0
   -0.4723    1.6027    1.2335 N   0  0  0  0  0  0  0  0  0  0  0  0
    0.2362    1.1303    1.7878 H   0  0  0  0  0  0  0  0  0  0  0  0
   -0.6956    3.0283    1.4425 C   0  0  0  0  0  0  0  0  0  0  0  0
   -1.6910    3.2031    1.8645 H   0  0  0  0  0  0  0  0  0  0  0  0
    0.0496    3.4304    2.1356 H   0  0  0  0  0  0  0  0  0  0  0  0
   -0.6141    3.5714    0.4951 H   0  0  0  0  0  0  0  0  0  0  0  0
  1  2  1  0  0  0  0
  2  3  1  0  0  0  0
  2  4  1  0  0  0  0
  2  5  1  0  0  0  0
  5  6  2  0  0  0  0
  5  7  1  0  0  0  0
  7  8  1  0  0  0  0
  7  9  1  0  0  0  0
  9 10  1  0  0  0  0
  9 11  1  0  0  0  0
  9 26  1  0  0  0  0
 11 12  1  0  0  0  0
 11 13  1  0  0  0  0
 11 14  1  0  0  0  0
 14 15  2  0  0  0  0
 14 24  1  0  0  0  0
 15 16  1  0  0  0  0
 15 17  1  0  0  0  0
 17 18  1  0  0  0  0
 17 19  2  0  0  0  0
 19 20  1  0  0  0  0
 19 22  1  0  0  0  0
 20 21  1  0  0  0  0
 22 23  1  0  0  0  0
 22 24  2  0  0  0  0
 24 25  1  0  0  0  0
 26 27  2  0  0  0  0
 26 28  1  0  0  0  0
 28 29  1  0  0  0  0
 28 30  1  0  0  0  0
 30 31  1  0  0  0  0
 30 32  1  0  0  0  0
 30 33  1  0  0  0  0
M  END
$$$$

  -OEChem-04042216043D

 33 33  0     1  0  0  0  0  0999 V2000
   -3.9548   -3.9543    1.9859 H   0  0  0  0  0  0  0  0  0  0  0  0
   -3.9490   -3.1045    1.2975 C   0  0  0  0  0  0  0  0  0  0  0  0
   -4.6280   -2.3381    1.6790 H   0  0  0  0  0  0  0  0  0  0  0  0
   -4.3023   -3.4402    0.3195 H   0  0  0  0  0  0  0  0  0  0  0  0
   -2.5466   -2.5394    1.1757 C   0  0  0  0  0  0  0  0  0  0  0  0
   -1.6172   -3.0795    1.7548 O   0  0  0  0  0  0  0  0  0  0  0  0
   -2.3263   -1.4142    0.4101 N   0  0  0  0  0  0  0  0  0  0  0  0
   -3.1388   -0.9445    0.0114 H   0  0  0  0  0  0  0  0  0  0  0  0
   -1.0429   -0.7082    0.3053 C   0  0  1  0  0  0  0  0  0  0  0  0
   -0.4139   -0.9891    1.1561 H   0  0  0  0  0  0  0  0  0  0  0  0
   -0.2302   -1.0003   -0.9816 C   0  0  0  0  0  0  0  0  0  0  0  0
    0.6060   -0.2949   -1.0236 H   0  0  0  0  0  0  0  0  0  0  0  0
    0.2064   -1.9973   -0.8647 H   0  0  0  0  0  0  0  0  0  0  0  0
   -0.9597   -1.0012   -2.3197 C   0  0  0  0  0  0  0  0  0  0  0  0
   -0.3670   -0.3287   -3.4033 C   0  0  0  0  0  0  0  0  0  0  0  0
    0.5453    0.2418   -3.2569 H   0  0  0  0  0  0  0  0  0  0  0  0
   -0.9451   -0.3556   -4.6778 C   0  0  0  0  0  0  0  0  0  0  0  0
   -0.4789    0.1963   -5.4865 H   0  0  0  0  0  0  0  0  0  0  0  0
   -2.1073   -1.0917   -4.9041 C   0  0  0  0  0  0  0  0  0  0  0  0
   -2.6814   -1.1255   -6.1422 O   0  0  0  0  0  0  0  0  0  0  0  0
   -2.2025   -0.5365   -6.7453 H   0  0  0  0  0  0  0  0  0  0  0  0
   -2.6721   -1.8157   -3.8587 C   0  0  0  0  0  0  0  0  0  0  0  0
   -3.5575   -2.4128   -4.0492 H   0  0  0  0  0  0  0  0  0  0  0  0
   -2.0967   -1.7888   -2.5834 C   0  0  0  0  0  0  0  0  0  0  0  0
   -2.5382   -2.4158   -1.8194 H   0  0  0  0  0  0  0  0  0  0  0  0
   -1.2824    0.8105    0.4220 C   0  0  0  0  0  0  0  0  0  0  0  0
   -2.2567    1.3281   -0.1121 O   0  0  0  0  0  0  0  0  0  0  0  0
   -0.4645    1.5851    1.2249 N   0  0  0  0  0  0  0  0  0  0  0  0
    0.2851    1.1168    1.7257 H   0  0  0  0  0  0  0  0  0  0  0  0
   -0.6835    3.0084    1.4527 C   0  0  0  0  0  0  0  0  0  0  0  0
   -1.6639    3.1774    1.9104 H   0  0  0  0  0  0  0  0  0  0  0  0
    0.0841    3.4068    2.1230 H   0  0  0  0  0  0  0  0  0  0  0  0
   -0.6361    3.5589    0.5072 H   0  0  0  0  0  0  0  0  0  0  0  0
  1  2  1  0  0  0  0
  2  3  1  0  0  0  0
  2  4  1  0  0  0  0
  2  5  1  0  0  0  0
  5  6  2  0  0  0  0
  5  7  1  0  0  0  0
  7  8  1  0  0  0  0
  7  9  1  0  0  0  0
  9 10  1  0  0  0  0
  9 11  1  0  0  0  0
  9 26  1  0  0  0  0
 11 12  1  0  0  0  0
 11 13  1  0  0  0  0
 11 14  1  0  0  0  0
 14 15  2  0  0  0  0
 14 24  1  0  0  0  0
 15 16  1  0  0  0  0
 15 17  1  0  0  0  0
 17 18  1  0  0  0  0
 17 19  2  0  0  0  0
 19 20  1  0  0  0  0
 19 22  1  0  0  0  0
 20 21  1  0  0  0  0
 22 23  1  0  0  0  0
 22 24  2  0  0  0  0
 24 25  1  0  0  0  0
 26 27  2  0  0  0  0
 26 28  1  0  0  0  0
 28 29  1  0  0  0  0
 28 30  1  0  0  0  0
 30 31  1  0  0  0  0
 30 32  1  0  0  0  0
 30 33  1  0  0  0  0
M  END
$$$$

  -OEChem-04042216043D

 33 33  0     1  0  0  0  0  0999 V2000
   -3.8869   -3.9693    2.1139 H   0  0  0  0  0  0  0  0  0  0  0  0
   -3.9141   -3.1100    1.4379 C   0  0  0  0  0  0  0  0  0  0  0  0
   -4.5586   -2.3417    1.8719 H   0  0  0  0  0  0  0  0  0  0  0  0
   -4.3325   -3.4284    0.4801 H   0  0  0  0  0  0  0  0  0  0  0  0
   -2.5151   -2.5592    1.2333 C   0  0  0  0  0  0  0  0  0  0  0  0
   -1.5582   -3.1094    1.7556 O   0  0  0  0  0  0  0  0  0  0  0  0
   -2.3309   -1.4320    0.4608 N   0  0  0  0  0  0  0  0  0  0  0  0
   -3.1643   -0.9361    0.1464 H   0  0  0  0  0  0  0  0  0  0  0  0
   -1.0531   -0.7266    0.3035 C   0  0  1  0  0  0  0  0  0  0  0  0
   -0.3911   -1.0057    1.1297 H   0  0  0  0  0  0  0  0  0  0  0  0
   -0.2825   -1.0071   -1.0126 C   0  0  0  0  0  0  0  0  0  0  0  0
    0.5480   -0.2951   -1.0621 H   0  0  0  0  0  0  0  0  0  0  0  0
    0.1630   -2.0012   -0.9028 H   0  0  0  0  0  0  0  0  0  0  0  0
   -0.9965   -1.0152   -2.3641 C   0  0  0  0  0  0  0  0  0  0  0  0
   -0.2377   -0.6278   -3.4842 C   0  0  0  0  0  0  0  0  0  0  0  0
    0.7907   -0.3031   -3.3567 H   0  0  0  0  0  0  0  0  0  0  0  0
   -0.7794   -0.6389   -4.7744 C   0  0  0  0  0  0  0  0  0  0  0  0
   -0.1690   -0.3214   -5.6126 H   0  0  0  0  0  0  0  0  0  0  0  0
   -2.0917   -1.0606   -4.9777 C   0  0  0  0  0  0  0  0  0  0  0  0
   -2.6334   -1.0760   -6.2306 O   0  0  0  0  0  0  0  0  0  0  0  0
   -1.9967   -0.7233   -6.8709 H   0  0  0  0  0  0  0  0  0  0  0  0
   -2.8493   -1.4808   -3.8897 C   0  0  0  0  0  0  0  0  0  0  0  0
   -3.8650   -1.8236   -4.0572 H   0  0  0  0  0  0  0  0  0  0  0  0
   -2.3102   -1.4704   -2.5979 C   0  0  0  0  0  0  0  0  0  0  0  0
   -2.9451   -1.8421   -1.8078 H   0  0  0  0  0  0  0  0  0  0  0  0
   -1.3000    0.7894    0.4358 C   0  0  0  0  0  0  0  0  0  0  0  0
   -2.3112    1.2939   -0.0396 O   0  0  0  0  0  0  0  0  0  0  0  0
   -0.4572    1.5704    1.2061 N   0  0  0  0  0  0  0  0  0  0  0  0
    0.3219    1.1104    1.6683 H   0  0  0  0  0  0  0  0  0  0  0  0
   -0.6954    2.9852    1.4656 C   0  0  0  0  0  0  0  0  0  0  0  0
   -1.6429    3.1226    1.9972 H   0  0  0  0  0  0  0  0  0  0  0  0
    0.1101    3.3992    2.0799 H   0  0  0  0  0  0  0  0  0  0  0  0
   -0.7348    3.5449    0.5251 H   0  0  0  0  0  0  0  0  0  0  0  0
  1  2  1  0  0  0  0
  2  3  1  0  0  0  0
  2  4  1  0  0  0  0
  2  5  1  0  0  0  0
  5  6  2  0  0  0  0
  5  7  1  0  0  0  0
  7  8  1  0  0  0  0
  7  9  1  0  0  0  0
  9 10  1  0  0  0  0
  9 11  1  0  0  0  0
  9 26  1  0  0  0  0
 11 12  1  0  0  0  0
 11 13  1  0  0  0  0
 11 14  1  0  0  0  0
 14 15  2  0  0  0  0
 14 24  1  0  0  0  0
 15 16  1  0  0  0  0
 15 17  1  0  0  0  0
 17 18  1  0  0  0  0
 17 19  2  0  0  0  0
 19 20  1  0  0  0  0
 19 22  1  0  0  0  0
 20 21  1  0  0  0  0
 22 23  1  0  0  0  0
 22 24  2  0  0  0  0
 24 25  1  0  0  0  0
 26 27  2  0  0  0  0
 26 28  1  0  0  0  0
 28 29  1  0  0  0  0
 28 30  1  0  0  0  0
 30 31  1  0  0  0  0
 30 32  1  0  0  0  0
 30 33  1  0  0  0  0
M  END
$$$$

  -OEChem-04042216043D

 33 33  0     1  0  0  0  0  0999 V2000
   -3.8251   -4.0200    2.1274 H   0  0  0  0  0  0  0  0  0  0  0  0
   -3.8742   -3.1590    1.4550 C   0  0  0  0  0  0  0  0  0  0  0  0
   -4.5233   -2.4014    1.9010 H   0  0  0  0  0  0  0  0  0  0  0  0
   -4.3006   -3.4807    0.5017 H   0  0  0  0  0  0  0  0  0  0  0  0
   -2.4859   -2.5889    1.2334 C   0  0  0  0  0  0  0  0  0  0  0  0
   -1.5165   -3.1273    1.7453 O   0  0  0  0  0  0  0  0  0  0  0  0
   -2.3254   -1.4568    0.4624 N   0  0  0  0  0  0  0  0  0  0  0  0
   -3.1695   -0.9627    0.1781 H   0  0  0  0  0  0  0  0  0  0  0  0
   -1.0557   -0.7338    0.3053 C   0  0  1  0  0  0  0  0  0  0  0  0
   -0.3867   -1.0065    1.1276 H   0  0  0  0  0  0  0  0  0  0  0  0
   -0.3019   -1.0278   -1.0155 C   0  0  0  0  0  0  0  0  0  0  0  0
    0.5225   -0.3103   -1.0868 H   0  0  0  0  0  0  0  0  0  0  0  0
    0.1494   -2.0176   -0.8930 H   0  0  0  0  0  0  0  0  0  0  0  0
   -1.0143   -1.0584   -2.3667 C   0  0  0  0  0  0  0  0  0  0  0  0
   -0.1891   -1.0132   -3.5047 C   0  0  0  0  0  0  0  0  0  0  0  0
    0.8906   -0.9961   -3.3870 H   0  0  0  0  0  0  0  0  0  0  0  0
   -0.7255   -1.0045   -4.7972 C   0  0  0  0  0  0  0  0  0  0  0  0
   -0.0588   -0.9828   -5.6522 H   0  0  0  0  0  0  0  0  0  0  0  0
   -2.1068   -1.0213   -4.9805 C   0  0  0  0  0  0  0  0  0  0  0  0
   -2.6450   -1.0091   -6.2349 O   0  0  0  0  0  0  0  0  0  0  0  0
   -1.9397   -0.9590   -6.8979 H   0  0  0  0  0  0  0  0  0  0  0  0
   -2.9422   -1.0378   -3.8690 C   0  0  0  0  0  0  0  0  0  0  0  0
   -4.0168   -1.0303   -4.0182 H   0  0  0  0  0  0  0  0  0  0  0  0
   -2.4086   -1.0474   -2.5750 C   0  0  0  0  0  0  0  0  0  0  0  0
   -3.1181   -1.0219   -1.7617 H   0  0  0  0  0  0  0  0  0  0  0  0
   -1.3121    0.7801    0.4413 C   0  0  0  0  0  0  0  0  0  0  0  0
   -2.3311    1.2765   -0.0264 O   0  0  0  0  0  0  0  0  0  0  0  0
   -0.4725    1.5642    1.2116 N   0  0  0  0  0  0  0  0  0  0  0  0
    0.3213    1.1113    1.6553 H   0  0  0  0  0  0  0  0  0  0  0  0
   -0.7088    2.9806    1.4642 C   0  0  0  0  0  0  0  0  0  0  0  0
   -1.6712    3.1262    1.9659 H   0  0  0  0  0  0  0  0  0  0  0  0
    0.0797    3.3867    2.1048 H   0  0  0  0  0  0  0  0  0  0  0  0
   -0.7133    3.5418    0.5238 H   0  0  0  0  0  0  0  0  0  0  0  0
  1  2  1  0  0  0  0
  2  3  1  0  0  0  0
  2  4  1  0  0  0  0
  2  5  1  0  0  0  0
  5  6  2  0  0  0  0
  5  7  1  0  0  0  0
  7  8  1  0  0  0  0
  7  9  1  0  0  0  0
  9 10  1  0  0  0  0
  9 11  1  0  0  0  0
  9 26  1  0  0  0  0
 11 12  1  0  0  0  0
 11 13  1  0  0  0  0
 11 14  1  0  0  0  0
 14 15  2  0  0  0  0
 14 24  1  0  0  0  0
 15 16  1  0  0  0  0
 15 17  1  0  0  0  0
 17 18  1  0  0  0  0
 17 19  2  0  0  0  0
 19 20  1  0  0  0  0
 19 22  1  0  0  0  0
 20 21  1  0  0  0  0
 22 23  1  0  0  0  0
 22 24  2  0  0  0  0
 24 25  1  0  0  0  0
 26 27  2  0  0  0  0
 26 28  1  0  0  0  0
 28 29  1  0  0  0  0
 28 30  1  0  0  0  0
 30 31  1  0  0  0  0
 30 32  1  0  0  0  0
 30 33  1  0  0  0  0
M  END
$$$$

  -OEChem-04042216043D

 33 33  0     1  0  0  0  0  0999 V2000
   -3.8102   -4.0705    1.7139 H   0  0  0  0  0  0  0  0  0  0  0  0
   -3.8583   -3.1571    1.1148 C   0  0  0  0  0  0  0  0  0  0  0  0
   -4.5497   -2.4588    1.5927 H   0  0  0  0  0  0  0  0  0  0  0  0
   -4.2334   -3.4069    0.1195 H   0  0  0  0  0  0  0  0  0  0  0  0
   -2.4814   -2.5297    1.0051 C   0  0  0  0  0  0  0  0  0  0  0  0
   -1.5157   -3.0814    1.5102 O   0  0  0  0  0  0  0  0  0  0  0  0
   -2.3290   -1.3311    0.3400 N   0  0  0  0  0  0  0  0  0  0  0  0
   -3.1749   -0.8666    0.0163 H   0  0  0  0  0  0  0  0  0  0  0  0
   -1.0745   -0.5663    0.2630 C   0  0  1  0  0  0  0  0  0  0  0  0
   -0.4404   -0.8962    1.0921 H   0  0  0  0  0  0  0  0  0  0  0  0
   -0.2804   -0.8847   -1.0226 C   0  0  0  0  0  0  0  0  0  0  0  0
    0.6586   -0.3241   -0.9780 H   0  0  0  0  0  0  0  0  0  0  0  0
   -0.0208   -1.9481   -0.9825 H   0  0  0  0  0  0  0  0  0  0  0  0
   -0.9056   -0.6252   -2.3866 C   0  0  0  0  0  0  0  0  0  0  0  0
   -0.1275   -0.9372   -3.5140 C   0  0  0  0  0  0  0  0  0  0  0  0
    0.8739   -1.3371   -3.3834 H   0  0  0  0  0  0  0  0  0  0  0  0
   -0.6182   -0.7441   -4.8105 C   0  0  0  0  0  0  0  0  0  0  0  0
    0.0071   -0.9932   -5.6608 H   0  0  0  0  0  0  0  0  0  0  0  0
   -1.9027   -0.2370   -5.0038 C   0  0  0  0  0  0  0  0  0  0  0  0
   -2.3941   -0.0427   -6.2625 O   0  0  0  0  0  0  0  0  0  0  0  0
   -1.7219   -0.2761   -6.9208 H   0  0  0  0  0  0  0  0  0  0  0  0
   -2.6895    0.0720   -3.8984 C   0  0  0  0  0  0  0  0  0  0  0  0
   -3.6881    0.4668   -4.0541 H   0  0  0  0  0  0  0  0  0  0  0  0
   -2.2021   -0.1197   -2.6008 C   0  0  0  0  0  0  0  0  0  0  0  0
   -2.8602    0.1356   -1.7807 H   0  0  0  0  0  0  0  0  0  0  0  0
   -1.2749    0.9440    0.5145 C   0  0  0  0  0  0  0  0  0  0  0  0
   -2.3083    1.5044    0.1682 O   0  0  0  0  0  0  0  0  0  0  0  0
   -0.4047    1.6244    1.3480 N   0  0  0  0  0  0  0  0  0  0  0  0
    0.3869    1.1104    1.7236 H   0  0  0  0  0  0  0  0  0  0  0  0
   -0.6196    2.9996    1.7822 C   0  0  0  0  0  0  0  0  0  0  0  0
   -1.5553    3.0823    2.3452 H   0  0  0  0  0  0  0  0  0  0  0  0
    0.2018    3.3255    2.4275 H   0  0  0  0  0  0  0  0  0  0  0  0
   -0.6671    3.6708    0.9182 H   0  0  0  0  0  0  0  0  0  0  0  0
  1  2  1  0  0  0  0
  2  3  1  0  0  0  0
  2  4  1  0  0  0  0
  2  5  1  0  0  0  0
  5  6  2  0  0  0  0
  5  7  1  0  0  0  0
  7  8  1  0  0  0  0
  7  9  1  0  0  0  0
  9 10  1  0  0  0  0
  9 11  1  0  0  0  0
  9 26  1  0  0  0  0
 11 12  1  0  0  0  0
 11 13  1  0  0  0  0
 11 14  1  0  0  0  0
 14 15  2  0  0  0  0
 14 24  1  0  0  0  0
 15 16  1  0  0  0  0
 15 17  1  0  0  0  0
 17 18  1  0  0  0  0
 17 19  2  0  0  0  0
 19 20  1  0  0  0  0
 19 22  1  0  0  0  0
 20 21  1  0  0  0  0
 22 23  1  0  0  0  0
 22 24  2  0  0  0  0
 24 25  1  0  0  0  0
 26 27  2  0  0  0  0
 26 28  1  0  0  0  0
 28 29  1  0  0  0  0
 28 30  1  0  0  0  0
 30 31  1  0  0  0  0
 30 32  1  0  0  0  0
 30 33  1  0  0  0  0
M  END
$$$$

  -OEChem-04042216043D

 33 33  0     1  0  0  0  0  0999 V2000
   -3.7899   -4.0775    1.5834 H   0  0  0  0  0  0  0  0  0  0  0  0
   -3.8501   -3.1386    1.0260 C   0  0  0  0  0  0  0  0  0  0  0  0
   -4.5501   -2.4712    1.5347 H   0  0  0  0  0  0  0  0  0  0  0  0
   -4.2227   -3.3481    0.0203 H   0  0  0  0  0  0  0  0  0  0  0  0
   -2.4814   -2.4895    0.9444 C   0  0  0  0  0  0  0  0  0  0  0  0
   -1.5088   -3.0508    1.4255 O   0  0  0  0  0  0  0  0  0  0  0  0
   -2.3425   -1.2665    0.3222 N   0  0  0  0  0  0  0  0  0  0  0  0
   -3.1909   -0.8093   -0.0055 H   0  0  0  0  0  0  0  0  0  0  0  0
   -1.0941   -0.4930    0.2494 C   0  0  1  0  0  0  0  0  0  0  0  0
   -0.4641   -0.8421    1.0739 H   0  0  0  0  0  0  0  0  0  0  0  0
   -0.2928   -0.8275   -1.0278 C   0  0  0  0  0  0  0  0  0  0  0  0
    0.6427   -0.2605   -0.9923 H   0  0  0  0  0  0  0  0  0  0  0  0
   -0.0265   -1.8880   -0.9637 H   0  0  0  0  0  0  0  0  0  0  0  0
   -0.9135   -0.5954   -2.3991 C   0  0  0  0  0  0  0  0  0  0  0  0
   -0.2831   -1.2073   -3.4963 C   0  0  0  0  0  0  0  0  0  0  0  0
    0.6131   -1.8009   -3.3412 H   0  0  0  0  0  0  0  0  0  0  0  0
   -0.7869   -1.0676   -4.7945 C   0  0  0  0  0  0  0  0  0  0  0  0
   -0.2761   -1.5498   -5.6205 H   0  0  0  0  0  0  0  0  0  0  0  0
   -1.9391   -0.3158   -5.0202 C   0  0  0  0  0  0  0  0  0  0  0  0
   -2.4431   -0.1727   -6.2807 O   0  0  0  0  0  0  0  0  0  0  0  0
   -1.8817   -0.6401   -6.9179 H   0  0  0  0  0  0  0  0  0  0  0  0
   -2.5820    0.2893   -3.9446 C   0  0  0  0  0  0  0  0  0  0  0  0
   -3.4816    0.8692   -4.1245 H   0  0  0  0  0  0  0  0  0  0  0  0
   -2.0803    0.1522   -2.6452 C   0  0  0  0  0  0  0  0  0  0  0  0
   -2.6323    0.6336   -1.8508 H   0  0  0  0  0  0  0  0  0  0  0  0
   -1.2669    1.0114    0.5555 C   0  0  0  0  0  0  0  0  0  0  0  0
   -2.3145    1.5904    0.2936 O   0  0  0  0  0  0  0  0  0  0  0  0
   -0.3651    1.6463    1.3917 N   0  0  0  0  0  0  0  0  0  0  0  0
    0.4299    1.1065    1.7215 H   0  0  0  0  0  0  0  0  0  0  0  0
   -0.5677    2.9903    1.9206 C   0  0  0  0  0  0  0  0  0  0  0  0
   -1.4668    3.0249    2.5450 H   0  0  0  0  0  0  0  0  0  0  0  0
    0.2895    3.2892    2.5314 H   0  0  0  0  0  0  0  0  0  0  0  0
   -0.6773    3.7117    1.1039 H   0  0  0  0  0  0  0  0  0  0  0  0
  1  2  1  0  0  0  0
  2  3  1  0  0  0  0
  2  4  1  0  0  0  0
  2  5  1  0  0  0  0
  5  6  2  0  0  0  0
  5  7  1  0  0  0  0
  7  8  1  0  0  0  0
  7  9  1  0  0  0  0
  9 10  1  0  0  0  0
  9 11  1  0  0  0  0
  9 26  1  0  0  0  0
 11 12  1  0  0  0  0
 11 13  1  0  0  0  0
 11 14  1  0  0  0  0
 14 15  2  0  0  0  0
 14 24  1  0  0  0  0
 15 16  1  0  0  0  0
 15 17  1  0  0  0  0
 17 18  1  0  0  0  0
 17 19  2  0  0  0  0
 19 20  1  0  0  0  0
 19 22  1  0  0  0  0
 20 21  1  0  0  0  0
 22 23  1  0  0  0  0
 22 24  2  0  0  0  0
 24 25  1  0  0  0  0
 26 27  2  0  0  0  0
 26 28  1  0  0  0  0
 28 29  1  0  0  0  0
 28 30  1  0  0  0  0
 30 31  1  0  0  0  0
 30 32  1  0  0  0  0
 30 33  1  0  0  0  0
M  END
$$$$

  -OEChem-04042216043D

 33 33  0     1  0  0  0  0  0999 V2000
   -3.8223   -4.0320    1.5763 H   0  0  0  0  0  0  0  0  0  0  0  0
   -3.8729   -3.0889    1.0249 C   0  0  0  0  0  0  0  0  0  0  0  0
   -4.5617   -2.4159    1.5412 H   0  0  0  0  0  0  0  0  0  0  0  0
   -4.2535   -3.2877    0.0201 H   0  0  0  0  0  0  0  0  0  0  0  0
   -2.4959   -2.4575    0.9407 C   0  0  0  0  0  0  0  0  0  0  0  0
   -1.5288   -3.0360    1.4127 O   0  0  0  0  0  0  0  0  0  0  0  0
   -2.3410   -1.2342    0.3231 N   0  0  0  0  0  0  0  0  0  0  0  0
   -3.1820   -0.7648   -0.0077 H   0  0  0  0  0  0  0  0  0  0  0  0
   -1.0824   -0.4787    0.2446 C   0  0  1  0  0  0  0  0  0  0  0  0
   -0.4550   -0.8339    1.0683 H   0  0  0  0  0  0  0  0  0  0  0  0
   -0.2954   -0.8502   -1.0321 C   0  0  0  0  0  0  0  0  0  0  0  0
    0.6493   -0.2976   -1.0168 H   0  0  0  0  0  0  0  0  0  0  0  0
   -0.0440   -1.9128   -0.9455 H   0  0  0  0  0  0  0  0  0  0  0  0
   -0.9302   -0.6253   -2.3990 C   0  0  0  0  0  0  0  0  0  0  0  0
   -0.5519   -1.4975   -3.4353 C   0  0  0  0  0  0  0  0  0  0  0  0
    0.1502   -2.3021   -3.2367 H   0  0  0  0  0  0  0  0  0  0  0  0
   -1.0682   -1.3581   -4.7285 C   0  0  0  0  0  0  0  0  0  0  0  0
   -0.7620   -2.0523   -5.5031 H   0  0  0  0  0  0  0  0  0  0  0  0
   -1.9668   -0.3320   -5.0157 C   0  0  0  0  0  0  0  0  0  0  0  0
   -2.4794   -0.1848   -6.2723 O   0  0  0  0  0  0  0  0  0  0  0  0
   -2.1279   -0.8731   -6.8573 H   0  0  0  0  0  0  0  0  0  0  0  0
   -2.3357    0.5541   -4.0084 C   0  0  0  0  0  0  0  0  0  0  0  0
   -3.0266    1.3588   -4.2386 H   0  0  0  0  0  0  0  0  0  0  0  0
   -1.8207    0.4176   -2.7142 C   0  0  0  0  0  0  0  0  0  0  0  0
   -2.1335    1.1494   -1.9845 H   0  0  0  0  0  0  0  0  0  0  0  0
   -1.2431    1.0245    0.5594 C   0  0  0  0  0  0  0  0  0  0  0  0
   -2.2998    1.6003    0.3267 O   0  0  0  0  0  0  0  0  0  0  0  0
   -0.3335    1.6519    1.3932 N   0  0  0  0  0  0  0  0  0  0  0  0
    0.4673    1.1110    1.7070 H   0  0  0  0  0  0  0  0  0  0  0  0
   -0.5319    2.9907    1.9370 C   0  0  0  0  0  0  0  0  0  0  0  0
   -1.4168    3.0155    2.5817 H   0  0  0  0  0  0  0  0  0  0  0  0
    0.3371    3.2904    2.5304 H   0  0  0  0  0  0  0  0  0  0  0  0
   -0.6641    3.7174    1.1284 H   0  0  0  0  0  0  0  0  0  0  0  0
  1  2  1  0  0  0  0
  2  3  1  0  0  0  0
  2  4  1  0  0  0  0
  2  5  1  0  0  0  0
  5  6  2  0  0  0  0
  5  7  1  0  0  0  0
  7  8  1  0  0  0  0
  7  9  1  0  0  0  0
  9 10  1  0  0  0  0
  9 11  1  0  0  0  0
  9 26  1  0  0  0  0
 11 12  1  0  0  0  0
 11 13  1  0  0  0  0
 11 14  1  0  0  0  0
 14 15  2  0  0  0  0
 14 24  1  0  0  0  0
 15 16  1  0  0  0  0
 15 17  1  0  0  0  0
 17 18  1  0  0  0  0
 17 19  2  0  0  0  0
 19 20  1  0  0  0  0
 19 22  1  0  0  0  0
 20 21  1  0  0  0  0
 22 23  1  0  0  0  0
 22 24  2  0  0  0  0
 24 25  1  0  0  0  0
 26 27  2  0  0  0  0
 26 28  1  0  0  0  0
 28 29  1  0  0  0  0
 28 30  1  0  0  0  0
 30 31  1  0  0  0  0
 30 32  1  0  0  0  0
 30 33  1  0  0  0  0
M  END
$$$$

  -OEChem-04042216043D

 33 33  0     1  0  0  0  0  0999 V2000
   -3.8409   -4.0435    1.5487 H   0  0  0  0  0  0  0  0  0  0  0  0
   -3.8698   -3.1125    0.9759 C   0  0  0  0  0  0  0  0  0  0  0  0
   -4.5776   -2.4285    1.4506 H   0  0  0  0  0  0  0  0  0  0  0  0
   -4.2113   -3.3324   -0.0385 H   0  0  0  0  0  0  0  0  0  0  0  0
   -2.4903   -2.4825    0.9327 C   0  0  0  0  0  0  0  0  0  0  0  0
   -1.5421   -3.0498    1.4540 O   0  0  0  0  0  0  0  0  0  0  0  0
   -2.3115   -1.2719    0.2982 N   0  0  0  0  0  0  0  0  0  0  0  0
   -3.1375   -0.8104   -0.0796 H   0  0  0  0  0  0  0  0  0  0  0  0
   -1.0524   -0.5152    0.2560 C   0  0  1  0  0  0  0  0  0  0  0  0
   -0.4399   -0.8559    1.0968 H   0  0  0  0  0  0  0  0  0  0  0  0
   -0.2501   -0.8871   -1.0106 C   0  0  0  0  0  0  0  0  0  0  0  0
    0.6935   -0.3334   -0.9906 H   0  0  0  0  0  0  0  0  0  0  0  0
    0.0045   -1.9491   -0.9308 H   0  0  0  0  0  0  0  0  0  0  0  0
   -0.9006   -0.6367   -2.3634 C   0  0  0  0  0  0  0  0  0  0  0  0
   -0.8207   -1.6499   -3.3353 C   0  0  0  0  0  0  0  0  0  0  0  0
   -0.3501   -2.5985   -3.0936 H   0  0  0  0  0  0  0  0  0  0  0  0
   -1.3531   -1.4687   -4.6168 C   0  0  0  0  0  0  0  0  0  0  0  0
   -1.2914   -2.2753   -5.3389 H   0  0  0  0  0  0  0  0  0  0  0  0
   -1.9518   -0.2576   -4.9607 C   0  0  0  0  0  0  0  0  0  0  0  0
   -2.4780   -0.0693   -6.2061 O   0  0  0  0  0  0  0  0  0  0  0  0
   -2.3868   -0.8791   -6.7311 H   0  0  0  0  0  0  0  0  0  0  0  0
   -1.9978    0.7719   -4.0253 C   0  0  0  0  0  0  0  0  0  0  0  0
   -2.4448    1.7207   -4.3035 H   0  0  0  0  0  0  0  0  0  0  0  0
   -1.4656    0.5944   -2.7432 C   0  0  0  0  0  0  0  0  0  0  0  0
   -1.4900    1.4431   -2.0718 H   0  0  0  0  0  0  0  0  0  0  0  0
   -1.2548    0.9877    0.5366 C   0  0  0  0  0  0  0  0  0  0  0  0
   -2.2967    1.5463    0.2118 O   0  0  0  0  0  0  0  0  0  0  0  0
   -0.3967    1.6486    1.3978 N   0  0  0  0  0  0  0  0  0  0  0  0
    0.3857    1.1228    1.7766 H   0  0  0  0  0  0  0  0  0  0  0  0
   -0.6363    3.0009    1.8878 C   0  0  0  0  0  0  0  0  0  0  0  0
   -1.5641    3.0387    2.4682 H   0  0  0  0  0  0  0  0  0  0  0  0
    0.1881    3.3222    2.5317 H   0  0  0  0  0  0  0  0  0  0  0  0
   -0.7143    3.7033    1.0513 H   0  0  0  0  0  0  0  0  0  0  0  0
  1  2  1  0  0  0  0
  2  3  1  0  0  0  0
  2  4  1  0  0  0  0
  2  5  1  0  0  0  0
  5  6  2  0  0  0  0
  5  7  1  0  0  0  0
  7  8  1  0  0  0  0
  7  9  1  0  0  0  0
  9 10  1  0  0  0  0
  9 11  1  0  0  0  0
  9 26  1  0  0  0  0
 11 12  1  0  0  0  0
 11 13  1  0  0  0  0
 11 14  1  0  0  0  0
 14 15  2  0  0  0  0
 14 24  1  0  0  0  0
 15 16  1  0  0  0  0
 15 17  1  0  0  0  0
 17 18  1  0  0  0  0
 17 19  2  0  0  0  0
 19 20  1  0  0  0  0
 19 22  1  0  0  0  0
 20 21  1  0  0  0  0
 22 23  1  0  0  0  0
 22 24  2  0  0  0  0
 24 25  1  0  0  0  0
 26 27  2  0  0  0  0
 26 28  1  0  0  0  0
 28 29  1  0  0  0  0
 28 30  1  0  0  0  0
 30 31  1  0  0  0  0
 30 32  1  0  0  0  0
 30 33  1  0  0  0  0
M  END
$$$$

  -OEChem-04042216043D

 33 33  0     1  0  0  0  0  0999 V2000
   -3.8826   -4.0406    1.5112 H   0  0  0  0  0  0  0  0  0  0  0  0
   -3.8811   -3.1197    0.9216 C   0  0  0  0  0  0  0  0  0  0  0  0
   -4.6040   -2.4237    1.3539 H   0  0  0  0  0  0  0  0  0  0  0  0
   -4.1800   -3.3552   -0.1025 H   0  0  0  0  0  0  0  0  0  0  0  0
   -2.4978   -2.4973    0.9261 C   0  0  0  0  0  0  0  0  0  0  0  0
   -1.5778   -3.0536    1.5061 O   0  0  0  0  0  0  0  0  0  0  0  0
   -2.2844   -1.3048    0.2687 N   0  0  0  0  0  0  0  0  0  0  0  0
   -3.0883   -0.8539   -0.1660 H   0  0  0  0  0  0  0  0  0  0  0  0
   -1.0224   -0.5518    0.2654 C   0  0  1  0  0  0  0  0  0  0  0  0
   -0.4330   -0.8791    1.1278 H   0  0  0  0  0  0  0  0  0  0  0  0
   -0.1946   -0.9216   -0.9834 C   0  0  0  0  0  0  0  0  0  0  0  0
    0.7504   -0.3707   -0.9490 H   0  0  0  0  0  0  0  0  0  0  0  0
    0.0569   -1.9851   -0.9164 H   0  0  0  0  0  0  0  0  0  0  0  0
   -0.8527   -0.6428   -2.3234 C   0  0  0  0  0  0  0  0  0  0  0  0
   -1.0813   -1.7119   -3.2061 C   0  0  0  0  0  0  0  0  0  0  0  0
   -0.8329   -2.7263   -2.9072 H   0  0  0  0  0  0  0  0  0  0  0  0
   -1.6388   -1.4931   -4.4714 C   0  0  0  0  0  0  0  0  0  0  0  0
   -1.8165   -2.3368   -5.1290 H   0  0  0  0  0  0  0  0  0  0  0  0
   -1.9578   -0.1984   -4.8820 C   0  0  0  0  0  0  0  0  0  0  0  0
   -2.5031    0.0273   -6.1131 O   0  0  0  0  0  0  0  0  0  0  0  0
   -2.6295   -0.8130   -6.5794 H   0  0  0  0  0  0  0  0  0  0  0  0
   -1.7055    0.8731   -4.0294 C   0  0  0  0  0  0  0  0  0  0  0  0
   -1.9435    1.8794   -4.3580 H   0  0  0  0  0  0  0  0  0  0  0  0
   -1.1466    0.6590   -2.7643 C   0  0  0  0  0  0  0  0  0  0  0  0
   -0.9414    1.5217   -2.1391 H   0  0  0  0  0  0  0  0  0  0  0  0
   -1.2446    0.9566    0.4965 C   0  0  0  0  0  0  0  0  0  0  0  0
   -2.2442    1.5146    0.0587 O   0  0  0  0  0  0  0  0  0  0  0  0
   -0.4337    1.6461    1.3804 N   0  0  0  0  0  0  0  0  0  0  0  0
    0.3145    1.1286    1.8329 H   0  0  0  0  0  0  0  0  0  0  0  0
   -0.6893    3.0195    1.7984 C   0  0  0  0  0  0  0  0  0  0  0  0
   -1.6504    3.0889    2.3187 H   0  0  0  0  0  0  0  0  0  0  0  0
    0.0979    3.3605    2.4776 H   0  0  0  0  0  0  0  0  0  0  0  0
   -0.7092    3.6872    0.9307 H   0  0  0  0  0  0  0  0  0  0  0  0
  1  2  1  0  0  0  0
  2  3  1  0  0  0  0
  2  4  1  0  0  0  0
  2  5  1  0  0  0  0
  5  6  2  0  0  0  0
  5  7  1  0  0  0  0
  7  8  1  0  0  0  0
  7  9  1  0  0  0  0
  9 10  1  0  0  0  0
  9 11  1  0  0  0  0
  9 26  1  0  0  0  0
 11 12  1  0  0  0  0
 11 13  1  0  0  0  0
 11 14  1  0  0  0  0
 14 15  2  0  0  0  0
 14 24  1  0  0  0  0
 15 16  1  0  0  0  0
 15 17  1  0  0  0  0
 17 18  1  0  0  0  0
 17 19  2  0  0  0  0
 19 20  1  0  0  0  0
 19 22  1  0  0  0  0
 20 21  1  0  0  0  0
 22 23  1  0  0  0  0
 22 24  2  0  0  0  0
 24 25  1  0  0  0  0
 26 27  2  0  0  0  0
 26 28  1  0  0  0  0
 28 29  1  0  0  0  0
 28 30  1  0  0  0  0
 30 31  1  0  0  0  0
 30 32  1  0  0  0  0
 30 33  1  0  0  0  0
M  END
$$$$

  -OEChem-04042216043D

 33 33  0     1  0  0  0  0  0999 V2000
   -3.9239   -4.0291    1.4928 H   0  0  0  0  0  0  0  0  0  0  0  0
   -3.8967   -3.1191    0.8869 C   0  0  0  0  0  0  0  0  0  0  0  0
   -4.6292   -2.4106    1.2812 H   0  0  0  0  0  0  0  0  0  0  0  0
   -4.1625   -3.3715   -0.1424 H   0  0  0  0  0  0  0  0  0  0  0  0
   -2.5105   -2.5047    0.9266 C   0  0  0  0  0  0  0  0  0  0  0  0
   -1.6145   -3.0523    1.5504 O   0  0  0  0  0  0  0  0  0  0  0  0
   -2.2656   -1.3323    0.2455 N   0  0  0  0  0  0  0  0  0  0  0  0
   -3.0508   -0.8853   -0.2260 H   0  0  0  0  0  0  0  0  0  0  0  0
   -1.0001   -0.5860    0.2699 C   0  0  1  0  0  0  0  0  0  0  0  0
   -0.4329   -0.8998    1.1516 H   0  0  0  0  0  0  0  0  0  0  0  0
   -0.1463   -0.9540   -0.9592 C   0  0  0  0  0  0  0  0  0  0  0  0
    0.8017   -0.4093   -0.9071 H   0  0  0  0  0  0  0  0  0  0  0  0
    0.0976   -2.0202   -0.9053 H   0  0  0  0  0  0  0  0  0  0  0  0
   -0.8044   -0.6536   -2.2904 C   0  0  0  0  0  0  0  0  0  0  0  0
   -1.3296   -1.7045   -3.0590 C   0  0  0  0  0  0  0  0  0  0  0  0
   -1.2871   -2.7233   -2.6844 H   0  0  0  0  0  0  0  0  0  0  0  0
   -1.9142   -1.4537   -4.3060 C   0  0  0  0  0  0  0  0  0  0  0  0
   -2.3175   -2.2795   -4.8813 H   0  0  0  0  0  0  0  0  0  0  0  0
   -1.9731   -0.1503   -4.8032 C   0  0  0  0  0  0  0  0  0  0  0  0
   -2.5410    0.1063   -6.0178 O   0  0  0  0  0  0  0  0  0  0  0  0
   -2.8730   -0.7159   -6.4091 H   0  0  0  0  0  0  0  0  0  0  0  0
   -1.4432    0.8968   -4.0525 C   0  0  0  0  0  0  0  0  0  0  0  0
   -1.4925    1.9078   -4.4433 H   0  0  0  0  0  0  0  0  0  0  0  0
   -0.8566    0.6509   -2.8064 C   0  0  0  0  0  0  0  0  0  0  0  0
   -0.4505    1.4846   -2.2414 H   0  0  0  0  0  0  0  0  0  0  0  0
   -1.2284    0.9283    0.4510 C   0  0  0  0  0  0  0  0  0  0  0  0
   -2.1920    1.4813   -0.0658 O   0  0  0  0  0  0  0  0  0  0  0  0
   -0.4523    1.6428    1.3462 N   0  0  0  0  0  0  0  0  0  0  0  0
    0.2701    1.1371    1.8510 H   0  0  0  0  0  0  0  0  0  0  0  0
   -0.7020    3.0383    1.6869 C   0  0  0  0  0  0  0  0  0  0  0  0
   -1.6893    3.1500    2.1472 H   0  0  0  0  0  0  0  0  0  0  0  0
    0.0524    3.3951    2.3946 H   0  0  0  0  0  0  0  0  0  0  0  0
   -0.6581    3.6654    0.7901 H   0  0  0  0  0  0  0  0  0  0  0  0
  1  2  1  0  0  0  0
  2  3  1  0  0  0  0
  2  4  1  0  0  0  0
  2  5  1  0  0  0  0
  5  6  2  0  0  0  0
  5  7  1  0  0  0  0
  7  8  1  0  0  0  0
  7  9  1  0  0  0  0
  9 10  1  0  0  0  0
  9 11  1  0  0  0  0
  9 26  1  0  0  0  0
 11 12  1  0  0  0  0
 11 13  1  0  0  0  0
 11 14  1  0  0  0  0
 14 15  2  0  0  0  0
 14 24  1  0  0  0  0
 15 16  1  0  0  0  0
 15 17  1  0  0  0  0
 17 18  1  0  0  0  0
 17 19  2  0  0  0  0
 19 20  1  0  0  0  0
 19 22  1  0  0  0  0
 20 21  1  0  0  0  0
 22 23  1  0  0  0  0
 22 24  2  0  0  0  0
 24 25  1  0  0  0  0
 26 27  2  0  0  0  0
 26 28  1  0  0  0  0
 28 29  1  0  0  0  0
 28 30  1  0  0  0  0
 30 31  1  0  0  0  0
 30 32  1  0  0  0  0
 30 33  1  0  0  0  0
M  END
$$$$

  -OEChem-04042216043D

 33 33  0     1  0  0  0  0  0999 V2000
   -3.9550   -4.0111    1.5343 H   0  0  0  0  0  0  0  0  0  0  0  0
   -3.9139   -3.1177    0.9048 C   0  0  0  0  0  0  0  0  0  0  0  0
   -4.6433   -2.3929    1.2745 H   0  0  0  0  0  0  0  0  0  0  0  0
   -4.1741   -3.3955   -0.1194 H   0  0  0  0  0  0  0  0  0  0  0  0
   -2.5222   -2.5146    0.9406 C   0  0  0  0  0  0  0  0  0  0  0  0
   -1.6364   -3.0584    1.5816 O   0  0  0  0  0  0  0  0  0  0  0  0
   -2.2606   -1.3575    0.2389 N   0  0  0  0  0  0  0  0  0  0  0  0
   -3.0402   -0.9040   -0.2358 H   0  0  0  0  0  0  0  0  0  0  0  0
   -0.9907   -0.6177    0.2684 C   0  0  1  0  0  0  0  0  0  0  0  0
   -0.4320   -0.9216    1.1592 H   0  0  0  0  0  0  0  0  0  0  0  0
   -0.1203   -0.9745   -0.9514 C   0  0  0  0  0  0  0  0  0  0  0  0
    0.8305   -0.4364   -0.8820 H   0  0  0  0  0  0  0  0  0  0  0  0
    0.1162   -2.0430   -0.9124 H   0  0  0  0  0  0  0  0  0  0  0  0
   -0.7715   -0.6598   -2.2804 C   0  0  0  0  0  0  0  0  0  0  0  0
   -1.5626   -1.6243   -2.9231 C   0  0  0  0  0  0  0  0  0  0  0  0
   -1.7118   -2.5956   -2.4603 H   0  0  0  0  0  0  0  0  0  0  0  0
   -2.1577   -1.3475   -4.1597 C   0  0  0  0  0  0  0  0  0  0  0  0
   -2.7623   -2.1070   -4.6428 H   0  0  0  0  0  0  0  0  0  0  0  0
   -1.9702   -0.1030   -4.7647 C   0  0  0  0  0  0  0  0  0  0  0  0
   -2.5411    0.1758   -5.9729 O   0  0  0  0  0  0  0  0  0  0  0  0
   -3.0478   -0.5891   -6.2851 H   0  0  0  0  0  0  0  0  0  0  0  0
   -1.1914    0.8619   -4.1289 C   0  0  0  0  0  0  0  0  0  0  0  0
   -1.0574    1.8296   -4.6009 H   0  0  0  0  0  0  0  0  0  0  0  0
   -0.5929    0.5894   -2.8938 C   0  0  0  0  0  0  0  0  0  0  0  0
    0.0023    1.3584   -2.4103 H   0  0  0  0  0  0  0  0  0  0  0  0
   -1.2213    0.9005    0.4148 C   0  0  0  0  0  0  0  0  0  0  0  0
   -2.1708    1.4432   -0.1377 O   0  0  0  0  0  0  0  0  0  0  0  0
   -0.4606    1.6343    1.3079 N   0  0  0  0  0  0  0  0  0  0  0  0
    0.2563    1.1410    1.8321 H   0  0  0  0  0  0  0  0  0  0  0  0
   -0.7114    3.0388    1.6097 C   0  0  0  0  0  0  0  0  0  0  0  0
   -1.7143    3.1676    2.0299 H   0  0  0  0  0  0  0  0  0  0  0  0
    0.0182    3.4054    2.3382 H   0  0  0  0  0  0  0  0  0  0  0  0
   -0.6288    3.6470    0.7028 H   0  0  0  0  0  0  0  0  0  0  0  0
  1  2  1  0  0  0  0
  2  3  1  0  0  0  0
  2  4  1  0  0  0  0
  2  5  1  0  0  0  0
  5  6  2  0  0  0  0
  5  7  1  0  0  0  0
  7  8  1  0  0  0  0
  7  9  1  0  0  0  0
  9 10  1  0  0  0  0
  9 11  1  0  0  0  0
  9 26  1  0  0  0  0
 11 12  1  0  0  0  0
 11 13  1  0  0  0  0
 11 14  1  0  0  0  0
 14 15  2  0  0  0  0
 14 24  1  0  0  0  0
 15 16  1  0  0  0  0
 15 17  1  0  0  0  0
 17 18  1  0  0  0  0
 17 19  2  0  0  0  0
 19 20  1  0  0  0  0
 19 22  1  0  0  0  0
 20 21  1  0  0  0  0
 22 23  1  0  0  0  0
 22 24  2  0  0  0  0
 24 25  1  0  0  0  0
 26 27  2  0  0  0  0
 26 28  1  0  0  0  0
 28 29  1  0  0  0  0
 28 30  1  0  0  0  0
 30 31  1  0  0  0  0
 30 32  1  0  0  0  0
 30 33  1  0  0  0  0
M  END
$$$$

  -OEChem-04042216043D

 33 33  0     1  0  0  0  0  0999 V2000
   -3.9667   -4.0008    1.6155 H   0  0  0  0  0  0  0  0  0  0  0  0
   -3.9281   -3.1140    0.9766 C   0  0  0  0  0  0  0  0  0  0  0  0
   -4.6398   -2.3759    1.3546 H   0  0  0  0  0  0  0  0  0  0  0  0
   -4.2129   -3.3981   -0.0393 H   0  0  0  0  0  0  0  0  0  0  0  0
   -2.5283   -2.5299    0.9765 C   0  0  0  0  0  0  0  0  0  0  0  0
   -1.6374   -3.0751    1.6088 O   0  0  0  0  0  0  0  0  0  0  0  0
   -2.2658   -1.3868    0.2528 N   0  0  0  0  0  0  0  0  0  0  0  0
   -3.0533   -0.9173   -0.1928 H   0  0  0  0  0  0  0  0  0  0  0  0
   -0.9920   -0.6539    0.2676 C   0  0  1  0  0  0  0  0  0  0  0  0
   -0.4320   -0.9459    1.1614 H   0  0  0  0  0  0  0  0  0  0  0  0
   -0.1112   -0.9948   -0.9513 C   0  0  0  0  0  0  0  0  0  0  0  0
    0.8407   -0.4620   -0.8613 H   0  0  0  0  0  0  0  0  0  0  0  0
    0.1200   -2.0648   -0.9220 H   0  0  0  0  0  0  0  0  0  0  0  0
   -0.7430   -0.6760   -2.2907 C   0  0  0  0  0  0  0  0  0  0  0  0
   -1.7590   -1.4863   -2.8213 C   0  0  0  0  0  0  0  0  0  0  0  0
   -2.0821   -2.3707   -2.2808 H   0  0  0  0  0  0  0  0  0  0  0  0
   -2.3515   -1.1740   -4.0506 C   0  0  0  0  0  0  0  0  0  0  0  0
   -3.1308   -1.8160   -4.4458 H   0  0  0  0  0  0  0  0  0  0  0  0
   -1.9384   -0.0453   -4.7614 C   0  0  0  0  0  0  0  0  0  0  0  0
   -2.5098    0.2690   -5.9609 O   0  0  0  0  0  0  0  0  0  0  0  0
   -3.2217   -0.3570   -6.1627 H   0  0  0  0  0  0  0  0  0  0  0  0
   -0.9344    0.7672   -4.2394 C   0  0  0  0  0  0  0  0  0  0  0  0
   -0.6244    1.6464   -4.7941 H   0  0  0  0  0  0  0  0  0  0  0  0
   -0.3399    0.4593   -3.0107 C   0  0  0  0  0  0  0  0  0  0  0  0
    0.4300    1.1150   -2.6157 H   0  0  0  0  0  0  0  0  0  0  0  0
   -1.2333    0.8643    0.3886 C   0  0  0  0  0  0  0  0  0  0  0  0
   -2.1919    1.3867   -0.1685 O   0  0  0  0  0  0  0  0  0  0  0  0
   -0.4781    1.6192    1.2683 N   0  0  0  0  0  0  0  0  0  0  0  0
    0.2448    1.1422    1.7993 H   0  0  0  0  0  0  0  0  0  0  0  0
   -0.7357    3.0288    1.5368 C   0  0  0  0  0  0  0  0  0  0  0  0
   -1.7377    3.1619    1.9580 H   0  0  0  0  0  0  0  0  0  0  0  0
   -0.0051    3.4174    2.2525 H   0  0  0  0  0  0  0  0  0  0  0  0
   -0.6603    3.6142    0.6145 H   0  0  0  0  0  0  0  0  0  0  0  0
  1  2  1  0  0  0  0
  2  3  1  0  0  0  0
  2  4  1  0  0  0  0
  2  5  1  0  0  0  0
  5  6  2  0  0  0  0
  5  7  1  0  0  0  0
  7  8  1  0  0  0  0
  7  9  1  0  0  0  0
  9 10  1  0  0  0  0
  9 11  1  0  0  0  0
  9 26  1  0  0  0  0
 11 12  1  0  0  0  0
 11 13  1  0  0  0  0
 11 14  1  0  0  0  0
 14 15  2  0  0  0  0
 14 24  1  0  0  0  0
 15 16  1  0  0  0  0
 15 17  1  0  0  0  0
 17 18  1  0  0  0  0
 17 19  2  0  0  0  0
 19 20  1  0  0  0  0
 19 22  1  0  0  0  0
 20 21  1  0  0  0  0
 22 23  1  0  0  0  0
 22 24  2  0  0  0  0
 24 25  1  0  0  0  0
 26 27  2  0  0  0  0
 26 28  1  0  0  0  0
 28 29  1  0  0  0  0
 28 30  1  0  0  0  0
 30 31  1  0  0  0  0
 30 32  1  0  0  0  0
 30 33  1  0  0  0  0
M  END
$$$$

  -OEChem-04042216043D

 33 33  0     1  0  0  0  0  0999 V2000
   -3.9474   -3.9893    1.7764 H   0  0  0  0  0  0  0  0  0  0  0  0
   -3.9280   -3.1172    1.1168 C   0  0  0  0  0  0  0  0  0  0  0  0
   -4.6076   -2.3597    1.5151 H   0  0  0  0  0  0  0  0  0  0  0  0
   -4.2704   -3.4182    0.1239 H   0  0  0  0  0  0  0  0  0  0  0  0
   -2.5210   -2.5560    1.0314 C   0  0  0  0  0  0  0  0  0  0  0  0
   -1.6047   -3.1101    1.6183 O   0  0  0  0  0  0  0  0  0  0  0  0
   -2.2839   -1.4164    0.2926 N   0  0  0  0  0  0  0  0  0  0  0  0
   -3.0918   -0.9276   -0.0916 H   0  0  0  0  0  0  0  0  0  0  0  0
   -1.0097   -0.6847    0.2661 C   0  0  1  0  0  0  0  0  0  0  0  0
   -0.4274   -0.9703    1.1478 H   0  0  0  0  0  0  0  0  0  0  0  0
   -0.1395   -0.9986   -0.9709 C   0  0  0  0  0  0  0  0  0  0  0  0
    0.8092   -0.4624   -0.8689 H   0  0  0  0  0  0  0  0  0  0  0  0
    0.0983   -2.0672   -0.9527 H   0  0  0  0  0  0  0  0  0  0  0  0
   -0.7548   -0.6833   -2.3238 C   0  0  0  0  0  0  0  0  0  0  0  0
   -1.9471   -1.2820   -2.7662 C   0  0  0  0  0  0  0  0  0  0  0  0
   -2.4382   -2.0380   -2.1639 H   0  0  0  0  0  0  0  0  0  0  0  0
   -2.5050   -0.9381   -4.0034 C   0  0  0  0  0  0  0  0  0  0  0  0
   -3.4215   -1.4179   -4.3275 H   0  0  0  0  0  0  0  0  0  0  0  0
   -1.8837    0.0131   -4.8137 C   0  0  0  0  0  0  0  0  0  0  0  0
   -2.4215    0.3586   -6.0198 O   0  0  0  0  0  0  0  0  0  0  0  0
   -3.2662   -0.0991   -6.1479 H   0  0  0  0  0  0  0  0  0  0  0  0
   -0.7033    0.6146   -4.3857 C   0  0  0  0  0  0  0  0  0  0  0  0
   -0.2286    1.3567   -5.0190 H   0  0  0  0  0  0  0  0  0  0  0  0
   -0.1422    0.2730   -3.1507 C   0  0  0  0  0  0  0  0  0  0  0  0
    0.7717    0.7674   -2.8366 H   0  0  0  0  0  0  0  0  0  0  0  0
   -1.2630    0.8315    0.3878 C   0  0  0  0  0  0  0  0  0  0  0  0
   -2.2483    1.3375   -0.1378 O   0  0  0  0  0  0  0  0  0  0  0  0
   -0.4914    1.5990    1.2418 N   0  0  0  0  0  0  0  0  0  0  0  0
    0.2596    1.1354    1.7448 H   0  0  0  0  0  0  0  0  0  0  0  0
   -0.7533    3.0084    1.5074 C   0  0  0  0  0  0  0  0  0  0  0  0
   -1.7464    3.1366    1.9505 H   0  0  0  0  0  0  0  0  0  0  0  0
   -0.0098    3.4073    2.2041 H   0  0  0  0  0  0  0  0  0  0  0  0
   -0.7036    3.5881    0.5796 H   0  0  0  0  0  0  0  0  0  0  0  0
  1  2  1  0  0  0  0
  2  3  1  0  0  0  0
  2  4  1  0  0  0  0
  2  5  1  0  0  0  0
  5  6  2  0  0  0  0
  5  7  1  0  0  0  0
  7  8  1  0  0  0  0
  7  9  1  0  0  0  0
  9 10  1  0  0  0  0
  9 11  1  0  0  0  0
  9 26  1  0  0  0  0
 11 12  1  0  0  0  0
 11 13  1  0  0  0  0
 11 14  1  0  0  0  0
 14 15  2  0  0  0  0
 14 24  1  0  0  0  0
 15 16  1  0  0  0  0
 15 17  1  0  0  0  0
 17 18  1  0  0  0  0
 17 19  2  0  0  0  0
 19 20  1  0  0  0  0
 19 22  1  0  0  0  0
 20 21  1  0  0  0  0
 22 23  1  0  0  0  0
 22 24  2  0  0  0  0
 24 25  1  0  0  0  0
 26 27  2  0  0  0  0
 26 28  1  0  0  0  0
 28 29  1  0  0  0  0
 28 30  1  0  0  0  0
 30 31  1  0  0  0  0
 30 32  1  0  0  0  0
 30 33  1  0  0  0  0
M  END
$$$$

  -OEChem-04042216043D

 33 33  0     1  0  0  0  0  0999 V2000
   -3.8862   -4.0198    1.8732 H   0  0  0  0  0  0  0  0  0  0  0  0
   -3.9000   -3.1409    1.2224 C   0  0  0  0  0  0  0  0  0  0  0  0
   -4.5642   -2.3907    1.6583 H   0  0  0  0  0  0  0  0  0  0  0  0
   -4.2842   -3.4336    0.2423 H   0  0  0  0  0  0  0  0  0  0  0  0
   -2.5004   -2.5734    1.0803 C   0  0  0  0  0  0  0  0  0  0  0  0
   -1.5572   -3.1321    1.6178 O   0  0  0  0  0  0  0  0  0  0  0  0
   -2.2997   -1.4262    0.3422 N   0  0  0  0  0  0  0  0  0  0  0  0
   -3.1277   -0.9221    0.0269 H   0  0  0  0  0  0  0  0  0  0  0  0
   -1.0286   -0.6921    0.2737 C   0  0  1  0  0  0  0  0  0  0  0  0
   -0.4144   -0.9822    1.1320 H   0  0  0  0  0  0  0  0  0  0  0  0
   -0.1937   -0.9815   -0.9951 C   0  0  0  0  0  0  0  0  0  0  0  0
    0.7533   -0.4414   -0.8969 H   0  0  0  0  0  0  0  0  0  0  0  0
    0.0499   -2.0487   -0.9906 H   0  0  0  0  0  0  0  0  0  0  0  0
   -0.8056   -0.6654   -2.3545 C   0  0  0  0  0  0  0  0  0  0  0  0
   -2.1232   -0.9976   -2.7213 C   0  0  0  0  0  0  0  0  0  0  0  0
   -2.7717   -1.5479   -2.0531 H   0  0  0  0  0  0  0  0  0  0  0  0
   -2.6299   -0.6469   -3.9786 C   0  0  0  0  0  0  0  0  0  0  0  0
   -3.6490   -0.9146   -4.2345 H   0  0  0  0  0  0  0  0  0  0  0  0
   -1.8302    0.0371   -4.8940 C   0  0  0  0  0  0  0  0  0  0  0  0
   -2.3170    0.3860   -6.1205 O   0  0  0  0  0  0  0  0  0  0  0  0
   -3.2559    0.1526   -6.1816 H   0  0  0  0  0  0  0  0  0  0  0  0
   -0.5222    0.3637   -4.5507 C   0  0  0  0  0  0  0  0  0  0  0  0
    0.0957    0.8938   -5.2680 H   0  0  0  0  0  0  0  0  0  0  0  0
   -0.0138    0.0182   -3.2943 C   0  0  0  0  0  0  0  0  0  0  0  0
    1.0087    0.2936   -3.0541 H   0  0  0  0  0  0  0  0  0  0  0  0
   -1.2892    0.8205    0.4207 C   0  0  0  0  0  0  0  0  0  0  0  0
   -2.3010    1.3197   -0.0599 O   0  0  0  0  0  0  0  0  0  0  0  0
   -0.4935    1.5885    1.2519 N   0  0  0  0  0  0  0  0  0  0  0  0
    0.2912    1.1330    1.7089 H   0  0  0  0  0  0  0  0  0  0  0  0
   -0.7539    2.9953    1.5328 C   0  0  0  0  0  0  0  0  0  0  0  0
   -1.7324    3.1165    2.0092 H   0  0  0  0  0  0  0  0  0  0  0  0
    0.0104    3.3947    2.2064 H   0  0  0  0  0  0  0  0  0  0  0  0
   -0.7376    3.5794    0.6066 H   0  0  0  0  0  0  0  0  0  0  0  0
  1  2  1  0  0  0  0
  2  3  1  0  0  0  0
  2  4  1  0  0  0  0
  2  5  1  0  0  0  0
  5  6  2  0  0  0  0
  5  7  1  0  0  0  0
  7  8  1  0  0  0  0
  7  9  1  0  0  0  0
  9 10  1  0  0  0  0
  9 11  1  0  0  0  0
  9 26  1  0  0  0  0
 11 12  1  0  0  0  0
 11 13  1  0  0  0  0
 11 14  1  0  0  0  0
 14 15  2  0  0  0  0
 14 24  1  0  0  0  0
 15 16  1  0  0  0  0
 15 17  1  0  0  0  0
 17 18  1  0  0  0  0
 17 19  2  0  0  0  0
 19 20  1  0  0  0  0
 19 22  1  0  0  0  0
 20 21  1  0  0  0  0
 22 23  1  0  0  0  0
 22 24  2  0  0  0  0
 24 25  1  0  0  0  0
 26 27  2  0  0  0  0
 26 28  1  0  0  0  0
 28 29  1  0  0  0  0
 28 30  1  0  0  0  0
 30 31  1  0  0  0  0
 30 32  1  0  0  0  0
 30 33  1  0  0  0  0
M  END
$$$$

  -OEChem-04042216043D

 33 33  0     1  0  0  0  0  0999 V2000
   -3.8406   -4.0523    1.8663 H   0  0  0  0  0  0  0  0  0  0  0  0
   -3.8757   -3.1485    1.2516 C   0  0  0  0  0  0  0  0  0  0  0  0
   -4.5209   -2.4144    1.7403 H   0  0  0  0  0  0  0  0  0  0  0  0
   -4.2977   -3.4018    0.2760 H   0  0  0  0  0  0  0  0  0  0  0  0
   -2.4801   -2.5791    1.0792 C   0  0  0  0  0  0  0  0  0  0  0  0
   -1.5221   -3.1472    1.5800 O   0  0  0  0  0  0  0  0  0  0  0  0
   -2.3015   -1.4156    0.3608 N   0  0  0  0  0  0  0  0  0  0  0  0
   -3.1404   -0.9024    0.0944 H   0  0  0  0  0  0  0  0  0  0  0  0
   -1.0334   -0.6767    0.2773 C   0  0  1  0  0  0  0  0  0  0  0  0
   -0.3975   -0.9832    1.1141 H   0  0  0  0  0  0  0  0  0  0  0  0
   -0.2331   -0.9442   -1.0182 C   0  0  0  0  0  0  0  0  0  0  0  0
    0.7125   -0.3992   -0.9303 H   0  0  0  0  0  0  0  0  0  0  0  0
    0.0149   -2.0105   -1.0302 H   0  0  0  0  0  0  0  0  0  0  0  0
   -0.8484   -0.6160   -2.3748 C   0  0  0  0  0  0  0  0  0  0  0  0
   -2.2254   -0.6492   -2.6697 C   0  0  0  0  0  0  0  0  0  0  0  0
   -2.9637   -0.9055   -1.9235 H   0  0  0  0  0  0  0  0  0  0  0  0
   -2.6946   -0.3376   -3.9515 C   0  0  0  0  0  0  0  0  0  0  0  0
   -3.7608   -0.3632   -4.1465 H   0  0  0  0  0  0  0  0  0  0  0  0
   -1.8011    0.0041   -4.9659 C   0  0  0  0  0  0  0  0  0  0  0  0
   -2.2510    0.3117   -6.2174 O   0  0  0  0  0  0  0  0  0  0  0  0
   -3.2203    0.3051   -6.2305 H   0  0  0  0  0  0  0  0  0  0  0  0
   -0.4372    0.0298   -4.6952 C   0  0  0  0  0  0  0  0  0  0  0  0
    0.2542    0.2922   -5.4892 H   0  0  0  0  0  0  0  0  0  0  0  0
    0.0350   -0.2778   -3.4153 C   0  0  0  0  0  0  0  0  0  0  0  0
    1.1057   -0.2522   -3.2359 H   0  0  0  0  0  0  0  0  0  0  0  0
   -1.2929    0.8319    0.4631 C   0  0  0  0  0  0  0  0  0  0  0  0
   -2.3229    1.3345    0.0257 O   0  0  0  0  0  0  0  0  0  0  0  0
   -0.4793    1.5848    1.2906 N   0  0  0  0  0  0  0  0  0  0  0  0
    0.3196    1.1235    1.7161 H   0  0  0  0  0  0  0  0  0  0  0  0
   -0.7427    2.9816    1.6153 C   0  0  0  0  0  0  0  0  0  0  0  0
   -1.6972    3.0787    2.1432 H   0  0  0  0  0  0  0  0  0  0  0  0
    0.0500    3.3771    2.2577 H   0  0  0  0  0  0  0  0  0  0  0  0
   -0.7813    3.5860    0.7028 H   0  0  0  0  0  0  0  0  0  0  0  0
  1  2  1  0  0  0  0
  2  3  1  0  0  0  0
  2  4  1  0  0  0  0
  2  5  1  0  0  0  0
  5  6  2  0  0  0  0
  5  7  1  0  0  0  0
  7  8  1  0  0  0  0
  7  9  1  0  0  0  0
  9 10  1  0  0  0  0
  9 11  1  0  0  0  0
  9 26  1  0  0  0  0
 11 12  1  0  0  0  0
 11 13  1  0  0  0  0
 11 14  1  0  0  0  0
 14 15  2  0  0  0  0
 14 24  1  0  0  0  0
 15 16  1  0  0  0  0
 15 17  1  0  0  0  0
 17 18  1  0  0  0  0
 17 19  2  0  0  0  0
 19 20  1  0  0  0  0
 19 22  1  0  0  0  0
 20 21  1  0  0  0  0
 22 23  1  0  0  0  0
 22 24  2  0  0  0  0
 24 25  1  0  0  0  0
 26 27  2  0  0  0  0
 26 28  1  0  0  0  0
 28 29  1  0  0  0  0
 28 30  1  0  0  0  0
 30 31  1  0  0  0  0
 30 32  1  0  0  0  0
 30 33  1  0  0  0  0
M  END
$$$$

  -OEChem-04042216043D

 33 33  0     1  0  0  0  0  0999 V2000
   -3.8289   -4.0557    1.7906 H   0  0  0  0  0  0  0  0  0  0  0  0
   -3.8642   -3.1561    1.1697 C   0  0  0  0  0  0  0  0  0  0  0  0
   -4.5377   -2.4331    1.6362 H   0  0  0  0  0  0  0  0  0  0  0  0
   -4.2523   -3.4229    0.1837 H   0  0  0  0  0  0  0  0  0  0  0  0
   -2.4759   -2.5599    1.0333 C   0  0  0  0  0  0  0  0  0  0  0  0
   -1.5172   -3.1236    1.5378 O   0  0  0  0  0  0  0  0  0  0  0  0
   -2.3048   -1.3769    0.3454 N   0  0  0  0  0  0  0  0  0  0  0  0
   -3.1467   -0.8786    0.0637 H   0  0  0  0  0  0  0  0  0  0  0  0
   -1.0396   -0.6286    0.2782 C   0  0  1  0  0  0  0  0  0  0  0  0
   -0.4043   -0.9529    1.1088 H   0  0  0  0  0  0  0  0  0  0  0  0
   -0.2467   -0.9049   -1.0190 C   0  0  0  0  0  0  0  0  0  0  0  0
    0.6982   -0.3567   -0.9446 H   0  0  0  0  0  0  0  0  0  0  0  0
    0.0021   -1.9712   -1.0225 H   0  0  0  0  0  0  0  0  0  0  0  0
   -0.8612   -0.5865   -2.3769 C   0  0  0  0  0  0  0  0  0  0  0  0
   -2.2248   -0.3237   -2.6113 C   0  0  0  0  0  0  0  0  0  0  0  0
   -2.9446   -0.2914   -1.8045 H   0  0  0  0  0  0  0  0  0  0  0  0
   -2.6944   -0.0614   -3.9040 C   0  0  0  0  0  0  0  0  0  0  0  0
   -3.7472    0.1515   -4.0531 H   0  0  0  0  0  0  0  0  0  0  0  0
   -1.8164   -0.0669   -4.9873 C   0  0  0  0  0  0  0  0  0  0  0  0
   -2.2659    0.1914   -6.2499 O   0  0  0  0  0  0  0  0  0  0  0  0
   -3.2116    0.4033   -6.2264 H   0  0  0  0  0  0  0  0  0  0  0  0
   -0.4684   -0.3367   -4.7744 C   0  0  0  0  0  0  0  0  0  0  0  0
    0.2102   -0.3439   -5.6212 H   0  0  0  0  0  0  0  0  0  0  0  0
    0.0048   -0.5943   -3.4838 C   0  0  0  0  0  0  0  0  0  0  0  0
    1.0611   -0.8061   -3.3461 H   0  0  0  0  0  0  0  0  0  0  0  0
   -1.2787    0.8788    0.5014 C   0  0  0  0  0  0  0  0  0  0  0  0
   -2.3060    1.4075    0.0898 O   0  0  0  0  0  0  0  0  0  0  0  0
   -0.4500    1.5985    1.3435 N   0  0  0  0  0  0  0  0  0  0  0  0
    0.3489    1.1167    1.7460 H   0  0  0  0  0  0  0  0  0  0  0  0
   -0.6928    2.9890    1.7095 C   0  0  0  0  0  0  0  0  0  0  0  0
   -1.6655    3.0919    2.2020 H   0  0  0  0  0  0  0  0  0  0  0  0
    0.0817    3.3397    2.3982 H   0  0  0  0  0  0  0  0  0  0  0  0
   -0.6791    3.6267    0.8194 H   0  0  0  0  0  0  0  0  0  0  0  0
  1  2  1  0  0  0  0
  2  3  1  0  0  0  0
  2  4  1  0  0  0  0
  2  5  1  0  0  0  0
  5  6  2  0  0  0  0
  5  7  1  0  0  0  0
  7  8  1  0  0  0  0
  7  9  1  0  0  0  0
  9 10  1  0  0  0  0
  9 11  1  0  0  0  0
  9 26  1  0  0  0  0
 11 12  1  0  0  0  0
 11 13  1  0  0  0  0
 11 14  1  0  0  0  0
 14 15  2  0  0  0  0
 14 24  1  0  0  0  0
 15 16  1  0  0  0  0
 15 17  1  0  0  0  0
 17 18  1  0  0  0  0
 17 19  2  0  0  0  0
 19 20  1  0  0  0  0
 19 22  1  0  0  0  0
 20 21  1  0  0  0  0
 22 23  1  0  0  0  0
 22 24  2  0  0  0  0
 24 25  1  0  0  0  0
 26 27  2  0  0  0  0
 26 28  1  0  0  0  0
 28 29  1  0  0  0  0
 28 30  1  0  0  0  0
 30 31  1  0  0  0  0
 30 32  1  0  0  0  0
 30 33  1  0  0  0  0
M  END
$$$$

  -OEChem-04042216043D

 33 33  0     1  0  0  0  0  0999 V2000
   -3.8117   -4.0682    1.6711 H   0  0  0  0  0  0  0  0  0  0  0  0
   -3.8565   -3.1545    1.0720 C   0  0  0  0  0  0  0  0  0  0  0  0
   -4.5553   -2.4591    1.5430 H   0  0  0  0  0  0  0  0  0  0  0  0
   -4.2199   -3.4058    0.0726 H   0  0  0  0  0  0  0  0  0  0  0  0
   -2.4803   -2.5226    0.9773 C   0  0  0  0  0  0  0  0  0  0  0  0
   -1.5169   -3.0794    1.4811 O   0  0  0  0  0  0  0  0  0  0  0  0
   -2.3250   -1.3166    0.3261 N   0  0  0  0  0  0  0  0  0  0  0  0
   -3.1699   -0.8456    0.0102 H   0  0  0  0  0  0  0  0  0  0  0  0
   -1.0699   -0.5509    0.2677 C   0  0  1  0  0  0  0  0  0  0  0  0
   -0.4431   -0.8891    1.0990 H   0  0  0  0  0  0  0  0  0  0  0  0
   -0.2640   -0.8587   -1.0133 C   0  0  0  0  0  0  0  0  0  0  0  0
    0.6747   -0.2984   -0.9554 H   0  0  0  0  0  0  0  0  0  0  0  0
   -0.0042   -1.9221   -0.9792 H   0  0  0  0  0  0  0  0  0  0  0  0
   -0.8746   -0.5887   -2.3817 C   0  0  0  0  0  0  0  0  0  0  0  0
   -2.1608   -0.0622   -2.6060 C   0  0  0  0  0  0  0  0  0  0  0  0
   -2.8220    0.1915   -1.7881 H   0  0  0  0  0  0  0  0  0  0  0  0
   -2.6315    0.1535   -3.9068 C   0  0  0  0  0  0  0  0  0  0  0  0
   -3.6243    0.5656   -4.0491 H   0  0  0  0  0  0  0  0  0  0  0  0
   -1.8312   -0.1550   -5.0063 C   0  0  0  0  0  0  0  0  0  0  0  0
   -2.2826    0.0546   -6.2772 O   0  0  0  0  0  0  0  0  0  0  0  0
   -3.1677    0.4496   -6.2520 H   0  0  0  0  0  0  0  0  0  0  0  0
   -0.5599   -0.6814   -4.8009 C   0  0  0  0  0  0  0  0  0  0  0  0
    0.0583   -0.9214   -5.6596 H   0  0  0  0  0  0  0  0  0  0  0  0
   -0.0857   -0.8963   -3.5028 C   0  0  0  0  0  0  0  0  0  0  0  0
    0.9101   -1.3087   -3.3688 H   0  0  0  0  0  0  0  0  0  0  0  0
   -1.2707    0.9566    0.5339 C   0  0  0  0  0  0  0  0  0  0  0  0
   -2.2996    1.5232    0.1835 O   0  0  0  0  0  0  0  0  0  0  0  0
   -0.4059    1.6257    1.3818 N   0  0  0  0  0  0  0  0  0  0  0  0
    0.3846    1.1068    1.7537 H   0  0  0  0  0  0  0  0  0  0  0  0
   -0.6159    2.9991    1.8243 C   0  0  0  0  0  0  0  0  0  0  0  0
   -1.5630    3.0867    2.3668 H   0  0  0  0  0  0  0  0  0  0  0  0
    0.1938    3.3098    2.4914 H   0  0  0  0  0  0  0  0  0  0  0  0
   -0.6363    3.6786    0.9659 H   0  0  0  0  0  0  0  0  0  0  0  0
  1  2  1  0  0  0  0
  2  3  1  0  0  0  0
  2  4  1  0  0  0  0
  2  5  1  0  0  0  0
  5  6  2  0  0  0  0
  5  7  1  0  0  0  0
  7  8  1  0  0  0  0
  7  9  1  0  0  0  0
  9 10  1  0  0  0  0
  9 11  1  0  0  0  0
  9 26  1  0  0  0  0
 11 12  1  0  0  0  0
 11 13  1  0  0  0  0
 11 14  1  0  0  0  0
 14 15  2  0  0  0  0
 14 24  1  0  0  0  0
 15 16  1  0  0  0  0
 15 17  1  0  0  0  0
 17 18  1  0  0  0  0
 17 19  2  0  0  0  0
 19 20  1  0  0  0  0
 19 22  1  0  0  0  0
 20 21  1  0  0  0  0
 22 23  1  0  0  0  0
 22 24  2  0  0  0  0
 24 25  1  0  0  0  0
 26 27  2  0  0  0  0
 26 28  1  0  0  0  0
 28 29  1  0  0  0  0
 28 30  1  0  0  0  0
 30 31  1  0  0  0  0
 30 32  1  0  0  0  0
 30 33  1  0  0  0  0
M  END
$$$$

  -OEChem-04042216043D

 33 33  0     1  0  0  0  0  0999 V2000
   -3.7963   -4.0736    1.5672 H   0  0  0  0  0  0  0  0  0  0  0  0
   -3.8481   -3.1447    0.9923 C   0  0  0  0  0  0  0  0  0  0  0  0
   -4.5621   -2.4720    1.4738 H   0  0  0  0  0  0  0  0  0  0  0  0
   -4.1972   -3.3743   -0.0174 H   0  0  0  0  0  0  0  0  0  0  0  0
   -2.4805   -2.4906    0.9299 C   0  0  0  0  0  0  0  0  0  0  0  0
   -1.5131   -3.0493    1.4242 O   0  0  0  0  0  0  0  0  0  0  0  0
   -2.3370   -1.2645    0.3145 N   0  0  0  0  0  0  0  0  0  0  0  0
   -3.1819   -0.8097   -0.0247 H   0  0  0  0  0  0  0  0  0  0  0  0
   -1.0883   -0.4896    0.2571 C   0  0  1  0  0  0  0  0  0  0  0  0
   -0.4655   -0.8417    1.0858 H   0  0  0  0  0  0  0  0  0  0  0  0
   -0.2755   -0.8195   -1.0142 C   0  0  0  0  0  0  0  0  0  0  0  0
    0.6595   -0.2518   -0.9689 H   0  0  0  0  0  0  0  0  0  0  0  0
   -0.0089   -1.8800   -0.9514 H   0  0  0  0  0  0  0  0  0  0  0  0
   -0.8832   -0.5826   -2.3903 C   0  0  0  0  0  0  0  0  0  0  0  0
   -2.0283    0.1930   -2.6500 C   0  0  0  0  0  0  0  0  0  0  0  0
   -2.5859    0.6720   -1.8586 H   0  0  0  0  0  0  0  0  0  0  0  0
   -2.4987    0.3657   -3.9571 C   0  0  0  0  0  0  0  0  0  0  0  0
   -3.3819    0.9721   -4.1258 H   0  0  0  0  0  0  0  0  0  0  0  0
   -1.8387   -0.2339   -5.0289 C   0  0  0  0  0  0  0  0  0  0  0  0
   -2.2918   -0.0703   -6.3058 O   0  0  0  0  0  0  0  0  0  0  0  0
   -3.0745    0.5021   -6.3081 H   0  0  0  0  0  0  0  0  0  0  0  0
   -0.7068   -1.0065   -4.7891 C   0  0  0  0  0  0  0  0  0  0  0  0
   -0.1968   -1.4723   -5.6261 H   0  0  0  0  0  0  0  0  0  0  0  0
   -0.2323   -1.1775   -3.4845 C   0  0  0  0  0  0  0  0  0  0  0  0
    0.6553   -1.7825   -3.3237 H   0  0  0  0  0  0  0  0  0  0  0  0
   -1.2649    1.0134    0.5685 C   0  0  0  0  0  0  0  0  0  0  0  0
   -2.3102    1.5938    0.2989 O   0  0  0  0  0  0  0  0  0  0  0  0
   -0.3717    1.6455    1.4159 N   0  0  0  0  0  0  0  0  0  0  0  0
    0.4273    1.1094    1.7421 H   0  0  0  0  0  0  0  0  0  0  0  0
   -0.5709    2.9941    1.9340 C   0  0  0  0  0  0  0  0  0  0  0  0
   -1.4970    3.0488    2.5162 H   0  0  0  0  0  0  0  0  0  0  0  0
    0.2628    3.2767    2.5840 H   0  0  0  0  0  0  0  0  0  0  0  0
   -0.6281    3.7154    1.1119 H   0  0  0  0  0  0  0  0  0  0  0  0
  1  2  1  0  0  0  0
  2  3  1  0  0  0  0
  2  4  1  0  0  0  0
  2  5  1  0  0  0  0
  5  6  2  0  0  0  0
  5  7  1  0  0  0  0
  7  8  1  0  0  0  0
  7  9  1  0  0  0  0
  9 10  1  0  0  0  0
  9 11  1  0  0  0  0
  9 26  1  0  0  0  0
 11 12  1  0  0  0  0
 11 13  1  0  0  0  0
 11 14  1  0  0  0  0
 14 15  2  0  0  0  0
 14 24  1  0  0  0  0
 15 16  1  0  0  0  0
 15 17  1  0  0  0  0
 17 18  1  0  0  0  0
 17 19  2  0  0  0  0
 19 20  1  0  0  0  0
 19 22  1  0  0  0  0
 20 21  1  0  0  0  0
 22 23  1  0  0  0  0
 22 24  2  0  0  0  0
 24 25  1  0  0  0  0
 26 27  2  0  0  0  0
 26 28  1  0  0  0  0
 28 29  1  0  0  0  0
 28 30  1  0  0  0  0
 30 31  1  0  0  0  0
 30 32  1  0  0  0  0
 30 33  1  0  0  0  0
M  END
$$$$

  -OEChem-04042216043D

 33 33  0     1  0  0  0  0  0999 V2000
   -3.8556   -4.0022    1.5017 H   0  0  0  0  0  0  0  0  0  0  0  0
   -3.8851   -3.0592    0.9486 C   0  0  0  0  0  0  0  0  0  0  0  0
   -4.5839   -2.3816    1.4452 H   0  0  0  0  0  0  0  0  0  0  0  0
   -4.2387   -3.2562   -0.0665 H   0  0  0  0  0  0  0  0  0  0  0  0
   -2.5028   -2.4353    0.9018 C   0  0  0  0  0  0  0  0  0  0  0  0
   -1.5518   -3.0183    1.3999 O   0  0  0  0  0  0  0  0  0  0  0  0
   -2.3273   -1.2098    0.2942 N   0  0  0  0  0  0  0  0  0  0  0  0
   -3.1577   -0.7367   -0.0566 H   0  0  0  0  0  0  0  0  0  0  0  0
   -1.0622   -0.4627    0.2448 C   0  0  1  0  0  0  0  0  0  0  0  0
   -0.4535   -0.8272    1.0787 H   0  0  0  0  0  0  0  0  0  0  0  0
   -0.2517   -0.8312   -1.0185 C   0  0  0  0  0  0  0  0  0  0  0  0
    0.6961   -0.2852   -0.9797 H   0  0  0  0  0  0  0  0  0  0  0  0
   -0.0090   -1.8962   -0.9339 H   0  0  0  0  0  0  0  0  0  0  0  0
   -0.8541   -0.5940   -2.3981 C   0  0  0  0  0  0  0  0  0  0  0  0
   -1.7724    0.4240   -2.7150 C   0  0  0  0  0  0  0  0  0  0  0  0
   -2.1068    1.1420   -1.9819 H   0  0  0  0  0  0  0  0  0  0  0  0
   -2.2824    0.5566   -4.0121 C   0  0  0  0  0  0  0  0  0  0  0  0
   -2.9875    1.3528   -4.2245 H   0  0  0  0  0  0  0  0  0  0  0  0
   -1.8866   -0.3224   -5.0189 C   0  0  0  0  0  0  0  0  0  0  0  0
   -2.3795   -0.1996   -6.2858 O   0  0  0  0  0  0  0  0  0  0  0  0
   -2.9875    0.5542   -6.3329 H   0  0  0  0  0  0  0  0  0  0  0  0
   -0.9774   -1.3329   -4.7241 C   0  0  0  0  0  0  0  0  0  0  0  0
   -0.6718   -2.0155   -5.5102 H   0  0  0  0  0  0  0  0  0  0  0  0
   -0.4653   -1.4675   -3.4293 C   0  0  0  0  0  0  0  0  0  0  0  0
    0.2419   -2.2674   -3.2288 H   0  0  0  0  0  0  0  0  0  0  0  0
   -1.2174    1.0402    0.5647 C   0  0  0  0  0  0  0  0  0  0  0  0
   -2.2649    1.6265    0.3159 O   0  0  0  0  0  0  0  0  0  0  0  0
   -0.3191    1.6550    1.4196 N   0  0  0  0  0  0  0  0  0  0  0  0
    0.4727    1.1064    1.7426 H   0  0  0  0  0  0  0  0  0  0  0  0
   -0.5226    2.9874    1.9770 C   0  0  0  0  0  0  0  0  0  0  0  0
   -1.4187    3.0065    2.6064 H   0  0  0  0  0  0  0  0  0  0  0  0
    0.3369    3.2766    2.5894 H   0  0  0  0  0  0  0  0  0  0  0  0
   -0.6387    3.7248    1.1757 H   0  0  0  0  0  0  0  0  0  0  0  0
  1  2  1  0  0  0  0
  2  3  1  0  0  0  0
  2  4  1  0  0  0  0
  2  5  1  0  0  0  0
  5  6  2  0  0  0  0
  5  7  1  0  0  0  0
  7  8  1  0  0  0  0
  7  9  1  0  0  0  0
  9 10  1  0  0  0  0
  9 11  1  0  0  0  0
  9 26  1  0  0  0  0
 11 12  1  0  0  0  0
 11 13  1  0  0  0  0
 11 14  1  0  0  0  0
 14 15  2  0  0  0  0
 14 24  1  0  0  0  0
 15 16  1  0  0  0  0
 15 17  1  0  0  0  0
 17 18  1  0  0  0  0
 17 19  2  0  0  0  0
 19 20  1  0  0  0  0
 19 22  1  0  0  0  0
 20 21  1  0  0  0  0
 22 23  1  0  0  0  0
 22 24  2  0  0  0  0
 24 25  1  0  0  0  0
 26 27  2  0  0  0  0
 26 28  1  0  0  0  0
 28 29  1  0  0  0  0
 28 30  1  0  0  0  0
 30 31  1  0  0  0  0
 30 32  1  0  0  0  0
 30 33  1  0  0  0  0
M  END
$$$$

  -OEChem-04042216043D

 33 33  0     1  0  0  0  0  0999 V2000
   -3.8816   -4.0124    1.3841 H   0  0  0  0  0  0  0  0  0  0  0  0
   -3.8798   -3.0752    0.8206 C   0  0  0  0  0  0  0  0  0  0  0  0
   -4.6116   -2.3960    1.2641 H   0  0  0  0  0  0  0  0  0  0  0  0
   -4.1660   -3.2841   -0.2129 H   0  0  0  0  0  0  0  0  0  0  0  0
   -2.5005   -2.4453    0.8558 C   0  0  0  0  0  0  0  0  0  0  0  0
   -1.5795   -3.0198    1.4163 O   0  0  0  0  0  0  0  0  0  0  0  0
   -2.2901   -1.2291    0.2416 N   0  0  0  0  0  0  0  0  0  0  0  0
   -3.0951   -0.7664   -0.1768 H   0  0  0  0  0  0  0  0  0  0  0  0
   -1.0239   -0.4836    0.2519 C   0  0  1  0  0  0  0  0  0  0  0  0
   -0.4480   -0.8379    1.1127 H   0  0  0  0  0  0  0  0  0  0  0  0
   -0.1783   -0.8623   -0.9851 C   0  0  0  0  0  0  0  0  0  0  0  0
    0.7698   -0.3189   -0.9263 H   0  0  0  0  0  0  0  0  0  0  0  0
    0.0625   -1.9269   -0.8946 H   0  0  0  0  0  0  0  0  0  0  0  0
   -0.7659   -0.6070   -2.3666 C   0  0  0  0  0  0  0  0  0  0  0  0
   -1.4154    0.5836   -2.7391 C   0  0  0  0  0  0  0  0  0  0  0  0
   -1.4730    1.4319   -2.0706 H   0  0  0  0  0  0  0  0  0  0  0  0
   -1.9773    0.7288   -4.0127 C   0  0  0  0  0  0  0  0  0  0  0  0
   -2.4659    1.6618   -4.2713 H   0  0  0  0  0  0  0  0  0  0  0  0
   -1.9065   -0.3125   -4.9369 C   0  0  0  0  0  0  0  0  0  0  0  0
   -2.4553   -0.1790   -6.1793 O   0  0  0  0  0  0  0  0  0  0  0  0
   -2.8577    0.6986   -6.2698 H   0  0  0  0  0  0  0  0  0  0  0  0
   -1.2668   -1.4969   -4.5848 C   0  0  0  0  0  0  0  0  0  0  0  0
   -1.2147   -2.3048   -5.3074 H   0  0  0  0  0  0  0  0  0  0  0  0
   -0.7023   -1.6447   -3.3132 C   0  0  0  0  0  0  0  0  0  0  0  0
   -0.2183   -2.5844   -3.0633 H   0  0  0  0  0  0  0  0  0  0  0  0
   -1.2172    1.0193    0.5424 C   0  0  0  0  0  0  0  0  0  0  0  0
   -2.2421    1.5946    0.1926 O   0  0  0  0  0  0  0  0  0  0  0  0
   -0.3814    1.6612    1.4392 N   0  0  0  0  0  0  0  0  0  0  0  0
    0.3861    1.1246    1.8338 H   0  0  0  0  0  0  0  0  0  0  0  0
   -0.6212    3.0118    1.9345 C   0  0  0  0  0  0  0  0  0  0  0  0
   -1.5689    3.0569    2.4815 H   0  0  0  0  0  0  0  0  0  0  0  0
    0.1836    3.3155    2.6107 H   0  0  0  0  0  0  0  0  0  0  0  0
   -0.6597    3.7232    1.1029 H   0  0  0  0  0  0  0  0  0  0  0  0
  1  2  1  0  0  0  0
  2  3  1  0  0  0  0
  2  4  1  0  0  0  0
  2  5  1  0  0  0  0
  5  6  2  0  0  0  0
  5  7  1  0  0  0  0
  7  8  1  0  0  0  0
  7  9  1  0  0  0  0
  9 10  1  0  0  0  0
  9 11  1  0  0  0  0
  9 26  1  0  0  0  0
 11 12  1  0  0  0  0
 11 13  1  0  0  0  0
 11 14  1  0  0  0  0
 14 15  2  0  0  0  0
 14 24  1  0  0  0  0
 15 16  1  0  0  0  0
 15 17  1  0  0  0  0
 17 18  1  0  0  0  0
 17 19  2  0  0  0  0
 19 20  1  0  0  0  0
 19 22  1  0  0  0  0
 20 21  1  0  0  0  0
 22 23  1  0  0  0  0
 22 24  2  0  0  0  0
 24 25  1  0  0  0  0
 26 27  2  0  0  0  0
 26 28  1  0  0  0  0
 28 29  1  0  0  0  0
 28 30  1  0  0  0  0
 30 31  1  0  0  0  0
 30 32  1  0  0  0  0
 30 33  1  0  0  0  0
M  END
$$$$

  -OEChem-04042216043D

 33 33  0     1  0  0  0  0  0999 V2000
   -3.9137   -4.0253    1.3451 H   0  0  0  0  0  0  0  0  0  0  0  0
   -3.8865   -3.0958    0.7697 C   0  0  0  0  0  0  0  0  0  0  0  0
   -4.6398   -2.4121    1.1684 H   0  0  0  0  0  0  0  0  0  0  0  0
   -4.1231   -3.3191   -0.2736 H   0  0  0  0  0  0  0  0  0  0  0  0
   -2.5112   -2.4623    0.8634 C   0  0  0  0  0  0  0  0  0  0  0  0
   -1.6256   -3.0118    1.5007 O   0  0  0  0  0  0  0  0  0  0  0  0
   -2.2626   -1.2711    0.2159 N   0  0  0  0  0  0  0  0  0  0  0  0
   -3.0368   -0.8312   -0.2792 H   0  0  0  0  0  0  0  0  0  0  0  0
   -0.9951   -0.5286    0.2601 C   0  0  1  0  0  0  0  0  0  0  0  0
   -0.4429   -0.8600    1.1453 H   0  0  0  0  0  0  0  0  0  0  0  0
   -0.1244   -0.9197   -0.9536 C   0  0  0  0  0  0  0  0  0  0  0  0
    0.8247   -0.3789   -0.8868 H   0  0  0  0  0  0  0  0  0  0  0  0
    0.1130   -1.9850   -0.8658 H   0  0  0  0  0  0  0  0  0  0  0  0
   -0.7205   -0.6499   -2.3248 C   0  0  0  0  0  0  0  0  0  0  0  0
   -1.0820    0.6366   -2.7602 C   0  0  0  0  0  0  0  0  0  0  0  0
   -0.8957    1.5082   -2.1423 H   0  0  0  0  0  0  0  0  0  0  0  0
   -1.6733    0.8281   -4.0142 C   0  0  0  0  0  0  0  0  0  0  0  0
   -1.9424    1.8320   -4.3240 H   0  0  0  0  0  0  0  0  0  0  0  0
   -1.9133   -0.2610   -4.8524 C   0  0  0  0  0  0  0  0  0  0  0  0
   -2.4925   -0.0842   -6.0756 O   0  0  0  0  0  0  0  0  0  0  0  0
   -2.6904    0.8549   -6.2142 H   0  0  0  0  0  0  0  0  0  0  0  0
   -1.5578   -1.5404   -4.4339 C   0  0  0  0  0  0  0  0  0  0  0  0
   -1.7474   -2.3834   -5.0902 H   0  0  0  0  0  0  0  0  0  0  0  0
   -0.9688   -1.7362   -3.1805 C   0  0  0  0  0  0  0  0  0  0  0  0
   -0.7122   -2.7456   -2.8728 H   0  0  0  0  0  0  0  0  0  0  0  0
   -1.2085    0.9828    0.4838 C   0  0  0  0  0  0  0  0  0  0  0  0
   -2.1850    1.5535    0.0106 O   0  0  0  0  0  0  0  0  0  0  0  0
   -0.4233    1.6642    1.3970 N   0  0  0  0  0  0  0  0  0  0  0  0
    0.2990    1.1374    1.8800 H   0  0  0  0  0  0  0  0  0  0  0  0
   -0.6814    3.0395    1.8081 C   0  0  0  0  0  0  0  0  0  0  0  0
   -1.6571    3.1157    2.2993 H   0  0  0  0  0  0  0  0  0  0  0  0
    0.0873    3.3752    2.5108 H   0  0  0  0  0  0  0  0  0  0  0  0
   -0.6707    3.7078    0.9407 H   0  0  0  0  0  0  0  0  0  0  0  0
  1  2  1  0  0  0  0
  2  3  1  0  0  0  0
  2  4  1  0  0  0  0
  2  5  1  0  0  0  0
  5  6  2  0  0  0  0
  5  7  1  0  0  0  0
  7  8  1  0  0  0  0
  7  9  1  0  0  0  0
  9 10  1  0  0  0  0
  9 11  1  0  0  0  0
  9 26  1  0  0  0  0
 11 12  1  0  0  0  0
 11 13  1  0  0  0  0
 11 14  1  0  0  0  0
 14 15  2  0  0  0  0
 14 24  1  0  0  0  0
 15 16  1  0  0  0  0
 15 17  1  0  0  0  0
 17 18  1  0  0  0  0
 17 19  2  0  0  0  0
 19 20  1  0  0  0  0
 19 22  1  0  0  0  0
 20 21  1  0  0  0  0
 22 23  1  0  0  0  0
 22 24  2  0  0  0  0
 24 25  1  0  0  0  0
 26 27  2  0  0  0  0
 26 28  1  0  0  0  0
 28 29  1  0  0  0  0
 28 30  1  0  0  0  0
 30 31  1  0  0  0  0
 30 32  1  0  0  0  0
 30 33  1  0  0  0  0
M  END
$$$$

  -OEChem-04042216043D

 33 33  0     1  0  0  0  0  0999 V2000
   -3.9383   -4.0302    1.3882 H   0  0  0  0  0  0  0  0  0  0  0  0
   -3.8942   -3.1190    0.7852 C   0  0  0  0  0  0  0  0  0  0  0  0
   -4.6604   -2.4249    1.1390 H   0  0  0  0  0  0  0  0  0  0  0  0
   -4.0980   -3.3757   -0.2573 H   0  0  0  0  0  0  0  0  0  0  0  0
   -2.5233   -2.4800    0.9014 C   0  0  0  0  0  0  0  0  0  0  0  0
   -1.6610   -3.0021    1.5913 O   0  0  0  0  0  0  0  0  0  0  0  0
   -2.2524   -1.3159    0.2149 N   0  0  0  0  0  0  0  0  0  0  0  0
   -3.0067   -0.8985   -0.3286 H   0  0  0  0  0  0  0  0  0  0  0  0
   -0.9845   -0.5747    0.2673 C   0  0  1  0  0  0  0  0  0  0  0  0
   -0.4435   -0.8820    1.1680 H   0  0  0  0  0  0  0  0  0  0  0  0
   -0.1003   -0.9686   -0.9330 C   0  0  0  0  0  0  0  0  0  0  0  0
    0.8497   -0.4294   -0.8639 H   0  0  0  0  0  0  0  0  0  0  0  0
    0.1345   -2.0353   -0.8547 H   0  0  0  0  0  0  0  0  0  0  0  0
   -0.7175   -0.6866   -2.2880 C   0  0  0  0  0  0  0  0  0  0  0  0
   -0.7951    0.6157   -2.8067 C   0  0  0  0  0  0  0  0  0  0  0  0
   -0.4016    1.4556   -2.2417 H   0  0  0  0  0  0  0  0  0  0  0  0
   -1.3893    0.8520   -4.0517 C   0  0  0  0  0  0  0  0  0  0  0  0
   -1.4445    1.8675   -4.4280 H   0  0  0  0  0  0  0  0  0  0  0  0
   -1.9105   -0.2091   -4.7940 C   0  0  0  0  0  0  0  0  0  0  0  0
   -2.4948    0.0125   -6.0073 O   0  0  0  0  0  0  0  0  0  0  0  0
   -2.5040    0.9628   -6.1997 H   0  0  0  0  0  0  0  0  0  0  0  0
   -1.8356   -1.5053   -4.2887 C   0  0  0  0  0  0  0  0  0  0  0  0
   -2.2424   -2.3245   -4.8726 H   0  0  0  0  0  0  0  0  0  0  0  0
   -1.2455   -1.7456   -3.0432 C   0  0  0  0  0  0  0  0  0  0  0  0
   -1.2026   -2.7616   -2.6622 H   0  0  0  0  0  0  0  0  0  0  0  0
   -1.2039    0.9441    0.4250 C   0  0  0  0  0  0  0  0  0  0  0  0
   -2.1372    1.5066   -0.1362 O   0  0  0  0  0  0  0  0  0  0  0  0
   -0.4461    1.6602    1.3343 N   0  0  0  0  0  0  0  0  0  0  0  0
    0.2422    1.1475    1.8781 H   0  0  0  0  0  0  0  0  0  0  0  0
   -0.6983    3.0587    1.6607 C   0  0  0  0  0  0  0  0  0  0  0  0
   -1.7012    3.1775    2.0841 H   0  0  0  0  0  0  0  0  0  0  0  0
    0.0318    3.4141    2.3942 H   0  0  0  0  0  0  0  0  0  0  0  0
   -0.6177    3.6825    0.7642 H   0  0  0  0  0  0  0  0  0  0  0  0
  1  2  1  0  0  0  0
  2  3  1  0  0  0  0
  2  4  1  0  0  0  0
  2  5  1  0  0  0  0
  5  6  2  0  0  0  0
  5  7  1  0  0  0  0
  7  8  1  0  0  0  0
  7  9  1  0  0  0  0
  9 10  1  0  0  0  0
  9 11  1  0  0  0  0
  9 26  1  0  0  0  0
 11 12  1  0  0  0  0
 11 13  1  0  0  0  0
 11 14  1  0  0  0  0
 14 15  2  0  0  0  0
 14 24  1  0  0  0  0
 15 16  1  0  0  0  0
 15 17  1  0  0  0  0
 17 18  1  0  0  0  0
 17 19  2  0  0  0  0
 19 20  1  0  0  0  0
 19 22  1  0  0  0  0
 20 21  1  0  0  0  0
 22 23  1  0  0  0  0
 22 24  2  0  0  0  0
 24 25  1  0  0  0  0
 26 27  2  0  0  0  0
 26 28  1  0  0  0  0
 28 29  1  0  0  0  0
 28 30  1  0  0  0  0
 30 31  1  0  0  0  0
 30 32  1  0  0  0  0
 30 33  1  0  0  0  0
M  END
$$$$

  -OEChem-04042216043D

 33 33  0     1  0  0  0  0  0999 V2000
   -3.9637   -4.0175    1.4698 H   0  0  0  0  0  0  0  0  0  0  0  0
   -3.9103   -3.1254    0.8396 C   0  0  0  0  0  0  0  0  0  0  0  0
   -4.6657   -2.4108    1.1753 H   0  0  0  0  0  0  0  0  0  0  0  0
   -4.1226   -3.4099   -0.1938 H   0  0  0  0  0  0  0  0  0  0  0  0
   -2.5307   -2.5015    0.9322 C   0  0  0  0  0  0  0  0  0  0  0  0
   -1.6691   -3.0196    1.6256 O   0  0  0  0  0  0  0  0  0  0  0  0
   -2.2508   -1.3545    0.2217 N   0  0  0  0  0  0  0  0  0  0  0  0
   -3.0069   -0.9321   -0.3155 H   0  0  0  0  0  0  0  0  0  0  0  0
   -0.9818   -0.6144    0.2699 C   0  0  1  0  0  0  0  0  0  0  0  0
   -0.4411   -0.9078    1.1752 H   0  0  0  0  0  0  0  0  0  0  0  0
   -0.0922   -0.9949   -0.9290 C   0  0  0  0  0  0  0  0  0  0  0  0
    0.8594   -0.4592   -0.8538 H   0  0  0  0  0  0  0  0  0  0  0  0
    0.1384   -2.0638   -0.8694 H   0  0  0  0  0  0  0  0  0  0  0  0
   -0.7275   -0.6968   -2.2697 C   0  0  0  0  0  0  0  0  0  0  0  0
   -0.5449    0.5445   -2.8977 C   0  0  0  0  0  0  0  0  0  0  0  0
    0.0401    1.3200   -2.4120 H   0  0  0  0  0  0  0  0  0  0  0  0
   -1.1342    0.8042   -4.1407 C   0  0  0  0  0  0  0  0  0  0  0  0
   -0.9933    1.7748   -4.6028 H   0  0  0  0  0  0  0  0  0  0  0  0
   -1.9012   -0.1764   -4.7731 C   0  0  0  0  0  0  0  0  0  0  0  0
   -2.4823    0.0692   -5.9834 O   0  0  0  0  0  0  0  0  0  0  0  0
   -2.3125    0.9858   -6.2501 H   0  0  0  0  0  0  0  0  0  0  0  0
   -2.0760   -1.4162   -4.1613 C   0  0  0  0  0  0  0  0  0  0  0  0
   -2.6697   -2.1739   -4.6621 H   0  0  0  0  0  0  0  0  0  0  0  0
   -1.4939   -1.6781   -2.9166 C   0  0  0  0  0  0  0  0  0  0  0  0
   -1.6386   -2.6486   -2.4514 H   0  0  0  0  0  0  0  0  0  0  0  0
   -1.2071    0.9069    0.3900 C   0  0  0  0  0  0  0  0  0  0  0  0
   -2.1226    1.4556   -0.2122 O   0  0  0  0  0  0  0  0  0  0  0  0
   -0.4618    1.6473    1.2905 N   0  0  0  0  0  0  0  0  0  0  0  0
    0.2120    1.1483    1.8644 H   0  0  0  0  0  0  0  0  0  0  0  0
   -0.7078    3.0582    1.5637 C   0  0  0  0  0  0  0  0  0  0  0  0
   -1.7206    3.2025    1.9543 H   0  0  0  0  0  0  0  0  0  0  0  0
    0.0053    3.4297    2.3059 H   0  0  0  0  0  0  0  0  0  0  0  0
   -0.5948    3.6508    0.6498 H   0  0  0  0  0  0  0  0  0  0  0  0
  1  2  1  0  0  0  0
  2  3  1  0  0  0  0
  2  4  1  0  0  0  0
  2  5  1  0  0  0  0
  5  6  2  0  0  0  0
  5  7  1  0  0  0  0
  7  8  1  0  0  0  0
  7  9  1  0  0  0  0
  9 10  1  0  0  0  0
  9 11  1  0  0  0  0
  9 26  1  0  0  0  0
 11 12  1  0  0  0  0
 11 13  1  0  0  0  0
 11 14  1  0  0  0  0
 14 15  2  0  0  0  0
 14 24  1  0  0  0  0
 15 16  1  0  0  0  0
 15 17  1  0  0  0  0
 17 18  1  0  0  0  0
 17 19  2  0  0  0  0
 19 20  1  0  0  0  0
 19 22  1  0  0  0  0
 20 21  1  0  0  0  0
 22 23  1  0  0  0  0
 22 24  2  0  0  0  0
 24 25  1  0  0  0  0
 26 27  2  0  0  0  0
 26 28  1  0  0  0  0
 28 29  1  0  0  0  0
 28 30  1  0  0  0  0
 30 31  1  0  0  0  0
 30 32  1  0  0  0  0
 30 33  1  0  0  0  0
M  END
$$$$

  -OEChem-04042216043D

 33 33  0     1  0  0  0  0  0999 V2000
   -3.9734   -4.0069    1.5859 H   0  0  0  0  0  0  0  0  0  0  0  0
   -3.9267   -3.1236    0.9428 C   0  0  0  0  0  0  0  0  0  0  0  0
   -4.6577   -2.3918    1.2955 H   0  0  0  0  0  0  0  0  0  0  0  0
   -4.1799   -3.4172   -0.0789 H   0  0  0  0  0  0  0  0  0  0  0  0
   -2.5340   -2.5228    0.9785 C   0  0  0  0  0  0  0  0  0  0  0  0
   -1.6550   -3.0520    1.6407 O   0  0  0  0  0  0  0  0  0  0  0  0
   -2.2632   -1.3832    0.2522 N   0  0  0  0  0  0  0  0  0  0  0  0
   -3.0376   -0.9388   -0.2395 H   0  0  0  0  0  0  0  0  0  0  0  0
   -0.9902   -0.6486    0.2731 C   0  0  1  0  0  0  0  0  0  0  0  0
   -0.4340   -0.9374    1.1705 H   0  0  0  0  0  0  0  0  0  0  0  0
   -0.1090   -1.0025   -0.9414 C   0  0  0  0  0  0  0  0  0  0  0  0
    0.8436   -0.4700   -0.8577 H   0  0  0  0  0  0  0  0  0  0  0  0
    0.1198   -2.0727   -0.9054 H   0  0  0  0  0  0  0  0  0  0  0  0
   -0.7496   -0.6891   -2.2774 C   0  0  0  0  0  0  0  0  0  0  0  0
   -0.3313    0.4228   -3.0248 C   0  0  0  0  0  0  0  0  0  0  0  0
    0.4271    1.0919   -2.6296 H   0  0  0  0  0  0  0  0  0  0  0  0
   -0.9006    0.6939   -4.2747 C   0  0  0  0  0  0  0  0  0  0  0  0
   -0.5755    1.5671   -4.8290 H   0  0  0  0  0  0  0  0  0  0  0  0
   -1.8799   -0.1518   -4.7992 C   0  0  0  0  0  0  0  0  0  0  0  0
   -2.4399    0.1043   -6.0172 O   0  0  0  0  0  0  0  0  0  0  0  0
   -2.0907    0.9362   -6.3717 H   0  0  0  0  0  0  0  0  0  0  0  0
   -2.2836   -1.2708   -4.0746 C   0  0  0  0  0  0  0  0  0  0  0  0
   -3.0381   -1.9278   -4.4939 H   0  0  0  0  0  0  0  0  0  0  0  0
   -1.7192   -1.5443   -2.8243 C   0  0  0  0  0  0  0  0  0  0  0  0
   -2.0328   -2.4294   -2.2797 H   0  0  0  0  0  0  0  0  0  0  0  0
   -1.2238    0.8721    0.3838 C   0  0  0  0  0  0  0  0  0  0  0  0
   -2.1570    1.4045   -0.2060 O   0  0  0  0  0  0  0  0  0  0  0  0
   -0.4715    1.6283    1.2650 N   0  0  0  0  0  0  0  0  0  0  0  0
    0.2287    1.1463    1.8214 H   0  0  0  0  0  0  0  0  0  0  0  0
   -0.7189    3.0431    1.5156 C   0  0  0  0  0  0  0  0  0  0  0  0
   -1.7250    3.1900    1.9221 H   0  0  0  0  0  0  0  0  0  0  0  0
    0.0059    3.4324    2.2367 H   0  0  0  0  0  0  0  0  0  0  0  0
   -0.6256    3.6182    0.5883 H   0  0  0  0  0  0  0  0  0  0  0  0
  1  2  1  0  0  0  0
  2  3  1  0  0  0  0
  2  4  1  0  0  0  0
  2  5  1  0  0  0  0
  5  6  2  0  0  0  0
  5  7  1  0  0  0  0
  7  8  1  0  0  0  0
  7  9  1  0  0  0  0
  9 10  1  0  0  0  0
  9 11  1  0  0  0  0
  9 26  1  0  0  0  0
 11 12  1  0  0  0  0
 11 13  1  0  0  0  0
 11 14  1  0  0  0  0
 14 15  2  0  0  0  0
 14 24  1  0  0  0  0
 15 16  1  0  0  0  0
 15 17  1  0  0  0  0
 17 18  1  0  0  0  0
 17 19  2  0  0  0  0
 19 20  1  0  0  0  0
 19 22  1  0  0  0  0
 20 21  1  0  0  0  0
 22 23  1  0  0  0  0
 22 24  2  0  0  0  0
 24 25  1  0  0  0  0
 26 27  2  0  0  0  0
 26 28  1  0  0  0  0
 28 29  1  0  0  0  0
 28 30  1  0  0  0  0
 30 31  1  0  0  0  0
 30 32  1  0  0  0  0
 30 33  1  0  0  0  0
M  END
$$$$

  -OEChem-04042216043D

 33 33  0     1  0  0  0  0  0999 V2000
   -3.9617   -3.9874    1.7265 H   0  0  0  0  0  0  0  0  0  0  0  0
   -3.9340   -3.1112    1.0728 C   0  0  0  0  0  0  0  0  0  0  0  0
   -4.6324   -2.3636    1.4565 H   0  0  0  0  0  0  0  0  0  0  0  0
   -4.2462   -3.4093    0.0691 H   0  0  0  0  0  0  0  0  0  0  0  0
   -2.5313   -2.5353    1.0287 C   0  0  0  0  0  0  0  0  0  0  0  0
   -1.6257   -3.0806    1.6400 O   0  0  0  0  0  0  0  0  0  0  0  0
   -2.2842   -1.3956    0.2935 N   0  0  0  0  0  0  0  0  0  0  0  0
   -3.0830   -0.9228   -0.1283 H   0  0  0  0  0  0  0  0  0  0  0  0
   -1.0077   -0.6680    0.2712 C   0  0  1  0  0  0  0  0  0  0  0  0
   -0.4263   -0.9586    1.1518 H   0  0  0  0  0  0  0  0  0  0  0  0
   -0.1458   -0.9933   -0.9678 C   0  0  0  0  0  0  0  0  0  0  0  0
    0.8054   -0.4590   -0.8780 H   0  0  0  0  0  0  0  0  0  0  0  0
    0.0877   -2.0631   -0.9508 H   0  0  0  0  0  0  0  0  0  0  0  0
   -0.7834   -0.6715   -2.3073 C   0  0  0  0  0  0  0  0  0  0  0  0
   -0.1626    0.2461   -3.1706 C   0  0  0  0  0  0  0  0  0  0  0  0
    0.7366    0.7675   -2.8568 H   0  0  0  0  0  0  0  0  0  0  0  0
   -0.7014    0.5195   -4.4335 C   0  0  0  0  0  0  0  0  0  0  0  0
   -0.2159    1.2477   -5.0735 H   0  0  0  0  0  0  0  0  0  0  0  0
   -1.8523   -0.1425   -4.8635 C   0  0  0  0  0  0  0  0  0  0  0  0
   -2.3874    0.1158   -6.0925 O   0  0  0  0  0  0  0  0  0  0  0  0
   -1.8908    0.8262   -6.5265 H   0  0  0  0  0  0  0  0  0  0  0  0
   -2.4516   -1.0865   -4.0338 C   0  0  0  0  0  0  0  0  0  0  0  0
   -3.3342   -1.6117   -4.3831 H   0  0  0  0  0  0  0  0  0  0  0  0
   -1.9179   -1.3596   -2.7700 C   0  0  0  0  0  0  0  0  0  0  0  0
   -2.3864   -2.1242   -2.1606 H   0  0  0  0  0  0  0  0  0  0  0  0
   -1.2462    0.8506    0.3935 C   0  0  0  0  0  0  0  0  0  0  0  0
   -2.2125    1.3733   -0.1500 O   0  0  0  0  0  0  0  0  0  0  0  0
   -0.4689    1.6095    1.2500 N   0  0  0  0  0  0  0  0  0  0  0  0
    0.2617    1.1328    1.7705 H   0  0  0  0  0  0  0  0  0  0  0  0
   -0.7236    3.0189    1.5225 C   0  0  0  0  0  0  0  0  0  0  0  0
   -1.7171    3.1498    1.9641 H   0  0  0  0  0  0  0  0  0  0  0  0
    0.0208    3.4094    2.2228 H   0  0  0  0  0  0  0  0  0  0  0  0
   -0.6685    3.6037    0.5981 H   0  0  0  0  0  0  0  0  0  0  0  0
  1  2  1  0  0  0  0
  2  3  1  0  0  0  0
  2  4  1  0  0  0  0
  2  5  1  0  0  0  0
  5  6  2  0  0  0  0
  5  7  1  0  0  0  0
  7  8  1  0  0  0  0
  7  9  1  0  0  0  0
  9 10  1  0  0  0  0
  9 11  1  0  0  0  0
  9 26  1  0  0  0  0
 11 12  1  0  0  0  0
 11 13  1  0  0  0  0
 11 14  1  0  0  0  0
 14 15  2  0  0  0  0
 14 24  1  0  0  0  0
 15 16  1  0  0  0  0
 15 17  1  0  0  0  0
 17 18  1  0  0  0  0
 17 19  2  0  0  0  0
 19 20  1  0  0  0  0
 19 22  1  0  0  0  0
 20 21  1  0  0  0  0
 22 23  1  0  0  0  0
 22 24  2  0  0  0  0
 24 25  1  0  0  0  0
 26 27  2  0  0  0  0
 26 28  1  0  0  0  0
 28 29  1  0  0  0  0
 28 30  1  0  0  0  0
 30 31  1  0  0  0  0
 30 32  1  0  0  0  0
 30 33  1  0  0  0  0
M  END
$$$$

  -OEChem-04042216043D

 33 33  0     1  0  0  0  0  0999 V2000
   -3.9164   -3.9909    1.8599 H   0  0  0  0  0  0  0  0  0  0  0  0
   -3.9178   -3.1165    1.2031 C   0  0  0  0  0  0  0  0  0  0  0  0
   -4.5855   -2.3611    1.6247 H   0  0  0  0  0  0  0  0  0  0  0  0
   -4.2901   -3.4144    0.2200 H   0  0  0  0  0  0  0  0  0  0  0  0
   -2.5144   -2.5544    1.0765 C   0  0  0  0  0  0  0  0  0  0  0  0
   -1.5794   -3.1110    1.6309 O   0  0  0  0  0  0  0  0  0  0  0  0
   -2.3022   -1.4090    0.3390 N   0  0  0  0  0  0  0  0  0  0  0  0
   -3.1235   -0.9151   -0.0086 H   0  0  0  0  0  0  0  0  0  0  0  0
   -1.0280   -0.6813    0.2708 C   0  0  1  0  0  0  0  0  0  0  0  0
   -0.4160   -0.9746    1.1295 H   0  0  0  0  0  0  0  0  0  0  0  0
   -0.1957   -0.9790   -0.9976 C   0  0  0  0  0  0  0  0  0  0  0  0
    0.7525   -0.4399   -0.9063 H   0  0  0  0  0  0  0  0  0  0  0  0
    0.0448   -2.0470   -0.9932 H   0  0  0  0  0  0  0  0  0  0  0  0
   -0.8221   -0.6586   -2.3482 C   0  0  0  0  0  0  0  0  0  0  0  0
   -0.0392    0.0041   -3.3097 C   0  0  0  0  0  0  0  0  0  0  0  0
    0.9695    0.3229   -3.0650 H   0  0  0  0  0  0  0  0  0  0  0  0
   -0.5421    0.2810   -4.5863 C   0  0  0  0  0  0  0  0  0  0  0  0
    0.0778    0.8113   -5.3007 H   0  0  0  0  0  0  0  0  0  0  0  0
   -1.8291   -0.1267   -4.9356 C   0  0  0  0  0  0  0  0  0  0  0  0
   -2.3335    0.1396   -6.1757 O   0  0  0  0  0  0  0  0  0  0  0  0
   -1.7055    0.6792   -6.6797 H   0  0  0  0  0  0  0  0  0  0  0  0
   -2.6001   -0.8248   -4.0117 C   0  0  0  0  0  0  0  0  0  0  0  0
   -3.5922   -1.1576   -4.2975 H   0  0  0  0  0  0  0  0  0  0  0  0
   -2.1012   -1.1010   -2.7342 C   0  0  0  0  0  0  0  0  0  0  0  0
   -2.7245   -1.6802   -2.0660 H   0  0  0  0  0  0  0  0  0  0  0  0
   -1.2747    0.8338    0.4153 C   0  0  0  0  0  0  0  0  0  0  0  0
   -2.2741    1.3470   -0.0754 O   0  0  0  0  0  0  0  0  0  0  0  0
   -0.4706    1.5927    1.2468 N   0  0  0  0  0  0  0  0  0  0  0  0
    0.2910    1.1207    1.7254 H   0  0  0  0  0  0  0  0  0  0  0  0
   -0.7248    2.9976    1.5416 C   0  0  0  0  0  0  0  0  0  0  0  0
   -1.7028    3.1183    2.0193 H   0  0  0  0  0  0  0  0  0  0  0  0
    0.0416    3.3864    2.2187 H   0  0  0  0  0  0  0  0  0  0  0  0
   -0.7061    3.5910    0.6215 H   0  0  0  0  0  0  0  0  0  0  0  0
  1  2  1  0  0  0  0
  2  3  1  0  0  0  0
  2  4  1  0  0  0  0
  2  5  1  0  0  0  0
  5  6  2  0  0  0  0
  5  7  1  0  0  0  0
  7  8  1  0  0  0  0
  7  9  1  0  0  0  0
  9 10  1  0  0  0  0
  9 11  1  0  0  0  0
  9 26  1  0  0  0  0
 11 12  1  0  0  0  0
 11 13  1  0  0  0  0
 11 14  1  0  0  0  0
 14 15  2  0  0  0  0
 14 24  1  0  0  0  0
 15 16  1  0  0  0  0
 15 17  1  0  0  0  0
 17 18  1  0  0  0  0
 17 19  2  0  0  0  0
 19 20  1  0  0  0  0
 19 22  1  0  0  0  0
 20 21  1  0  0  0  0
 22 23  1  0  0  0  0
 22 24  2  0  0  0  0
 24 25  1  0  0  0  0
 26 27  2  0  0  0  0
 26 28  1  0  0  0  0
 28 29  1  0  0  0  0
 28 30  1  0  0  0  0
 30 31  1  0  0  0  0
 30 32  1  0  0  0  0
 30 33  1  0  0  0  0
M  END
$$$$

  -OEChem-04042216043D

 33 33  0     1  0  0  0  0  0999 V2000
   -3.8511   -4.0309    1.9270 H   0  0  0  0  0  0  0  0  0  0  0  0
   -3.8826   -3.1497    1.2801 C   0  0  0  0  0  0  0  0  0  0  0  0
   -4.5364   -2.4020    1.7358 H   0  0  0  0  0  0  0  0  0  0  0  0
   -4.2926   -3.4394    0.3096 H   0  0  0  0  0  0  0  0  0  0  0  0
   -2.4877   -2.5799    1.1026 C   0  0  0  0  0  0  0  0  0  0  0  0
   -1.5298   -3.1364    1.6168 O   0  0  0  0  0  0  0  0  0  0  0  0
   -2.3095   -1.4265    0.3680 N   0  0  0  0  0  0  0  0  0  0  0  0
   -3.1483   -0.9243    0.0808 H   0  0  0  0  0  0  0  0  0  0  0  0
   -1.0419   -0.6884    0.2713 C   0  0  1  0  0  0  0  0  0  0  0  0
   -0.4055   -0.9832    1.1118 H   0  0  0  0  0  0  0  0  0  0  0  0
   -0.2410   -0.9747   -1.0202 C   0  0  0  0  0  0  0  0  0  0  0  0
    0.7037   -0.4271   -0.9409 H   0  0  0  0  0  0  0  0  0  0  0  0
    0.0083   -2.0407   -1.0154 H   0  0  0  0  0  0  0  0  0  0  0  0
   -0.8586   -0.6678   -2.3811 C   0  0  0  0  0  0  0  0  0  0  0  0
    0.0180   -0.3172   -3.4234 C   0  0  0  0  0  0  0  0  0  0  0  0
    1.0866   -0.2634   -3.2384 H   0  0  0  0  0  0  0  0  0  0  0  0
   -0.4567   -0.0322   -4.7087 C   0  0  0  0  0  0  0  0  0  0  0  0
    0.2455    0.2403   -5.4889 H   0  0  0  0  0  0  0  0  0  0  0  0
   -1.8221   -0.1007   -4.9814 C   0  0  0  0  0  0  0  0  0  0  0  0
   -2.2992    0.1765   -6.2302 O   0  0  0  0  0  0  0  0  0  0  0  0
   -1.5728    0.4540   -6.8089 H   0  0  0  0  0  0  0  0  0  0  0  0
   -2.7038   -0.4583   -3.9666 C   0  0  0  0  0  0  0  0  0  0  0  0
   -3.7651   -0.5106   -4.1848 H   0  0  0  0  0  0  0  0  0  0  0  0
   -2.2327   -0.7427   -2.6798 C   0  0  0  0  0  0  0  0  0  0  0  0
   -2.9669   -1.0153   -1.9356 H   0  0  0  0  0  0  0  0  0  0  0  0
   -1.2956    0.8235    0.4360 C   0  0  0  0  0  0  0  0  0  0  0  0
   -2.3184    1.3285   -0.0141 O   0  0  0  0  0  0  0  0  0  0  0  0
   -0.4756    1.5831    1.2512 N   0  0  0  0  0  0  0  0  0  0  0  0
    0.3125    1.1185    1.6927 H   0  0  0  0  0  0  0  0  0  0  0  0
   -0.7311    2.9849    1.5596 C   0  0  0  0  0  0  0  0  0  0  0  0
   -1.6991    3.0976    2.0591 H   0  0  0  0  0  0  0  0  0  0  0  0
    0.0472    3.3747    2.2227 H   0  0  0  0  0  0  0  0  0  0  0  0
   -0.7356    3.5834    0.6426 H   0  0  0  0  0  0  0  0  0  0  0  0
  1  2  1  0  0  0  0
  2  3  1  0  0  0  0
  2  4  1  0  0  0  0
  2  5  1  0  0  0  0
  5  6  2  0  0  0  0
  5  7  1  0  0  0  0
  7  8  1  0  0  0  0
  7  9  1  0  0  0  0
  9 10  1  0  0  0  0
  9 11  1  0  0  0  0
  9 26  1  0  0  0  0
 11 12  1  0  0  0  0
 11 13  1  0  0  0  0
 11 14  1  0  0  0  0
 14 15  2  0  0  0  0
 14 24  1  0  0  0  0
 15 16  1  0  0  0  0
 15 17  1  0  0  0  0
 17 18  1  0  0  0  0
 17 19  2  0  0  0  0
 19 20  1  0  0  0  0
 19 22  1  0  0  0  0
 20 21  1  0  0  0  0
 22 23  1  0  0  0  0
 22 24  2  0  0  0  0
 24 25  1  0  0  0  0
 26 27  2  0  0  0  0
 26 28  1  0  0  0  0
 28 29  1  0  0  0  0
 28 30  1  0  0  0  0
 30 31  1  0  0  0  0
 30 32  1  0  0  0  0
 30 33  1  0  0  0  0
M  END
$$$$

  -OEChem-04042216043D

 33 33  0     1  0  0  0  0  0999 V2000
   -3.8135   -4.0716    1.8470 H   0  0  0  0  0  0  0  0  0  0  0  0
   -3.8593   -3.1785    1.2176 C   0  0  0  0  0  0  0  0  0  0  0  0
   -4.5392   -2.4578    1.6781 H   0  0  0  0  0  0  0  0  0  0  0  0
   -4.2467   -3.4593    0.2352 H   0  0  0  0  0  0  0  0  0  0  0  0
   -2.4775   -2.5694    1.0725 C   0  0  0  0  0  0  0  0  0  0  0  0
   -1.5124   -3.1172    1.5828 O   0  0  0  0  0  0  0  0  0  0  0  0
   -2.3176   -1.3975    0.3631 N   0  0  0  0  0  0  0  0  0  0  0  0
   -3.1637   -0.9134    0.0690 H   0  0  0  0  0  0  0  0  0  0  0  0
   -1.0572   -0.6442    0.2729 C   0  0  1  0  0  0  0  0  0  0  0  0
   -0.4171   -0.9507    1.1063 H   0  0  0  0  0  0  0  0  0  0  0  0
   -0.2691   -0.9479   -1.0210 C   0  0  0  0  0  0  0  0  0  0  0  0
    0.6741   -0.3950   -0.9636 H   0  0  0  0  0  0  0  0  0  0  0  0
   -0.0169   -2.0132   -0.9997 H   0  0  0  0  0  0  0  0  0  0  0  0
   -0.8914   -0.6660   -2.3837 C   0  0  0  0  0  0  0  0  0  0  0  0
   -0.0257   -0.6560   -3.4912 C   0  0  0  0  0  0  0  0  0  0  0  0
    1.0322   -0.8585   -3.3508 H   0  0  0  0  0  0  0  0  0  0  0  0
   -0.4998   -0.3965   -4.7824 C   0  0  0  0  0  0  0  0  0  0  0  0
    0.1931   -0.3989   -5.6164 H   0  0  0  0  0  0  0  0  0  0  0  0
   -1.8534   -0.1370   -4.9912 C   0  0  0  0  0  0  0  0  0  0  0  0
   -2.3289    0.1183   -6.2452 O   0  0  0  0  0  0  0  0  0  0  0  0
   -1.6014    0.1049   -6.8856 H   0  0  0  0  0  0  0  0  0  0  0  0
   -2.7241   -0.1334   -3.9058 C   0  0  0  0  0  0  0  0  0  0  0  0
   -3.7745    0.0820   -4.0717 H   0  0  0  0  0  0  0  0  0  0  0  0
   -2.2533   -0.3908   -2.6131 C   0  0  0  0  0  0  0  0  0  0  0  0
   -2.9728   -0.3497   -1.8063 H   0  0  0  0  0  0  0  0  0  0  0  0
   -1.2942    0.8671    0.4709 C   0  0  0  0  0  0  0  0  0  0  0  0
   -2.3223    1.3920    0.0580 O   0  0  0  0  0  0  0  0  0  0  0  0
   -0.4562    1.5984    1.2934 N   0  0  0  0  0  0  0  0  0  0  0  0
    0.3374    1.1172    1.7063 H   0  0  0  0  0  0  0  0  0  0  0  0
   -0.6905    2.9953    1.6392 C   0  0  0  0  0  0  0  0  0  0  0  0
   -1.6544    3.1088    2.1464 H   0  0  0  0  0  0  0  0  0  0  0  0
    0.0964    3.3559    2.3085 H   0  0  0  0  0  0  0  0  0  0  0  0
   -0.6904    3.6179    0.7384 H   0  0  0  0  0  0  0  0  0  0  0  0
  1  2  1  0  0  0  0
  2  3  1  0  0  0  0
  2  4  1  0  0  0  0
  2  5  1  0  0  0  0
  5  6  2  0  0  0  0
  5  7  1  0  0  0  0
  7  8  1  0  0  0  0
  7  9  1  0  0  0  0
  9 10  1  0  0  0  0
  9 11  1  0  0  0  0
  9 26  1  0  0  0  0
 11 12  1  0  0  0  0
 11 13  1  0  0  0  0
 11 14  1  0  0  0  0
 14 15  2  0  0  0  0
 14 24  1  0  0  0  0
 15 16  1  0  0  0  0
 15 17  1  0  0  0  0
 17 18  1  0  0  0  0
 17 19  2  0  0  0  0
 19 20  1  0  0  0  0
 19 22  1  0  0  0  0
 20 21  1  0  0  0  0
 22 23  1  0  0  0  0
 22 24  2  0  0  0  0
 24 25  1  0  0  0  0
 26 27  2  0  0  0  0
 26 28  1  0  0  0  0
 28 29  1  0  0  0  0
 28 30  1  0  0  0  0
 30 31  1  0  0  0  0
 30 32  1  0  0  0  0
 30 33  1  0  0  0  0
M  END
$$$$

  -OEChem-04042216043D

 33 33  0     1  0  0  0  0  0999 V2000
   -3.7576   -4.1172    1.5054 H   0  0  0  0  0  0  0  0  0  0  0  0
   -3.8342   -3.1572    0.9874 C   0  0  0  0  0  0  0  0  0  0  0  0
   -4.5207   -2.5121    1.5410 H   0  0  0  0  0  0  0  0  0  0  0  0
   -4.2340   -3.3287   -0.0150 H   0  0  0  0  0  0  0  0  0  0  0  0
   -2.4685   -2.5031    0.8938 C   0  0  0  0  0  0  0  0  0  0  0  0
   -1.4849   -3.0771    1.3359 O   0  0  0  0  0  0  0  0  0  0  0  0
   -2.3439   -1.2626    0.3029 N   0  0  0  0  0  0  0  0  0  0  0  0
   -3.2028   -0.7897    0.0283 H   0  0  0  0  0  0  0  0  0  0  0  0
   -1.1038   -0.4729    0.2530 C   0  0  1  0  0  0  0  0  0  0  0  0
   -0.4859   -0.8380    1.0797 H   0  0  0  0  0  0  0  0  0  0  0  0
   -0.2734   -0.7812   -1.0119 C   0  0  0  0  0  0  0  0  0  0  0  0
    0.7379   -0.4031   -0.8315 H   0  0  0  0  0  0  0  0  0  0  0  0
   -0.1956   -1.8704   -1.0968 H   0  0  0  0  0  0  0  0  0  0  0  0
   -0.7139   -0.2422   -2.3642 C   0  0  0  0  0  0  0  0  0  0  0  0
    0.0929   -0.5598   -3.4696 C   0  0  0  0  0  0  0  0  0  0  0  0
    1.0084   -1.1260   -3.3232 H   0  0  0  0  0  0  0  0  0  0  0  0
   -0.2536   -0.1511   -4.7624 C   0  0  0  0  0  0  0  0  0  0  0  0
    0.3974   -0.3993   -5.5933 H   0  0  0  0  0  0  0  0  0  0  0  0
   -1.4307    0.5645   -4.9777 C   0  0  0  0  0  0  0  0  0  0  0  0
   -1.7810    0.9690   -6.2335 O   0  0  0  0  0  0  0  0  0  0  0  0
   -1.0999    0.7027   -6.8697 H   0  0  0  0  0  0  0  0  0  0  0  0
   -2.2621    0.8528   -3.8997 C   0  0  0  0  0  0  0  0  0  0  0  0
   -3.1873    1.3925   -4.0741 H   0  0  0  0  0  0  0  0  0  0  0  0
   -1.9187    0.4437   -2.6063 C   0  0  0  0  0  0  0  0  0  0  0  0
   -2.6250    0.6581   -1.8161 H   0  0  0  0  0  0  0  0  0  0  0  0
   -1.2857    1.0222    0.5958 C   0  0  0  0  0  0  0  0  0  0  0  0
   -2.3460    1.5916    0.3643 O   0  0  0  0  0  0  0  0  0  0  0  0
   -0.3884    1.6420    1.4478 N   0  0  0  0  0  0  0  0  0  0  0  0
    0.4277    1.1119    1.7391 H   0  0  0  0  0  0  0  0  0  0  0  0
   -0.5901    2.9783    1.9953 C   0  0  0  0  0  0  0  0  0  0  0  0
   -1.4784    2.9996    2.6353 H   0  0  0  0  0  0  0  0  0  0  0  0
    0.2758    3.2761    2.5944 H   0  0  0  0  0  0  0  0  0  0  0  0
   -0.7191    3.7078    1.1885 H   0  0  0  0  0  0  0  0  0  0  0  0
  1  2  1  0  0  0  0
  2  3  1  0  0  0  0
  2  4  1  0  0  0  0
  2  5  1  0  0  0  0
  5  6  2  0  0  0  0
  5  7  1  0  0  0  0
  7  8  1  0  0  0  0
  7  9  1  0  0  0  0
  9 10  1  0  0  0  0
  9 11  1  0  0  0  0
  9 26  1  0  0  0  0
 11 12  1  0  0  0  0
 11 13  1  0  0  0  0
 11 14  1  0  0  0  0
 14 15  2  0  0  0  0
 14 24  1  0  0  0  0
 15 16  1  0  0  0  0
 15 17  1  0  0  0  0
 17 18  1  0  0  0  0
 17 19  2  0  0  0  0
 19 20  1  0  0  0  0
 19 22  1  0  0  0  0
 20 21  1  0  0  0  0
 22 23  1  0  0  0  0
 22 24  2  0  0  0  0
 24 25  1  0  0  0  0
 26 27  2  0  0  0  0
 26 28  1  0  0  0  0
 28 29  1  0  0  0  0
 28 30  1  0  0  0  0
 30 31  1  0  0  0  0
 30 32  1  0  0  0  0
 30 33  1  0  0  0  0
M  END
$$$$

  -OEChem-04042216043D

 33 33  0     1  0  0  0  0  0999 V2000
   -3.6715   -4.1970    1.3966 H   0  0  0  0  0  0  0  0  0  0  0  0
   -3.7779   -3.2350    0.8878 C   0  0  0  0  0  0  0  0  0  0  0  0
   -4.5071   -2.6286    1.4304 H   0  0  0  0  0  0  0  0  0  0  0  0
   -4.1445   -3.4112   -0.1264 H   0  0  0  0  0  0  0  0  0  0  0  0
   -2.4414   -2.5183    0.8382 C   0  0  0  0  0  0  0  0  0  0  0  0
   -1.4418   -3.0589    1.2867 O   0  0  0  0  0  0  0  0  0  0  0  0
   -2.3614   -1.2594    0.2795 N   0  0  0  0  0  0  0  0  0  0  0  0
   -3.2347   -0.8204   -0.0067 H   0  0  0  0  0  0  0  0  0  0  0  0
   -1.1590   -0.4129    0.2649 C   0  0  1  0  0  0  0  0  0  0  0  0
   -0.5510   -0.7609    1.1061 H   0  0  0  0  0  0  0  0  0  0  0  0
   -0.2740   -0.6997   -0.9704 C   0  0  0  0  0  0  0  0  0  0  0  0
    0.7134   -0.2758   -0.7615 H   0  0  0  0  0  0  0  0  0  0  0  0
   -0.1464   -1.7864   -1.0250 H   0  0  0  0  0  0  0  0  0  0  0  0
   -0.6702   -0.2097   -2.3577 C   0  0  0  0  0  0  0  0  0  0  0  0
    0.0117   -0.7850   -3.4446 C   0  0  0  0  0  0  0  0  0  0  0  0
    0.7897   -1.5215   -3.2642 H   0  0  0  0  0  0  0  0  0  0  0  0
   -0.2847   -0.4263   -4.7645 C   0  0  0  0  0  0  0  0  0  0  0  0
    0.2657   -0.8846   -5.5787 H   0  0  0  0  0  0  0  0  0  0  0  0
   -1.2818    0.5114   -5.0262 C   0  0  0  0  0  0  0  0  0  0  0  0
   -1.5843    0.8702   -6.3081 O   0  0  0  0  0  0  0  0  0  0  0  0
   -1.0220    0.3849   -6.9311 H   0  0  0  0  0  0  0  0  0  0  0  0
   -1.9794    1.0795   -3.9650 C   0  0  0  0  0  0  0  0  0  0  0  0
   -2.7621    1.8019   -4.1732 H   0  0  0  0  0  0  0  0  0  0  0  0
   -1.6854    0.7221   -2.6439 C   0  0  0  0  0  0  0  0  0  0  0  0
   -2.2815    1.1854   -1.8732 H   0  0  0  0  0  0  0  0  0  0  0  0
   -1.4156    1.0633    0.6398 C   0  0  0  0  0  0  0  0  0  0  0  0
   -2.5126    1.5718    0.4377 O   0  0  0  0  0  0  0  0  0  0  0  0
   -0.5602    1.7056    1.5183 N   0  0  0  0  0  0  0  0  0  0  0  0
    0.2880    1.2175    1.7906 H   0  0  0  0  0  0  0  0  0  0  0  0
   -0.8458    3.0045    2.1175 C   0  0  0  0  0  0  0  0  0  0  0  0
   -1.7550    2.9549    2.7260 H   0  0  0  0  0  0  0  0  0  0  0  0
   -0.0166    3.3148    2.7606 H   0  0  0  0  0  0  0  0  0  0  0  0
   -0.9823    3.7635    1.3398 H   0  0  0  0  0  0  0  0  0  0  0  0
  1  2  1  0  0  0  0
  2  3  1  0  0  0  0
  2  4  1  0  0  0  0
  2  5  1  0  0  0  0
  5  6  2  0  0  0  0
  5  7  1  0  0  0  0
  7  8  1  0  0  0  0
  7  9  1  0  0  0  0
  9 10  1  0  0  0  0
  9 11  1  0  0  0  0
  9 26  1  0  0  0  0
 11 12  1  0  0  0  0
 11 13  1  0  0  0  0
 11 14  1  0  0  0  0
 14 15  2  0  0  0  0
 14 24  1  0  0  0  0
 15 16  1  0  0  0  0
 15 17  1  0  0  0  0
 17 18  1  0  0  0  0
 17 19  2  0  0  0  0
 19 20  1  0  0  0  0
 19 22  1  0  0  0  0
 20 21  1  0  0  0  0
 22 23  1  0  0  0  0
 22 24  2  0  0  0  0
 24 25  1  0  0  0  0
 26 27  2  0  0  0  0
 26 28  1  0  0  0  0
 28 29  1  0  0  0  0
 28 30  1  0  0  0  0
 30 31  1  0  0  0  0
 30 32  1  0  0  0  0
 30 33  1  0  0  0  0
M  END
$$$$

  -OEChem-04042216043D

 33 33  0     1  0  0  0  0  0999 V2000
   -3.8041   -4.0813    1.4742 H   0  0  0  0  0  0  0  0  0  0  0  0
   -3.8660   -3.1148    0.9665 C   0  0  0  0  0  0  0  0  0  0  0  0
   -4.5409   -2.4643    1.5283 H   0  0  0  0  0  0  0  0  0  0  0  0
   -4.2703   -3.2682   -0.0370 H   0  0  0  0  0  0  0  0  0  0  0  0
   -2.4906   -2.4809    0.8781 C   0  0  0  0  0  0  0  0  0  0  0  0
   -1.5137   -3.0774    1.3054 O   0  0  0  0  0  0  0  0  0  0  0  0
   -2.3486   -1.2325    0.3093 N   0  0  0  0  0  0  0  0  0  0  0  0
   -3.1983   -0.7447    0.0295 H   0  0  0  0  0  0  0  0  0  0  0  0
   -1.0982   -0.4609    0.2603 C   0  0  1  0  0  0  0  0  0  0  0  0
   -0.4739   -0.8394    1.0760 H   0  0  0  0  0  0  0  0  0  0  0  0
   -0.3038   -0.8041   -1.0231 C   0  0  0  0  0  0  0  0  0  0  0  0
    0.7192   -0.4469   -0.8708 H   0  0  0  0  0  0  0  0  0  0  0  0
   -0.2488   -1.8966   -1.0802 H   0  0  0  0  0  0  0  0  0  0  0  0
   -0.7454   -0.2716   -2.3823 C   0  0  0  0  0  0  0  0  0  0  0  0
   -0.4502   -1.0693   -3.5032 C   0  0  0  0  0  0  0  0  0  0  0  0
    0.0339   -2.0324   -3.3701 H   0  0  0  0  0  0  0  0  0  0  0  0
   -0.7777   -0.6571   -4.7998 C   0  0  0  0  0  0  0  0  0  0  0  0
   -0.5494   -1.3042   -5.6396 H   0  0  0  0  0  0  0  0  0  0  0  0
   -1.3888    0.5782   -5.0066 C   0  0  0  0  0  0  0  0  0  0  0  0
   -1.7152    0.9942   -6.2652 O   0  0  0  0  0  0  0  0  0  0  0  0
   -1.4788    0.3121   -6.9121 H   0  0  0  0  0  0  0  0  0  0  0  0
   -1.6552    1.3979   -3.9149 C   0  0  0  0  0  0  0  0  0  0  0  0
   -2.1150    2.3665   -4.0807 H   0  0  0  0  0  0  0  0  0  0  0  0
   -1.3288    0.9885   -2.6172 C   0  0  0  0  0  0  0  0  0  0  0  0
   -1.5333    1.6936   -1.8255 H   0  0  0  0  0  0  0  0  0  0  0  0
   -1.2943    1.0217    0.6366 C   0  0  0  0  0  0  0  0  0  0  0  0
   -2.3680    1.5738    0.4205 O   0  0  0  0  0  0  0  0  0  0  0  0
   -0.4040    1.6392    1.4974 N   0  0  0  0  0  0  0  0  0  0  0  0
    0.4185    1.1139    1.7793 H   0  0  0  0  0  0  0  0  0  0  0  0
   -0.6382    2.9489    2.0948 C   0  0  0  0  0  0  0  0  0  0  0  0
   -1.5218    2.9228    2.7413 H   0  0  0  0  0  0  0  0  0  0  0  0
    0.2237    3.2483    2.6989 H   0  0  0  0  0  0  0  0  0  0  0  0
   -0.7922    3.7039    1.3167 H   0  0  0  0  0  0  0  0  0  0  0  0
  1  2  1  0  0  0  0
  2  3  1  0  0  0  0
  2  4  1  0  0  0  0
  2  5  1  0  0  0  0
  5  6  2  0  0  0  0
  5  7  1  0  0  0  0
  7  8  1  0  0  0  0
  7  9  1  0  0  0  0
  9 10  1  0  0  0  0
  9 11  1  0  0  0  0
  9 26  1  0  0  0  0
 11 12  1  0  0  0  0
 11 13  1  0  0  0  0
 11 14  1  0  0  0  0
 14 15  2  0  0  0  0
 14 24  1  0  0  0  0
 15 16  1  0  0  0  0
 15 17  1  0  0  0  0
 17 18  1  0  0  0  0
 17 19  2  0  0  0  0
 19 20  1  0  0  0  0
 19 22  1  0  0  0  0
 20 21  1  0  0  0  0
 22 23  1  0  0  0  0
 22 24  2  0  0  0  0
 24 25  1  0  0  0  0
 26 27  2  0  0  0  0
 26 28  1  0  0  0  0
 28 29  1  0  0  0  0
 28 30  1  0  0  0  0
 30 31  1  0  0  0  0
 30 32  1  0  0  0  0
 30 33  1  0  0  0  0
M  END
$$$$

  -OEChem-04042216043D

 33 33  0     1  0  0  0  0  0999 V2000
   -3.8122   -4.0966    1.4660 H   0  0  0  0  0  0  0  0  0  0  0  0
   -3.8514   -3.1444    0.9296 C   0  0  0  0  0  0  0  0  0  0  0  0
   -4.5546   -2.4816    1.4400 H   0  0  0  0  0  0  0  0  0  0  0  0
   -4.2062   -3.3267   -0.0877 H   0  0  0  0  0  0  0  0  0  0  0  0
   -2.4748   -2.5082    0.8908 C   0  0  0  0  0  0  0  0  0  0  0  0
   -1.5189   -3.0882    1.3827 O   0  0  0  0  0  0  0  0  0  0  0  0
   -2.3064   -1.2786    0.2905 N   0  0  0  0  0  0  0  0  0  0  0  0
   -3.1403   -0.8022   -0.0506 H   0  0  0  0  0  0  0  0  0  0  0  0
   -1.0545   -0.5089    0.2722 C   0  0  1  0  0  0  0  0  0  0  0  0
   -0.4419   -0.8678    1.1055 H   0  0  0  0  0  0  0  0  0  0  0  0
   -0.2530   -0.8549   -1.0052 C   0  0  0  0  0  0  0  0  0  0  0  0
    0.7722   -0.5024   -0.8551 H   0  0  0  0  0  0  0  0  0  0  0  0
   -0.1996   -1.9467   -1.0748 H   0  0  0  0  0  0  0  0  0  0  0  0
   -0.7215   -0.2877   -2.3384 C   0  0  0  0  0  0  0  0  0  0  0  0
   -0.7665   -1.1552   -3.4442 C   0  0  0  0  0  0  0  0  0  0  0  0
   -0.5375   -2.2094   -3.3173 H   0  0  0  0  0  0  0  0  0  0  0  0
   -1.1186   -0.6917   -4.7169 C   0  0  0  0  0  0  0  0  0  0  0  0
   -1.1628   -1.3898   -5.5456 H   0  0  0  0  0  0  0  0  0  0  0  0
   -1.4033    0.6585   -4.9158 C   0  0  0  0  0  0  0  0  0  0  0  0
   -1.7490    1.1231   -6.1519 O   0  0  0  0  0  0  0  0  0  0  0  0
   -1.7880    0.3887   -6.7833 H   0  0  0  0  0  0  0  0  0  0  0  0
   -1.3143    1.5406   -3.8434 C   0  0  0  0  0  0  0  0  0  0  0  0
   -1.5143    2.5946   -4.0068 H   0  0  0  0  0  0  0  0  0  0  0  0
   -0.9600    1.0803   -2.5703 C   0  0  0  0  0  0  0  0  0  0  0  0
   -0.8613    1.8195   -1.7851 H   0  0  0  0  0  0  0  0  0  0  0  0
   -1.2894    0.9794    0.5957 C   0  0  0  0  0  0  0  0  0  0  0  0
   -2.3315    1.5285    0.2553 O   0  0  0  0  0  0  0  0  0  0  0  0
   -0.4529    1.6385    1.4788 N   0  0  0  0  0  0  0  0  0  0  0  0
    0.3413    1.1240    1.8486 H   0  0  0  0  0  0  0  0  0  0  0  0
   -0.7167    2.9813    1.9826 C   0  0  0  0  0  0  0  0  0  0  0  0
   -1.6496    2.9984    2.5557 H   0  0  0  0  0  0  0  0  0  0  0  0
    0.0978    3.3067    2.6368 H   0  0  0  0  0  0  0  0  0  0  0  0
   -0.7986    3.6930    1.1542 H   0  0  0  0  0  0  0  0  0  0  0  0
  1  2  1  0  0  0  0
  2  3  1  0  0  0  0
  2  4  1  0  0  0  0
  2  5  1  0  0  0  0
  5  6  2  0  0  0  0
  5  7  1  0  0  0  0
  7  8  1  0  0  0  0
  7  9  1  0  0  0  0
  9 10  1  0  0  0  0
  9 11  1  0  0  0  0
  9 26  1  0  0  0  0
 11 12  1  0  0  0  0
 11 13  1  0  0  0  0
 11 14  1  0  0  0  0
 14 15  2  0  0  0  0
 14 24  1  0  0  0  0
 15 16  1  0  0  0  0
 15 17  1  0  0  0  0
 17 18  1  0  0  0  0
 17 19  2  0  0  0  0
 19 20  1  0  0  0  0
 19 22  1  0  0  0  0
 20 21  1  0  0  0  0
 22 23  1  0  0  0  0
 22 24  2  0  0  0  0
 24 25  1  0  0  0  0
 26 27  2  0  0  0  0
 26 28  1  0  0  0  0
 28 29  1  0  0  0  0
 28 30  1  0  0  0  0
 30 31  1  0  0  0  0
 30 32  1  0  0  0  0
 30 33  1  0  0  0  0
M  END
$$$$

  -OEChem-04042216043D

 33 33  0     1  0  0  0  0  0999 V2000
   -3.8634   -4.0644    1.4781 H   0  0  0  0  0  0  0  0  0  0  0  0
   -3.8713   -3.1331    0.9051 C   0  0  0  0  0  0  0  0  0  0  0  0
   -4.5866   -2.4447    1.3617 H   0  0  0  0  0  0  0  0  0  0  0  0
   -4.1877   -3.3503   -0.1179 H   0  0  0  0  0  0  0  0  0  0  0  0
   -2.4871   -2.5123    0.8975 C   0  0  0  0  0  0  0  0  0  0  0  0
   -1.5579   -3.0828    1.4479 O   0  0  0  0  0  0  0  0  0  0  0  0
   -2.2828   -1.3056    0.2630 N   0  0  0  0  0  0  0  0  0  0  0  0
   -3.0969   -0.8356   -0.1306 H   0  0  0  0  0  0  0  0  0  0  0  0
   -1.0253   -0.5448    0.2730 C   0  0  1  0  0  0  0  0  0  0  0  0
   -0.4376   -0.8876    1.1304 H   0  0  0  0  0  0  0  0  0  0  0  0
   -0.1962   -0.8991   -0.9815 C   0  0  0  0  0  0  0  0  0  0  0  0
    0.8287   -0.5513   -0.8183 H   0  0  0  0  0  0  0  0  0  0  0  0
   -0.1460   -1.9900   -1.0627 H   0  0  0  0  0  0  0  0  0  0  0  0
   -0.6706   -0.3073   -2.2969 C   0  0  0  0  0  0  0  0  0  0  0  0
   -1.0352   -1.1740   -3.3406 C   0  0  0  0  0  0  0  0  0  0  0  0
   -1.0309   -2.2483   -3.1814 H   0  0  0  0  0  0  0  0  0  0  0  0
   -1.4191   -0.6739   -4.5902 C   0  0  0  0  0  0  0  0  0  0  0  0
   -1.7094   -1.3640   -5.3746 H   0  0  0  0  0  0  0  0  0  0  0  0
   -1.4218    0.7017   -4.8235 C   0  0  0  0  0  0  0  0  0  0  0  0
   -1.7974    1.2015   -6.0369 O   0  0  0  0  0  0  0  0  0  0  0  0
   -2.0865    0.4812   -6.6175 H   0  0  0  0  0  0  0  0  0  0  0  0
   -1.0263    1.5703   -3.8098 C   0  0  0  0  0  0  0  0  0  0  0  0
   -1.0183    2.6386   -4.0003 H   0  0  0  0  0  0  0  0  0  0  0  0
   -0.6403    1.0739   -2.5599 C   0  0  0  0  0  0  0  0  0  0  0  0
   -0.3166    1.7813   -1.8035 H   0  0  0  0  0  0  0  0  0  0  0  0
   -1.2661    0.9552    0.5344 C   0  0  0  0  0  0  0  0  0  0  0  0
   -2.2712    1.5073    0.1016 O   0  0  0  0  0  0  0  0  0  0  0  0
   -0.4659    1.6411    1.4307 N   0  0  0  0  0  0  0  0  0  0  0  0
    0.2928    1.1294    1.8722 H   0  0  0  0  0  0  0  0  0  0  0  0
   -0.7327    3.0098    1.8569 C   0  0  0  0  0  0  0  0  0  0  0  0
   -1.7018    3.0711    2.3633 H   0  0  0  0  0  0  0  0  0  0  0  0
    0.0425    3.3485    2.5510 H   0  0  0  0  0  0  0  0  0  0  0  0
   -0.7422    3.6847    0.9946 H   0  0  0  0  0  0  0  0  0  0  0  0
  1  2  1  0  0  0  0
  2  3  1  0  0  0  0
  2  4  1  0  0  0  0
  2  5  1  0  0  0  0
  5  6  2  0  0  0  0
  5  7  1  0  0  0  0
  7  8  1  0  0  0  0
  7  9  1  0  0  0  0
  9 10  1  0  0  0  0
  9 11  1  0  0  0  0
  9 26  1  0  0  0  0
 11 12  1  0  0  0  0
 11 13  1  0  0  0  0
 11 14  1  0  0  0  0
 14 15  2  0  0  0  0
 14 24  1  0  0  0  0
 15 16  1  0  0  0  0
 15 17  1  0  0  0  0
 17 18  1  0  0  0  0
 17 19  2  0  0  0  0
 19 20  1  0  0  0  0
 19 22  1  0  0  0  0
 20 21  1  0  0  0  0
 22 23  1  0  0  0  0
 22 24  2  0  0  0  0
 24 25  1  0  0  0  0
 26 27  2  0  0  0  0
 26 28  1  0  0  0  0
 28 29  1  0  0  0  0
 28 30  1  0  0  0  0
 30 31  1  0  0  0  0
 30 32  1  0  0  0  0
 30 33  1  0  0  0  0
M  END
$$$$

  -OEChem-04042216043D

 33 33  0     1  0  0  0  0  0999 V2000
   -3.9085   -4.0293    1.4862 H   0  0  0  0  0  0  0  0  0  0  0  0
   -3.8906   -3.1125    0.8905 C   0  0  0  0  0  0  0  0  0  0  0  0
   -4.6047   -2.4025    1.3150 H   0  0  0  0  0  0  0  0  0  0  0  0
   -4.1890   -3.3505   -0.1333 H   0  0  0  0  0  0  0  0  0  0  0  0
   -2.4981   -2.5110    0.8965 C   0  0  0  0  0  0  0  0  0  0  0  0
   -1.5883   -3.0782    1.4815 O   0  0  0  0  0  0  0  0  0  0  0  0
   -2.2646   -1.3252    0.2336 N   0  0  0  0  0  0  0  0  0  0  0  0
   -3.0663   -0.8501   -0.1794 H   0  0  0  0  0  0  0  0  0  0  0  0
   -1.0026   -0.5727    0.2645 C   0  0  1  0  0  0  0  0  0  0  0  0
   -0.4368   -0.8993    1.1426 H   0  0  0  0  0  0  0  0  0  0  0  0
   -0.1469   -0.9359   -0.9657 C   0  0  0  0  0  0  0  0  0  0  0  0
    0.8769   -0.5932   -0.7863 H   0  0  0  0  0  0  0  0  0  0  0  0
   -0.1016   -2.0264   -1.0571 H   0  0  0  0  0  0  0  0  0  0  0  0
   -0.6215   -0.3284   -2.2688 C   0  0  0  0  0  0  0  0  0  0  0  0
   -1.2808   -1.1330   -3.2109 C   0  0  0  0  0  0  0  0  0  0  0  0
   -1.4805   -2.1768   -2.9868 H   0  0  0  0  0  0  0  0  0  0  0  0
   -1.6924   -0.6024   -4.4392 C   0  0  0  0  0  0  0  0  0  0  0  0
   -2.2073   -1.2394   -5.1499 H   0  0  0  0  0  0  0  0  0  0  0  0
   -1.4383    0.7360   -4.7449 C   0  0  0  0  0  0  0  0  0  0  0  0
   -1.8351    1.2641   -5.9397 O   0  0  0  0  0  0  0  0  0  0  0  0
   -2.3193    0.5988   -6.4518 H   0  0  0  0  0  0  0  0  0  0  0  0
   -0.7682    1.5374   -3.8233 C   0  0  0  0  0  0  0  0  0  0  0  0
   -0.5728    2.5760   -4.0686 H   0  0  0  0  0  0  0  0  0  0  0  0
   -0.3548    1.0115   -2.5945 C   0  0  0  0  0  0  0  0  0  0  0  0
    0.1689    1.6551   -1.8944 H   0  0  0  0  0  0  0  0  0  0  0  0
   -1.2432    0.9362    0.4735 C   0  0  0  0  0  0  0  0  0  0  0  0
   -2.2297    1.4800   -0.0097 O   0  0  0  0  0  0  0  0  0  0  0  0
   -0.4693    1.6424    1.3771 N   0  0  0  0  0  0  0  0  0  0  0  0
    0.2679    1.1378    1.8610 H   0  0  0  0  0  0  0  0  0  0  0  0
   -0.7417    3.0236    1.7563 C   0  0  0  0  0  0  0  0  0  0  0  0
   -1.7243    3.1032    2.2333 H   0  0  0  0  0  0  0  0  0  0  0  0
    0.0156    3.3781    2.4621 H   0  0  0  0  0  0  0  0  0  0  0  0
   -0.7232    3.6733    0.8749 H   0  0  0  0  0  0  0  0  0  0  0  0
  1  2  1  0  0  0  0
  2  3  1  0  0  0  0
  2  4  1  0  0  0  0
  2  5  1  0  0  0  0
  5  6  2  0  0  0  0
  5  7  1  0  0  0  0
  7  8  1  0  0  0  0
  7  9  1  0  0  0  0
  9 10  1  0  0  0  0
  9 11  1  0  0  0  0
  9 26  1  0  0  0  0
 11 12  1  0  0  0  0
 11 13  1  0  0  0  0
 11 14  1  0  0  0  0
 14 15  2  0  0  0  0
 14 24  1  0  0  0  0
 15 16  1  0  0  0  0
 15 17  1  0  0  0  0
 17 18  1  0  0  0  0
 17 19  2  0  0  0  0
 19 20  1  0  0  0  0
 19 22  1  0  0  0  0
 20 21  1  0  0  0  0
 22 23  1  0  0  0  0
 22 24  2  0  0  0  0
 24 25  1  0  0  0  0
 26 27  2  0  0  0  0
 26 28  1  0  0  0  0
 28 29  1  0  0  0  0
 28 30  1  0  0  0  0
 30 31  1  0  0  0  0
 30 32  1  0  0  0  0
 30 33  1  0  0  0  0
M  END
$$$$

  -OEChem-04042216043D

 33 33  0     1  0  0  0  0  0999 V2000
   -3.9408   -4.0077    1.5022 H   0  0  0  0  0  0  0  0  0  0  0  0
   -3.9086   -3.0976    0.8969 C   0  0  0  0  0  0  0  0  0  0  0  0
   -4.6155   -2.3738    1.3099 H   0  0  0  0  0  0  0  0  0  0  0  0
   -4.2051   -3.3430   -0.1257 H   0  0  0  0  0  0  0  0  0  0  0  0
   -2.5086   -2.5136    0.9038 C   0  0  0  0  0  0  0  0  0  0  0  0
   -1.6117   -3.0787    1.5100 O   0  0  0  0  0  0  0  0  0  0  0  0
   -2.2542   -1.3458    0.2175 N   0  0  0  0  0  0  0  0  0  0  0  0
   -3.0488   -0.8623   -0.1998 H   0  0  0  0  0  0  0  0  0  0  0  0
   -0.9867   -0.6025    0.2572 C   0  0  1  0  0  0  0  0  0  0  0  0
   -0.4353   -0.9169    1.1490 H   0  0  0  0  0  0  0  0  0  0  0  0
   -0.1126   -0.9667   -0.9579 C   0  0  0  0  0  0  0  0  0  0  0  0
    0.9121   -0.6357   -0.7624 H   0  0  0  0  0  0  0  0  0  0  0  0
   -0.0771   -2.0562   -1.0622 H   0  0  0  0  0  0  0  0  0  0  0  0
   -0.5815   -0.3464   -2.2546 C   0  0  0  0  0  0  0  0  0  0  0  0
   -1.4979   -1.0279   -3.0686 C   0  0  0  0  0  0  0  0  0  0  0  0
   -1.8794   -1.9960   -2.7581 H   0  0  0  0  0  0  0  0  0  0  0  0
   -1.9261   -0.4693   -4.2786 C   0  0  0  0  0  0  0  0  0  0  0  0
   -2.6364   -1.0102   -4.8938 H   0  0  0  0  0  0  0  0  0  0  0  0
   -1.4397    0.7743   -4.6879 C   0  0  0  0  0  0  0  0  0  0  0  0
   -1.8496    1.3280   -5.8664 O   0  0  0  0  0  0  0  0  0  0  0  0
   -2.5138    0.7599   -6.2851 H   0  0  0  0  0  0  0  0  0  0  0  0
   -0.5260    1.4550   -3.8858 C   0  0  0  0  0  0  0  0  0  0  0  0
   -0.1560    2.4221   -4.2094 H   0  0  0  0  0  0  0  0  0  0  0  0
   -0.0955    0.9014   -2.6753 C   0  0  0  0  0  0  0  0  0  0  0  0
    0.6124    1.4505   -2.0621 H   0  0  0  0  0  0  0  0  0  0  0  0
   -1.2274    0.9120    0.4257 C   0  0  0  0  0  0  0  0  0  0  0  0
   -2.2097    1.4415   -0.0818 O   0  0  0  0  0  0  0  0  0  0  0  0
   -0.4720    1.6389    1.3285 N   0  0  0  0  0  0  0  0  0  0  0  0
    0.2631    1.1494    1.8304 H   0  0  0  0  0  0  0  0  0  0  0  0
   -0.7542    3.0277    1.6710 C   0  0  0  0  0  0  0  0  0  0  0  0
   -1.7391    3.1133    2.1421 H   0  0  0  0  0  0  0  0  0  0  0  0
   -0.0017    3.4054    2.3699 H   0  0  0  0  0  0  0  0  0  0  0  0
   -0.7372    3.6547    0.7732 H   0  0  0  0  0  0  0  0  0  0  0  0
  1  2  1  0  0  0  0
  2  3  1  0  0  0  0
  2  4  1  0  0  0  0
  2  5  1  0  0  0  0
  5  6  2  0  0  0  0
  5  7  1  0  0  0  0
  7  8  1  0  0  0  0
  7  9  1  0  0  0  0
  9 10  1  0  0  0  0
  9 11  1  0  0  0  0
  9 26  1  0  0  0  0
 11 12  1  0  0  0  0
 11 13  1  0  0  0  0
 11 14  1  0  0  0  0
 14 15  2  0  0  0  0
 14 24  1  0  0  0  0
 15 16  1  0  0  0  0
 15 17  1  0  0  0  0
 17 18  1  0  0  0  0
 17 19  2  0  0  0  0
 19 20  1  0  0  0  0
 19 22  1  0  0  0  0
 20 21  1  0  0  0  0
 22 23  1  0  0  0  0
 22 24  2  0  0  0  0
 24 25  1  0  0  0  0
 26 27  2  0  0  0  0
 26 28  1  0  0  0  0
 28 29  1  0  0  0  0
 28 30  1  0  0  0  0
 30 31  1  0  0  0  0
 30 32  1  0  0  0  0
 30 33  1  0  0  0  0
M  END
$$$$

  -OEChem-04042216043D

 33 33  0     1  0  0  0  0  0999 V2000
   -3.9503   -3.9955    1.5686 H   0  0  0  0  0  0  0  0  0  0  0  0
   -3.9189   -3.0984    0.9439 C   0  0  0  0  0  0  0  0  0  0  0  0
   -4.6149   -2.3610    1.3512 H   0  0  0  0  0  0  0  0  0  0  0  0
   -4.2308   -3.3628   -0.0694 H   0  0  0  0  0  0  0  0  0  0  0  0
   -2.5142   -2.5263    0.9199 C   0  0  0  0  0  0  0  0  0  0  0  0
   -1.6127   -3.0919    1.5187 O   0  0  0  0  0  0  0  0  0  0  0  0
   -2.2610   -1.3672    0.2179 N   0  0  0  0  0  0  0  0  0  0  0  0
   -3.0610   -0.8717   -0.1744 H   0  0  0  0  0  0  0  0  0  0  0  0
   -0.9911   -0.6271    0.2509 C   0  0  1  0  0  0  0  0  0  0  0  0
   -0.4421   -0.9336    1.1470 H   0  0  0  0  0  0  0  0  0  0  0  0
   -0.1041   -0.9803   -0.9592 C   0  0  0  0  0  0  0  0  0  0  0  0
    0.9187   -0.6533   -0.7476 H   0  0  0  0  0  0  0  0  0  0  0  0
   -0.0710   -2.0688   -1.0732 H   0  0  0  0  0  0  0  0  0  0  0  0
   -0.5608   -0.3577   -2.2602 C   0  0  0  0  0  0  0  0  0  0  0  0
   -1.6787   -0.8629   -2.9409 C   0  0  0  0  0  0  0  0  0  0  0  0
   -2.2172   -1.7155   -2.5390 H   0  0  0  0  0  0  0  0  0  0  0  0
   -2.1049   -0.2797   -4.1401 C   0  0  0  0  0  0  0  0  0  0  0  0
   -2.9704   -0.6848   -4.6523 H   0  0  0  0  0  0  0  0  0  0  0  0
   -1.4190    0.8151   -4.6699 C   0  0  0  0  0  0  0  0  0  0  0  0
   -1.8270    1.3927   -5.8374 O   0  0  0  0  0  0  0  0  0  0  0  0
   -2.6424    0.9704   -6.1477 H   0  0  0  0  0  0  0  0  0  0  0  0
   -0.3082    1.3227   -3.9995 C   0  0  0  0  0  0  0  0  0  0  0  0
    0.2160    2.1761   -4.4163 H   0  0  0  0  0  0  0  0  0  0  0  0
    0.1213    0.7436   -2.8005 C   0  0  0  0  0  0  0  0  0  0  0  0
    0.9847    1.1603   -2.2910 H   0  0  0  0  0  0  0  0  0  0  0  0
   -1.2348    0.8887    0.4018 C   0  0  0  0  0  0  0  0  0  0  0  0
   -2.2209    1.4078   -0.1098 O   0  0  0  0  0  0  0  0  0  0  0  0
   -0.4825    1.6274    1.2976 N   0  0  0  0  0  0  0  0  0  0  0  0
    0.2604    1.1489    1.7989 H   0  0  0  0  0  0  0  0  0  0  0  0
   -0.7601    3.0235    1.6126 C   0  0  0  0  0  0  0  0  0  0  0  0
   -1.7550    3.1248    2.0586 H   0  0  0  0  0  0  0  0  0  0  0  0
   -0.0213    3.4054    2.3235 H   0  0  0  0  0  0  0  0  0  0  0  0
   -0.7161    3.6358    0.7058 H   0  0  0  0  0  0  0  0  0  0  0  0
  1  2  1  0  0  0  0
  2  3  1  0  0  0  0
  2  4  1  0  0  0  0
  2  5  1  0  0  0  0
  5  6  2  0  0  0  0
  5  7  1  0  0  0  0
  7  8  1  0  0  0  0
  7  9  1  0  0  0  0
  9 10  1  0  0  0  0
  9 11  1  0  0  0  0
  9 26  1  0  0  0  0
 11 12  1  0  0  0  0
 11 13  1  0  0  0  0
 11 14  1  0  0  0  0
 14 15  2  0  0  0  0
 14 24  1  0  0  0  0
 15 16  1  0  0  0  0
 15 17  1  0  0  0  0
 17 18  1  0  0  0  0
 17 19  2  0  0  0  0
 19 20  1  0  0  0  0
 19 22  1  0  0  0  0
 20 21  1  0  0  0  0
 22 23  1  0  0  0  0
 22 24  2  0  0  0  0
 24 25  1  0  0  0  0
 26 27  2  0  0  0  0
 26 28  1  0  0  0  0
 28 29  1  0  0  0  0
 28 30  1  0  0  0  0
 30 31  1  0  0  0  0
 30 32  1  0  0  0  0
 30 33  1  0  0  0  0
M  END
$$$$

  -OEChem-04042216043D

 33 33  0     1  0  0  0  0  0999 V2000
   -3.9362   -4.0000    1.6546 H   0  0  0  0  0  0  0  0  0  0  0  0
   -3.9175   -3.1093    1.0203 C   0  0  0  0  0  0  0  0  0  0  0  0
   -4.5966   -2.3635    1.4409 H   0  0  0  0  0  0  0  0  0  0  0  0
   -4.2610   -3.3814    0.0195 H   0  0  0  0  0  0  0  0  0  0  0  0
   -2.5103   -2.5469    0.9494 C   0  0  0  0  0  0  0  0  0  0  0  0
   -1.5943   -3.1161    1.5221 O   0  0  0  0  0  0  0  0  0  0  0  0
   -2.2738   -1.3879    0.2409 N   0  0  0  0  0  0  0  0  0  0  0  0
   -3.0864   -0.8821   -0.1092 H   0  0  0  0  0  0  0  0  0  0  0  0
   -1.0046   -0.6452    0.2497 C   0  0  1  0  0  0  0  0  0  0  0  0
   -0.4415   -0.9488    1.1380 H   0  0  0  0  0  0  0  0  0  0  0  0
   -0.1211   -0.9776   -0.9717 C   0  0  0  0  0  0  0  0  0  0  0  0
    0.8994   -0.6489   -0.7514 H   0  0  0  0  0  0  0  0  0  0  0  0
   -0.0839   -2.0654   -1.0922 H   0  0  0  0  0  0  0  0  0  0  0  0
   -0.5676   -0.3600   -2.2833 C   0  0  0  0  0  0  0  0  0  0  0  0
   -1.8276   -0.6383   -2.8374 C   0  0  0  0  0  0  0  0  0  0  0  0
   -2.5000   -1.3323   -2.3460 H   0  0  0  0  0  0  0  0  0  0  0  0
   -2.2301   -0.0359   -4.0351 C   0  0  0  0  0  0  0  0  0  0  0  0
   -3.2080   -0.2647   -4.4435 H   0  0  0  0  0  0  0  0  0  0  0  0
   -1.3794    0.8521   -4.6950 C   0  0  0  0  0  0  0  0  0  0  0  0
   -1.7642    1.4482   -5.8613 O   0  0  0  0  0  0  0  0  0  0  0  0
   -2.6806    1.2082   -6.0670 H   0  0  0  0  0  0  0  0  0  0  0  0
   -0.1262    1.1324   -4.1561 C   0  0  0  0  0  0  0  0  0  0  0  0
    0.5279    1.8252   -4.6748 H   0  0  0  0  0  0  0  0  0  0  0  0
    0.2795    0.5343   -2.9583 C   0  0  0  0  0  0  0  0  0  0  0  0
    1.2579    0.7773   -2.5554 H   0  0  0  0  0  0  0  0  0  0  0  0
   -1.2560    0.8694    0.4036 C   0  0  0  0  0  0  0  0  0  0  0  0
   -2.2599    1.3775   -0.0847 O   0  0  0  0  0  0  0  0  0  0  0  0
   -0.4934    1.6152    1.2847 N   0  0  0  0  0  0  0  0  0  0  0  0
    0.2779    1.1499    1.7540 H   0  0  0  0  0  0  0  0  0  0  0  0
   -0.7677    3.0129    1.5957 C   0  0  0  0  0  0  0  0  0  0  0  0
   -1.7652    3.1197    2.0348 H   0  0  0  0  0  0  0  0  0  0  0  0
   -0.0327    3.3924    2.3118 H   0  0  0  0  0  0  0  0  0  0  0  0
   -0.7143    3.6239    0.6884 H   0  0  0  0  0  0  0  0  0  0  0  0
  1  2  1  0  0  0  0
  2  3  1  0  0  0  0
  2  4  1  0  0  0  0
  2  5  1  0  0  0  0
  5  6  2  0  0  0  0
  5  7  1  0  0  0  0
  7  8  1  0  0  0  0
  7  9  1  0  0  0  0
  9 10  1  0  0  0  0
  9 11  1  0  0  0  0
  9 26  1  0  0  0  0
 11 12  1  0  0  0  0
 11 13  1  0  0  0  0
 11 14  1  0  0  0  0
 14 15  2  0  0  0  0
 14 24  1  0  0  0  0
 15 16  1  0  0  0  0
 15 17  1  0  0  0  0
 17 18  1  0  0  0  0
 17 19  2  0  0  0  0
 19 20  1  0  0  0  0
 19 22  1  0  0  0  0
 20 21  1  0  0  0  0
 22 23  1  0  0  0  0
 22 24  2  0  0  0  0
 24 25  1  0  0  0  0
 26 27  2  0  0  0  0
 26 28  1  0  0  0  0
 28 29  1  0  0  0  0
 28 30  1  0  0  0  0
 30 31  1  0  0  0  0
 30 32  1  0  0  0  0
 30 33  1  0  0  0  0
M  END
$$$$

  -OEChem-04042216043D

 33 33  0     1  0  0  0  0  0999 V2000
   -3.8786   -4.0367    1.7005 H   0  0  0  0  0  0  0  0  0  0  0  0
   -3.8915   -3.1342    1.0829 C   0  0  0  0  0  0  0  0  0  0  0  0
   -4.5590   -2.4020    1.5440 H   0  0  0  0  0  0  0  0  0  0  0  0
   -4.2729   -3.3910    0.0917 H   0  0  0  0  0  0  0  0  0  0  0  0
   -2.4918   -2.5598    0.9671 C   0  0  0  0  0  0  0  0  0  0  0  0
   -1.5514   -3.1323    1.4957 O   0  0  0  0  0  0  0  0  0  0  0  0
   -2.2889   -1.3875    0.2692 N   0  0  0  0  0  0  0  0  0  0  0  0
   -3.1190   -0.8763   -0.0273 H   0  0  0  0  0  0  0  0  0  0  0  0
   -1.0237   -0.6370    0.2544 C   0  0  1  0  0  0  0  0  0  0  0  0
   -0.4373   -0.9495    1.1245 H   0  0  0  0  0  0  0  0  0  0  0  0
   -0.1636   -0.9453   -0.9907 C   0  0  0  0  0  0  0  0  0  0  0  0
    0.8562   -0.6122   -0.7744 H   0  0  0  0  0  0  0  0  0  0  0  0
   -0.1208   -2.0318   -1.1186 H   0  0  0  0  0  0  0  0  0  0  0  0
   -0.6066   -0.3313   -2.3093 C   0  0  0  0  0  0  0  0  0  0  0  0
   -1.9433   -0.3364   -2.7452 C   0  0  0  0  0  0  0  0  0  0  0  0
   -2.7213   -0.7955   -2.1484 H   0  0  0  0  0  0  0  0  0  0  0  0
   -2.3027    0.2542   -3.9624 C   0  0  0  0  0  0  0  0  0  0  0  0
   -3.3420    0.2432   -4.2712 H   0  0  0  0  0  0  0  0  0  0  0  0
   -1.3331    0.8523   -4.7675 C   0  0  0  0  0  0  0  0  0  0  0  0
   -1.6747    1.4321   -5.9552 O   0  0  0  0  0  0  0  0  0  0  0  0
   -2.6367    1.4028   -6.0717 H   0  0  0  0  0  0  0  0  0  0  0  0
   -0.0041    0.8550   -4.3532 C   0  0  0  0  0  0  0  0  0  0  0  0
    0.7451    1.3197   -4.9855 H   0  0  0  0  0  0  0  0  0  0  0  0
    0.3587    0.2690   -3.1357 C   0  0  0  0  0  0  0  0  0  0  0  0
    1.4027    0.2862   -2.8376 H   0  0  0  0  0  0  0  0  0  0  0  0
   -1.2789    0.8735    0.4405 C   0  0  0  0  0  0  0  0  0  0  0  0
   -2.3020    1.3816   -0.0068 O   0  0  0  0  0  0  0  0  0  0  0  0
   -0.4960    1.6096    1.3118 N   0  0  0  0  0  0  0  0  0  0  0  0
    0.2958    1.1431    1.7447 H   0  0  0  0  0  0  0  0  0  0  0  0
   -0.7688    3.0003    1.6546 C   0  0  0  0  0  0  0  0  0  0  0  0
   -1.7495    3.0926    2.1329 H   0  0  0  0  0  0  0  0  0  0  0  0
   -0.0097    3.3742    2.3482 H   0  0  0  0  0  0  0  0  0  0  0  0
   -0.7552    3.6261    0.7561 H   0  0  0  0  0  0  0  0  0  0  0  0
  1  2  1  0  0  0  0
  2  3  1  0  0  0  0
  2  4  1  0  0  0  0
  2  5  1  0  0  0  0
  5  6  2  0  0  0  0
  5  7  1  0  0  0  0
  7  8  1  0  0  0  0
  7  9  1  0  0  0  0
  9 10  1  0  0  0  0
  9 11  1  0  0  0  0
  9 26  1  0  0  0  0
 11 12  1  0  0  0  0
 11 13  1  0  0  0  0
 11 14  1  0  0  0  0
 14 15  2  0  0  0  0
 14 24  1  0  0  0  0
 15 16  1  0  0  0  0
 15 17  1  0  0  0  0
 17 18  1  0  0  0  0
 17 19  2  0  0  0  0
 19 20  1  0  0  0  0
 19 22  1  0  0  0  0
 20 21  1  0  0  0  0
 22 23  1  0  0  0  0
 22 24  2  0  0  0  0
 24 25  1  0  0  0  0
 26 27  2  0  0  0  0
 26 28  1  0  0  0  0
 28 29  1  0  0  0  0
 28 30  1  0  0  0  0
 30 31  1  0  0  0  0
 30 32  1  0  0  0  0
 30 33  1  0  0  0  0
M  END
$$$$

  -OEChem-04042216043D

 33 33  0     1  0  0  0  0  0999 V2000
   -3.8302   -4.0659    1.6618 H   0  0  0  0  0  0  0  0  0  0  0  0
   -3.8643   -3.1452    1.0726 C   0  0  0  0  0  0  0  0  0  0  0  0
   -4.5316   -2.4352    1.5673 H   0  0  0  0  0  0  0  0  0  0  0  0
   -4.2595   -3.3762    0.0804 H   0  0  0  0  0  0  0  0  0  0  0  0
   -2.4742   -2.5507    0.9498 C   0  0  0  0  0  0  0  0  0  0  0  0
   -1.5180   -3.1253    1.4467 O   0  0  0  0  0  0  0  0  0  0  0  0
   -2.2984   -1.3571    0.2815 N   0  0  0  0  0  0  0  0  0  0  0  0
   -3.1403   -0.8517    0.0114 H   0  0  0  0  0  0  0  0  0  0  0  0
   -1.0401   -0.5947    0.2582 C   0  0  1  0  0  0  0  0  0  0  0  0
   -0.4390   -0.9236    1.1119 H   0  0  0  0  0  0  0  0  0  0  0  0
   -0.1991   -0.8958   -1.0018 C   0  0  0  0  0  0  0  0  0  0  0  0
    0.8186   -0.5493   -0.7965 H   0  0  0  0  0  0  0  0  0  0  0  0
   -0.1463   -1.9827   -1.1241 H   0  0  0  0  0  0  0  0  0  0  0  0
   -0.6389   -0.2975   -2.3295 C   0  0  0  0  0  0  0  0  0  0  0  0
   -1.9779   -0.0215   -2.6602 C   0  0  0  0  0  0  0  0  0  0  0  0
   -2.7798   -0.2158   -1.9588 H   0  0  0  0  0  0  0  0  0  0  0  0
   -2.3115    0.5273   -3.9041 C   0  0  0  0  0  0  0  0  0  0  0  0
   -3.3508    0.7415   -4.1270 H   0  0  0  0  0  0  0  0  0  0  0  0
   -1.3169    0.7995   -4.8430 C   0  0  0  0  0  0  0  0  0  0  0  0
   -1.6329    1.3383   -6.0566 O   0  0  0  0  0  0  0  0  0  0  0  0
   -2.5842    1.5204   -6.0984 H   0  0  0  0  0  0  0  0  0  0  0  0
    0.0105    0.5172   -4.5355 C   0  0  0  0  0  0  0  0  0  0  0  0
    0.7791    0.7261   -5.2720 H   0  0  0  0  0  0  0  0  0  0  0  0
    0.3483   -0.0272   -3.2920 C   0  0  0  0  0  0  0  0  0  0  0  0
    1.3914   -0.2407   -3.0787 H   0  0  0  0  0  0  0  0  0  0  0  0
   -1.2836    0.9113    0.4923 C   0  0  0  0  0  0  0  0  0  0  0  0
   -2.3222    1.4333    0.1005 O   0  0  0  0  0  0  0  0  0  0  0  0
   -0.4741    1.6183    1.3636 N   0  0  0  0  0  0  0  0  0  0  0  0
    0.3266    1.1358    1.7611 H   0  0  0  0  0  0  0  0  0  0  0  0
   -0.7435    2.9914    1.7735 C   0  0  0  0  0  0  0  0  0  0  0  0
   -1.7023    3.0535    2.2990 H   0  0  0  0  0  0  0  0  0  0  0  0
    0.0431    3.3463    2.4463 H   0  0  0  0  0  0  0  0  0  0  0  0
   -0.7759    3.6525    0.9009 H   0  0  0  0  0  0  0  0  0  0  0  0
  1  2  1  0  0  0  0
  2  3  1  0  0  0  0
  2  4  1  0  0  0  0
  2  5  1  0  0  0  0
  5  6  2  0  0  0  0
  5  7  1  0  0  0  0
  7  8  1  0  0  0  0
  7  9  1  0  0  0  0
  9 10  1  0  0  0  0
  9 11  1  0  0  0  0
  9 26  1  0  0  0  0
 11 12  1  0  0  0  0
 11 13  1  0  0  0  0
 11 14  1  0  0  0  0
 14 15  2  0  0  0  0
 14 24  1  0  0  0  0
 15 16  1  0  0  0  0
 15 17  1  0  0  0  0
 17 18  1  0  0  0  0
 17 19  2  0  0  0  0
 19 20  1  0  0  0  0
 19 22  1  0  0  0  0
 20 21  1  0  0  0  0
 22 23  1  0  0  0  0
 22 24  2  0  0  0  0
 24 25  1  0  0  0  0
 26 27  2  0  0  0  0
 26 28  1  0  0  0  0
 28 29  1  0  0  0  0
 28 30  1  0  0  0  0
 30 31  1  0  0  0  0
 30 32  1  0  0  0  0
 30 33  1  0  0  0  0
M  END
$$$$

  -OEChem-04042216043D

 33 33  0     1  0  0  0  0  0999 V2000
   -3.7876   -4.1047    1.5874 H   0  0  0  0  0  0  0  0  0  0  0  0
   -3.8447   -3.1692    1.0236 C   0  0  0  0  0  0  0  0  0  0  0  0
   -4.5325   -2.4914    1.5349 H   0  0  0  0  0  0  0  0  0  0  0  0
   -4.2302   -3.3829    0.0238 H   0  0  0  0  0  0  0  0  0  0  0  0
   -2.4705   -2.5345    0.9229 C   0  0  0  0  0  0  0  0  0  0  0  0
   -1.4992   -3.1042    1.3957 O   0  0  0  0  0  0  0  0  0  0  0  0
   -2.3251   -1.3149    0.2944 N   0  0  0  0  0  0  0  0  0  0  0  0
   -3.1781   -0.8307    0.0219 H   0  0  0  0  0  0  0  0  0  0  0  0
   -1.0788   -0.5325    0.2609 C   0  0  1  0  0  0  0  0  0  0  0  0
   -0.4715   -0.8782    1.1038 H   0  0  0  0  0  0  0  0  0  0  0  0
   -0.2376   -0.8420   -0.9972 C   0  0  0  0  0  0  0  0  0  0  0  0
    0.7750   -0.4739   -0.8035 H   0  0  0  0  0  0  0  0  0  0  0  0
   -0.1674   -1.9305   -1.0940 H   0  0  0  0  0  0  0  0  0  0  0  0
   -0.6736   -0.2846   -2.3433 C   0  0  0  0  0  0  0  0  0  0  0  0
   -1.9483    0.2477   -2.6095 C   0  0  0  0  0  0  0  0  0  0  0  0
   -2.7198    0.2694   -1.8500 H   0  0  0  0  0  0  0  0  0  0  0  0
   -2.2639    0.7562   -3.8748 C   0  0  0  0  0  0  0  0  0  0  0  0
   -3.2531    1.1646   -4.0491 H   0  0  0  0  0  0  0  0  0  0  0  0
   -1.3166    0.7366   -4.8980 C   0  0  0  0  0  0  0  0  0  0  0  0
   -1.6152    1.2347   -6.1331 O   0  0  0  0  0  0  0  0  0  0  0  0
   -2.5100    1.6081   -6.1303 H   0  0  0  0  0  0  0  0  0  0  0  0
   -0.0555    0.2016   -4.6532 C   0  0  0  0  0  0  0  0  0  0  0  0
    0.6760    0.1844   -5.4544 H   0  0  0  0  0  0  0  0  0  0  0  0
    0.2645   -0.3042   -3.3888 C   0  0  0  0  0  0  0  0  0  0  0  0
    1.2560   -0.7150   -3.2224 H   0  0  0  0  0  0  0  0  0  0  0  0
   -1.2915    0.9698    0.5509 C   0  0  0  0  0  0  0  0  0  0  0  0
   -2.3411    1.5200    0.2360 O   0  0  0  0  0  0  0  0  0  0  0  0
   -0.4386    1.6328    1.4159 N   0  0  0  0  0  0  0  0  0  0  0  0
    0.3772    1.1295    1.7519 H   0  0  0  0  0  0  0  0  0  0  0  0
   -0.6640    2.9968    1.8798 C   0  0  0  0  0  0  0  0  0  0  0  0
   -1.6002    3.0602    2.4442 H   0  0  0  0  0  0  0  0  0  0  0  0
    0.1547    3.3146    2.5327 H   0  0  0  0  0  0  0  0  0  0  0  0
   -0.7165    3.6866    1.0308 H   0  0  0  0  0  0  0  0  0  0  0  0
  1  2  1  0  0  0  0
  2  3  1  0  0  0  0
  2  4  1  0  0  0  0
  2  5  1  0  0  0  0
  5  6  2  0  0  0  0
  5  7  1  0  0  0  0
  7  8  1  0  0  0  0
  7  9  1  0  0  0  0
  9 10  1  0  0  0  0
  9 11  1  0  0  0  0
  9 26  1  0  0  0  0
 11 12  1  0  0  0  0
 11 13  1  0  0  0  0
 11 14  1  0  0  0  0
 14 15  2  0  0  0  0
 14 24  1  0  0  0  0
 15 16  1  0  0  0  0
 15 17  1  0  0  0  0
 17 18  1  0  0  0  0
 17 19  2  0  0  0  0
 19 20  1  0  0  0  0
 19 22  1  0  0  0  0
 20 21  1  0  0  0  0
 22 23  1  0  0  0  0
 22 24  2  0  0  0  0
 24 25  1  0  0  0  0
 26 27  2  0  0  0  0
 26 28  1  0  0  0  0
 28 29  1  0  0  0  0
 28 30  1  0  0  0  0
 30 31  1  0  0  0  0
 30 32  1  0  0  0  0
 30 33  1  0  0  0  0
M  END
$$$$

  -OEChem-04042216043D

 33 33  0     1  0  0  0  0  0999 V2000
   -3.7464   -4.1310    1.5118 H   0  0  0  0  0  0  0  0  0  0  0  0
   -3.8243   -3.1727    0.9907 C   0  0  0  0  0  0  0  0  0  0  0  0
   -4.5126   -2.5271    1.5415 H   0  0  0  0  0  0  0  0  0  0  0  0
   -4.2225   -3.3478   -0.0116 H   0  0  0  0  0  0  0  0  0  0  0  0
   -2.4605   -2.5147    0.8967 C   0  0  0  0  0  0  0  0  0  0  0  0
   -1.4747   -3.0847    1.3386 O   0  0  0  0  0  0  0  0  0  0  0  0
   -2.3428   -1.2721    0.3092 N   0  0  0  0  0  0  0  0  0  0  0  0
   -3.2044   -0.8036    0.0366 H   0  0  0  0  0  0  0  0  0  0  0  0
   -1.1078   -0.4752    0.2576 C   0  0  1  0  0  0  0  0  0  0  0  0
   -0.4895   -0.8366    1.0856 H   0  0  0  0  0  0  0  0  0  0  0  0
   -0.2729   -0.7900   -1.0040 C   0  0  0  0  0  0  0  0  0  0  0  0
    0.7359   -0.4046   -0.8238 H   0  0  0  0  0  0  0  0  0  0  0  0
   -0.1879   -1.8795   -1.0788 H   0  0  0  0  0  0  0  0  0  0  0  0
   -0.7085   -0.2680   -2.3651 C   0  0  0  0  0  0  0  0  0  0  0  0
   -1.8555    0.5101   -2.6071 C   0  0  0  0  0  0  0  0  0  0  0  0
   -2.5601    0.7471   -1.8226 H   0  0  0  0  0  0  0  0  0  0  0  0
   -2.1492    0.9775   -3.8934 C   0  0  0  0  0  0  0  0  0  0  0  0
   -3.0421    1.5734   -4.0481 H   0  0  0  0  0  0  0  0  0  0  0  0
   -1.3061    0.6767   -4.9622 C   0  0  0  0  0  0  0  0  0  0  0  0
   -1.5858    1.1309   -6.2185 O   0  0  0  0  0  0  0  0  0  0  0  0
   -2.3943    1.6661   -6.2035 H   0  0  0  0  0  0  0  0  0  0  0  0
   -0.1717   -0.0980   -4.7410 C   0  0  0  0  0  0  0  0  0  0  0  0
    0.4796   -0.3325   -5.5765 H   0  0  0  0  0  0  0  0  0  0  0  0
    0.1254   -0.5651   -3.4562 C   0  0  0  0  0  0  0  0  0  0  0  0
    1.0198   -1.1634   -3.3080 H   0  0  0  0  0  0  0  0  0  0  0  0
   -1.2974    1.0184    0.6049 C   0  0  0  0  0  0  0  0  0  0  0  0
   -2.3654    1.5791    0.3856 O   0  0  0  0  0  0  0  0  0  0  0  0
   -0.4024    1.6432    1.4556 N   0  0  0  0  0  0  0  0  0  0  0  0
    0.4231    1.1218    1.7364 H   0  0  0  0  0  0  0  0  0  0  0  0
   -0.6120    2.9779    2.0050 C   0  0  0  0  0  0  0  0  0  0  0  0
   -1.5049    2.9959    2.6387 H   0  0  0  0  0  0  0  0  0  0  0  0
    0.2484    3.2767    2.6113 H   0  0  0  0  0  0  0  0  0  0  0  0
   -0.7365    3.7088    1.1990 H   0  0  0  0  0  0  0  0  0  0  0  0
  1  2  1  0  0  0  0
  2  3  1  0  0  0  0
  2  4  1  0  0  0  0
  2  5  1  0  0  0  0
  5  6  2  0  0  0  0
  5  7  1  0  0  0  0
  7  8  1  0  0  0  0
  7  9  1  0  0  0  0
  9 10  1  0  0  0  0
  9 11  1  0  0  0  0
  9 26  1  0  0  0  0
 11 12  1  0  0  0  0
 11 13  1  0  0  0  0
 11 14  1  0  0  0  0
 14 15  2  0  0  0  0
 14 24  1  0  0  0  0
 15 16  1  0  0  0  0
 15 17  1  0  0  0  0
 17 18  1  0  0  0  0
 17 19  2  0  0  0  0
 19 20  1  0  0  0  0
 19 22  1  0  0  0  0
 20 21  1  0  0  0  0
 22 23  1  0  0  0  0
 22 24  2  0  0  0  0
 24 25  1  0  0  0  0
 26 27  2  0  0  0  0
 26 28  1  0  0  0  0
 28 29  1  0  0  0  0
 28 30  1  0  0  0  0
 30 31  1  0  0  0  0
 30 32  1  0  0  0  0
 30 33  1  0  0  0  0
M  END
$$$$

  -OEChem-04042216043D

 33 33  0     1  0  0  0  0  0999 V2000
   -3.6821   -4.2024    1.3521 H   0  0  0  0  0  0  0  0  0  0  0  0
   -3.7838   -3.2369    0.8487 C   0  0  0  0  0  0  0  0  0  0  0  0
   -4.5257   -2.6380    1.3824 H   0  0  0  0  0  0  0  0  0  0  0  0
   -4.1293   -3.4071   -0.1738 H   0  0  0  0  0  0  0  0  0  0  0  0
   -2.4503   -2.5137    0.8299 C   0  0  0  0  0  0  0  0  0  0  0  0
   -1.4599   -3.0476    1.3057 O   0  0  0  0  0  0  0  0  0  0  0  0
   -2.3624   -1.2556    0.2705 N   0  0  0  0  0  0  0  0  0  0  0  0
   -3.2290   -0.8225   -0.0433 H   0  0  0  0  0  0  0  0  0  0  0  0
   -1.1608   -0.4077    0.2789 C   0  0  1  0  0  0  0  0  0  0  0  0
   -0.5673   -0.7534    1.1315 H   0  0  0  0  0  0  0  0  0  0  0  0
   -0.2557   -0.6971   -0.9407 C   0  0  0  0  0  0  0  0  0  0  0  0
    0.7270   -0.2714   -0.7151 H   0  0  0  0  0  0  0  0  0  0  0  0
   -0.1247   -1.7834   -0.9910 H   0  0  0  0  0  0  0  0  0  0  0  0
   -0.6246   -0.2106   -2.3365 C   0  0  0  0  0  0  0  0  0  0  0  0
   -1.5967    0.7597   -2.6446 C   0  0  0  0  0  0  0  0  0  0  0  0
   -2.1986    1.2354   -1.8863 H   0  0  0  0  0  0  0  0  0  0  0  0
   -1.8375    1.1417   -3.9702 C   0  0  0  0  0  0  0  0  0  0  0  0
   -2.5942    1.8910   -4.1754 H   0  0  0  0  0  0  0  0  0  0  0  0
   -1.1147    0.5655   -5.0139 C   0  0  0  0  0  0  0  0  0  0  0  0
   -1.3426    0.9338   -6.3082 O   0  0  0  0  0  0  0  0  0  0  0  0
   -2.0318    1.6150   -6.3414 H   0  0  0  0  0  0  0  0  0  0  0  0
   -0.1508   -0.3949   -4.7272 C   0  0  0  0  0  0  0  0  0  0  0  0
    0.4105   -0.8420   -5.5410 H   0  0  0  0  0  0  0  0  0  0  0  0
    0.0924   -0.7777   -3.4046 C   0  0  0  0  0  0  0  0  0  0  0  0
    0.8530   -1.5283   -3.2095 H   0  0  0  0  0  0  0  0  0  0  0  0
   -1.4291    1.0676    0.6467 C   0  0  0  0  0  0  0  0  0  0  0  0
   -2.5228    1.5727    0.4177 O   0  0  0  0  0  0  0  0  0  0  0  0
   -0.5945    1.7146    1.5415 N   0  0  0  0  0  0  0  0  0  0  0  0
    0.2454    1.2267    1.8394 H   0  0  0  0  0  0  0  0  0  0  0  0
   -0.8992    3.0117    2.1343 C   0  0  0  0  0  0  0  0  0  0  0  0
   -1.8089    2.9518    2.7411 H   0  0  0  0  0  0  0  0  0  0  0  0
   -0.0755    3.3367    2.7770 H   0  0  0  0  0  0  0  0  0  0  0  0
   -1.0452    3.7652    1.3532 H   0  0  0  0  0  0  0  0  0  0  0  0
  1  2  1  0  0  0  0
  2  3  1  0  0  0  0
  2  4  1  0  0  0  0
  2  5  1  0  0  0  0
  5  6  2  0  0  0  0
  5  7  1  0  0  0  0
  7  8  1  0  0  0  0
  7  9  1  0  0  0  0
  9 10  1  0  0  0  0
  9 11  1  0  0  0  0
  9 26  1  0  0  0  0
 11 12  1  0  0  0  0
 11 13  1  0  0  0  0
 11 14  1  0  0  0  0
 14 15  2  0  0  0  0
 14 24  1  0  0  0  0
 15 16  1  0  0  0  0
 15 17  1  0  0  0  0
 17 18  1  0  0  0  0
 17 19  2  0  0  0  0
 19 20  1  0  0  0  0
 19 22  1  0  0  0  0
 20 21  1  0  0  0  0
 22 23  1  0  0  0  0
 22 24  2  0  0  0  0
 24 25  1  0  0  0  0
 26 27  2  0  0  0  0
 26 28  1  0  0  0  0
 28 29  1  0  0  0  0
 28 30  1  0  0  0  0
 30 31  1  0  0  0  0
 30 32  1  0  0  0  0
 30 33  1  0  0  0  0
M  END
$$$$

  -OEChem-04042216043D

 33 33  0     1  0  0  0  0  0999 V2000
   -3.8589   -4.0215    1.4079 H   0  0  0  0  0  0  0  0  0  0  0  0
   -3.8917   -3.0657    0.8775 C   0  0  0  0  0  0  0  0  0  0  0  0
   -4.5860   -2.3993    1.3954 H   0  0  0  0  0  0  0  0  0  0  0  0
   -4.2527   -3.2381   -0.1393 H   0  0  0  0  0  0  0  0  0  0  0  0
   -2.5087   -2.4435    0.8357 C   0  0  0  0  0  0  0  0  0  0  0  0
   -1.5511   -3.0495    1.2919 O   0  0  0  0  0  0  0  0  0  0  0  0
   -2.3389   -1.1927    0.2799 N   0  0  0  0  0  0  0  0  0  0  0  0
   -3.1752   -0.6978   -0.0251 H   0  0  0  0  0  0  0  0  0  0  0  0
   -1.0790   -0.4353    0.2655 C   0  0  1  0  0  0  0  0  0  0  0  0
   -0.4828   -0.8269    1.0959 H   0  0  0  0  0  0  0  0  0  0  0  0
   -0.2496   -0.7830   -0.9943 C   0  0  0  0  0  0  0  0  0  0  0  0
    0.7720   -0.4368   -0.8099 H   0  0  0  0  0  0  0  0  0  0  0  0
   -0.2041   -1.8759   -1.0516 H   0  0  0  0  0  0  0  0  0  0  0  0
   -0.6410   -0.2466   -2.3673 C   0  0  0  0  0  0  0  0  0  0  0  0
   -1.2966    0.9742   -2.6179 C   0  0  0  0  0  0  0  0  0  0  0  0
   -1.5521    1.6681   -1.8317 H   0  0  0  0  0  0  0  0  0  0  0  0
   -1.6295    1.3594   -3.9220 C   0  0  0  0  0  0  0  0  0  0  0  0
   -2.1345    2.3061   -4.0797 H   0  0  0  0  0  0  0  0  0  0  0  0
   -1.3129    0.5395   -5.0036 C   0  0  0  0  0  0  0  0  0  0  0  0
   -1.6367    0.9086   -6.2769 O   0  0  0  0  0  0  0  0  0  0  0  0
   -2.1024    1.7589   -6.2659 H   0  0  0  0  0  0  0  0  0  0  0  0
   -0.6568   -0.6652   -4.7767 C   0  0  0  0  0  0  0  0  0  0  0  0
   -0.4089   -1.3000   -5.6212 H   0  0  0  0  0  0  0  0  0  0  0  0
   -0.3242   -1.0539   -3.4751 C   0  0  0  0  0  0  0  0  0  0  0  0
    0.1852   -2.0024   -3.3307 H   0  0  0  0  0  0  0  0  0  0  0  0
   -1.2580    1.0482    0.6476 C   0  0  0  0  0  0  0  0  0  0  0  0
   -2.3185    1.6202    0.4180 O   0  0  0  0  0  0  0  0  0  0  0  0
   -0.3751    1.6430    1.5317 N   0  0  0  0  0  0  0  0  0  0  0  0
    0.4296    1.0989    1.8301 H   0  0  0  0  0  0  0  0  0  0  0  0
   -0.6052    2.9468    2.1428 C   0  0  0  0  0  0  0  0  0  0  0  0
   -1.5136    2.9287    2.7542 H   0  0  0  0  0  0  0  0  0  0  0  0
    0.2386    3.2170    2.7848 H   0  0  0  0  0  0  0  0  0  0  0  0
   -0.7132    3.7180    1.3728 H   0  0  0  0  0  0  0  0  0  0  0  0
  1  2  1  0  0  0  0
  2  3  1  0  0  0  0
  2  4  1  0  0  0  0
  2  5  1  0  0  0  0
  5  6  2  0  0  0  0
  5  7  1  0  0  0  0
  7  8  1  0  0  0  0
  7  9  1  0  0  0  0
  9 10  1  0  0  0  0
  9 11  1  0  0  0  0
  9 26  1  0  0  0  0
 11 12  1  0  0  0  0
 11 13  1  0  0  0  0
 11 14  1  0  0  0  0
 14 15  2  0  0  0  0
 14 24  1  0  0  0  0
 15 16  1  0  0  0  0
 15 17  1  0  0  0  0
 17 18  1  0  0  0  0
 17 19  2  0  0  0  0
 19 20  1  0  0  0  0
 19 22  1  0  0  0  0
 20 21  1  0  0  0  0
 22 23  1  0  0  0  0
 22 24  2  0  0  0  0
 24 25  1  0  0  0  0
 26 27  2  0  0  0  0
 26 28  1  0  0  0  0
 28 29  1  0  0  0  0
 28 30  1  0  0  0  0
 30 31  1  0  0  0  0
 30 32  1  0  0  0  0
 30 33  1  0  0  0  0
M  END
$$$$

  -OEChem-04042216043D

 33 33  0     1  0  0  0  0  0999 V2000
   -3.8657   -4.0393    1.3206 H   0  0  0  0  0  0  0  0  0  0  0  0
   -3.8708   -3.0824    0.7913 C   0  0  0  0  0  0  0  0  0  0  0  0
   -4.5943   -2.4181    1.2702 H   0  0  0  0  0  0  0  0  0  0  0  0
   -4.1738   -3.2542   -0.2445 H   0  0  0  0  0  0  0  0  0  0  0  0
   -2.4896   -2.4565    0.8282 C   0  0  0  0  0  0  0  0  0  0  0  0
   -1.5653   -3.0443    1.3688 O   0  0  0  0  0  0  0  0  0  0  0  0
   -2.2820   -1.2254    0.2430 N   0  0  0  0  0  0  0  0  0  0  0  0
   -3.0925   -0.7454   -0.1452 H   0  0  0  0  0  0  0  0  0  0  0  0
   -1.0188   -0.4745    0.2721 C   0  0  1  0  0  0  0  0  0  0  0  0
   -0.4444   -0.8470    1.1262 H   0  0  0  0  0  0  0  0  0  0  0  0
   -0.1736   -0.8387   -0.9730 C   0  0  0  0  0  0  0  0  0  0  0  0
    0.8484   -0.4981   -0.7812 H   0  0  0  0  0  0  0  0  0  0  0  0
   -0.1303   -1.9316   -1.0307 H   0  0  0  0  0  0  0  0  0  0  0  0
   -0.5650   -0.2799   -2.3362 C   0  0  0  0  0  0  0  0  0  0  0  0
   -0.9228    1.0601   -2.5778 C   0  0  0  0  0  0  0  0  0  0  0  0
   -0.8742    1.8129   -1.8017 H   0  0  0  0  0  0  0  0  0  0  0  0
   -1.3181    1.4817   -3.8527 C   0  0  0  0  0  0  0  0  0  0  0  0
   -1.5837    2.5219   -4.0067 H   0  0  0  0  0  0  0  0  0  0  0  0
   -1.3668    0.5760   -4.9112 C   0  0  0  0  0  0  0  0  0  0  0  0
   -1.7552    0.9792   -6.1559 O   0  0  0  0  0  0  0  0  0  0  0  0
   -1.9896    1.9199   -6.1399 H   0  0  0  0  0  0  0  0  0  0  0  0
   -1.0135   -0.7513   -4.6914 C   0  0  0  0  0  0  0  0  0  0  0  0
   -1.0522   -1.4526   -5.5184 H   0  0  0  0  0  0  0  0  0  0  0  0
   -0.6183   -1.1765   -3.4187 C   0  0  0  0  0  0  0  0  0  0  0  0
   -0.3583   -2.2216   -3.2778 H   0  0  0  0  0  0  0  0  0  0  0  0
   -1.2370    1.0162    0.5982 C   0  0  0  0  0  0  0  0  0  0  0  0
   -2.2612    1.5859    0.2366 O   0  0  0  0  0  0  0  0  0  0  0  0
   -0.4167    1.6519    1.5132 N   0  0  0  0  0  0  0  0  0  0  0  0
    0.3480    1.1136    1.9107 H   0  0  0  0  0  0  0  0  0  0  0  0
   -0.6915    2.9801    2.0487 C   0  0  0  0  0  0  0  0  0  0  0  0
   -1.6375    2.9822    2.6001 H   0  0  0  0  0  0  0  0  0  0  0  0
    0.1074    3.2854    2.7313 H   0  0  0  0  0  0  0  0  0  0  0  0
   -0.7538    3.7149    1.2393 H   0  0  0  0  0  0  0  0  0  0  0  0
  1  2  1  0  0  0  0
  2  3  1  0  0  0  0
  2  4  1  0  0  0  0
  2  5  1  0  0  0  0
  5  6  2  0  0  0  0
  5  7  1  0  0  0  0
  7  8  1  0  0  0  0
  7  9  1  0  0  0  0
  9 10  1  0  0  0  0
  9 11  1  0  0  0  0
  9 26  1  0  0  0  0
 11 12  1  0  0  0  0
 11 13  1  0  0  0  0
 11 14  1  0  0  0  0
 14 15  2  0  0  0  0
 14 24  1  0  0  0  0
 15 16  1  0  0  0  0
 15 17  1  0  0  0  0
 17 18  1  0  0  0  0
 17 19  2  0  0  0  0
 19 20  1  0  0  0  0
 19 22  1  0  0  0  0
 20 21  1  0  0  0  0
 22 23  1  0  0  0  0
 22 24  2  0  0  0  0
 24 25  1  0  0  0  0
 26 27  2  0  0  0  0
 26 28  1  0  0  0  0
 28 29  1  0  0  0  0
 28 30  1  0  0  0  0
 30 31  1  0  0  0  0
 30 32  1  0  0  0  0
 30 33  1  0  0  0  0
M  END
$$$$

  -OEChem-04042216043D

 33 33  0     1  0  0  0  0  0999 V2000
   -3.9048   -4.0320    1.3409 H   0  0  0  0  0  0  0  0  0  0  0  0
   -3.8839   -3.0950    0.7775 C   0  0  0  0  0  0  0  0  0  0  0  0
   -4.6255   -2.4128    1.2003 H   0  0  0  0  0  0  0  0  0  0  0  0
   -4.1424   -3.3031   -0.2636 H   0  0  0  0  0  0  0  0  0  0  0  0
   -2.5033   -2.4708    0.8512 C   0  0  0  0  0  0  0  0  0  0  0  0
   -1.6049   -3.0397    1.4522 O   0  0  0  0  0  0  0  0  0  0  0  0
   -2.2646   -1.2666    0.2240 N   0  0  0  0  0  0  0  0  0  0  0  0
   -3.0545   -0.8014   -0.2212 H   0  0  0  0  0  0  0  0  0  0  0  0
   -0.9997   -0.5199    0.2722 C   0  0  1  0  0  0  0  0  0  0  0  0
   -0.4457   -0.8664    1.1506 H   0  0  0  0  0  0  0  0  0  0  0  0
   -0.1322   -0.9045   -0.9484 C   0  0  0  0  0  0  0  0  0  0  0  0
    0.8896   -0.5657   -0.7513 H   0  0  0  0  0  0  0  0  0  0  0  0
   -0.0913   -1.9974   -1.0074 H   0  0  0  0  0  0  0  0  0  0  0  0
   -0.5389   -0.3347   -2.2971 C   0  0  0  0  0  0  0  0  0  0  0  0
   -0.6004    1.0451   -2.5616 C   0  0  0  0  0  0  0  0  0  0  0  0
   -0.3154    1.7716   -1.8082 H   0  0  0  0  0  0  0  0  0  0  0  0
   -1.0176    1.5167   -3.8118 C   0  0  0  0  0  0  0  0  0  0  0  0
   -1.0582    2.5859   -3.9884 H   0  0  0  0  0  0  0  0  0  0  0  0
   -1.3797    0.6198   -4.8172 C   0  0  0  0  0  0  0  0  0  0  0  0
   -1.7912    1.0707   -6.0379 O   0  0  0  0  0  0  0  0  0  0  0  0
   -1.8207    2.0398   -6.0384 H   0  0  0  0  0  0  0  0  0  0  0  0
   -1.3219   -0.7486   -4.5690 C   0  0  0  0  0  0  0  0  0  0  0  0
   -1.6065   -1.4410   -5.3542 H   0  0  0  0  0  0  0  0  0  0  0  0
   -0.9078   -1.2241   -3.3204 C   0  0  0  0  0  0  0  0  0  0  0  0
   -0.8813   -2.2963   -3.1501 H   0  0  0  0  0  0  0  0  0  0  0  0
   -1.2256    0.9839    0.5260 C   0  0  0  0  0  0  0  0  0  0  0  0
   -2.2054    1.5545    0.0595 O   0  0  0  0  0  0  0  0  0  0  0  0
   -0.4418    1.6575    1.4460 N   0  0  0  0  0  0  0  0  0  0  0  0
    0.2888    1.1304    1.9161 H   0  0  0  0  0  0  0  0  0  0  0  0
   -0.7085    3.0254    1.8754 C   0  0  0  0  0  0  0  0  0  0  0  0
   -1.6878    3.0904    2.3612 H   0  0  0  0  0  0  0  0  0  0  0  0
    0.0540    3.3543    2.5879 H   0  0  0  0  0  0  0  0  0  0  0  0
   -0.6951    3.7059    1.0175 H   0  0  0  0  0  0  0  0  0  0  0  0
  1  2  1  0  0  0  0
  2  3  1  0  0  0  0
  2  4  1  0  0  0  0
  2  5  1  0  0  0  0
  5  6  2  0  0  0  0
  5  7  1  0  0  0  0
  7  8  1  0  0  0  0
  7  9  1  0  0  0  0
  9 10  1  0  0  0  0
  9 11  1  0  0  0  0
  9 26  1  0  0  0  0
 11 12  1  0  0  0  0
 11 13  1  0  0  0  0
 11 14  1  0  0  0  0
 14 15  2  0  0  0  0
 14 24  1  0  0  0  0
 15 16  1  0  0  0  0
 15 17  1  0  0  0  0
 17 18  1  0  0  0  0
 17 19  2  0  0  0  0
 19 20  1  0  0  0  0
 19 22  1  0  0  0  0
 20 21  1  0  0  0  0
 22 23  1  0  0  0  0
 22 24  2  0  0  0  0
 24 25  1  0  0  0  0
 26 27  2  0  0  0  0
 26 28  1  0  0  0  0
 28 29  1  0  0  0  0
 28 30  1  0  0  0  0
 30 31  1  0  0  0  0
 30 32  1  0  0  0  0
 30 33  1  0  0  0  0
M  END
$$$$

  -OEChem-04042216043D

 33 33  0     1  0  0  0  0  0999 V2000
   -3.9318   -4.0194    1.4035 H   0  0  0  0  0  0  0  0  0  0  0  0
   -3.8943   -3.1062    0.8029 C   0  0  0  0  0  0  0  0  0  0  0  0
   -4.6392   -2.4031    1.1835 H   0  0  0  0  0  0  0  0  0  0  0  0
   -4.1347   -3.3553   -0.2334 H   0  0  0  0  0  0  0  0  0  0  0  0
   -2.5120   -2.4861    0.8783 C   0  0  0  0  0  0  0  0  0  0  0  0
   -1.6312   -3.0318    1.5249 O   0  0  0  0  0  0  0  0  0  0  0  0
   -2.2533   -1.3093    0.2085 N   0  0  0  0  0  0  0  0  0  0  0  0
   -3.0299   -0.8581   -0.2731 H   0  0  0  0  0  0  0  0  0  0  0  0
   -0.9886   -0.5632    0.2644 C   0  0  1  0  0  0  0  0  0  0  0  0
   -0.4500   -0.8827    1.1621 H   0  0  0  0  0  0  0  0  0  0  0  0
   -0.1039   -0.9573   -0.9368 C   0  0  0  0  0  0  0  0  0  0  0  0
    0.9174   -0.6190   -0.7361 H   0  0  0  0  0  0  0  0  0  0  0  0
   -0.0638   -2.0497   -1.0046 H   0  0  0  0  0  0  0  0  0  0  0  0
   -0.5332   -0.3752   -2.2677 C   0  0  0  0  0  0  0  0  0  0  0  0
   -0.3110    0.9731   -2.5927 C   0  0  0  0  0  0  0  0  0  0  0  0
    0.1880    1.6319   -1.8887 H   0  0  0  0  0  0  0  0  0  0  0  0
   -0.7352    1.4881   -3.8231 C   0  0  0  0  0  0  0  0  0  0  0  0
   -0.5579    2.5333   -4.0504 H   0  0  0  0  0  0  0  0  0  0  0  0
   -1.3854    0.6639   -4.7429 C   0  0  0  0  0  0  0  0  0  0  0  0
   -1.8053    1.1579   -5.9439 O   0  0  0  0  0  0  0  0  0  0  0  0
   -1.6285    2.1101   -5.9878 H   0  0  0  0  0  0  0  0  0  0  0  0
   -1.6106   -0.6744   -4.4289 C   0  0  0  0  0  0  0  0  0  0  0  0
   -2.1194   -1.3074   -5.1483 H   0  0  0  0  0  0  0  0  0  0  0  0
   -1.1914   -1.1928   -3.1989 C   0  0  0  0  0  0  0  0  0  0  0  0
   -1.3840   -2.2365   -2.9688 H   0  0  0  0  0  0  0  0  0  0  0  0
   -1.2176    0.9509    0.4491 C   0  0  0  0  0  0  0  0  0  0  0  0
   -2.1717    1.5083   -0.0812 O   0  0  0  0  0  0  0  0  0  0  0  0
   -0.4587    1.6578    1.3649 N   0  0  0  0  0  0  0  0  0  0  0  0
    0.2426    1.1429    1.8897 H   0  0  0  0  0  0  0  0  0  0  0  0
   -0.7216    3.0475    1.7191 C   0  0  0  0  0  0  0  0  0  0  0  0
   -1.7213    3.1498    2.1546 H   0  0  0  0  0  0  0  0  0  0  0  0
    0.0124    3.3959    2.4520 H   0  0  0  0  0  0  0  0  0  0  0  0
   -0.6552    3.6877    0.8331 H   0  0  0  0  0  0  0  0  0  0  0  0
  1  2  1  0  0  0  0
  2  3  1  0  0  0  0
  2  4  1  0  0  0  0
  2  5  1  0  0  0  0
  5  6  2  0  0  0  0
  5  7  1  0  0  0  0
  7  8  1  0  0  0  0
  7  9  1  0  0  0  0
  9 10  1  0  0  0  0
  9 11  1  0  0  0  0
  9 26  1  0  0  0  0
 11 12  1  0  0  0  0
 11 13  1  0  0  0  0
 11 14  1  0  0  0  0
 14 15  2  0  0  0  0
 14 24  1  0  0  0  0
 15 16  1  0  0  0  0
 15 17  1  0  0  0  0
 17 18  1  0  0  0  0
 17 19  2  0  0  0  0
 19 20  1  0  0  0  0
 19 22  1  0  0  0  0
 20 21  1  0  0  0  0
 22 23  1  0  0  0  0
 22 24  2  0  0  0  0
 24 25  1  0  0  0  0
 26 27  2  0  0  0  0
 26 28  1  0  0  0  0
 28 29  1  0  0  0  0
 28 30  1  0  0  0  0
 30 31  1  0  0  0  0
 30 32  1  0  0  0  0
 30 33  1  0  0  0  0
M  END
$$$$

  -OEChem-04042216043D

 33 33  0     1  0  0  0  0  0999 V2000
   -3.9555   -3.9983    1.4730 H   0  0  0  0  0  0  0  0  0  0  0  0
   -3.9101   -3.1012    0.8492 C   0  0  0  0  0  0  0  0  0  0  0  0
   -4.6432   -2.3791    1.2169 H   0  0  0  0  0  0  0  0  0  0  0  0
   -4.1609   -3.3731   -0.1789 H   0  0  0  0  0  0  0  0  0  0  0  0
   -2.5191   -2.4981    0.9000 C   0  0  0  0  0  0  0  0  0  0  0  0
   -1.6411   -3.0403    1.5530 O   0  0  0  0  0  0  0  0  0  0  0  0
   -2.2503   -1.3392    0.2036 N   0  0  0  0  0  0  0  0  0  0  0  0
   -3.0278   -0.8818   -0.2710 H   0  0  0  0  0  0  0  0  0  0  0  0
   -0.9834   -0.5959    0.2538 C   0  0  1  0  0  0  0  0  0  0  0  0
   -0.4487   -0.9004    1.1592 H   0  0  0  0  0  0  0  0  0  0  0  0
   -0.0890   -0.9859   -0.9388 C   0  0  0  0  0  0  0  0  0  0  0  0
    0.9331   -0.6525   -0.7335 H   0  0  0  0  0  0  0  0  0  0  0  0
   -0.0549   -2.0776   -1.0205 H   0  0  0  0  0  0  0  0  0  0  0  0
   -0.5368   -0.3903   -2.2546 C   0  0  0  0  0  0  0  0  0  0  0  0
   -0.0633    0.8589   -2.6852 C   0  0  0  0  0  0  0  0  0  0  0  0
    0.6283    1.4234   -2.0670 H   0  0  0  0  0  0  0  0  0  0  0  0
   -0.4891    1.3955   -3.9064 C   0  0  0  0  0  0  0  0  0  0  0  0
   -0.1196    2.3657   -4.2193 H   0  0  0  0  0  0  0  0  0  0  0  0
   -1.3860    0.6884   -4.7102 C   0  0  0  0  0  0  0  0  0  0  0  0
   -1.8102    1.2047   -5.9006 O   0  0  0  0  0  0  0  0  0  0  0  0
   -1.4556    2.0993   -6.0174 H   0  0  0  0  0  0  0  0  0  0  0  0
   -1.8536   -0.5556   -4.2917 C   0  0  0  0  0  0  0  0  0  0  0  0
   -2.5486   -1.0987   -4.9231 H   0  0  0  0  0  0  0  0  0  0  0  0
   -1.4347   -1.0941   -3.0705 C   0  0  0  0  0  0  0  0  0  0  0  0
   -1.8101   -2.0632   -2.7558 H   0  0  0  0  0  0  0  0  0  0  0  0
   -1.2127    0.9228    0.3988 C   0  0  0  0  0  0  0  0  0  0  0  0
   -2.1683    1.4638   -0.1459 O   0  0  0  0  0  0  0  0  0  0  0  0
   -0.4622    1.6512    1.3048 N   0  0  0  0  0  0  0  0  0  0  0  0
    0.2432    1.1519    1.8388 H   0  0  0  0  0  0  0  0  0  0  0  0
   -0.7373    3.0449    1.6333 C   0  0  0  0  0  0  0  0  0  0  0  0
   -1.7396    3.1461    2.0627 H   0  0  0  0  0  0  0  0  0  0  0  0
   -0.0092    3.4128    2.3626 H   0  0  0  0  0  0  0  0  0  0  0  0
   -0.6737    3.6702    0.7365 H   0  0  0  0  0  0  0  0  0  0  0  0
  1  2  1  0  0  0  0
  2  3  1  0  0  0  0
  2  4  1  0  0  0  0
  2  5  1  0  0  0  0
  5  6  2  0  0  0  0
  5  7  1  0  0  0  0
  7  8  1  0  0  0  0
  7  9  1  0  0  0  0
  9 10  1  0  0  0  0
  9 11  1  0  0  0  0
  9 26  1  0  0  0  0
 11 12  1  0  0  0  0
 11 13  1  0  0  0  0
 11 14  1  0  0  0  0
 14 15  2  0  0  0  0
 14 24  1  0  0  0  0
 15 16  1  0  0  0  0
 15 17  1  0  0  0  0
 17 18  1  0  0  0  0
 17 19  2  0  0  0  0
 19 20  1  0  0  0  0
 19 22  1  0  0  0  0
 20 21  1  0  0  0  0
 22 23  1  0  0  0  0
 22 24  2  0  0  0  0
 24 25  1  0  0  0  0
 26 27  2  0  0  0  0
 26 28  1  0  0  0  0
 28 29  1  0  0  0  0
 28 30  1  0  0  0  0
 30 31  1  0  0  0  0
 30 32  1  0  0  0  0
 30 33  1  0  0  0  0
M  END
$$$$

  -OEChem-04042216043D

 33 33  0     1  0  0  0  0  0999 V2000
   -3.9549   -3.9961    1.5550 H   0  0  0  0  0  0  0  0  0  0  0  0
   -3.9179   -3.1051    0.9218 C   0  0  0  0  0  0  0  0  0  0  0  0
   -4.6300   -2.3704    1.3057 H   0  0  0  0  0  0  0  0  0  0  0  0
   -4.2045   -3.3829   -0.0954 H   0  0  0  0  0  0  0  0  0  0  0  0
   -2.5182   -2.5199    0.9241 C   0  0  0  0  0  0  0  0  0  0  0  0
   -1.6257   -3.0710    1.5495 O   0  0  0  0  0  0  0  0  0  0  0  0
   -2.2590   -1.3655    0.2161 N   0  0  0  0  0  0  0  0  0  0  0  0
   -3.0516   -0.8879   -0.2117 H   0  0  0  0  0  0  0  0  0  0  0  0
   -0.9906   -0.6230    0.2509 C   0  0  1  0  0  0  0  0  0  0  0  0
   -0.4458   -0.9233    1.1513 H   0  0  0  0  0  0  0  0  0  0  0  0
   -0.0994   -0.9915   -0.9509 C   0  0  0  0  0  0  0  0  0  0  0  0
    0.9229   -0.6625   -0.7405 H   0  0  0  0  0  0  0  0  0  0  0  0
   -0.0672   -2.0815   -1.0517 H   0  0  0  0  0  0  0  0  0  0  0  0
   -0.5550   -0.3830   -2.2587 C   0  0  0  0  0  0  0  0  0  0  0  0
    0.1308    0.7057   -2.8198 C   0  0  0  0  0  0  0  0  0  0  0  0
    0.9830    1.1391   -2.3050 H   0  0  0  0  0  0  0  0  0  0  0  0
   -0.2828    1.2515   -4.0410 C   0  0  0  0  0  0  0  0  0  0  0  0
    0.2537    2.0978   -4.4552 H   0  0  0  0  0  0  0  0  0  0  0  0
   -1.3774    0.7093   -4.7179 C   0  0  0  0  0  0  0  0  0  0  0  0
   -1.7870    1.2333   -5.9100 O   0  0  0  0  0  0  0  0  0  0  0  0
   -1.2607    2.0189   -6.1234 H   0  0  0  0  0  0  0  0  0  0  0  0
   -2.0547   -0.3794   -4.1728 C   0  0  0  0  0  0  0  0  0  0  0  0
   -2.9022   -0.7960   -4.7069 H   0  0  0  0  0  0  0  0  0  0  0  0
   -1.6467   -0.9266   -2.9517 C   0  0  0  0  0  0  0  0  0  0  0  0
   -2.1798   -1.7794   -2.5438 H   0  0  0  0  0  0  0  0  0  0  0  0
   -1.2275    0.8951    0.3883 C   0  0  0  0  0  0  0  0  0  0  0  0
   -2.1946    1.4230   -0.1490 O   0  0  0  0  0  0  0  0  0  0  0  0
   -0.4756    1.6353    1.2830 N   0  0  0  0  0  0  0  0  0  0  0  0
    0.2473    1.1493    1.8056 H   0  0  0  0  0  0  0  0  0  0  0  0
   -0.7457    3.0352    1.5877 C   0  0  0  0  0  0  0  0  0  0  0  0
   -1.7430    3.1460    2.0263 H   0  0  0  0  0  0  0  0  0  0  0  0
   -0.0091    3.4167    2.3014 H   0  0  0  0  0  0  0  0  0  0  0  0
   -0.6914    3.6422    0.6779 H   0  0  0  0  0  0  0  0  0  0  0  0
  1  2  1  0  0  0  0
  2  3  1  0  0  0  0
  2  4  1  0  0  0  0
  2  5  1  0  0  0  0
  5  6  2  0  0  0  0
  5  7  1  0  0  0  0
  7  8  1  0  0  0  0
  7  9  1  0  0  0  0
  9 10  1  0  0  0  0
  9 11  1  0  0  0  0
  9 26  1  0  0  0  0
 11 12  1  0  0  0  0
 11 13  1  0  0  0  0
 11 14  1  0  0  0  0
 14 15  2  0  0  0  0
 14 24  1  0  0  0  0
 15 16  1  0  0  0  0
 15 17  1  0  0  0  0
 17 18  1  0  0  0  0
 17 19  2  0  0  0  0
 19 20  1  0  0  0  0
 19 22  1  0  0  0  0
 20 21  1  0  0  0  0
 22 23  1  0  0  0  0
 22 24  2  0  0  0  0
 24 25  1  0  0  0  0
 26 27  2  0  0  0  0
 26 28  1  0  0  0  0
 28 29  1  0  0  0  0
 28 30  1  0  0  0  0
 30 31  1  0  0  0  0
 30 32  1  0  0  0  0
 30 33  1  0  0  0  0
M  END
$$$$

  -OEChem-04042216043D

 33 33  0     1  0  0  0  0  0999 V2000
   -3.9341   -4.0016    1.6440 H   0  0  0  0  0  0  0  0  0  0  0  0
   -3.9157   -3.1129    1.0070 C   0  0  0  0  0  0  0  0  0  0  0  0
   -4.6089   -2.3731    1.4147 H   0  0  0  0  0  0  0  0  0  0  0  0
   -4.2412   -3.3924    0.0021 H   0  0  0  0  0  0  0  0  0  0  0  0
   -2.5140   -2.5357    0.9548 C   0  0  0  0  0  0  0  0  0  0  0  0
   -1.6004   -3.0944    1.5420 O   0  0  0  0  0  0  0  0  0  0  0  0
   -2.2781   -1.3775    0.2448 N   0  0  0  0  0  0  0  0  0  0  0  0
   -3.0876   -0.8854   -0.1315 H   0  0  0  0  0  0  0  0  0  0  0  0
   -1.0093   -0.6350    0.2506 C   0  0  1  0  0  0  0  0  0  0  0  0
   -0.4450   -0.9386    1.1382 H   0  0  0  0  0  0  0  0  0  0  0  0
   -0.1302   -0.9768   -0.9703 C   0  0  0  0  0  0  0  0  0  0  0  0
    0.8912   -0.6465   -0.7572 H   0  0  0  0  0  0  0  0  0  0  0  0
   -0.0944   -2.0652   -1.0852 H   0  0  0  0  0  0  0  0  0  0  0  0
   -0.5860   -0.3638   -2.2797 C   0  0  0  0  0  0  0  0  0  0  0  0
    0.2639    0.5075   -2.9804 C   0  0  0  0  0  0  0  0  0  0  0  0
    1.2330    0.7740   -2.5696 H   0  0  0  0  0  0  0  0  0  0  0  0
   -0.1278    1.0530   -4.2087 C   0  0  0  0  0  0  0  0  0  0  0  0
    0.5382    1.7342   -4.7264 H   0  0  0  0  0  0  0  0  0  0  0  0
   -1.3653    0.7195   -4.7619 C   0  0  0  0  0  0  0  0  0  0  0  0
   -1.7569    1.2449   -5.9595 O   0  0  0  0  0  0  0  0  0  0  0  0
   -1.0971    1.8825   -6.2721 H   0  0  0  0  0  0  0  0  0  0  0  0
   -2.2034   -0.1656   -4.0884 C   0  0  0  0  0  0  0  0  0  0  0  0
   -3.1589   -0.4279   -4.5304 H   0  0  0  0  0  0  0  0  0  0  0  0
   -1.8171   -0.7107   -2.8592 C   0  0  0  0  0  0  0  0  0  0  0  0
   -2.4799   -1.4118   -2.3643 H   0  0  0  0  0  0  0  0  0  0  0  0
   -1.2499    0.8811    0.4026 C   0  0  0  0  0  0  0  0  0  0  0  0
   -2.2394    1.4028   -0.0992 O   0  0  0  0  0  0  0  0  0  0  0  0
   -0.4791    1.6206    1.2819 N   0  0  0  0  0  0  0  0  0  0  0  0
    0.2685    1.1395    1.7729 H   0  0  0  0  0  0  0  0  0  0  0  0
   -0.7420    3.0200    1.5951 C   0  0  0  0  0  0  0  0  0  0  0  0
   -1.7373    3.1334    2.0373 H   0  0  0  0  0  0  0  0  0  0  0  0
   -0.0020    3.3941    2.3091 H   0  0  0  0  0  0  0  0  0  0  0  0
   -0.6872    3.6319    0.6886 H   0  0  0  0  0  0  0  0  0  0  0  0
  1  2  1  0  0  0  0
  2  3  1  0  0  0  0
  2  4  1  0  0  0  0
  2  5  1  0  0  0  0
  5  6  2  0  0  0  0
  5  7  1  0  0  0  0
  7  8  1  0  0  0  0
  7  9  1  0  0  0  0
  9 10  1  0  0  0  0
  9 11  1  0  0  0  0
  9 26  1  0  0  0  0
 11 12  1  0  0  0  0
 11 13  1  0  0  0  0
 11 14  1  0  0  0  0
 14 15  2  0  0  0  0
 14 24  1  0  0  0  0
 15 16  1  0  0  0  0
 15 17  1  0  0  0  0
 17 18  1  0  0  0  0
 17 19  2  0  0  0  0
 19 20  1  0  0  0  0
 19 22  1  0  0  0  0
 20 21  1  0  0  0  0
 22 23  1  0  0  0  0
 22 24  2  0  0  0  0
 24 25  1  0  0  0  0
 26 27  2  0  0  0  0
 26 28  1  0  0  0  0
 28 29  1  0  0  0  0
 28 30  1  0  0  0  0
 30 31  1  0  0  0  0
 30 32  1  0  0  0  0
 30 33  1  0  0  0  0
M  END
$$$$

  -OEChem-04042216043D

 33 33  0     1  0  0  0  0  0999 V2000
   -3.8898   -4.0300    1.6967 H   0  0  0  0  0  0  0  0  0  0  0  0
   -3.8980   -3.1268    1.0801 C   0  0  0  0  0  0  0  0  0  0  0  0
   -4.5701   -2.3955    1.5357 H   0  0  0  0  0  0  0  0  0  0  0  0
   -4.2695   -3.3830    0.0849 H   0  0  0  0  0  0  0  0  0  0  0  0
   -2.4984   -2.5504    0.9772 C   0  0  0  0  0  0  0  0  0  0  0  0
   -1.5623   -3.1185    1.5178 O   0  0  0  0  0  0  0  0  0  0  0  0
   -2.2899   -1.3826    0.2739 N   0  0  0  0  0  0  0  0  0  0  0  0
   -3.1162   -0.8769   -0.0427 H   0  0  0  0  0  0  0  0  0  0  0  0
   -1.0229   -0.6361    0.2519 C   0  0  1  0  0  0  0  0  0  0  0  0
   -0.4348   -0.9465    1.1214 H   0  0  0  0  0  0  0  0  0  0  0  0
   -0.1686   -0.9559   -0.9941 C   0  0  0  0  0  0  0  0  0  0  0  0
    0.8527   -0.6226   -0.7857 H   0  0  0  0  0  0  0  0  0  0  0  0
   -0.1290   -2.0433   -1.1156 H   0  0  0  0  0  0  0  0  0  0  0  0
   -0.6194   -0.3468   -2.3118 C   0  0  0  0  0  0  0  0  0  0  0  0
    0.3377    0.2503   -3.1501 C   0  0  0  0  0  0  0  0  0  0  0  0
    1.3770    0.3033   -2.8402 H   0  0  0  0  0  0  0  0  0  0  0  0
   -0.0271    0.7880   -4.3901 C   0  0  0  0  0  0  0  0  0  0  0  0
    0.7291    1.2507   -5.0143 H   0  0  0  0  0  0  0  0  0  0  0  0
   -1.3529    0.7243   -4.8194 C   0  0  0  0  0  0  0  0  0  0  0  0
   -1.7216    1.2459   -6.0259 O   0  0  0  0  0  0  0  0  0  0  0  0
   -0.9626    1.6780   -6.4460 H   0  0  0  0  0  0  0  0  0  0  0  0
   -2.3067    0.1148   -4.0094 C   0  0  0  0  0  0  0  0  0  0  0  0
   -3.3348    0.0633   -4.3521 H   0  0  0  0  0  0  0  0  0  0  0  0
   -1.9463   -0.4244   -2.7695 C   0  0  0  0  0  0  0  0  0  0  0  0
   -2.7149   -0.9023   -2.1753 H   0  0  0  0  0  0  0  0  0  0  0  0
   -1.2687    0.8761    0.4302 C   0  0  0  0  0  0  0  0  0  0  0  0
   -2.2851    1.3897   -0.0242 O   0  0  0  0  0  0  0  0  0  0  0  0
   -0.4793    1.6128    1.2952 N   0  0  0  0  0  0  0  0  0  0  0  0
    0.2958    1.1376    1.7479 H   0  0  0  0  0  0  0  0  0  0  0  0
   -0.7507    3.0039    1.6375 C   0  0  0  0  0  0  0  0  0  0  0  0
   -1.7245    3.0943    2.1305 H   0  0  0  0  0  0  0  0  0  0  0  0
    0.0179    3.3834    2.3176 H   0  0  0  0  0  0  0  0  0  0  0  0
   -0.7527    3.6270    0.7368 H   0  0  0  0  0  0  0  0  0  0  0  0
  1  2  1  0  0  0  0
  2  3  1  0  0  0  0
  2  4  1  0  0  0  0
  2  5  1  0  0  0  0
  5  6  2  0  0  0  0
  5  7  1  0  0  0  0
  7  8  1  0  0  0  0
  7  9  1  0  0  0  0
  9 10  1  0  0  0  0
  9 11  1  0  0  0  0
  9 26  1  0  0  0  0
 11 12  1  0  0  0  0
 11 13  1  0  0  0  0
 11 14  1  0  0  0  0
 14 15  2  0  0  0  0
 14 24  1  0  0  0  0
 15 16  1  0  0  0  0
 15 17  1  0  0  0  0
 17 18  1  0  0  0  0
 17 19  2  0  0  0  0
 19 20  1  0  0  0  0
 19 22  1  0  0  0  0
 20 21  1  0  0  0  0
 22 23  1  0  0  0  0
 22 24  2  0  0  0  0
 24 25  1  0  0  0  0
 26 27  2  0  0  0  0
 26 28  1  0  0  0  0
 28 29  1  0  0  0  0
 28 30  1  0  0  0  0
 30 31  1  0  0  0  0
 30 32  1  0  0  0  0
 30 33  1  0  0  0  0
M  END
$$$$

  -OEChem-04042216043D

 33 33  0     1  0  0  0  0  0999 V2000
   -3.8449   -4.0469    1.7136 H   0  0  0  0  0  0  0  0  0  0  0  0
   -3.8733   -3.1437    1.0979 C   0  0  0  0  0  0  0  0  0  0  0  0
   -4.5465   -2.4205    1.5646 H   0  0  0  0  0  0  0  0  0  0  0  0
   -4.2577   -3.4029    0.1084 H   0  0  0  0  0  0  0  0  0  0  0  0
   -2.4818   -2.5525    0.9728 C   0  0  0  0  0  0  0  0  0  0  0  0
   -1.5273   -3.1216    1.4797 O   0  0  0  0  0  0  0  0  0  0  0  0
   -2.3022   -1.3682    0.2894 N   0  0  0  0  0  0  0  0  0  0  0  0
   -3.1423   -0.8664    0.0062 H   0  0  0  0  0  0  0  0  0  0  0  0
   -1.0422   -0.6095    0.2515 C   0  0  1  0  0  0  0  0  0  0  0  0
   -0.4384   -0.9304    1.1061 H   0  0  0  0  0  0  0  0  0  0  0  0
   -0.2065   -0.9208   -1.0093 C   0  0  0  0  0  0  0  0  0  0  0  0
    0.8124   -0.5731   -0.8115 H   0  0  0  0  0  0  0  0  0  0  0  0
   -0.1552   -2.0086   -1.1238 H   0  0  0  0  0  0  0  0  0  0  0  0
   -0.6558   -0.3294   -2.3372 C   0  0  0  0  0  0  0  0  0  0  0  0
    0.3250   -0.0388   -3.3006 C   0  0  0  0  0  0  0  0  0  0  0  0
    1.3733   -0.2150   -3.0782 H   0  0  0  0  0  0  0  0  0  0  0  0
   -0.0237    0.4789   -4.5535 C   0  0  0  0  0  0  0  0  0  0  0  0
    0.7551    0.6999   -5.2749 H   0  0  0  0  0  0  0  0  0  0  0  0
   -1.3634    0.7039   -4.8700 C   0  0  0  0  0  0  0  0  0  0  0  0
   -1.7175    1.2106   -6.0871 O   0  0  0  0  0  0  0  0  0  0  0  0
   -0.9243    1.4021   -6.6100 H   0  0  0  0  0  0  0  0  0  0  0  0
   -2.3479    0.4036   -3.9334 C   0  0  0  0  0  0  0  0  0  0  0  0
   -3.3886    0.5785   -4.1852 H   0  0  0  0  0  0  0  0  0  0  0  0
   -2.0028   -0.1134   -2.6800 C   0  0  0  0  0  0  0  0  0  0  0  0
   -2.8033   -0.3306   -1.9842 H   0  0  0  0  0  0  0  0  0  0  0  0
   -1.2816    0.8990    0.4670 C   0  0  0  0  0  0  0  0  0  0  0  0
   -2.3172    1.4206    0.0682 O   0  0  0  0  0  0  0  0  0  0  0  0
   -0.4664    1.6134    1.3265 N   0  0  0  0  0  0  0  0  0  0  0  0
    0.3314    1.1315    1.7301 H   0  0  0  0  0  0  0  0  0  0  0  0
   -0.7296    2.9926    1.7182 C   0  0  0  0  0  0  0  0  0  0  0  0
   -1.7013    3.0706    2.2173 H   0  0  0  0  0  0  0  0  0  0  0  0
    0.0428    3.3433    2.4092 H   0  0  0  0  0  0  0  0  0  0  0  0
   -0.7308    3.6459    0.8394 H   0  0  0  0  0  0  0  0  0  0  0  0
  1  2  1  0  0  0  0
  2  3  1  0  0  0  0
  2  4  1  0  0  0  0
  2  5  1  0  0  0  0
  5  6  2  0  0  0  0
  5  7  1  0  0  0  0
  7  8  1  0  0  0  0
  7  9  1  0  0  0  0
  9 10  1  0  0  0  0
  9 11  1  0  0  0  0
  9 26  1  0  0  0  0
 11 12  1  0  0  0  0
 11 13  1  0  0  0  0
 11 14  1  0  0  0  0
 14 15  2  0  0  0  0
 14 24  1  0  0  0  0
 15 16  1  0  0  0  0
 15 17  1  0  0  0  0
 17 18  1  0  0  0  0
 17 19  2  0  0  0  0
 19 20  1  0  0  0  0
 19 22  1  0  0  0  0
 20 21  1  0  0  0  0
 22 23  1  0  0  0  0
 22 24  2  0  0  0  0
 24 25  1  0  0  0  0
 26 27  2  0  0  0  0
 26 28  1  0  0  0  0
 28 29  1  0  0  0  0
 28 30  1  0  0  0  0
 30 31  1  0  0  0  0
 30 32  1  0  0  0  0
 30 33  1  0  0  0  0
M  END
$$$$

  -OEChem-04042216043D

 33 33  0     1  0  0  0  0  0999 V2000
   -3.8037   -4.0738    1.6294 H   0  0  0  0  0  0  0  0  0  0  0  0
   -3.8527   -3.1515    1.0440 C   0  0  0  0  0  0  0  0  0  0  0  0
   -4.5384   -2.4579    1.5366 H   0  0  0  0  0  0  0  0  0  0  0  0
   -4.2356   -3.3858    0.0477 H   0  0  0  0  0  0  0  0  0  0  0  0
   -2.4740   -2.5281    0.9346 C   0  0  0  0  0  0  0  0  0  0  0  0
   -1.5064   -3.0973    1.4160 O   0  0  0  0  0  0  0  0  0  0  0  0
   -2.3209   -1.3156    0.2948 N   0  0  0  0  0  0  0  0  0  0  0  0
   -3.1705   -0.8289    0.0155 H   0  0  0  0  0  0  0  0  0  0  0  0
   -1.0701   -0.5414    0.2539 C   0  0  1  0  0  0  0  0  0  0  0  0
   -0.4586   -0.8850    1.0942 H   0  0  0  0  0  0  0  0  0  0  0  0
   -0.2414   -0.8530   -1.0114 C   0  0  0  0  0  0  0  0  0  0  0  0
    0.7753   -0.4924   -0.8256 H   0  0  0  0  0  0  0  0  0  0  0  0
   -0.1804   -1.9416   -1.1130 H   0  0  0  0  0  0  0  0  0  0  0  0
   -0.6887   -0.2860   -2.3498 C   0  0  0  0  0  0  0  0  0  0  0  0
    0.2362   -0.3068   -3.4072 C   0  0  0  0  0  0  0  0  0  0  0  0
    1.2408   -0.6839   -3.2391 H   0  0  0  0  0  0  0  0  0  0  0  0
   -0.1121    0.1539   -4.6821 C   0  0  0  0  0  0  0  0  0  0  0  0
    0.6256    0.1343   -5.4767 H   0  0  0  0  0  0  0  0  0  0  0  0
   -1.4004    0.6290   -4.9272 C   0  0  0  0  0  0  0  0  0  0  0  0
   -1.7525    1.0814   -6.1661 O   0  0  0  0  0  0  0  0  0  0  0  0
   -0.9897    1.0419   -6.7630 H   0  0  0  0  0  0  0  0  0  0  0  0
   -2.3362    0.6318   -3.8968 C   0  0  0  0  0  0  0  0  0  0  0  0
   -3.3398    0.9943   -4.0936 H   0  0  0  0  0  0  0  0  0  0  0  0
   -1.9916    0.1705   -2.6215 C   0  0  0  0  0  0  0  0  0  0  0  0
   -2.7611    0.1746   -1.8593 H   0  0  0  0  0  0  0  0  0  0  0  0
   -1.2814    0.9628    0.5308 C   0  0  0  0  0  0  0  0  0  0  0  0
   -2.3278    1.5128    0.2061 O   0  0  0  0  0  0  0  0  0  0  0  0
   -0.4273    1.6297    1.3913 N   0  0  0  0  0  0  0  0  0  0  0  0
    0.3773    1.1204    1.7448 H   0  0  0  0  0  0  0  0  0  0  0  0
   -0.6602    2.9905    1.8598 C   0  0  0  0  0  0  0  0  0  0  0  0
   -1.6086    3.0518    2.4039 H   0  0  0  0  0  0  0  0  0  0  0  0
    0.1448    3.3018    2.5325 H   0  0  0  0  0  0  0  0  0  0  0  0
   -0.6931    3.6857    1.0144 H   0  0  0  0  0  0  0  0  0  0  0  0
  1  2  1  0  0  0  0
  2  3  1  0  0  0  0
  2  4  1  0  0  0  0
  2  5  1  0  0  0  0
  5  6  2  0  0  0  0
  5  7  1  0  0  0  0
  7  8  1  0  0  0  0
  7  9  1  0  0  0  0
  9 10  1  0  0  0  0
  9 11  1  0  0  0  0
  9 26  1  0  0  0  0
 11 12  1  0  0  0  0
 11 13  1  0  0  0  0
 11 14  1  0  0  0  0
 14 15  2  0  0  0  0
 14 24  1  0  0  0  0
 15 16  1  0  0  0  0
 15 17  1  0  0  0  0
 17 18  1  0  0  0  0
 17 19  2  0  0  0  0
 19 20  1  0  0  0  0
 19 22  1  0  0  0  0
 20 21  1  0  0  0  0
 22 23  1  0  0  0  0
 22 24  2  0  0  0  0
 24 25  1  0  0  0  0
 26 27  2  0  0  0  0
 26 28  1  0  0  0  0
 28 29  1  0  0  0  0
 28 30  1  0  0  0  0
 30 31  1  0  0  0  0
 30 32  1  0  0  0  0
 30 33  1  0  0  0  0
M  END
$$$$

  -OEChem-04042216043D

 33 33  0     1  0  0  0  0  0999 V2000
   -3.6396   -4.1926    1.3864 H   0  0  0  0  0  0  0  0  0  0  0  0
   -3.7561   -3.2200    0.9003 C   0  0  0  0  0  0  0  0  0  0  0  0
   -4.4678   -2.6220    1.4745 H   0  0  0  0  0  0  0  0  0  0  0  0
   -4.1494   -3.3740   -0.1075 H   0  0  0  0  0  0  0  0  0  0  0  0
   -2.4190   -2.5073    0.8295 C   0  0  0  0  0  0  0  0  0  0  0  0
   -1.4116   -3.0568    1.2483 O   0  0  0  0  0  0  0  0  0  0  0  0
   -2.3463   -1.2432    0.2813 N   0  0  0  0  0  0  0  0  0  0  0  0
   -3.2259   -0.7938    0.0326 H   0  0  0  0  0  0  0  0  0  0  0  0
   -1.1459   -0.3928    0.2747 C   0  0  1  0  0  0  0  0  0  0  0  0
   -0.5514   -0.7472    1.1229 H   0  0  0  0  0  0  0  0  0  0  0  0
   -0.2369   -0.6767   -0.9463 C   0  0  0  0  0  0  0  0  0  0  0  0
    0.7895   -0.4785   -0.6209 H   0  0  0  0  0  0  0  0  0  0  0  0
   -0.2960   -1.7490   -1.1616 H   0  0  0  0  0  0  0  0  0  0  0  0
   -0.4154    0.0697   -2.2607 C   0  0  0  0  0  0  0  0  0  0  0  0
    0.4703   -0.2663   -3.2993 C   0  0  0  0  0  0  0  0  0  0  0  0
    1.2658   -0.9833   -3.1169 H   0  0  0  0  0  0  0  0  0  0  0  0
    0.3602    0.3145   -4.5677 C   0  0  0  0  0  0  0  0  0  0  0  0
    1.0716    0.0473   -5.3415 H   0  0  0  0  0  0  0  0  0  0  0  0
   -0.6623    1.2241   -4.8327 C   0  0  0  0  0  0  0  0  0  0  0  0
   -0.7843    1.7984   -6.0651 O   0  0  0  0  0  0  0  0  0  0  0  0
   -0.0834    1.4766   -6.6522 H   0  0  0  0  0  0  0  0  0  0  0  0
   -1.5791    1.5304   -3.8321 C   0  0  0  0  0  0  0  0  0  0  0  0
   -2.3903    2.2175   -4.0500 H   0  0  0  0  0  0  0  0  0  0  0  0
   -1.4721    0.9486   -2.5640 C   0  0  0  0  0  0  0  0  0  0  0  0
   -2.2499    1.1845   -1.8524 H   0  0  0  0  0  0  0  0  0  0  0  0
   -1.4053    1.0792    0.6628 C   0  0  0  0  0  0  0  0  0  0  0  0
   -2.5078    1.5803    0.4700 O   0  0  0  0  0  0  0  0  0  0  0  0
   -0.5520    1.7166    1.5465 N   0  0  0  0  0  0  0  0  0  0  0  0
    0.3090    1.2394    1.7970 H   0  0  0  0  0  0  0  0  0  0  0  0
   -0.8333    3.0172    2.1427 C   0  0  0  0  0  0  0  0  0  0  0  0
   -1.7298    2.9653    2.7696 H   0  0  0  0  0  0  0  0  0  0  0  0
    0.0072    3.3368    2.7665 H   0  0  0  0  0  0  0  0  0  0  0  0
   -0.9907    3.7704    1.3633 H   0  0  0  0  0  0  0  0  0  0  0  0
  1  2  1  0  0  0  0
  2  3  1  0  0  0  0
  2  4  1  0  0  0  0
  2  5  1  0  0  0  0
  5  6  2  0  0  0  0
  5  7  1  0  0  0  0
  7  8  1  0  0  0  0
  7  9  1  0  0  0  0
  9 10  1  0  0  0  0
  9 11  1  0  0  0  0
  9 26  1  0  0  0  0
 11 12  1  0  0  0  0
 11 13  1  0  0  0  0
 11 14  1  0  0  0  0
 14 15  2  0  0  0  0
 14 24  1  0  0  0  0
 15 16  1  0  0  0  0
 15 17  1  0  0  0  0
 17 18  1  0  0  0  0
 17 19  2  0  0  0  0
 19 20  1  0  0  0  0
 19 22  1  0  0  0  0
 20 21  1  0  0  0  0
 22 23  1  0  0  0  0
 22 24  2  0  0  0  0
 24 25  1  0  0  0  0
 26 27  2  0  0  0  0
 26 28  1  0  0  0  0
 28 29  1  0  0  0  0
 28 30  1  0  0  0  0
 30 31  1  0  0  0  0
 30 32  1  0  0  0  0
 30 33  1  0  0  0  0
M  END
$$$$

  -OEChem-04042216043D

 33 33  0     1  0  0  0  0  0999 V2000
   -3.8378   -4.1100    1.3194 H   0  0  0  0  0  0  0  0  0  0  0  0
   -3.9047   -3.1216    0.8562 C   0  0  0  0  0  0  0  0  0  0  0  0
   -4.5810   -2.5003    1.4482 H   0  0  0  0  0  0  0  0  0  0  0  0
   -4.3106   -3.2306   -0.1525 H   0  0  0  0  0  0  0  0  0  0  0  0
   -2.5320   -2.4788    0.7939 C   0  0  0  0  0  0  0  0  0  0  0  0
   -1.5505   -3.0933    1.1829 O   0  0  0  0  0  0  0  0  0  0  0  0
   -2.3982   -1.2030    0.2866 N   0  0  0  0  0  0  0  0  0  0  0  0
   -3.2537   -0.7022    0.0509 H   0  0  0  0  0  0  0  0  0  0  0  0
   -1.1529   -0.4201    0.2774 C   0  0  1  0  0  0  0  0  0  0  0  0
   -0.5488   -0.8306    1.0929 H   0  0  0  0  0  0  0  0  0  0  0  0
   -0.3159   -0.7257   -0.9920 C   0  0  0  0  0  0  0  0  0  0  0  0
    0.7320   -0.6005   -0.7018 H   0  0  0  0  0  0  0  0  0  0  0  0
   -0.4497   -1.7894   -1.2165 H   0  0  0  0  0  0  0  0  0  0  0  0
   -0.4694    0.0494   -2.2976 C   0  0  0  0  0  0  0  0  0  0  0  0
    0.1090   -0.5457   -3.4337 C   0  0  0  0  0  0  0  0  0  0  0  0
    0.6204   -1.4997   -3.3412 H   0  0  0  0  0  0  0  0  0  0  0  0
    0.0425    0.0608   -4.6927 C   0  0  0  0  0  0  0  0  0  0  0  0
    0.4981   -0.4287   -5.5463 H   0  0  0  0  0  0  0  0  0  0  0  0
   -0.6051    1.2847   -4.8442 C   0  0  0  0  0  0  0  0  0  0  0  0
   -0.6797    1.8888   -6.0660 O   0  0  0  0  0  0  0  0  0  0  0  0
   -0.2525    1.3352   -6.7374 H   0  0  0  0  0  0  0  0  0  0  0  0
   -1.1812    1.8928   -3.7341 C   0  0  0  0  0  0  0  0  0  0  0  0
   -1.6857    2.8458   -3.8566 H   0  0  0  0  0  0  0  0  0  0  0  0
   -1.1179    1.2882   -2.4734 C   0  0  0  0  0  0  0  0  0  0  0  0
   -1.5926    1.8270   -1.6689 H   0  0  0  0  0  0  0  0  0  0  0  0
   -1.3532    1.0422    0.7235 C   0  0  0  0  0  0  0  0  0  0  0  0
   -2.4363    1.5906    0.5470 O   0  0  0  0  0  0  0  0  0  0  0  0
   -0.4661    1.6229    1.6128 N   0  0  0  0  0  0  0  0  0  0  0  0
    0.3706    1.0993    1.8535 H   0  0  0  0  0  0  0  0  0  0  0  0
   -0.6994    2.9096    2.2584 C   0  0  0  0  0  0  0  0  0  0  0  0
   -1.5895    2.8637    2.8945 H   0  0  0  0  0  0  0  0  0  0  0  0
    0.1577    3.1801    2.8823 H   0  0  0  0  0  0  0  0  0  0  0  0
   -0.8419    3.6949    1.5085 H   0  0  0  0  0  0  0  0  0  0  0  0
  1  2  1  0  0  0  0
  2  3  1  0  0  0  0
  2  4  1  0  0  0  0
  2  5  1  0  0  0  0
  5  6  2  0  0  0  0
  5  7  1  0  0  0  0
  7  8  1  0  0  0  0
  7  9  1  0  0  0  0
  9 10  1  0  0  0  0
  9 11  1  0  0  0  0
  9 26  1  0  0  0  0
 11 12  1  0  0  0  0
 11 13  1  0  0  0  0
 11 14  1  0  0  0  0
 14 15  2  0  0  0  0
 14 24  1  0  0  0  0
 15 16  1  0  0  0  0
 15 17  1  0  0  0  0
 17 18  1  0  0  0  0
 17 19  2  0  0  0  0
 19 20  1  0  0  0  0
 19 22  1  0  0  0  0
 20 21  1  0  0  0  0
 22 23  1  0  0  0  0
 22 24  2  0  0  0  0
 24 25  1  0  0  0  0
 26 27  2  0  0  0  0
 26 28  1  0  0  0  0
 28 29  1  0  0  0  0
 28 30  1  0  0  0  0
 30 31  1  0  0  0  0
 30 32  1  0  0  0  0
 30 33  1  0  0  0  0
M  END
$$$$

  -OEChem-04042216043D

 33 33  0     1  0  0  0  0  0999 V2000
   -3.7657   -4.1535    1.3761 H   0  0  0  0  0  0  0  0  0  0  0  0
   -3.8292   -3.1798    0.8822 C   0  0  0  0  0  0  0  0  0  0  0  0
   -4.5244   -2.5473    1.4395 H   0  0  0  0  0  0  0  0  0  0  0  0
   -4.2102   -3.3227   -0.1319 H   0  0  0  0  0  0  0  0  0  0  0  0
   -2.4606   -2.5270    0.8323 C   0  0  0  0  0  0  0  0  0  0  0  0
   -1.4835   -3.1216    1.2610 O   0  0  0  0  0  0  0  0  0  0  0  0
   -2.3237   -1.2643    0.2946 N   0  0  0  0  0  0  0  0  0  0  0  0
   -3.1746   -0.7763    0.0177 H   0  0  0  0  0  0  0  0  0  0  0  0
   -1.0829   -0.4751    0.2899 C   0  0  1  0  0  0  0  0  0  0  0  0
   -0.4599   -0.8648    1.1015 H   0  0  0  0  0  0  0  0  0  0  0  0
   -0.2838   -0.7709   -1.0082 C   0  0  0  0  0  0  0  0  0  0  0  0
    0.7738   -0.6503   -0.7536 H   0  0  0  0  0  0  0  0  0  0  0  0
   -0.4235   -1.8322   -1.2407 H   0  0  0  0  0  0  0  0  0  0  0  0
   -0.4902    0.0400   -2.2858 C   0  0  0  0  0  0  0  0  0  0  0  0
   -0.2741   -0.6369   -3.5008 C   0  0  0  0  0  0  0  0  0  0  0  0
   -0.0313   -1.6956   -3.4955 H   0  0  0  0  0  0  0  0  0  0  0  0
   -0.3797    0.0174   -4.7330 C   0  0  0  0  0  0  0  0  0  0  0  0
   -0.2271   -0.5420   -5.6493 H   0  0  0  0  0  0  0  0  0  0  0  0
   -0.6737    1.3784   -4.7779 C   0  0  0  0  0  0  0  0  0  0  0  0
   -0.7843    2.0305   -5.9719 O   0  0  0  0  0  0  0  0  0  0  0  0
   -0.6853    1.4023   -6.7034 H   0  0  0  0  0  0  0  0  0  0  0  0
   -0.8398    2.0790   -3.5884 C   0  0  0  0  0  0  0  0  0  0  0  0
   -1.0466    3.1435   -3.6273 H   0  0  0  0  0  0  0  0  0  0  0  0
   -0.7333    1.4277   -2.3543 C   0  0  0  0  0  0  0  0  0  0  0  0
   -0.8294    2.0531   -1.4781 H   0  0  0  0  0  0  0  0  0  0  0  0
   -1.3440    0.9862    0.6986 C   0  0  0  0  0  0  0  0  0  0  0  0
   -2.4030    1.5280    0.3996 O   0  0  0  0  0  0  0  0  0  0  0  0
   -0.5061    1.6190    1.5993 N   0  0  0  0  0  0  0  0  0  0  0  0
    0.3136    1.1106    1.9183 H   0  0  0  0  0  0  0  0  0  0  0  0
   -0.7809    2.9354    2.1627 C   0  0  0  0  0  0  0  0  0  0  0  0
   -1.7105    2.9187    2.7414 H   0  0  0  0  0  0  0  0  0  0  0  0
    0.0341    3.2401    2.8261 H   0  0  0  0  0  0  0  0  0  0  0  0
   -0.8746    3.6811    1.3663 H   0  0  0  0  0  0  0  0  0  0  0  0
  1  2  1  0  0  0  0
  2  3  1  0  0  0  0
  2  4  1  0  0  0  0
  2  5  1  0  0  0  0
  5  6  2  0  0  0  0
  5  7  1  0  0  0  0
  7  8  1  0  0  0  0
  7  9  1  0  0  0  0
  9 10  1  0  0  0  0
  9 11  1  0  0  0  0
  9 26  1  0  0  0  0
 11 12  1  0  0  0  0
 11 13  1  0  0  0  0
 11 14  1  0  0  0  0
 14 15  2  0  0  0  0
 14 24  1  0  0  0  0
 15 16  1  0  0  0  0
 15 17  1  0  0  0  0
 17 18  1  0  0  0  0
 17 19  2  0  0  0  0
 19 20  1  0  0  0  0
 19 22  1  0  0  0  0
 20 21  1  0  0  0  0
 22 23  1  0  0  0  0
 22 24  2  0  0  0  0
 24 25  1  0  0  0  0
 26 27  2  0  0  0  0
 26 28  1  0  0  0  0
 28 29  1  0  0  0  0
 28 30  1  0  0  0  0
 30 31  1  0  0  0  0
 30 32  1  0  0  0  0
 30 33  1  0  0  0  0
M  END
$$$$

  -OEChem-04042216043D

 33 33  0     1  0  0  0  0  0999 V2000
   -3.7999   -4.1246    1.4188 H   0  0  0  0  0  0  0  0  0  0  0  0
   -3.8391   -3.1662    0.8935 C   0  0  0  0  0  0  0  0  0  0  0  0
   -4.5434   -2.5095    1.4101 H   0  0  0  0  0  0  0  0  0  0  0  0
   -4.1920   -3.3370   -0.1264 H   0  0  0  0  0  0  0  0  0  0  0  0
   -2.4628   -2.5289    0.8644 C   0  0  0  0  0  0  0  0  0  0  0  0
   -1.5072   -3.1131    1.3514 O   0  0  0  0  0  0  0  0  0  0  0  0
   -2.2950   -1.2915    0.2801 N   0  0  0  0  0  0  0  0  0  0  0  0
   -3.1310   -0.8074   -0.0454 H   0  0  0  0  0  0  0  0  0  0  0  0
   -1.0477   -0.5132    0.2895 C   0  0  1  0  0  0  0  0  0  0  0  0
   -0.4389   -0.8798    1.1222 H   0  0  0  0  0  0  0  0  0  0  0  0
   -0.2405   -0.8324   -0.9955 C   0  0  0  0  0  0  0  0  0  0  0  0
    0.8184   -0.7161   -0.7440 H   0  0  0  0  0  0  0  0  0  0  0  0
   -0.3843   -1.8920   -1.2312 H   0  0  0  0  0  0  0  0  0  0  0  0
   -0.4692    0.0032   -2.2478 C   0  0  0  0  0  0  0  0  0  0  0  0
   -0.6040   -0.6709   -3.4745 C   0  0  0  0  0  0  0  0  0  0  0  0
   -0.6240   -1.7565   -3.4980 H   0  0  0  0  0  0  0  0  0  0  0  0
   -0.7320    0.0307   -4.6786 C   0  0  0  0  0  0  0  0  0  0  0  0
   -0.8566   -0.5185   -5.6052 H   0  0  0  0  0  0  0  0  0  0  0  0
   -0.6913    1.4244   -4.6840 C   0  0  0  0  0  0  0  0  0  0  0  0
   -0.8177    2.1216   -5.8506 O   0  0  0  0  0  0  0  0  0  0  0  0
   -0.9927    1.5120   -6.5836 H   0  0  0  0  0  0  0  0  0  0  0  0
   -0.5000    2.1070   -3.4868 C   0  0  0  0  0  0  0  0  0  0  0  0
   -0.4441    3.1905   -3.4990 H   0  0  0  0  0  0  0  0  0  0  0  0
   -0.3702    1.4079   -2.2818 C   0  0  0  0  0  0  0  0  0  0  0  0
   -0.1758    1.9886   -1.3881 H   0  0  0  0  0  0  0  0  0  0  0  0
   -1.3243    0.9639    0.6282 C   0  0  0  0  0  0  0  0  0  0  0  0
   -2.3524    1.5058    0.2378 O   0  0  0  0  0  0  0  0  0  0  0  0
   -0.5218    1.6318    1.5359 N   0  0  0  0  0  0  0  0  0  0  0  0
    0.2668    1.1259    1.9289 H   0  0  0  0  0  0  0  0  0  0  0  0
   -0.8088    2.9763    2.0218 C   0  0  0  0  0  0  0  0  0  0  0  0
   -1.7592    2.9927    2.5657 H   0  0  0  0  0  0  0  0  0  0  0  0
   -0.0166    3.3107    2.6985 H   0  0  0  0  0  0  0  0  0  0  0  0
   -0.8685    3.6813    1.1858 H   0  0  0  0  0  0  0  0  0  0  0  0
  1  2  1  0  0  0  0
  2  3  1  0  0  0  0
  2  4  1  0  0  0  0
  2  5  1  0  0  0  0
  5  6  2  0  0  0  0
  5  7  1  0  0  0  0
  7  8  1  0  0  0  0
  7  9  1  0  0  0  0
  9 10  1  0  0  0  0
  9 11  1  0  0  0  0
  9 26  1  0  0  0  0
 11 12  1  0  0  0  0
 11 13  1  0  0  0  0
 11 14  1  0  0  0  0
 14 15  2  0  0  0  0
 14 24  1  0  0  0  0
 15 16  1  0  0  0  0
 15 17  1  0  0  0  0
 17 18  1  0  0  0  0
 17 19  2  0  0  0  0
 19 20  1  0  0  0  0
 19 22  1  0  0  0  0
 20 21  1  0  0  0  0
 22 23  1  0  0  0  0
 22 24  2  0  0  0  0
 24 25  1  0  0  0  0
 26 27  2  0  0  0  0
 26 28  1  0  0  0  0
 28 29  1  0  0  0  0
 28 30  1  0  0  0  0
 30 31  1  0  0  0  0
 30 32  1  0  0  0  0
 30 33  1  0  0  0  0
M  END
$$$$

  -OEChem-04042216043D

 33 33  0     1  0  0  0  0  0999 V2000
   -3.8539   -4.0681    1.4748 H   0  0  0  0  0  0  0  0  0  0  0  0
   -3.8617   -3.1419    0.8934 C   0  0  0  0  0  0  0  0  0  0  0  0
   -4.5725   -2.4472    1.3476 H   0  0  0  0  0  0  0  0  0  0  0  0
   -4.1843   -3.3674   -0.1259 H   0  0  0  0  0  0  0  0  0  0  0  0
   -2.4759   -2.5250    0.8736 C   0  0  0  0  0  0  0  0  0  0  0  0
   -1.5408   -3.1024    1.4063 O   0  0  0  0  0  0  0  0  0  0  0  0
   -2.2774   -1.3108    0.2514 N   0  0  0  0  0  0  0  0  0  0  0  0
   -3.0992   -0.8265   -0.1080 H   0  0  0  0  0  0  0  0  0  0  0  0
   -1.0242   -0.5426    0.2785 C   0  0  1  0  0  0  0  0  0  0  0  0
   -0.4406   -0.8898    1.1371 H   0  0  0  0  0  0  0  0  0  0  0  0
   -0.1877   -0.8819   -0.9792 C   0  0  0  0  0  0  0  0  0  0  0  0
    0.8678   -0.7682   -0.7129 H   0  0  0  0  0  0  0  0  0  0  0  0
   -0.3299   -1.9398   -1.2229 H   0  0  0  0  0  0  0  0  0  0  0  0
   -0.4221   -0.0284   -2.2121 C   0  0  0  0  0  0  0  0  0  0  0  0
   -0.8686   -0.6421   -3.3938 C   0  0  0  0  0  0  0  0  0  0  0  0
   -1.1052   -1.7021   -3.3994 H   0  0  0  0  0  0  0  0  0  0  0  0
   -1.0277    0.0974   -4.5716 C   0  0  0  0  0  0  0  0  0  0  0  0
   -1.3901   -0.3969   -5.4662 H   0  0  0  0  0  0  0  0  0  0  0  0
   -0.7161    1.4575   -4.5929 C   0  0  0  0  0  0  0  0  0  0  0  0
   -0.8687    2.1895   -5.7349 O   0  0  0  0  0  0  0  0  0  0  0  0
   -1.2586    1.6392   -6.4311 H   0  0  0  0  0  0  0  0  0  0  0  0
   -0.2324    2.0688   -3.4391 C   0  0  0  0  0  0  0  0  0  0  0  0
    0.0215    3.1233   -3.4667 H   0  0  0  0  0  0  0  0  0  0  0  0
   -0.0724    1.3331   -2.2598 C   0  0  0  0  0  0  0  0  0  0  0  0
    0.3297    1.8356   -1.3862 H   0  0  0  0  0  0  0  0  0  0  0  0
   -1.2957    0.9498    0.5541 C   0  0  0  0  0  0  0  0  0  0  0  0
   -2.3044    1.4875    0.1113 O   0  0  0  0  0  0  0  0  0  0  0  0
   -0.5163    1.6388    1.4664 N   0  0  0  0  0  0  0  0  0  0  0  0
    0.2442    1.1334    1.9118 H   0  0  0  0  0  0  0  0  0  0  0  0
   -0.8037    3.0013    1.8985 C   0  0  0  0  0  0  0  0  0  0  0  0
   -1.7914    3.0549    2.3683 H   0  0  0  0  0  0  0  0  0  0  0  0
   -0.0567    3.3322    2.6263 H   0  0  0  0  0  0  0  0  0  0  0  0
   -0.7818    3.6866    1.0448 H   0  0  0  0  0  0  0  0  0  0  0  0
  1  2  1  0  0  0  0
  2  3  1  0  0  0  0
  2  4  1  0  0  0  0
  2  5  1  0  0  0  0
  5  6  2  0  0  0  0
  5  7  1  0  0  0  0
  7  8  1  0  0  0  0
  7  9  1  0  0  0  0
  9 10  1  0  0  0  0
  9 11  1  0  0  0  0
  9 26  1  0  0  0  0
 11 12  1  0  0  0  0
 11 13  1  0  0  0  0
 11 14  1  0  0  0  0
 14 15  2  0  0  0  0
 14 24  1  0  0  0  0
 15 16  1  0  0  0  0
 15 17  1  0  0  0  0
 17 18  1  0  0  0  0
 17 19  2  0  0  0  0
 19 20  1  0  0  0  0
 19 22  1  0  0  0  0
 20 21  1  0  0  0  0
 22 23  1  0  0  0  0
 22 24  2  0  0  0  0
 24 25  1  0  0  0  0
 26 27  2  0  0  0  0
 26 28  1  0  0  0  0
 28 29  1  0  0  0  0
 28 30  1  0  0  0  0
 30 31  1  0  0  0  0
 30 32  1  0  0  0  0
 30 33  1  0  0  0  0
M  END
$$$$

  -OEChem-04042216043D

 33 33  0     1  0  0  0  0  0999 V2000
   -3.9007   -4.0390    1.4787 H   0  0  0  0  0  0  0  0  0  0  0  0
   -3.8861   -3.1207    0.8853 C   0  0  0  0  0  0  0  0  0  0  0  0
   -4.5950   -2.4107    1.3181 H   0  0  0  0  0  0  0  0  0  0  0  0
   -4.1942   -3.3555   -0.1363 H   0  0  0  0  0  0  0  0  0  0  0  0
   -2.4919   -2.5227    0.8803 C   0  0  0  0  0  0  0  0  0  0  0  0
   -1.5775   -3.0970    1.4508 O   0  0  0  0  0  0  0  0  0  0  0  0
   -2.2622   -1.3307    0.2267 N   0  0  0  0  0  0  0  0  0  0  0  0
   -3.0706   -0.8424   -0.1569 H   0  0  0  0  0  0  0  0  0  0  0  0
   -1.0025   -0.5736    0.2686 C   0  0  1  0  0  0  0  0  0  0  0  0
   -0.4414   -0.9048    1.1483 H   0  0  0  0  0  0  0  0  0  0  0  0
   -0.1391   -0.9286   -0.9624 C   0  0  0  0  0  0  0  0  0  0  0  0
    0.9128   -0.8237   -0.6787 H   0  0  0  0  0  0  0  0  0  0  0  0
   -0.2871   -1.9832   -1.2177 H   0  0  0  0  0  0  0  0  0  0  0  0
   -0.3714   -0.0609   -2.1808 C   0  0  0  0  0  0  0  0  0  0  0  0
   -1.0966   -0.5670   -3.2700 C   0  0  0  0  0  0  0  0  0  0  0  0
   -1.5231   -1.5647   -3.2211 H   0  0  0  0  0  0  0  0  0  0  0  0
   -1.2870    0.2075   -4.4208 C   0  0  0  0  0  0  0  0  0  0  0  0
   -1.8598   -0.1978   -5.2474 H   0  0  0  0  0  0  0  0  0  0  0  0
   -0.7405    1.4898   -4.5017 C   0  0  0  0  0  0  0  0  0  0  0  0
   -0.9217    2.2546   -5.6177 O   0  0  0  0  0  0  0  0  0  0  0  0
   -1.5119    1.8002   -6.2380 H   0  0  0  0  0  0  0  0  0  0  0  0
    0.0016    1.9906   -3.4345 C   0  0  0  0  0  0  0  0  0  0  0  0
    0.4267    2.9859   -3.5074 H   0  0  0  0  0  0  0  0  0  0  0  0
    0.1933    1.2214   -2.2819 C   0  0  0  0  0  0  0  0  0  0  0  0
    0.7795    1.6302   -1.4648 H   0  0  0  0  0  0  0  0  0  0  0  0
   -1.2654    0.9309    0.4888 C   0  0  0  0  0  0  0  0  0  0  0  0
   -2.2623    1.4594    0.0088 O   0  0  0  0  0  0  0  0  0  0  0  0
   -0.5071    1.6420    1.4020 N   0  0  0  0  0  0  0  0  0  0  0  0
    0.2415    1.1483    1.8793 H   0  0  0  0  0  0  0  0  0  0  0  0
   -0.7900    3.0231    1.7736 C   0  0  0  0  0  0  0  0  0  0  0  0
   -1.7830    3.1024    2.2285 H   0  0  0  0  0  0  0  0  0  0  0  0
   -0.0494    3.3800    2.4957 H   0  0  0  0  0  0  0  0  0  0  0  0
   -0.7532    3.6717    0.8920 H   0  0  0  0  0  0  0  0  0  0  0  0
  1  2  1  0  0  0  0
  2  3  1  0  0  0  0
  2  4  1  0  0  0  0
  2  5  1  0  0  0  0
  5  6  2  0  0  0  0
  5  7  1  0  0  0  0
  7  8  1  0  0  0  0
  7  9  1  0  0  0  0
  9 10  1  0  0  0  0
  9 11  1  0  0  0  0
  9 26  1  0  0  0  0
 11 12  1  0  0  0  0
 11 13  1  0  0  0  0
 11 14  1  0  0  0  0
 14 15  2  0  0  0  0
 14 24  1  0  0  0  0
 15 16  1  0  0  0  0
 15 17  1  0  0  0  0
 17 18  1  0  0  0  0
 17 19  2  0  0  0  0
 19 20  1  0  0  0  0
 19 22  1  0  0  0  0
 20 21  1  0  0  0  0
 22 23  1  0  0  0  0
 22 24  2  0  0  0  0
 24 25  1  0  0  0  0
 26 27  2  0  0  0  0
 26 28  1  0  0  0  0
 28 29  1  0  0  0  0
 28 30  1  0  0  0  0
 30 31  1  0  0  0  0
 30 32  1  0  0  0  0
 30 33  1  0  0  0  0
M  END
$$$$

  -OEChem-04042216043D

 33 33  0     1  0  0  0  0  0999 V2000
   -3.9261   -4.0204    1.4829 H   0  0  0  0  0  0  0  0  0  0  0  0
   -3.9016   -3.1053    0.8847 C   0  0  0  0  0  0  0  0  0  0  0  0
   -4.6067   -2.3872    1.3104 H   0  0  0  0  0  0  0  0  0  0  0  0
   -4.2069   -3.3437   -0.1370 H   0  0  0  0  0  0  0  0  0  0  0  0
   -2.5026   -2.5187    0.8833 C   0  0  0  0  0  0  0  0  0  0  0  0
   -1.5994   -3.0910    1.4732 O   0  0  0  0  0  0  0  0  0  0  0  0
   -2.2548   -1.3425    0.2080 N   0  0  0  0  0  0  0  0  0  0  0  0
   -3.0567   -0.8465   -0.1795 H   0  0  0  0  0  0  0  0  0  0  0  0
   -0.9899   -0.5947    0.2584 C   0  0  1  0  0  0  0  0  0  0  0  0
   -0.4442   -0.9142    1.1520 H   0  0  0  0  0  0  0  0  0  0  0  0
   -0.1083   -0.9609   -0.9545 C   0  0  0  0  0  0  0  0  0  0  0  0
    0.9411   -0.8687   -0.6566 H   0  0  0  0  0  0  0  0  0  0  0  0
   -0.2657   -2.0121   -1.2193 H   0  0  0  0  0  0  0  0  0  0  0  0
   -0.3347   -0.0863   -2.1662 C   0  0  0  0  0  0  0  0  0  0  0  0
   -1.2973   -0.4432   -3.1211 C   0  0  0  0  0  0  0  0  0  0  0  0
   -1.8903   -1.3421   -2.9815 H   0  0  0  0  0  0  0  0  0  0  0  0
   -1.5071    0.3570   -4.2505 C   0  0  0  0  0  0  0  0  0  0  0  0
   -2.2605    0.0695   -4.9752 H   0  0  0  0  0  0  0  0  0  0  0  0
   -0.7521    1.5168   -4.4387 C   0  0  0  0  0  0  0  0  0  0  0  0
   -0.9511    2.3056   -5.5349 O   0  0  0  0  0  0  0  0  0  0  0  0
   -1.6971    1.9675   -6.0535 H   0  0  0  0  0  0  0  0  0  0  0  0
    0.2137    1.8712   -3.4989 C   0  0  0  0  0  0  0  0  0  0  0  0
    0.7948    2.7742   -3.6536 H   0  0  0  0  0  0  0  0  0  0  0  0
    0.4259    1.0764   -2.3675 C   0  0  0  0  0  0  0  0  0  0  0  0
    1.1807    1.3715   -1.6452 H   0  0  0  0  0  0  0  0  0  0  0  0
   -1.2451    0.9165    0.4425 C   0  0  0  0  0  0  0  0  0  0  0  0
   -2.2380    1.4366   -0.0556 O   0  0  0  0  0  0  0  0  0  0  0  0
   -0.4996    1.6420    1.3546 N   0  0  0  0  0  0  0  0  0  0  0  0
    0.2486    1.1594    1.8435 H   0  0  0  0  0  0  0  0  0  0  0  0
   -0.7817    3.0322    1.6917 C   0  0  0  0  0  0  0  0  0  0  0  0
   -1.7774    3.1238    2.1384 H   0  0  0  0  0  0  0  0  0  0  0  0
   -0.0446    3.4048    2.4094 H   0  0  0  0  0  0  0  0  0  0  0  0
   -0.7386    3.6597    0.7951 H   0  0  0  0  0  0  0  0  0  0  0  0
  1  2  1  0  0  0  0
  2  3  1  0  0  0  0
  2  4  1  0  0  0  0
  2  5  1  0  0  0  0
  5  6  2  0  0  0  0
  5  7  1  0  0  0  0
  7  8  1  0  0  0  0
  7  9  1  0  0  0  0
  9 10  1  0  0  0  0
  9 11  1  0  0  0  0
  9 26  1  0  0  0  0
 11 12  1  0  0  0  0
 11 13  1  0  0  0  0
 11 14  1  0  0  0  0
 14 15  2  0  0  0  0
 14 24  1  0  0  0  0
 15 16  1  0  0  0  0
 15 17  1  0  0  0  0
 17 18  1  0  0  0  0
 17 19  2  0  0  0  0
 19 20  1  0  0  0  0
 19 22  1  0  0  0  0
 20 21  1  0  0  0  0
 22 23  1  0  0  0  0
 22 24  2  0  0  0  0
 24 25  1  0  0  0  0
 26 27  2  0  0  0  0
 26 28  1  0  0  0  0
 28 29  1  0  0  0  0
 28 30  1  0  0  0  0
 30 31  1  0  0  0  0
 30 32  1  0  0  0  0
 30 33  1  0  0  0  0
M  END
$$$$

  -OEChem-04042216043D

 33 33  0     1  0  0  0  0  0999 V2000
   -3.9361   -4.0074    1.5186 H   0  0  0  0  0  0  0  0  0  0  0  0
   -3.9098   -3.0991    0.9099 C   0  0  0  0  0  0  0  0  0  0  0  0
   -4.6043   -2.3702    1.3346 H   0  0  0  0  0  0  0  0  0  0  0  0
   -4.2276   -3.3460   -0.1059 H   0  0  0  0  0  0  0  0  0  0  0  0
   -2.5059   -2.5247    0.8873 C   0  0  0  0  0  0  0  0  0  0  0  0
   -1.6007   -3.0986    1.4727 O   0  0  0  0  0  0  0  0  0  0  0  0
   -2.2578   -1.3541    0.2019 N   0  0  0  0  0  0  0  0  0  0  0  0
   -3.0634   -0.8480   -0.1642 H   0  0  0  0  0  0  0  0  0  0  0  0
   -0.9909   -0.6090    0.2494 C   0  0  1  0  0  0  0  0  0  0  0  0
   -0.4491   -0.9229    1.1472 H   0  0  0  0  0  0  0  0  0  0  0  0
   -0.0984   -0.9715   -0.9566 C   0  0  0  0  0  0  0  0  0  0  0  0
    0.9477   -0.8861   -0.6465 H   0  0  0  0  0  0  0  0  0  0  0  0
   -0.2587   -2.0199   -1.2295 H   0  0  0  0  0  0  0  0  0  0  0  0
   -0.3174   -0.0963   -2.1694 C   0  0  0  0  0  0  0  0  0  0  0  0
   -1.4586   -0.2637   -2.9668 C   0  0  0  0  0  0  0  0  0  0  0  0
   -2.1889   -1.0255   -2.7121 H   0  0  0  0  0  0  0  0  0  0  0  0
   -1.6691    0.5518   -4.0850 C   0  0  0  0  0  0  0  0  0  0  0  0
   -2.5602    0.4115   -4.6864 H   0  0  0  0  0  0  0  0  0  0  0  0
   -0.7397    1.5394   -4.4181 C   0  0  0  0  0  0  0  0  0  0  0  0
   -0.9370    2.3418   -5.5045 O   0  0  0  0  0  0  0  0  0  0  0  0
   -1.7992    2.1494   -5.9037 H   0  0  0  0  0  0  0  0  0  0  0  0
    0.3990    1.7076   -3.6329 C   0  0  0  0  0  0  0  0  0  0  0  0
    1.1148    2.4782   -3.8993 H   0  0  0  0  0  0  0  0  0  0  0  0
    0.6128    0.8973   -2.5125 C   0  0  0  0  0  0  0  0  0  0  0  0
    1.5042    1.0491   -1.9113 H   0  0  0  0  0  0  0  0  0  0  0  0
   -1.2448    0.9041    0.4216 C   0  0  0  0  0  0  0  0  0  0  0  0
   -2.2461    1.4160   -0.0689 O   0  0  0  0  0  0  0  0  0  0  0  0
   -0.5008    1.6359    1.3296 N   0  0  0  0  0  0  0  0  0  0  0  0
    0.2661    1.1654    1.8008 H   0  0  0  0  0  0  0  0  0  0  0  0
   -0.7828    3.0283    1.6565 C   0  0  0  0  0  0  0  0  0  0  0  0
   -1.7828    3.1245    2.0923 H   0  0  0  0  0  0  0  0  0  0  0  0
   -0.0527    3.4024    2.3804 H   0  0  0  0  0  0  0  0  0  0  0  0
   -0.7286    3.6509    0.7572 H   0  0  0  0  0  0  0  0  0  0  0  0
  1  2  1  0  0  0  0
  2  3  1  0  0  0  0
  2  4  1  0  0  0  0
  2  5  1  0  0  0  0
  5  6  2  0  0  0  0
  5  7  1  0  0  0  0
  7  8  1  0  0  0  0
  7  9  1  0  0  0  0
  9 10  1  0  0  0  0
  9 11  1  0  0  0  0
  9 26  1  0  0  0  0
 11 12  1  0  0  0  0
 11 13  1  0  0  0  0
 11 14  1  0  0  0  0
 14 15  2  0  0  0  0
 14 24  1  0  0  0  0
 15 16  1  0  0  0  0
 15 17  1  0  0  0  0
 17 18  1  0  0  0  0
 17 19  2  0  0  0  0
 19 20  1  0  0  0  0
 19 22  1  0  0  0  0
 20 21  1  0  0  0  0
 22 23  1  0  0  0  0
 22 24  2  0  0  0  0
 24 25  1  0  0  0  0
 26 27  2  0  0  0  0
 26 28  1  0  0  0  0
 28 29  1  0  0  0  0
 28 30  1  0  0  0  0
 30 31  1  0  0  0  0
 30 32  1  0  0  0  0
 30 33  1  0  0  0  0
M  END
$$$$

  -OEChem-04042216043D

 33 33  0     1  0  0  0  0  0999 V2000
   -3.9165   -4.0187    1.5573 H   0  0  0  0  0  0  0  0  0  0  0  0
   -3.9032   -3.1142    0.9426 C   0  0  0  0  0  0  0  0  0  0  0  0
   -4.5916   -2.3844    1.3757 H   0  0  0  0  0  0  0  0  0  0  0  0
   -4.2388   -3.3679   -0.0659 H   0  0  0  0  0  0  0  0  0  0  0  0
   -2.5013   -2.5369    0.8912 C   0  0  0  0  0  0  0  0  0  0  0  0
   -1.5815   -3.1144    1.4493 O   0  0  0  0  0  0  0  0  0  0  0  0
   -2.2723   -1.3592    0.2111 N   0  0  0  0  0  0  0  0  0  0  0  0
   -3.0902   -0.8485   -0.1186 H   0  0  0  0  0  0  0  0  0  0  0  0
   -1.0088   -0.6066    0.2484 C   0  0  1  0  0  0  0  0  0  0  0  0
   -0.4612   -0.9231    1.1418 H   0  0  0  0  0  0  0  0  0  0  0  0
   -0.1133   -0.9561   -0.9603 C   0  0  0  0  0  0  0  0  0  0  0  0
    0.9298   -0.8660   -0.6415 H   0  0  0  0  0  0  0  0  0  0  0  0
   -0.2676   -2.0050   -1.2339 H   0  0  0  0  0  0  0  0  0  0  0  0
   -0.3250   -0.0905   -2.1850 C   0  0  0  0  0  0  0  0  0  0  0  0
   -1.5745   -0.0330   -2.8220 C   0  0  0  0  0  0  0  0  0  0  0  0
   -2.4062   -0.6165   -2.4409 H   0  0  0  0  0  0  0  0  0  0  0  0
   -1.7659    0.7830   -3.9428 C   0  0  0  0  0  0  0  0  0  0  0  0
   -2.7415    0.8188   -4.4143 H   0  0  0  0  0  0  0  0  0  0  0  0
   -0.7104    1.5476   -4.4426 C   0  0  0  0  0  0  0  0  0  0  0  0
   -0.8889    2.3512   -5.5314 O   0  0  0  0  0  0  0  0  0  0  0  0
   -1.8193    2.3347   -5.8037 H   0  0  0  0  0  0  0  0  0  0  0  0
    0.5356    1.4904   -3.8221 C   0  0  0  0  0  0  0  0  0  0  0  0
    1.3504    2.0872   -4.2186 H   0  0  0  0  0  0  0  0  0  0  0  0
    0.7312    0.6786   -2.6994 C   0  0  0  0  0  0  0  0  0  0  0  0
    1.7102    0.6545   -2.2305 H   0  0  0  0  0  0  0  0  0  0  0  0
   -1.2632    0.9047    0.4361 C   0  0  0  0  0  0  0  0  0  0  0  0
   -2.2775    1.4157   -0.0285 O   0  0  0  0  0  0  0  0  0  0  0  0
   -0.5079    1.6302    1.3402 N   0  0  0  0  0  0  0  0  0  0  0  0
    0.2781    1.1625    1.7817 H   0  0  0  0  0  0  0  0  0  0  0  0
   -0.7752    3.0248    1.6706 C   0  0  0  0  0  0  0  0  0  0  0  0
   -1.7797    3.1333    2.0928 H   0  0  0  0  0  0  0  0  0  0  0  0
   -0.0503    3.3844    2.4070 H   0  0  0  0  0  0  0  0  0  0  0  0
   -0.6994    3.6512    0.7756 H   0  0  0  0  0  0  0  0  0  0  0  0
  1  2  1  0  0  0  0
  2  3  1  0  0  0  0
  2  4  1  0  0  0  0
  2  5  1  0  0  0  0
  5  6  2  0  0  0  0
  5  7  1  0  0  0  0
  7  8  1  0  0  0  0
  7  9  1  0  0  0  0
  9 10  1  0  0  0  0
  9 11  1  0  0  0  0
  9 26  1  0  0  0  0
 11 12  1  0  0  0  0
 11 13  1  0  0  0  0
 11 14  1  0  0  0  0
 14 15  2  0  0  0  0
 14 24  1  0  0  0  0
 15 16  1  0  0  0  0
 15 17  1  0  0  0  0
 17 18  1  0  0  0  0
 17 19  2  0  0  0  0
 19 20  1  0  0  0  0
 19 22  1  0  0  0  0
 20 21  1  0  0  0  0
 22 23  1  0  0  0  0
 22 24  2  0  0  0  0
 24 25  1  0  0  0  0
 26 27  2  0  0  0  0
 26 28  1  0  0  0  0
 28 29  1  0  0  0  0
 28 30  1  0  0  0  0
 30 31  1  0  0  0  0
 30 32  1  0  0  0  0
 30 33  1  0  0  0  0
M  END
$$$$

  -OEChem-04042216043D

 33 33  0     1  0  0  0  0  0999 V2000
   -3.8694   -4.0469    1.5692 H   0  0  0  0  0  0  0  0  0  0  0  0
   -3.8809   -3.1339    0.9674 C   0  0  0  0  0  0  0  0  0  0  0  0
   -4.5668   -2.4182    1.4272 H   0  0  0  0  0  0  0  0  0  0  0  0
   -4.2375   -3.3773   -0.0364 H   0  0  0  0  0  0  0  0  0  0  0  0
   -2.4869   -2.5404    0.8901 C   0  0  0  0  0  0  0  0  0  0  0  0
   -1.5460   -3.1191    1.4107 O   0  0  0  0  0  0  0  0  0  0  0  0
   -2.2900   -1.3441    0.2322 N   0  0  0  0  0  0  0  0  0  0  0  0
   -3.1231   -0.8381   -0.0641 H   0  0  0  0  0  0  0  0  0  0  0  0
   -1.0337   -0.5778    0.2515 C   0  0  1  0  0  0  0  0  0  0  0  0
   -0.4698   -0.9063    1.1305 H   0  0  0  0  0  0  0  0  0  0  0  0
   -0.1463   -0.9104   -0.9696 C   0  0  0  0  0  0  0  0  0  0  0  0
    0.8955   -0.8053   -0.6511 H   0  0  0  0  0  0  0  0  0  0  0  0
   -0.2879   -1.9627   -1.2368 H   0  0  0  0  0  0  0  0  0  0  0  0
   -0.3524   -0.0646   -2.2125 C   0  0  0  0  0  0  0  0  0  0  0  0
   -1.6332    0.2436   -2.7004 C   0  0  0  0  0  0  0  0  0  0  0  0
   -2.5175   -0.1225   -2.1897 H   0  0  0  0  0  0  0  0  0  0  0  0
   -1.7924    1.0348   -3.8438 C   0  0  0  0  0  0  0  0  0  0  0  0
   -2.7922    1.2662   -4.1942 H   0  0  0  0  0  0  0  0  0  0  0  0
   -0.6744    1.5240   -4.5203 C   0  0  0  0  0  0  0  0  0  0  0  0
   -0.8199    2.3007   -5.6332 O   0  0  0  0  0  0  0  0  0  0  0  0
   -1.7608    2.4694   -5.7955 H   0  0  0  0  0  0  0  0  0  0  0  0
    0.6008    1.2156   -4.0530 C   0  0  0  0  0  0  0  0  0  0  0  0
    1.4653    1.5971   -4.5864 H   0  0  0  0  0  0  0  0  0  0  0  0
    0.7643    0.4269   -2.9087 C   0  0  0  0  0  0  0  0  0  0  0  0
    1.7694    0.2006   -2.5655 H   0  0  0  0  0  0  0  0  0  0  0  0
   -1.2835    0.9286    0.4819 C   0  0  0  0  0  0  0  0  0  0  0  0
   -2.3214    1.4443    0.0784 O   0  0  0  0  0  0  0  0  0  0  0  0
   -0.5007    1.6320    1.3799 N   0  0  0  0  0  0  0  0  0  0  0  0
    0.3071    1.1587    1.7738 H   0  0  0  0  0  0  0  0  0  0  0  0
   -0.7694    3.0103    1.7713 C   0  0  0  0  0  0  0  0  0  0  0  0
   -1.7605    3.0926    2.2297 H   0  0  0  0  0  0  0  0  0  0  0  0
   -0.0243    3.3491    2.4974 H   0  0  0  0  0  0  0  0  0  0  0  0
   -0.7279    3.6709    0.8990 H   0  0  0  0  0  0  0  0  0  0  0  0
  1  2  1  0  0  0  0
  2  3  1  0  0  0  0
  2  4  1  0  0  0  0
  2  5  1  0  0  0  0
  5  6  2  0  0  0  0
  5  7  1  0  0  0  0
  7  8  1  0  0  0  0
  7  9  1  0  0  0  0
  9 10  1  0  0  0  0
  9 11  1  0  0  0  0
  9 26  1  0  0  0  0
 11 12  1  0  0  0  0
 11 13  1  0  0  0  0
 11 14  1  0  0  0  0
 14 15  2  0  0  0  0
 14 24  1  0  0  0  0
 15 16  1  0  0  0  0
 15 17  1  0  0  0  0
 17 18  1  0  0  0  0
 17 19  2  0  0  0  0
 19 20  1  0  0  0  0
 19 22  1  0  0  0  0
 20 21  1  0  0  0  0
 22 23  1  0  0  0  0
 22 24  2  0  0  0  0
 24 25  1  0  0  0  0
 26 27  2  0  0  0  0
 26 28  1  0  0  0  0
 28 29  1  0  0  0  0
 28 30  1  0  0  0  0
 30 31  1  0  0  0  0
 30 32  1  0  0  0  0
 30 33  1  0  0  0  0
M  END
$$$$

  -OEChem-04042216043D

 33 33  0     1  0  0  0  0  0999 V2000
   -3.8061   -4.0910    1.5510 H   0  0  0  0  0  0  0  0  0  0  0  0
   -3.8500   -3.1665    0.9683 C   0  0  0  0  0  0  0  0  0  0  0  0
   -4.5453   -2.4777    1.4542 H   0  0  0  0  0  0  0  0  0  0  0  0
   -4.2177   -3.3987   -0.0342 H   0  0  0  0  0  0  0  0  0  0  0  0
   -2.4727   -2.5365    0.8803 C   0  0  0  0  0  0  0  0  0  0  0  0
   -1.5076   -3.1113    1.3595 O   0  0  0  0  0  0  0  0  0  0  0  0
   -2.3178   -1.3149    0.2576 N   0  0  0  0  0  0  0  0  0  0  0  0
   -3.1677   -0.8258   -0.0178 H   0  0  0  0  0  0  0  0  0  0  0  0
   -1.0741   -0.5276    0.2550 C   0  0  1  0  0  0  0  0  0  0  0  0
   -0.4946   -0.8716    1.1178 H   0  0  0  0  0  0  0  0  0  0  0  0
   -0.1924   -0.8514   -0.9739 C   0  0  0  0  0  0  0  0  0  0  0  0
    0.8479   -0.7181   -0.6604 H   0  0  0  0  0  0  0  0  0  0  0  0
   -0.3124   -1.9112   -1.2212 H   0  0  0  0  0  0  0  0  0  0  0  0
   -0.3960   -0.0415   -2.2429 C   0  0  0  0  0  0  0  0  0  0  0  0
   -1.6333    0.5130   -2.6142 C   0  0  0  0  0  0  0  0  0  0  0  0
   -2.5179    0.3532   -2.0073 H   0  0  0  0  0  0  0  0  0  0  0  0
   -1.7566    1.2730   -3.7831 C   0  0  0  0  0  0  0  0  0  0  0  0
   -2.7219    1.6943   -4.0417 H   0  0  0  0  0  0  0  0  0  0  0  0
   -0.6488    1.4853   -4.6038 C   0  0  0  0  0  0  0  0  0  0  0  0
   -0.7589    2.2285   -5.7433 O   0  0  0  0  0  0  0  0  0  0  0  0
   -1.6621    2.5712   -5.8271 H   0  0  0  0  0  0  0  0  0  0  0  0
    0.5794    0.9307   -4.2547 C   0  0  0  0  0  0  0  0  0  0  0  0
    1.4361    1.0967   -4.8993 H   0  0  0  0  0  0  0  0  0  0  0  0
    0.7069    0.1727   -3.0859 C   0  0  0  0  0  0  0  0  0  0  0  0
    1.6761   -0.2480   -2.8355 H   0  0  0  0  0  0  0  0  0  0  0  0
   -1.3043    0.9725    0.5437 C   0  0  0  0  0  0  0  0  0  0  0  0
   -2.3604    1.5067    0.2204 O   0  0  0  0  0  0  0  0  0  0  0  0
   -0.4771    1.6388    1.4303 N   0  0  0  0  0  0  0  0  0  0  0  0
    0.3476    1.1486    1.7642 H   0  0  0  0  0  0  0  0  0  0  0  0
   -0.7243    2.9985    1.8954 C   0  0  0  0  0  0  0  0  0  0  0  0
   -1.6930    3.0610    2.4021 H   0  0  0  0  0  0  0  0  0  0  0  0
    0.0538    3.3038    2.6014 H   0  0  0  0  0  0  0  0  0  0  0  0
   -0.7210    3.6978    1.0526 H   0  0  0  0  0  0  0  0  0  0  0  0
  1  2  1  0  0  0  0
  2  3  1  0  0  0  0
  2  4  1  0  0  0  0
  2  5  1  0  0  0  0
  5  6  2  0  0  0  0
  5  7  1  0  0  0  0
  7  8  1  0  0  0  0
  7  9  1  0  0  0  0
  9 10  1  0  0  0  0
  9 11  1  0  0  0  0
  9 26  1  0  0  0  0
 11 12  1  0  0  0  0
 11 13  1  0  0  0  0
 11 14  1  0  0  0  0
 14 15  2  0  0  0  0
 14 24  1  0  0  0  0
 15 16  1  0  0  0  0
 15 17  1  0  0  0  0
 17 18  1  0  0  0  0
 17 19  2  0  0  0  0
 19 20  1  0  0  0  0
 19 22  1  0  0  0  0
 20 21  1  0  0  0  0
 22 23  1  0  0  0  0
 22 24  2  0  0  0  0
 24 25  1  0  0  0  0
 26 27  2  0  0  0  0
 26 28  1  0  0  0  0
 28 29  1  0  0  0  0
 28 30  1  0  0  0  0
 30 31  1  0  0  0  0
 30 32  1  0  0  0  0
 30 33  1  0  0  0  0
M  END
$$$$

  -OEChem-04042216043D

 33 33  0     1  0  0  0  0  0999 V2000
   -3.7295   -4.1488    1.4947 H   0  0  0  0  0  0  0  0  0  0  0  0
   -3.8142   -3.1981    0.9608 C   0  0  0  0  0  0  0  0  0  0  0  0
   -4.5104   -2.5523    1.5012 H   0  0  0  0  0  0  0  0  0  0  0  0
   -4.2075   -3.3900   -0.0404 H   0  0  0  0  0  0  0  0  0  0  0  0
   -2.4553   -2.5303    0.8631 C   0  0  0  0  0  0  0  0  0  0  0  0
   -1.4636   -3.1014    1.2897 O   0  0  0  0  0  0  0  0  0  0  0  0
   -2.3454   -1.2814    0.2862 N   0  0  0  0  0  0  0  0  0  0  0  0
   -3.2122   -0.8057    0.0425 H   0  0  0  0  0  0  0  0  0  0  0  0
   -1.1164   -0.4725    0.2583 C   0  0  1  0  0  0  0  0  0  0  0  0
   -0.5183   -0.8338    1.1011 H   0  0  0  0  0  0  0  0  0  0  0  0
   -0.2431   -0.7848   -0.9803 C   0  0  0  0  0  0  0  0  0  0  0  0
    0.7967   -0.6259   -0.6762 H   0  0  0  0  0  0  0  0  0  0  0  0
   -0.3441   -1.8512   -1.2078 H   0  0  0  0  0  0  0  0  0  0  0  0
   -0.4461   -0.0112   -2.2739 C   0  0  0  0  0  0  0  0  0  0  0  0
   -1.5721    0.7799   -2.5643 C   0  0  0  0  0  0  0  0  0  0  0  0
   -2.4180    0.8263   -1.8903 H   0  0  0  0  0  0  0  0  0  0  0  0
   -1.6555    1.4992   -3.7622 C   0  0  0  0  0  0  0  0  0  0  0  0
   -2.5370    2.0999   -3.9582 H   0  0  0  0  0  0  0  0  0  0  0  0
   -0.6196    1.4380   -4.6938 C   0  0  0  0  0  0  0  0  0  0  0  0
   -0.6910    2.1391   -5.8626 O   0  0  0  0  0  0  0  0  0  0  0  0
   -1.5105    2.6568   -5.8876 H   0  0  0  0  0  0  0  0  0  0  0  0
    0.4952    0.6491   -4.4267 C   0  0  0  0  0  0  0  0  0  0  0  0
    1.2962    0.6010   -5.1570 H   0  0  0  0  0  0  0  0  0  0  0  0
    0.5828   -0.0684   -3.2291 C   0  0  0  0  0  0  0  0  0  0  0  0
    1.4662   -0.6719   -3.0415 H   0  0  0  0  0  0  0  0  0  0  0  0
   -1.3281    1.0154    0.6157 C   0  0  0  0  0  0  0  0  0  0  0  0
   -2.4073    1.5552    0.3952 O   0  0  0  0  0  0  0  0  0  0  0  0
   -0.4534    1.6445    1.4842 N   0  0  0  0  0  0  0  0  0  0  0  0
    0.3964    1.1490    1.7386 H   0  0  0  0  0  0  0  0  0  0  0  0
   -0.6825    2.9754    2.0339 C   0  0  0  0  0  0  0  0  0  0  0  0
   -1.6046    2.9930    2.6244 H   0  0  0  0  0  0  0  0  0  0  0  0
    0.1489    3.2645    2.6838 H   0  0  0  0  0  0  0  0  0  0  0  0
   -0.7646    3.7132    1.2289 H   0  0  0  0  0  0  0  0  0  0  0  0
  1  2  1  0  0  0  0
  2  3  1  0  0  0  0
  2  4  1  0  0  0  0
  2  5  1  0  0  0  0
  5  6  2  0  0  0  0
  5  7  1  0  0  0  0
  7  8  1  0  0  0  0
  7  9  1  0  0  0  0
  9 10  1  0  0  0  0
  9 11  1  0  0  0  0
  9 26  1  0  0  0  0
 11 12  1  0  0  0  0
 11 13  1  0  0  0  0
 11 14  1  0  0  0  0
 14 15  2  0  0  0  0
 14 24  1  0  0  0  0
 15 16  1  0  0  0  0
 15 17  1  0  0  0  0
 17 18  1  0  0  0  0
 17 19  2  0  0  0  0
 19 20  1  0  0  0  0
 19 22  1  0  0  0  0
 20 21  1  0  0  0  0
 22 23  1  0  0  0  0
 22 24  2  0  0  0  0
 24 25  1  0  0  0  0
 26 27  2  0  0  0  0
 26 28  1  0  0  0  0
 28 29  1  0  0  0  0
 28 30  1  0  0  0  0
 30 31  1  0  0  0  0
 30 32  1  0  0  0  0
 30 33  1  0  0  0  0
M  END
$$$$

  -OEChem-04042216043D

 33 33  0     1  0  0  0  0  0999 V2000
   -3.6291   -4.2126    1.4112 H   0  0  0  0  0  0  0  0  0  0  0  0
   -3.7497   -3.2489    0.9087 C   0  0  0  0  0  0  0  0  0  0  0  0
   -4.4745   -2.6498    1.4653 H   0  0  0  0  0  0  0  0  0  0  0  0
   -4.1291   -3.4228   -0.1012 H   0  0  0  0  0  0  0  0  0  0  0  0
   -2.4190   -2.5233    0.8433 C   0  0  0  0  0  0  0  0  0  0  0  0
   -1.4099   -3.0598    1.2746 O   0  0  0  0  0  0  0  0  0  0  0  0
   -2.3549   -1.2604    0.2907 N   0  0  0  0  0  0  0  0  0  0  0  0
   -3.2364   -0.8220    0.0300 H   0  0  0  0  0  0  0  0  0  0  0  0
   -1.1614   -0.4000    0.2836 C   0  0  1  0  0  0  0  0  0  0  0  0
   -0.5669   -0.7452    1.1358 H   0  0  0  0  0  0  0  0  0  0  0  0
   -0.2464   -0.6894   -0.9323 C   0  0  0  0  0  0  0  0  0  0  0  0
    0.7761   -0.4802   -0.6018 H   0  0  0  0  0  0  0  0  0  0  0  0
   -0.2949   -1.7648   -1.1343 H   0  0  0  0  0  0  0  0  0  0  0  0
   -0.4143    0.0360   -2.2613 C   0  0  0  0  0  0  0  0  0  0  0  0
   -1.3795    1.0180   -2.5536 C   0  0  0  0  0  0  0  0  0  0  0  0
   -2.1504    1.2960   -1.8509 H   0  0  0  0  0  0  0  0  0  0  0  0
   -1.4090    1.6495   -3.8029 C   0  0  0  0  0  0  0  0  0  0  0  0
   -2.1689    2.3981   -3.9989 H   0  0  0  0  0  0  0  0  0  0  0  0
   -0.4783    1.3152   -4.7853 C   0  0  0  0  0  0  0  0  0  0  0  0
   -0.5015    1.9272   -6.0050 O   0  0  0  0  0  0  0  0  0  0  0  0
   -1.2204    2.5772   -6.0349 H   0  0  0  0  0  0  0  0  0  0  0  0
    0.4793    0.3435   -4.5154 C   0  0  0  0  0  0  0  0  0  0  0  0
    1.2009    0.0834   -5.2830 H   0  0  0  0  0  0  0  0  0  0  0  0
    0.5117   -0.2880   -3.2680 C   0  0  0  0  0  0  0  0  0  0  0  0
    1.2736   -1.0395   -3.0815 H   0  0  0  0  0  0  0  0  0  0  0  0
   -1.4358    1.0707    0.6659 C   0  0  0  0  0  0  0  0  0  0  0  0
   -2.5416    1.5615    0.4635 O   0  0  0  0  0  0  0  0  0  0  0  0
   -0.5917    1.7206    1.5494 N   0  0  0  0  0  0  0  0  0  0  0  0
    0.2721    1.2515    1.8063 H   0  0  0  0  0  0  0  0  0  0  0  0
   -0.8880    3.0200    2.1416 C   0  0  0  0  0  0  0  0  0  0  0  0
   -1.7999    2.9679    2.7457 H   0  0  0  0  0  0  0  0  0  0  0  0
   -0.0639    3.3372    2.7877 H   0  0  0  0  0  0  0  0  0  0  0  0
   -1.0245    3.7753    1.3606 H   0  0  0  0  0  0  0  0  0  0  0  0
  1  2  1  0  0  0  0
  2  3  1  0  0  0  0
  2  4  1  0  0  0  0
  2  5  1  0  0  0  0
  5  6  2  0  0  0  0
  5  7  1  0  0  0  0
  7  8  1  0  0  0  0
  7  9  1  0  0  0  0
  9 10  1  0  0  0  0
  9 11  1  0  0  0  0
  9 26  1  0  0  0  0
 11 12  1  0  0  0  0
 11 13  1  0  0  0  0
 11 14  1  0  0  0  0
 14 15  2  0  0  0  0
 14 24  1  0  0  0  0
 15 16  1  0  0  0  0
 15 17  1  0  0  0  0
 17 18  1  0  0  0  0
 17 19  2  0  0  0  0
 19 20  1  0  0  0  0
 19 22  1  0  0  0  0
 20 21  1  0  0  0  0
 22 23  1  0  0  0  0
 22 24  2  0  0  0  0
 24 25  1  0  0  0  0
 26 27  2  0  0  0  0
 26 28  1  0  0  0  0
 28 29  1  0  0  0  0
 28 30  1  0  0  0  0
 30 31  1  0  0  0  0
 30 32  1  0  0  0  0
 30 33  1  0  0  0  0
M  END
$$$$

  -OEChem-04042216043D

 33 33  0     1  0  0  0  0  0999 V2000
   -3.8894   -4.0538    1.3553 H   0  0  0  0  0  0  0  0  0  0  0  0
   -3.9338   -3.0861    0.8478 C   0  0  0  0  0  0  0  0  0  0  0  0
   -4.6235   -2.4356    1.3911 H   0  0  0  0  0  0  0  0  0  0  0  0
   -4.3092   -3.2368   -0.1673 H   0  0  0  0  0  0  0  0  0  0  0  0
   -2.5547   -2.4552    0.8008 C   0  0  0  0  0  0  0  0  0  0  0  0
   -1.5854   -3.0744    1.2119 O   0  0  0  0  0  0  0  0  0  0  0  0
   -2.4015   -1.1833    0.2885 N   0  0  0  0  0  0  0  0  0  0  0  0
   -3.2485   -0.6770    0.0355 H   0  0  0  0  0  0  0  0  0  0  0  0
   -1.1483   -0.4128    0.2919 C   0  0  1  0  0  0  0  0  0  0  0  0
   -0.5601   -0.8252    1.1182 H   0  0  0  0  0  0  0  0  0  0  0  0
   -0.2938   -0.7317   -0.9632 C   0  0  0  0  0  0  0  0  0  0  0  0
    0.7510   -0.6170   -0.6573 H   0  0  0  0  0  0  0  0  0  0  0  0
   -0.4356   -1.7948   -1.1862 H   0  0  0  0  0  0  0  0  0  0  0  0
   -0.4197    0.0383   -2.2752 C   0  0  0  0  0  0  0  0  0  0  0  0
   -1.0609    1.2781   -2.4695 C   0  0  0  0  0  0  0  0  0  0  0  0
   -1.5572    1.8143   -1.6766 H   0  0  0  0  0  0  0  0  0  0  0  0
   -1.0921    1.8842   -3.7313 C   0  0  0  0  0  0  0  0  0  0  0  0
   -1.5976    2.8368   -3.8469 H   0  0  0  0  0  0  0  0  0  0  0  0
   -0.4831    1.2728   -4.8253 C   0  0  0  0  0  0  0  0  0  0  0  0
   -0.5112    1.8593   -6.0572 O   0  0  0  0  0  0  0  0  0  0  0  0
   -1.0087    2.6905   -6.0160 H   0  0  0  0  0  0  0  0  0  0  0  0
    0.1593    0.0523   -4.6531 C   0  0  0  0  0  0  0  0  0  0  0  0
    0.6341   -0.4210   -5.5063 H   0  0  0  0  0  0  0  0  0  0  0  0
    0.1914   -0.5562   -3.3944 C   0  0  0  0  0  0  0  0  0  0  0  0
    0.7035   -1.5086   -3.2909 H   0  0  0  0  0  0  0  0  0  0  0  0
   -1.3378    1.0540    0.7277 C   0  0  0  0  0  0  0  0  0  0  0  0
   -2.4094    1.6180    0.5299 O   0  0  0  0  0  0  0  0  0  0  0  0
   -0.4549    1.6279    1.6255 N   0  0  0  0  0  0  0  0  0  0  0  0
    0.3733    1.0957    1.8772 H   0  0  0  0  0  0  0  0  0  0  0  0
   -0.6769    2.9229    2.2582 C   0  0  0  0  0  0  0  0  0  0  0  0
   -1.5940    2.9055    2.8564 H   0  0  0  0  0  0  0  0  0  0  0  0
    0.1608    3.1697    2.9175 H   0  0  0  0  0  0  0  0  0  0  0  0
   -0.7639    3.7093    1.5011 H   0  0  0  0  0  0  0  0  0  0  0  0
  1  2  1  0  0  0  0
  2  3  1  0  0  0  0
  2  4  1  0  0  0  0
  2  5  1  0  0  0  0
  5  6  2  0  0  0  0
  5  7  1  0  0  0  0
  7  8  1  0  0  0  0
  7  9  1  0  0  0  0
  9 10  1  0  0  0  0
  9 11  1  0  0  0  0
  9 26  1  0  0  0  0
 11 12  1  0  0  0  0
 11 13  1  0  0  0  0
 11 14  1  0  0  0  0
 14 15  2  0  0  0  0
 14 24  1  0  0  0  0
 15 16  1  0  0  0  0
 15 17  1  0  0  0  0
 17 18  1  0  0  0  0
 17 19  2  0  0  0  0
 19 20  1  0  0  0  0
 19 22  1  0  0  0  0
 20 21  1  0  0  0  0
 22 23  1  0  0  0  0
 22 24  2  0  0  0  0
 24 25  1  0  0  0  0
 26 27  2  0  0  0  0
 26 28  1  0  0  0  0
 28 29  1  0  0  0  0
 28 30  1  0  0  0  0
 30 31  1  0  0  0  0
 30 32  1  0  0  0  0
 30 33  1  0  0  0  0
M  END
$$$$

  -OEChem-04042216043D

 33 33  0     1  0  0  0  0  0999 V2000
   -3.8171   -4.1013    1.2747 H   0  0  0  0  0  0  0  0  0  0  0  0
   -3.8536   -3.1246    0.7842 C   0  0  0  0  0  0  0  0  0  0  0  0
   -4.5647   -2.4886    1.3170 H   0  0  0  0  0  0  0  0  0  0  0  0
   -4.1957   -3.2593   -0.2447 H   0  0  0  0  0  0  0  0  0  0  0  0
   -2.4787   -2.4838    0.7914 C   0  0  0  0  0  0  0  0  0  0  0  0
   -1.5240   -3.0901    1.2524 O   0  0  0  0  0  0  0  0  0  0  0  0
   -2.3118   -1.2175    0.2712 N   0  0  0  0  0  0  0  0  0  0  0  0
   -3.1467   -0.7235   -0.0406 H   0  0  0  0  0  0  0  0  0  0  0  0
   -1.0601   -0.4461    0.3009 C   0  0  1  0  0  0  0  0  0  0  0  0
   -0.4683   -0.8529    1.1275 H   0  0  0  0  0  0  0  0  0  0  0  0
   -0.2224   -0.7531   -0.9702 C   0  0  0  0  0  0  0  0  0  0  0  0
    0.8267   -0.6447   -0.6785 H   0  0  0  0  0  0  0  0  0  0  0  0
   -0.3672   -1.8138   -1.2021 H   0  0  0  0  0  0  0  0  0  0  0  0
   -0.3660    0.0498   -2.2624 C   0  0  0  0  0  0  0  0  0  0  0  0
   -0.7273    1.4088   -2.3667 C   0  0  0  0  0  0  0  0  0  0  0  0
   -0.8961    2.0384   -1.5060 H   0  0  0  0  0  0  0  0  0  0  0  0
   -0.8546    2.0291   -3.6153 C   0  0  0  0  0  0  0  0  0  0  0  0
   -1.1354    3.0758   -3.6591 H   0  0  0  0  0  0  0  0  0  0  0  0
   -0.6199    1.3135   -4.7875 C   0  0  0  0  0  0  0  0  0  0  0  0
   -0.7456    1.9122   -6.0076 O   0  0  0  0  0  0  0  0  0  0  0  0
   -1.0423    2.8286   -5.8966 H   0  0  0  0  0  0  0  0  0  0  0  0
   -0.2508   -0.0243   -4.7062 C   0  0  0  0  0  0  0  0  0  0  0  0
   -0.0652   -0.5780   -5.6208 H   0  0  0  0  0  0  0  0  0  0  0  0
   -0.1262   -0.6483   -3.4608 C   0  0  0  0  0  0  0  0  0  0  0  0
    0.1585   -1.6963   -3.4343 H   0  0  0  0  0  0  0  0  0  0  0  0
   -1.2961    1.0168    0.7196 C   0  0  0  0  0  0  0  0  0  0  0  0
   -2.3441    1.5803    0.4209 O   0  0  0  0  0  0  0  0  0  0  0  0
   -0.4599    1.6200    1.6421 N   0  0  0  0  0  0  0  0  0  0  0  0
    0.3413    1.0874    1.9694 H   0  0  0  0  0  0  0  0  0  0  0  0
   -0.7304    2.9221    2.2399 C   0  0  0  0  0  0  0  0  0  0  0  0
   -1.6715    2.8993    2.7995 H   0  0  0  0  0  0  0  0  0  0  0  0
    0.0745    3.1966    2.9285 H   0  0  0  0  0  0  0  0  0  0  0  0
   -0.7995    3.6926    1.4649 H   0  0  0  0  0  0  0  0  0  0  0  0
  1  2  1  0  0  0  0
  2  3  1  0  0  0  0
  2  4  1  0  0  0  0
  2  5  1  0  0  0  0
  5  6  2  0  0  0  0
  5  7  1  0  0  0  0
  7  8  1  0  0  0  0
  7  9  1  0  0  0  0
  9 10  1  0  0  0  0
  9 11  1  0  0  0  0
  9 26  1  0  0  0  0
 11 12  1  0  0  0  0
 11 13  1  0  0  0  0
 11 14  1  0  0  0  0
 14 15  2  0  0  0  0
 14 24  1  0  0  0  0
 15 16  1  0  0  0  0
 15 17  1  0  0  0  0
 17 18  1  0  0  0  0
 17 19  2  0  0  0  0
 19 20  1  0  0  0  0
 19 22  1  0  0  0  0
 20 21  1  0  0  0  0
 22 23  1  0  0  0  0
 22 24  2  0  0  0  0
 24 25  1  0  0  0  0
 26 27  2  0  0  0  0
 26 28  1  0  0  0  0
 28 29  1  0  0  0  0
 28 30  1  0  0  0  0
 30 31  1  0  0  0  0
 30 32  1  0  0  0  0
 30 33  1  0  0  0  0
M  END
$$$$

  -OEChem-04042216043D

 33 33  0     1  0  0  0  0  0999 V2000
   -3.8595   -4.0725    1.2784 H   0  0  0  0  0  0  0  0  0  0  0  0
   -3.8664   -3.1062    0.7663 C   0  0  0  0  0  0  0  0  0  0  0  0
   -4.5886   -2.4510    1.2595 H   0  0  0  0  0  0  0  0  0  0  0  0
   -4.1727   -3.2588   -0.2715 H   0  0  0  0  0  0  0  0  0  0  0  0
   -2.4849   -2.4810    0.8102 C   0  0  0  0  0  0  0  0  0  0  0  0
   -1.5592   -3.0776    1.3384 O   0  0  0  0  0  0  0  0  0  0  0  0
   -2.2777   -1.2408    0.2443 N   0  0  0  0  0  0  0  0  0  0  0  0
   -3.0903   -0.7501   -0.1266 H   0  0  0  0  0  0  0  0  0  0  0  0
   -1.0186   -0.4837    0.2990 C   0  0  1  0  0  0  0  0  0  0  0  0
   -0.4512   -0.8657    1.1538 H   0  0  0  0  0  0  0  0  0  0  0  0
   -0.1642   -0.8270   -0.9505 C   0  0  0  0  0  0  0  0  0  0  0  0
    0.8833   -0.7246   -0.6512 H   0  0  0  0  0  0  0  0  0  0  0  0
   -0.3134   -1.8884   -1.1756 H   0  0  0  0  0  0  0  0  0  0  0  0
   -0.3077   -0.0136   -2.2327 C   0  0  0  0  0  0  0  0  0  0  0  0
   -0.3620    1.3929   -2.2922 C   0  0  0  0  0  0  0  0  0  0  0  0
   -0.2408    2.0078   -1.4092 H   0  0  0  0  0  0  0  0  0  0  0  0
   -0.5410    2.0561   -3.5121 C   0  0  0  0  0  0  0  0  0  0  0  0
   -0.5802    3.1398   -3.5243 H   0  0  0  0  0  0  0  0  0  0  0  0
   -0.6670    1.3322   -4.6969 C   0  0  0  0  0  0  0  0  0  0  0  0
   -0.8460    1.9713   -5.8898 O   0  0  0  0  0  0  0  0  0  0  0  0
   -0.9080    2.9280   -5.7452 H   0  0  0  0  0  0  0  0  0  0  0  0
   -0.6063   -0.0567   -4.6580 C   0  0  0  0  0  0  0  0  0  0  0  0
   -0.7026   -0.6157   -5.5828 H   0  0  0  0  0  0  0  0  0  0  0  0
   -0.4298   -0.7233   -3.4411 C   0  0  0  0  0  0  0  0  0  0  0  0
   -0.3954   -1.8090   -3.4449 H   0  0  0  0  0  0  0  0  0  0  0  0
   -1.2693    0.9963    0.6437 C   0  0  0  0  0  0  0  0  0  0  0  0
   -2.2701    1.5692    0.2269 O   0  0  0  0  0  0  0  0  0  0  0  0
   -0.4772    1.6364    1.5803 N   0  0  0  0  0  0  0  0  0  0  0  0
    0.2772    1.1017    2.0016 H   0  0  0  0  0  0  0  0  0  0  0  0
   -0.7567    2.9753    2.0854 C   0  0  0  0  0  0  0  0  0  0  0  0
   -1.7167    2.9940    2.6120 H   0  0  0  0  0  0  0  0  0  0  0  0
    0.0265    3.2878    2.7827 H   0  0  0  0  0  0  0  0  0  0  0  0
   -0.7922    3.6961    1.2619 H   0  0  0  0  0  0  0  0  0  0  0  0
  1  2  1  0  0  0  0
  2  3  1  0  0  0  0
  2  4  1  0  0  0  0
  2  5  1  0  0  0  0
  5  6  2  0  0  0  0
  5  7  1  0  0  0  0
  7  8  1  0  0  0  0
  7  9  1  0  0  0  0
  9 10  1  0  0  0  0
  9 11  1  0  0  0  0
  9 26  1  0  0  0  0
 11 12  1  0  0  0  0
 11 13  1  0  0  0  0
 11 14  1  0  0  0  0
 14 15  2  0  0  0  0
 14 24  1  0  0  0  0
 15 16  1  0  0  0  0
 15 17  1  0  0  0  0
 17 18  1  0  0  0  0
 17 19  2  0  0  0  0
 19 20  1  0  0  0  0
 19 22  1  0  0  0  0
 20 21  1  0  0  0  0
 22 23  1  0  0  0  0
 22 24  2  0  0  0  0
 24 25  1  0  0  0  0
 26 27  2  0  0  0  0
 26 28  1  0  0  0  0
 28 29  1  0  0  0  0
 28 30  1  0  0  0  0
 30 31  1  0  0  0  0
 30 32  1  0  0  0  0
 30 33  1  0  0  0  0
M  END
$$$$

  -OEChem-04042216043D

 33 33  0     1  0  0  0  0  0999 V2000
   -3.9017   -4.0377    1.3472 H   0  0  0  0  0  0  0  0  0  0  0  0
   -3.8831   -3.0972    0.7895 C   0  0  0  0  0  0  0  0  0  0  0  0
   -4.6122   -2.4123    1.2291 H   0  0  0  0  0  0  0  0  0  0  0  0
   -4.1609   -3.2969   -0.2483 H   0  0  0  0  0  0  0  0  0  0  0  0
   -2.4971   -2.4829    0.8448 C   0  0  0  0  0  0  0  0  0  0  0  0
   -1.5951   -3.0590    1.4332 O   0  0  0  0  0  0  0  0  0  0  0  0
   -2.2597   -1.2744    0.2245 N   0  0  0  0  0  0  0  0  0  0  0  0
   -3.0550   -0.7968   -0.1979 H   0  0  0  0  0  0  0  0  0  0  0  0
   -0.9960   -0.5249    0.2830 C   0  0  1  0  0  0  0  0  0  0  0  0
   -0.4457   -0.8762    1.1616 H   0  0  0  0  0  0  0  0  0  0  0  0
   -0.1264   -0.9000   -0.9436 C   0  0  0  0  0  0  0  0  0  0  0  0
    0.9206   -0.7976   -0.6424 H   0  0  0  0  0  0  0  0  0  0  0  0
   -0.2771   -1.9613   -1.1677 H   0  0  0  0  0  0  0  0  0  0  0  0
   -0.2898   -0.0772   -2.2105 C   0  0  0  0  0  0  0  0  0  0  0  0
   -0.0474    1.3077   -2.2635 C   0  0  0  0  0  0  0  0  0  0  0  0
    0.3076    1.8443   -1.3899 H   0  0  0  0  0  0  0  0  0  0  0  0
   -0.2435    2.0240   -3.4501 C   0  0  0  0  0  0  0  0  0  0  0  0
   -0.0529    3.0914   -3.4639 H   0  0  0  0  0  0  0  0  0  0  0  0
   -0.6819    1.3700   -4.6019 C   0  0  0  0  0  0  0  0  0  0  0  0
   -0.8765    2.0598   -5.7635 O   0  0  0  0  0  0  0  0  0  0  0  0
   -0.7133    3.0042   -5.6173 H   0  0  0  0  0  0  0  0  0  0  0  0
   -0.9230   -0.0006   -4.5634 C   0  0  0  0  0  0  0  0  0  0  0  0
   -1.2656   -0.5025   -5.4622 H   0  0  0  0  0  0  0  0  0  0  0  0
   -0.7323   -0.7195   -3.3787 C   0  0  0  0  0  0  0  0  0  0  0  0
   -0.9364   -1.7861   -3.3729 H   0  0  0  0  0  0  0  0  0  0  0  0
   -1.2464    0.9734    0.5449 C   0  0  0  0  0  0  0  0  0  0  0  0
   -2.2254    1.5333    0.0643 O   0  0  0  0  0  0  0  0  0  0  0  0
   -0.4793    1.6528    1.4749 N   0  0  0  0  0  0  0  0  0  0  0  0
    0.2454    1.1291    1.9577 H   0  0  0  0  0  0  0  0  0  0  0  0
   -0.7712    3.0131    1.9115 C   0  0  0  0  0  0  0  0  0  0  0  0
   -1.7483    3.0555    2.4041 H   0  0  0  0  0  0  0  0  0  0  0  0
   -0.0104    3.3542    2.6203 H   0  0  0  0  0  0  0  0  0  0  0  0
   -0.7776    3.6980    1.0569 H   0  0  0  0  0  0  0  0  0  0  0  0
  1  2  1  0  0  0  0
  2  3  1  0  0  0  0
  2  4  1  0  0  0  0
  2  5  1  0  0  0  0
  5  6  2  0  0  0  0
  5  7  1  0  0  0  0
  7  8  1  0  0  0  0
  7  9  1  0  0  0  0
  9 10  1  0  0  0  0
  9 11  1  0  0  0  0
  9 26  1  0  0  0  0
 11 12  1  0  0  0  0
 11 13  1  0  0  0  0
 11 14  1  0  0  0  0
 14 15  2  0  0  0  0
 14 24  1  0  0  0  0
 15 16  1  0  0  0  0
 15 17  1  0  0  0  0
 17 18  1  0  0  0  0
 17 19  2  0  0  0  0
 19 20  1  0  0  0  0
 19 22  1  0  0  0  0
 20 21  1  0  0  0  0
 22 23  1  0  0  0  0
 22 24  2  0  0  0  0
 24 25  1  0  0  0  0
 26 27  2  0  0  0  0
 26 28  1  0  0  0  0
 28 29  1  0  0  0  0
 28 30  1  0  0  0  0
 30 31  1  0  0  0  0
 30 32  1  0  0  0  0
 30 33  1  0  0  0  0
M  END
$$$$

  -OEChem-04042216043D

 33 33  0     1  0  0  0  0  0999 V2000
   -3.9270   -4.0155    1.4245 H   0  0  0  0  0  0  0  0  0  0  0  0
   -3.8946   -3.1014    0.8250 C   0  0  0  0  0  0  0  0  0  0  0  0
   -4.6261   -2.3934    1.2222 H   0  0  0  0  0  0  0  0  0  0  0  0
   -4.1581   -3.3467   -0.2067 H   0  0  0  0  0  0  0  0  0  0  0  0
   -2.5056   -2.4932    0.8729 C   0  0  0  0  0  0  0  0  0  0  0  0
   -1.6144   -3.0523    1.4931 O   0  0  0  0  0  0  0  0  0  0  0  0
   -2.2520   -1.3122    0.2078 N   0  0  0  0  0  0  0  0  0  0  0  0
   -3.0418   -0.8373   -0.2277 H   0  0  0  0  0  0  0  0  0  0  0  0
   -0.9870   -0.5658    0.2647 C   0  0  1  0  0  0  0  0  0  0  0  0
   -0.4494   -0.8893    1.1616 H   0  0  0  0  0  0  0  0  0  0  0  0
   -0.1008   -0.9561   -0.9401 C   0  0  0  0  0  0  0  0  0  0  0  0
    0.9455   -0.8556   -0.6345 H   0  0  0  0  0  0  0  0  0  0  0  0
   -0.2534   -2.0152   -1.1738 H   0  0  0  0  0  0  0  0  0  0  0  0
   -0.2893   -0.1190   -2.1878 C   0  0  0  0  0  0  0  0  0  0  0  0
    0.2239    1.1855   -2.2864 C   0  0  0  0  0  0  0  0  0  0  0  0
    0.7816    1.6178   -1.4613 H   0  0  0  0  0  0  0  0  0  0  0  0
    0.0209    1.9440   -3.4453 C   0  0  0  0  0  0  0  0  0  0  0  0
    0.4219    2.9497   -3.5001 H   0  0  0  0  0  0  0  0  0  0  0  0
   -0.6956    1.4096   -4.5177 C   0  0  0  0  0  0  0  0  0  0  0  0
   -0.9008    2.1412   -5.6517 O   0  0  0  0  0  0  0  0  0  0  0  0
   -0.5458    3.0357   -5.5359 H   0  0  0  0  0  0  0  0  0  0  0  0
   -1.2088    0.1177   -4.4274 C   0  0  0  0  0  0  0  0  0  0  0  0
   -1.7678   -0.2884   -5.2638 H   0  0  0  0  0  0  0  0  0  0  0  0
   -1.0115   -0.6432   -3.2702 C   0  0  0  0  0  0  0  0  0  0  0  0
   -1.4267   -1.6450   -3.2154 H   0  0  0  0  0  0  0  0  0  0  0  0
   -1.2330    0.9442    0.4589 C   0  0  0  0  0  0  0  0  0  0  0  0
   -2.2028    1.4869   -0.0587 O   0  0  0  0  0  0  0  0  0  0  0  0
   -0.4817    1.6554    1.3777 N   0  0  0  0  0  0  0  0  0  0  0  0
    0.2299    1.1484    1.8962 H   0  0  0  0  0  0  0  0  0  0  0  0
   -0.7677    3.0373    1.7433 C   0  0  0  0  0  0  0  0  0  0  0  0
   -1.7664    3.1180    2.1853 H   0  0  0  0  0  0  0  0  0  0  0  0
   -0.0358    3.3943    2.4740 H   0  0  0  0  0  0  0  0  0  0  0  0
   -0.7192    3.6845    0.8612 H   0  0  0  0  0  0  0  0  0  0  0  0
  1  2  1  0  0  0  0
  2  3  1  0  0  0  0
  2  4  1  0  0  0  0
  2  5  1  0  0  0  0
  5  6  2  0  0  0  0
  5  7  1  0  0  0  0
  7  8  1  0  0  0  0
  7  9  1  0  0  0  0
  9 10  1  0  0  0  0
  9 11  1  0  0  0  0
  9 26  1  0  0  0  0
 11 12  1  0  0  0  0
 11 13  1  0  0  0  0
 11 14  1  0  0  0  0
 14 15  2  0  0  0  0
 14 24  1  0  0  0  0
 15 16  1  0  0  0  0
 15 17  1  0  0  0  0
 17 18  1  0  0  0  0
 17 19  2  0  0  0  0
 19 20  1  0  0  0  0
 19 22  1  0  0  0  0
 20 21  1  0  0  0  0
 22 23  1  0  0  0  0
 22 24  2  0  0  0  0
 24 25  1  0  0  0  0
 26 27  2  0  0  0  0
 26 28  1  0  0  0  0
 28 29  1  0  0  0  0
 28 30  1  0  0  0  0
 30 31  1  0  0  0  0
 30 32  1  0  0  0  0
 30 33  1  0  0  0  0
M  END
$$$$

  -OEChem-04042216043D

 33 33  0     1  0  0  0  0  0999 V2000
   -3.9395   -3.9985    1.4888 H   0  0  0  0  0  0  0  0  0  0  0  0
   -3.9050   -3.0974    0.8702 C   0  0  0  0  0  0  0  0  0  0  0  0
   -4.6213   -2.3723    1.2641 H   0  0  0  0  0  0  0  0  0  0  0  0
   -4.1875   -3.3604   -0.1519 H   0  0  0  0  0  0  0  0  0  0  0  0
   -2.5083   -2.5054    0.8853 C   0  0  0  0  0  0  0  0  0  0  0  0
   -1.6158   -3.0608    1.5071 O   0  0  0  0  0  0  0  0  0  0  0  0
   -2.2514   -1.3393    0.1953 N   0  0  0  0  0  0  0  0  0  0  0  0
   -3.0446   -0.8596   -0.2287 H   0  0  0  0  0  0  0  0  0  0  0  0
   -0.9857   -0.5926    0.2471 C   0  0  1  0  0  0  0  0  0  0  0  0
   -0.4534   -0.9007    1.1525 H   0  0  0  0  0  0  0  0  0  0  0  0
   -0.0884   -0.9833   -0.9466 C   0  0  0  0  0  0  0  0  0  0  0  0
    0.9568   -0.8873   -0.6366 H   0  0  0  0  0  0  0  0  0  0  0  0
   -0.2447   -2.0390   -1.1928 H   0  0  0  0  0  0  0  0  0  0  0  0
   -0.2949   -0.1348   -2.1802 C   0  0  0  0  0  0  0  0  0  0  0  0
    0.4516    1.0363   -2.3867 C   0  0  0  0  0  0  0  0  0  0  0  0
    1.1907    1.3492   -1.6553 H   0  0  0  0  0  0  0  0  0  0  0  0
    0.2462    1.8146   -3.5320 C   0  0  0  0  0  0  0  0  0  0  0  0
    0.8287    2.7180   -3.6743 H   0  0  0  0  0  0  0  0  0  0  0  0
   -0.7035    1.4301   -4.4809 C   0  0  0  0  0  0  0  0  0  0  0  0
   -0.9110    2.1827   -5.6005 O   0  0  0  0  0  0  0  0  0  0  0  0
   -0.3781    2.9912   -5.5578 H   0  0  0  0  0  0  0  0  0  0  0  0
   -1.4470    0.2688   -4.2813 C   0  0  0  0  0  0  0  0  0  0  0  0
   -2.1852   -0.0202   -5.0220 H   0  0  0  0  0  0  0  0  0  0  0  0
   -1.2485   -0.5107   -3.1367 C   0  0  0  0  0  0  0  0  0  0  0  0
   -1.8402   -1.4093   -2.9916 H   0  0  0  0  0  0  0  0  0  0  0  0
   -1.2294    0.9232    0.4066 C   0  0  0  0  0  0  0  0  0  0  0  0
   -2.2078    1.4498   -0.1116 O   0  0  0  0  0  0  0  0  0  0  0  0
   -0.4836    1.6523    1.3161 N   0  0  0  0  0  0  0  0  0  0  0  0
    0.2425    1.1615    1.8297 H   0  0  0  0  0  0  0  0  0  0  0  0
   -0.7752    3.0385    1.6608 C   0  0  0  0  0  0  0  0  0  0  0  0
   -1.7721    3.1212    2.1064 H   0  0  0  0  0  0  0  0  0  0  0  0
   -0.0417    3.4109    2.3822 H   0  0  0  0  0  0  0  0  0  0  0  0
   -0.7342    3.6717    0.7682 H   0  0  0  0  0  0  0  0  0  0  0  0
  1  2  1  0  0  0  0
  2  3  1  0  0  0  0
  2  4  1  0  0  0  0
  2  5  1  0  0  0  0
  5  6  2  0  0  0  0
  5  7  1  0  0  0  0
  7  8  1  0  0  0  0
  7  9  1  0  0  0  0
  9 10  1  0  0  0  0
  9 11  1  0  0  0  0
  9 26  1  0  0  0  0
 11 12  1  0  0  0  0
 11 13  1  0  0  0  0
 11 14  1  0  0  0  0
 14 15  2  0  0  0  0
 14 24  1  0  0  0  0
 15 16  1  0  0  0  0
 15 17  1  0  0  0  0
 17 18  1  0  0  0  0
 17 19  2  0  0  0  0
 19 20  1  0  0  0  0
 19 22  1  0  0  0  0
 20 21  1  0  0  0  0
 22 23  1  0  0  0  0
 22 24  2  0  0  0  0
 24 25  1  0  0  0  0
 26 27  2  0  0  0  0
 26 28  1  0  0  0  0
 28 29  1  0  0  0  0
 28 30  1  0  0  0  0
 30 31  1  0  0  0  0
 30 32  1  0  0  0  0
 30 33  1  0  0  0  0
M  END
$$$$

  -OEChem-04042216043D

 33 33  0     1  0  0  0  0  0999 V2000
   -3.9360   -3.9970    1.5296 H   0  0  0  0  0  0  0  0  0  0  0  0
   -3.9085   -3.0955    0.9112 C   0  0  0  0  0  0  0  0  0  0  0  0
   -4.6068   -2.3637    1.3244 H   0  0  0  0  0  0  0  0  0  0  0  0
   -4.2208   -3.3541   -0.1034 H   0  0  0  0  0  0  0  0  0  0  0  0
   -2.5055   -2.5185    0.8899 C   0  0  0  0  0  0  0  0  0  0  0  0
   -1.6035   -3.0825    1.4898 O   0  0  0  0  0  0  0  0  0  0  0  0
   -2.2552   -1.3540    0.1950 N   0  0  0  0  0  0  0  0  0  0  0  0
   -3.0576   -0.8596   -0.1933 H   0  0  0  0  0  0  0  0  0  0  0  0
   -0.9894   -0.6067    0.2393 C   0  0  1  0  0  0  0  0  0  0  0  0
   -0.4522   -0.9126    1.1427 H   0  0  0  0  0  0  0  0  0  0  0  0
   -0.0914   -0.9865   -0.9568 C   0  0  0  0  0  0  0  0  0  0  0  0
    0.9533   -0.8951   -0.6435 H   0  0  0  0  0  0  0  0  0  0  0  0
   -0.2502   -2.0390   -1.2143 H   0  0  0  0  0  0  0  0  0  0  0  0
   -0.3057   -0.1301   -2.1838 C   0  0  0  0  0  0  0  0  0  0  0  0
    0.6247    0.8574   -2.5441 C   0  0  0  0  0  0  0  0  0  0  0  0
    1.5087    1.0245   -1.9363 H   0  0  0  0  0  0  0  0  0  0  0  0
    0.4208    1.6394   -3.6872 C   0  0  0  0  0  0  0  0  0  0  0  0
    1.1472    2.4002   -3.9501 H   0  0  0  0  0  0  0  0  0  0  0  0
   -0.7104    1.4402   -4.4817 C   0  0  0  0  0  0  0  0  0  0  0  0
   -0.9169    2.1961   -5.5996 O   0  0  0  0  0  0  0  0  0  0  0  0
   -0.2188    2.8634   -5.6810 H   0  0  0  0  0  0  0  0  0  0  0  0
   -1.6353    0.4590   -4.1308 C   0  0  0  0  0  0  0  0  0  0  0  0
   -2.5131    0.3127   -4.7513 H   0  0  0  0  0  0  0  0  0  0  0  0
   -1.4368   -0.3242   -2.9890 C   0  0  0  0  0  0  0  0  0  0  0  0
   -2.1670   -1.0830   -2.7263 H   0  0  0  0  0  0  0  0  0  0  0  0
   -1.2368    0.9090    0.3964 C   0  0  0  0  0  0  0  0  0  0  0  0
   -2.2287    1.4256   -0.1069 O   0  0  0  0  0  0  0  0  0  0  0  0
   -0.4900    1.6435    1.3005 N   0  0  0  0  0  0  0  0  0  0  0  0
    0.2523    1.1622    1.7993 H   0  0  0  0  0  0  0  0  0  0  0  0
   -0.7833    3.0309    1.6393 C   0  0  0  0  0  0  0  0  0  0  0  0
   -1.7745    3.1116    2.0977 H   0  0  0  0  0  0  0  0  0  0  0  0
   -0.0420    3.4129    2.3476 H   0  0  0  0  0  0  0  0  0  0  0  0
   -0.7580    3.6581    0.7418 H   0  0  0  0  0  0  0  0  0  0  0  0
  1  2  1  0  0  0  0
  2  3  1  0  0  0  0
  2  4  1  0  0  0  0
  2  5  1  0  0  0  0
  5  6  2  0  0  0  0
  5  7  1  0  0  0  0
  7  8  1  0  0  0  0
  7  9  1  0  0  0  0
  9 10  1  0  0  0  0
  9 11  1  0  0  0  0
  9 26  1  0  0  0  0
 11 12  1  0  0  0  0
 11 13  1  0  0  0  0
 11 14  1  0  0  0  0
 14 15  2  0  0  0  0
 14 24  1  0  0  0  0
 15 16  1  0  0  0  0
 15 17  1  0  0  0  0
 17 18  1  0  0  0  0
 17 19  2  0  0  0  0
 19 20  1  0  0  0  0
 19 22  1  0  0  0  0
 20 21  1  0  0  0  0
 22 23  1  0  0  0  0
 22 24  2  0  0  0  0
 24 25  1  0  0  0  0
 26 27  2  0  0  0  0
 26 28  1  0  0  0  0
 28 29  1  0  0  0  0
 28 30  1  0  0  0  0
 30 31  1  0  0  0  0
 30 32  1  0  0  0  0
 30 33  1  0  0  0  0
M  END
$$$$

  -OEChem-04042216043D

 33 33  0     1  0  0  0  0  0999 V2000
   -3.9191   -4.0102    1.5682 H   0  0  0  0  0  0  0  0  0  0  0  0
   -3.9036   -3.1080    0.9505 C   0  0  0  0  0  0  0  0  0  0  0  0
   -4.5937   -2.3766    1.3783 H   0  0  0  0  0  0  0  0  0  0  0  0
   -4.2354   -3.3654   -0.0582 H   0  0  0  0  0  0  0  0  0  0  0  0
   -2.5014   -2.5309    0.9017 C   0  0  0  0  0  0  0  0  0  0  0  0
   -1.5842   -3.1031    1.4698 O   0  0  0  0  0  0  0  0  0  0  0  0
   -2.2700   -1.3576    0.2148 N   0  0  0  0  0  0  0  0  0  0  0  0
   -3.0857   -0.8542   -0.1319 H   0  0  0  0  0  0  0  0  0  0  0  0
   -1.0060   -0.6057    0.2426 C   0  0  1  0  0  0  0  0  0  0  0  0
   -0.4556   -0.9190    1.1359 H   0  0  0  0  0  0  0  0  0  0  0  0
   -0.1161   -0.9646   -0.9672 C   0  0  0  0  0  0  0  0  0  0  0  0
    0.9285   -0.8704   -0.6544 H   0  0  0  0  0  0  0  0  0  0  0  0
   -0.2706   -2.0157   -1.2326 H   0  0  0  0  0  0  0  0  0  0  0  0
   -0.3341   -0.1067   -2.1961 C   0  0  0  0  0  0  0  0  0  0  0  0
    0.7194    0.6538   -2.7282 C   0  0  0  0  0  0  0  0  0  0  0  0
    1.6926    0.6525   -2.2469 H   0  0  0  0  0  0  0  0  0  0  0  0
    0.5295    1.4252   -3.8812 C   0  0  0  0  0  0  0  0  0  0  0  0
    1.3535    2.0108   -4.2733 H   0  0  0  0  0  0  0  0  0  0  0  0
   -0.7110    1.4367   -4.5217 C   0  0  0  0  0  0  0  0  0  0  0  0
   -0.9066    2.1854   -5.6465 O   0  0  0  0  0  0  0  0  0  0  0  0
   -0.1079    2.6962   -5.8479 H   0  0  0  0  0  0  0  0  0  0  0  0
   -1.7568    0.6725   -4.0093 C   0  0  0  0  0  0  0  0  0  0  0  0
   -2.7176    0.6854   -4.5127 H   0  0  0  0  0  0  0  0  0  0  0  0
   -1.5720   -0.0992   -2.8570 C   0  0  0  0  0  0  0  0  0  0  0  0
   -2.3990   -0.6885   -2.4753 H   0  0  0  0  0  0  0  0  0  0  0  0
   -1.2540    0.9074    0.4216 C   0  0  0  0  0  0  0  0  0  0  0  0
   -2.2648    1.4222   -0.0452 O   0  0  0  0  0  0  0  0  0  0  0  0
   -0.4917    1.6345    1.3183 N   0  0  0  0  0  0  0  0  0  0  0  0
    0.2810    1.1595    1.7755 H   0  0  0  0  0  0  0  0  0  0  0  0
   -0.7729    3.0221    1.6660 C   0  0  0  0  0  0  0  0  0  0  0  0
   -1.7695    3.1116    2.1111 H   0  0  0  0  0  0  0  0  0  0  0  0
   -0.0374    3.3869    2.3892 H   0  0  0  0  0  0  0  0  0  0  0  0
   -0.7264    3.6566    0.7746 H   0  0  0  0  0  0  0  0  0  0  0  0
  1  2  1  0  0  0  0
  2  3  1  0  0  0  0
  2  4  1  0  0  0  0
  2  5  1  0  0  0  0
  5  6  2  0  0  0  0
  5  7  1  0  0  0  0
  7  8  1  0  0  0  0
  7  9  1  0  0  0  0
  9 10  1  0  0  0  0
  9 11  1  0  0  0  0
  9 26  1  0  0  0  0
 11 12  1  0  0  0  0
 11 13  1  0  0  0  0
 11 14  1  0  0  0  0
 14 15  2  0  0  0  0
 14 24  1  0  0  0  0
 15 16  1  0  0  0  0
 15 17  1  0  0  0  0
 17 18  1  0  0  0  0
 17 19  2  0  0  0  0
 19 20  1  0  0  0  0
 19 22  1  0  0  0  0
 20 21  1  0  0  0  0
 22 23  1  0  0  0  0
 22 24  2  0  0  0  0
 24 25  1  0  0  0  0
 26 27  2  0  0  0  0
 26 28  1  0  0  0  0
 28 29  1  0  0  0  0
 28 30  1  0  0  0  0
 30 31  1  0  0  0  0
 30 32  1  0  0  0  0
 30 33  1  0  0  0  0
M  END
$$$$

  -OEChem-04042216043D

 33 33  0     1  0  0  0  0  0999 V2000
   -3.8692   -4.0483    1.5658 H   0  0  0  0  0  0  0  0  0  0  0  0
   -3.8835   -3.1281    0.9752 C   0  0  0  0  0  0  0  0  0  0  0  0
   -4.5695   -2.4191    1.4451 H   0  0  0  0  0  0  0  0  0  0  0  0
   -4.2423   -3.3601   -0.0305 H   0  0  0  0  0  0  0  0  0  0  0  0
   -2.4904   -2.5320    0.9021 C   0  0  0  0  0  0  0  0  0  0  0  0
   -1.5514   -3.1071    1.4306 O   0  0  0  0  0  0  0  0  0  0  0  0
   -2.2893   -1.3415    0.2351 N   0  0  0  0  0  0  0  0  0  0  0  0
   -3.1194   -0.8381   -0.0745 H   0  0  0  0  0  0  0  0  0  0  0  0
   -1.0300   -0.5804    0.2470 C   0  0  1  0  0  0  0  0  0  0  0  0
   -0.4634   -0.9064    1.1252 H   0  0  0  0  0  0  0  0  0  0  0  0
   -0.1536   -0.9220   -0.9785 C   0  0  0  0  0  0  0  0  0  0  0  0
    0.8911   -0.8201   -0.6690 H   0  0  0  0  0  0  0  0  0  0  0  0
   -0.3023   -1.9742   -1.2422 H   0  0  0  0  0  0  0  0  0  0  0  0
   -0.3687   -0.0754   -2.2189 C   0  0  0  0  0  0  0  0  0  0  0  0
    0.7412    0.4169   -2.9251 C   0  0  0  0  0  0  0  0  0  0  0  0
    1.7473    0.2227   -2.5653 H   0  0  0  0  0  0  0  0  0  0  0  0
    0.5706    1.1627   -4.0975 C   0  0  0  0  0  0  0  0  0  0  0  0
    1.4419    1.5395   -4.6217 H   0  0  0  0  0  0  0  0  0  0  0  0
   -0.7113    1.4143   -4.5886 C   0  0  0  0  0  0  0  0  0  0  0  0
   -0.8888    2.1419   -5.7299 O   0  0  0  0  0  0  0  0  0  0  0  0
   -0.0330    2.4546   -6.0603 H   0  0  0  0  0  0  0  0  0  0  0  0
   -1.8179    0.9117   -3.9090 C   0  0  0  0  0  0  0  0  0  0  0  0
   -2.8121    1.1076   -4.2968 H   0  0  0  0  0  0  0  0  0  0  0  0
   -1.6516    0.1647   -2.7379 C   0  0  0  0  0  0  0  0  0  0  0  0
   -2.5312   -0.2185   -2.2319 H   0  0  0  0  0  0  0  0  0  0  0  0
   -1.2725    0.9283    0.4664 C   0  0  0  0  0  0  0  0  0  0  0  0
   -2.3043    1.4479    0.0539 O   0  0  0  0  0  0  0  0  0  0  0  0
   -0.4854    1.6351    1.3581 N   0  0  0  0  0  0  0  0  0  0  0  0
    0.3085    1.1545    1.7707 H   0  0  0  0  0  0  0  0  0  0  0  0
   -0.7596    3.0116    1.7529 C   0  0  0  0  0  0  0  0  0  0  0  0
   -1.7355    3.0822    2.2444 H   0  0  0  0  0  0  0  0  0  0  0  0
    0.0054    3.3643    2.4512 H   0  0  0  0  0  0  0  0  0  0  0  0
   -0.7579    3.6688    0.8770 H   0  0  0  0  0  0  0  0  0  0  0  0
  1  2  1  0  0  0  0
  2  3  1  0  0  0  0
  2  4  1  0  0  0  0
  2  5  1  0  0  0  0
  5  6  2  0  0  0  0
  5  7  1  0  0  0  0
  7  8  1  0  0  0  0
  7  9  1  0  0  0  0
  9 10  1  0  0  0  0
  9 11  1  0  0  0  0
  9 26  1  0  0  0  0
 11 12  1  0  0  0  0
 11 13  1  0  0  0  0
 11 14  1  0  0  0  0
 14 15  2  0  0  0  0
 14 24  1  0  0  0  0
 15 16  1  0  0  0  0
 15 17  1  0  0  0  0
 17 18  1  0  0  0  0
 17 19  2  0  0  0  0
 19 20  1  0  0  0  0
 19 22  1  0  0  0  0
 20 21  1  0  0  0  0
 22 23  1  0  0  0  0
 22 24  2  0  0  0  0
 24 25  1  0  0  0  0
 26 27  2  0  0  0  0
 26 28  1  0  0  0  0
 28 29  1  0  0  0  0
 28 30  1  0  0  0  0
 30 31  1  0  0  0  0
 30 32  1  0  0  0  0
 30 33  1  0  0  0  0
M  END
$$$$

  -OEChem-04042216043D

 33 33  0     1  0  0  0  0  0999 V2000
   -3.8244   -4.0771    1.5299 H   0  0  0  0  0  0  0  0  0  0  0  0
   -3.8606   -3.1419    0.9641 C   0  0  0  0  0  0  0  0  0  0  0  0
   -4.5476   -2.4546    1.4639 H   0  0  0  0  0  0  0  0  0  0  0  0
   -4.2323   -3.3519   -0.0419 H   0  0  0  0  0  0  0  0  0  0  0  0
   -2.4774   -2.5246    0.8840 C   0  0  0  0  0  0  0  0  0  0  0  0
   -1.5201   -3.1056    1.3716 O   0  0  0  0  0  0  0  0  0  0  0  0
   -2.3073   -1.3084    0.2556 N   0  0  0  0  0  0  0  0  0  0  0  0
   -3.1505   -0.8114   -0.0267 H   0  0  0  0  0  0  0  0  0  0  0  0
   -1.0564   -0.5338    0.2549 C   0  0  1  0  0  0  0  0  0  0  0  0
   -0.4752   -0.8805    1.1152 H   0  0  0  0  0  0  0  0  0  0  0  0
   -0.1890   -0.8574   -0.9830 C   0  0  0  0  0  0  0  0  0  0  0  0
    0.8560   -0.7402   -0.6792 H   0  0  0  0  0  0  0  0  0  0  0  0
   -0.3258   -1.9127   -1.2417 H   0  0  0  0  0  0  0  0  0  0  0  0
   -0.4022   -0.0267   -2.2360 C   0  0  0  0  0  0  0  0  0  0  0  0
    0.6855    0.1852   -3.0993 C   0  0  0  0  0  0  0  0  0  0  0  0
    1.6684   -0.1955   -2.8379 H   0  0  0  0  0  0  0  0  0  0  0  0
    0.5259    0.8877   -4.2996 C   0  0  0  0  0  0  0  0  0  0  0  0
    1.3844    1.0485   -4.9421 H   0  0  0  0  0  0  0  0  0  0  0  0
   -0.7309    1.3688   -4.6682 C   0  0  0  0  0  0  0  0  0  0  0  0
   -0.9000    2.0552   -5.8360 O   0  0  0  0  0  0  0  0  0  0  0  0
   -0.0479    2.1614   -6.2854 H   0  0  0  0  0  0  0  0  0  0  0  0
   -1.8246    1.1333   -3.8398 C   0  0  0  0  0  0  0  0  0  0  0  0
   -2.8025    1.4980   -4.1365 H   0  0  0  0  0  0  0  0  0  0  0  0
   -1.6686    0.4305   -2.6400 C   0  0  0  0  0  0  0  0  0  0  0  0
   -2.5479    0.2467   -2.0319 H   0  0  0  0  0  0  0  0  0  0  0  0
   -1.2848    0.9674    0.5349 C   0  0  0  0  0  0  0  0  0  0  0  0
   -2.3356    1.5016    0.1965 O   0  0  0  0  0  0  0  0  0  0  0  0
   -0.4628    1.6378    1.4232 N   0  0  0  0  0  0  0  0  0  0  0  0
    0.3538    1.1460    1.7736 H   0  0  0  0  0  0  0  0  0  0  0  0
   -0.7184    2.9972    1.8840 C   0  0  0  0  0  0  0  0  0  0  0  0
   -1.6751    3.0488    2.4144 H   0  0  0  0  0  0  0  0  0  0  0  0
    0.0726    3.3201    2.5673 H   0  0  0  0  0  0  0  0  0  0  0  0
   -0.7468    3.6893    1.0359 H   0  0  0  0  0  0  0  0  0  0  0  0
  1  2  1  0  0  0  0
  2  3  1  0  0  0  0
  2  4  1  0  0  0  0
  2  5  1  0  0  0  0
  5  6  2  0  0  0  0
  5  7  1  0  0  0  0
  7  8  1  0  0  0  0
  7  9  1  0  0  0  0
  9 10  1  0  0  0  0
  9 11  1  0  0  0  0
  9 26  1  0  0  0  0
 11 12  1  0  0  0  0
 11 13  1  0  0  0  0
 11 14  1  0  0  0  0
 14 15  2  0  0  0  0
 14 24  1  0  0  0  0
 15 16  1  0  0  0  0
 15 17  1  0  0  0  0
 17 18  1  0  0  0  0
 17 19  2  0  0  0  0
 19 20  1  0  0  0  0
 19 22  1  0  0  0  0
 20 21  1  0  0  0  0
 22 23  1  0  0  0  0
 22 24  2  0  0  0  0
 24 25  1  0  0  0  0
 26 27  2  0  0  0  0
 26 28  1  0  0  0  0
 28 29  1  0  0  0  0
 28 30  1  0  0  0  0
 30 31  1  0  0  0  0
 30 32  1  0  0  0  0
 30 33  1  0  0  0  0
M  END
$$$$

  -OEChem-04042216043D

 33 33  0     1  0  0  0  0  0999 V2000
   -3.7649   -4.1122    1.4609 H   0  0  0  0  0  0  0  0  0  0  0  0
   -3.8323   -3.1545    0.9371 C   0  0  0  0  0  0  0  0  0  0  0  0
   -4.5175   -2.5018    1.4835 H   0  0  0  0  0  0  0  0  0  0  0  0
   -4.2277   -3.3281   -0.0668 H   0  0  0  0  0  0  0  0  0  0  0  0
   -2.4624   -2.5090    0.8489 C   0  0  0  0  0  0  0  0  0  0  0  0
   -1.4828   -3.0945    1.2844 O   0  0  0  0  0  0  0  0  0  0  0  0
   -2.3295   -1.2629    0.2716 N   0  0  0  0  0  0  0  0  0  0  0  0
   -3.1870   -0.7759    0.0173 H   0  0  0  0  0  0  0  0  0  0  0  0
   -1.0910   -0.4690    0.2583 C   0  0  1  0  0  0  0  0  0  0  0  0
   -0.4986   -0.8392    1.1011 H   0  0  0  0  0  0  0  0  0  0  0  0
   -0.2235   -0.7755   -0.9845 C   0  0  0  0  0  0  0  0  0  0  0  0
    0.8194   -0.6346   -0.6830 H   0  0  0  0  0  0  0  0  0  0  0  0
   -0.3396   -1.8358   -1.2323 H   0  0  0  0  0  0  0  0  0  0  0  0
   -0.4308    0.0295   -2.2561 C   0  0  0  0  0  0  0  0  0  0  0  0
    0.5677   -0.0389   -3.2421 C   0  0  0  0  0  0  0  0  0  0  0  0
    1.4795   -0.5966   -3.0487 H   0  0  0  0  0  0  0  0  0  0  0  0
    0.4156    0.6093   -4.4732 C   0  0  0  0  0  0  0  0  0  0  0  0
    1.2115    0.5538   -5.2075 H   0  0  0  0  0  0  0  0  0  0  0  0
   -0.7564    1.3115   -4.7540 C   0  0  0  0  0  0  0  0  0  0  0  0
   -0.9193    1.9465   -5.9513 O   0  0  0  0  0  0  0  0  0  0  0  0
   -0.1223    1.8436   -6.4932 H   0  0  0  0  0  0  0  0  0  0  0  0
   -1.7774    1.3434   -3.8086 C   0  0  0  0  0  0  0  0  0  0  0  0
   -2.6983    1.8686   -4.0399 H   0  0  0  0  0  0  0  0  0  0  0  0
   -1.6284    0.6935   -2.5785 C   0  0  0  0  0  0  0  0  0  0  0  0
   -2.4721    0.7018   -1.8990 H   0  0  0  0  0  0  0  0  0  0  0  0
   -1.2966    1.0208    0.6110 C   0  0  0  0  0  0  0  0  0  0  0  0
   -2.3667    1.5686    0.3694 O   0  0  0  0  0  0  0  0  0  0  0  0
   -0.4300    1.6452    1.4910 N   0  0  0  0  0  0  0  0  0  0  0  0
    0.4046    1.1380    1.7704 H   0  0  0  0  0  0  0  0  0  0  0  0
   -0.6635    2.9740    2.0442 C   0  0  0  0  0  0  0  0  0  0  0  0
   -1.5844    2.9859    2.6369 H   0  0  0  0  0  0  0  0  0  0  0  0
    0.1686    3.2643    2.6927 H   0  0  0  0  0  0  0  0  0  0  0  0
   -0.7506    3.7138    1.2415 H   0  0  0  0  0  0  0  0  0  0  0  0
  1  2  1  0  0  0  0
  2  3  1  0  0  0  0
  2  4  1  0  0  0  0
  2  5  1  0  0  0  0
  5  6  2  0  0  0  0
  5  7  1  0  0  0  0
  7  8  1  0  0  0  0
  7  9  1  0  0  0  0
  9 10  1  0  0  0  0
  9 11  1  0  0  0  0
  9 26  1  0  0  0  0
 11 12  1  0  0  0  0
 11 13  1  0  0  0  0
 11 14  1  0  0  0  0
 14 15  2  0  0  0  0
 14 24  1  0  0  0  0
 15 16  1  0  0  0  0
 15 17  1  0  0  0  0
 17 18  1  0  0  0  0
 17 19  2  0  0  0  0
 19 20  1  0  0  0  0
 19 22  1  0  0  0  0
 20 21  1  0  0  0  0
 22 23  1  0  0  0  0
 22 24  2  0  0  0  0
 24 25  1  0  0  0  0
 26 27  2  0  0  0  0
 26 28  1  0  0  0  0
 28 29  1  0  0  0  0
 28 30  1  0  0  0  0
 30 31  1  0  0  0  0
 30 32  1  0  0  0  0
 30 33  1  0  0  0  0
M  END
$$$$

  -OEChem-04042216043D

 33 33  0     1  0  0  0  0  0999 V2000
   -3.8196   -4.1330    1.2228 H   0  0  0  0  0  0  0  0  0  0  0  0
   -3.8933   -3.1324    0.7878 C   0  0  0  0  0  0  0  0  0  0  0  0
   -4.5708   -2.5315    1.3993 H   0  0  0  0  0  0  0  0  0  0  0  0
   -4.3020   -3.2162   -0.2221 H   0  0  0  0  0  0  0  0  0  0  0  0
   -2.5237   -2.4814    0.7388 C   0  0  0  0  0  0  0  0  0  0  0  0
   -1.5392   -3.1015    1.1107 O   0  0  0  0  0  0  0  0  0  0  0  0
   -2.3942   -1.1937    0.2603 N   0  0  0  0  0  0  0  0  0  0  0  0
   -3.2530   -0.6862    0.0519 H   0  0  0  0  0  0  0  0  0  0  0  0
   -1.1537   -0.4023    0.2864 C   0  0  1  0  0  0  0  0  0  0  0  0
   -0.5720   -0.8236    1.1130 H   0  0  0  0  0  0  0  0  0  0  0  0
   -0.2715   -0.6846   -0.9608 C   0  0  0  0  0  0  0  0  0  0  0  0
    0.7462   -0.8241   -0.5816 H   0  0  0  0  0  0  0  0  0  0  0  0
   -0.5810   -1.6520   -1.3705 H   0  0  0  0  0  0  0  0  0  0  0  0
   -0.1409    0.2808   -2.1351 C   0  0  0  0  0  0  0  0  0  0  0  0
    0.7063   -0.1373   -3.1775 C   0  0  0  0  0  0  0  0  0  0  0  0
    1.2522   -1.0721   -3.0838 H   0  0  0  0  0  0  0  0  0  0  0  0
    0.8773    0.6288   -4.3358 C   0  0  0  0  0  0  0  0  0  0  0  0
    1.5517    0.2817   -5.1109 H   0  0  0  0  0  0  0  0  0  0  0  0
    0.1791    1.8242   -4.4910 C   0  0  0  0  0  0  0  0  0  0  0  0
    0.3332    2.5826   -5.6154 O   0  0  0  0  0  0  0  0  0  0  0  0
    0.9666    2.1610   -6.2160 H   0  0  0  0  0  0  0  0  0  0  0  0
   -0.6978    2.2348   -3.4927 C   0  0  0  0  0  0  0  0  0  0  0  0
   -1.2600    3.1529   -3.6290 H   0  0  0  0  0  0  0  0  0  0  0  0
   -0.8717    1.4695   -2.3338 C   0  0  0  0  0  0  0  0  0  0  0  0
   -1.6092    1.8320   -1.6344 H   0  0  0  0  0  0  0  0  0  0  0  0
   -1.3673    1.0490    0.7605 C   0  0  0  0  0  0  0  0  0  0  0  0
   -2.4541    1.5908    0.5846 O   0  0  0  0  0  0  0  0  0  0  0  0
   -0.4960    1.6149    1.6742 N   0  0  0  0  0  0  0  0  0  0  0  0
    0.3585    1.1081    1.8866 H   0  0  0  0  0  0  0  0  0  0  0  0
   -0.7393    2.8919    2.3346 C   0  0  0  0  0  0  0  0  0  0  0  0
   -1.6436    2.8386    2.9498 H   0  0  0  0  0  0  0  0  0  0  0  0
    0.1045    3.1494    2.9820 H   0  0  0  0  0  0  0  0  0  0  0  0
   -0.8623    3.6895    1.5944 H   0  0  0  0  0  0  0  0  0  0  0  0
  1  2  1  0  0  0  0
  2  3  1  0  0  0  0
  2  4  1  0  0  0  0
  2  5  1  0  0  0  0
  5  6  2  0  0  0  0
  5  7  1  0  0  0  0
  7  8  1  0  0  0  0
  7  9  1  0  0  0  0
  9 10  1  0  0  0  0
  9 11  1  0  0  0  0
  9 26  1  0  0  0  0
 11 12  1  0  0  0  0
 11 13  1  0  0  0  0
 11 14  1  0  0  0  0
 14 15  2  0  0  0  0
 14 24  1  0  0  0  0
 15 16  1  0  0  0  0
 15 17  1  0  0  0  0
 17 18  1  0  0  0  0
 17 19  2  0  0  0  0
 19 20  1  0  0  0  0
 19 22  1  0  0  0  0
 20 21  1  0  0  0  0
 22 23  1  0  0  0  0
 22 24  2  0  0  0  0
 24 25  1  0  0  0  0
 26 27  2  0  0  0  0
 26 28  1  0  0  0  0
 28 29  1  0  0  0  0
 28 30  1  0  0  0  0
 30 31  1  0  0  0  0
 30 32  1  0  0  0  0
 30 33  1  0  0  0  0
M  END
$$$$

  -OEChem-04042216043D

 33 33  0     1  0  0  0  0  0999 V2000
   -3.6959   -4.2302    1.2393 H   0  0  0  0  0  0  0  0  0  0  0  0
   -3.7830   -3.2383    0.7870 C   0  0  0  0  0  0  0  0  0  0  0  0
   -4.4889   -2.6449    1.3731 H   0  0  0  0  0  0  0  0  0  0  0  0
   -4.1659   -3.3470   -0.2306 H   0  0  0  0  0  0  0  0  0  0  0  0
   -2.4288   -2.5547    0.7598 C   0  0  0  0  0  0  0  0  0  0  0  0
   -1.4371   -3.1465    1.1576 O   0  0  0  0  0  0  0  0  0  0  0  0
   -2.3205   -1.2670    0.2770 N   0  0  0  0  0  0  0  0  0  0  0  0
   -3.1840   -0.7823    0.0349 H   0  0  0  0  0  0  0  0  0  0  0  0
   -1.0945   -0.4530    0.3073 C   0  0  1  0  0  0  0  0  0  0  0  0
   -0.4703   -0.8605    1.1093 H   0  0  0  0  0  0  0  0  0  0  0  0
   -0.2768   -0.6865   -0.9969 C   0  0  0  0  0  0  0  0  0  0  0  0
    0.7592   -0.8295   -0.6736 H   0  0  0  0  0  0  0  0  0  0  0  0
   -0.6000   -1.6475   -1.4116 H   0  0  0  0  0  0  0  0  0  0  0  0
   -0.1925    0.3069   -2.1575 C   0  0  0  0  0  0  0  0  0  0  0  0
    0.3130   -0.2188   -3.3614 C   0  0  0  0  0  0  0  0  0  0  0  0
    0.5795   -1.2703   -3.4193 H   0  0  0  0  0  0  0  0  0  0  0  0
    0.4802    0.5762   -4.5001 C   0  0  0  0  0  0  0  0  0  0  0  0
    0.8647    0.1308   -5.4110 H   0  0  0  0  0  0  0  0  0  0  0  0
    0.1573    1.9301   -4.4589 C   0  0  0  0  0  0  0  0  0  0  0  0
    0.3151    2.7199   -5.5611 O   0  0  0  0  0  0  0  0  0  0  0  0
    0.6390    2.1898   -6.3052 H   0  0  0  0  0  0  0  0  0  0  0  0
   -0.3229    2.4790   -3.2753 C   0  0  0  0  0  0  0  0  0  0  0  0
   -0.5645    3.5366   -3.2452 H   0  0  0  0  0  0  0  0  0  0  0  0
   -0.4912    1.6867   -2.1333 C   0  0  0  0  0  0  0  0  0  0  0  0
   -0.8494    2.2085   -1.2591 H   0  0  0  0  0  0  0  0  0  0  0  0
   -1.3960    0.9797    0.7803 C   0  0  0  0  0  0  0  0  0  0  0  0
   -2.4675    1.5053    0.4962 O   0  0  0  0  0  0  0  0  0  0  0  0
   -0.5784    1.5957    1.7108 N   0  0  0  0  0  0  0  0  0  0  0  0
    0.2630    1.1038    1.9983 H   0  0  0  0  0  0  0  0  0  0  0  0
   -0.8804    2.8879    2.3149 C   0  0  0  0  0  0  0  0  0  0  0  0
   -1.8242    2.8412    2.8684 H   0  0  0  0  0  0  0  0  0  0  0  0
   -0.0861    3.1754    3.0104 H   0  0  0  0  0  0  0  0  0  0  0  0
   -0.9614    3.6619    1.5445 H   0  0  0  0  0  0  0  0  0  0  0  0
  1  2  1  0  0  0  0
  2  3  1  0  0  0  0
  2  4  1  0  0  0  0
  2  5  1  0  0  0  0
  5  6  2  0  0  0  0
  5  7  1  0  0  0  0
  7  8  1  0  0  0  0
  7  9  1  0  0  0  0
  9 10  1  0  0  0  0
  9 11  1  0  0  0  0
  9 26  1  0  0  0  0
 11 12  1  0  0  0  0
 11 13  1  0  0  0  0
 11 14  1  0  0  0  0
 14 15  2  0  0  0  0
 14 24  1  0  0  0  0
 15 16  1  0  0  0  0
 15 17  1  0  0  0  0
 17 18  1  0  0  0  0
 17 19  2  0  0  0  0
 19 20  1  0  0  0  0
 19 22  1  0  0  0  0
 20 21  1  0  0  0  0
 22 23  1  0  0  0  0
 22 24  2  0  0  0  0
 24 25  1  0  0  0  0
 26 27  2  0  0  0  0
 26 28  1  0  0  0  0
 28 29  1  0  0  0  0
 28 30  1  0  0  0  0
 30 31  1  0  0  0  0
 30 32  1  0  0  0  0
 30 33  1  0  0  0  0
M  END
$$$$

  -OEChem-04042216043D

 33 33  0     1  0  0  0  0  0999 V2000
   -3.7609   -4.1663    1.3482 H   0  0  0  0  0  0  0  0  0  0  0  0
   -3.8094   -3.1995    0.8393 C   0  0  0  0  0  0  0  0  0  0  0  0
   -4.5228   -2.5605    1.3654 H   0  0  0  0  0  0  0  0  0  0  0  0
   -4.1574   -3.3563   -0.1845 H   0  0  0  0  0  0  0  0  0  0  0  0
   -2.4407   -2.5453    0.8249 C   0  0  0  0  0  0  0  0  0  0  0  0
   -1.4757   -3.1328    1.2886 O   0  0  0  0  0  0  0  0  0  0  0  0
   -2.2907   -1.2866    0.2822 N   0  0  0  0  0  0  0  0  0  0  0  0
   -3.1348   -0.8002   -0.0183 H   0  0  0  0  0  0  0  0  0  0  0  0
   -1.0522   -0.4930    0.3168 C   0  0  1  0  0  0  0  0  0  0  0  0
   -0.4352   -0.8731    1.1373 H   0  0  0  0  0  0  0  0  0  0  0  0
   -0.2492   -0.7624   -0.9901 C   0  0  0  0  0  0  0  0  0  0  0  0
    0.7893   -0.9207   -0.6828 H   0  0  0  0  0  0  0  0  0  0  0  0
   -0.5909   -1.7195   -1.3982 H   0  0  0  0  0  0  0  0  0  0  0  0
   -0.1830    0.2518   -2.1306 C   0  0  0  0  0  0  0  0  0  0  0  0
   -0.0375   -0.2677   -3.4306 C   0  0  0  0  0  0  0  0  0  0  0  0
   -0.0537   -1.3422   -3.5893 H   0  0  0  0  0  0  0  0  0  0  0  0
    0.1109    0.5694   -4.5421 C   0  0  0  0  0  0  0  0  0  0  0  0
    0.1955    0.1331   -5.5312 H   0  0  0  0  0  0  0  0  0  0  0  0
    0.1562    1.9516   -4.3749 C   0  0  0  0  0  0  0  0  0  0  0  0
    0.2997    2.7805   -5.4498 O   0  0  0  0  0  0  0  0  0  0  0  0
    0.3068    2.2627   -6.2692 H   0  0  0  0  0  0  0  0  0  0  0  0
    0.0766    2.4854   -3.0936 C   0  0  0  0  0  0  0  0  0  0  0  0
    0.1392    3.5612   -2.9658 H   0  0  0  0  0  0  0  0  0  0  0  0
   -0.0691    1.6501   -1.9802 C   0  0  0  0  0  0  0  0  0  0  0  0
   -0.0667    2.1361   -1.0143 H   0  0  0  0  0  0  0  0  0  0  0  0
   -1.3817    0.9588    0.7080 C   0  0  0  0  0  0  0  0  0  0  0  0
   -2.4118    1.4885    0.3060 O   0  0  0  0  0  0  0  0  0  0  0  0
   -0.6081    1.6227    1.6436 N   0  0  0  0  0  0  0  0  0  0  0  0
    0.1923    1.1298    2.0296 H   0  0  0  0  0  0  0  0  0  0  0  0
   -0.9277    2.9529    2.1478 C   0  0  0  0  0  0  0  0  0  0  0  0
   -1.8992    2.9483    2.6534 H   0  0  0  0  0  0  0  0  0  0  0  0
   -0.1673    3.2790    2.8638 H   0  0  0  0  0  0  0  0  0  0  0  0
   -0.9611    3.6763    1.3262 H   0  0  0  0  0  0  0  0  0  0  0  0
  1  2  1  0  0  0  0
  2  3  1  0  0  0  0
  2  4  1  0  0  0  0
  2  5  1  0  0  0  0
  5  6  2  0  0  0  0
  5  7  1  0  0  0  0
  7  8  1  0  0  0  0
  7  9  1  0  0  0  0
  9 10  1  0  0  0  0
  9 11  1  0  0  0  0
  9 26  1  0  0  0  0
 11 12  1  0  0  0  0
 11 13  1  0  0  0  0
 11 14  1  0  0  0  0
 14 15  2  0  0  0  0
 14 24  1  0  0  0  0
 15 16  1  0  0  0  0
 15 17  1  0  0  0  0
 17 18  1  0  0  0  0
 17 19  2  0  0  0  0
 19 20  1  0  0  0  0
 19 22  1  0  0  0  0
 20 21  1  0  0  0  0
 22 23  1  0  0  0  0
 22 24  2  0  0  0  0
 24 25  1  0  0  0  0
 26 27  2  0  0  0  0
 26 28  1  0  0  0  0
 28 29  1  0  0  0  0
 28 30  1  0  0  0  0
 30 31  1  0  0  0  0
 30 32  1  0  0  0  0
 30 33  1  0  0  0  0
M  END
$$$$

  -OEChem-04042216043D

 33 33  0     1  0  0  0  0  0999 V2000
   -3.8096   -4.1229    1.4050 H   0  0  0  0  0  0  0  0  0  0  0  0
   -3.8332   -3.1715    0.8665 C   0  0  0  0  0  0  0  0  0  0  0  0
   -4.5462   -2.5059    1.3587 H   0  0  0  0  0  0  0  0  0  0  0  0
   -4.1636   -3.3540   -0.1589 H   0  0  0  0  0  0  0  0  0  0  0  0
   -2.4545   -2.5388    0.8599 C   0  0  0  0  0  0  0  0  0  0  0  0
   -1.5116   -3.1184    1.3759 O   0  0  0  0  0  0  0  0  0  0  0  0
   -2.2705   -1.3084    0.2655 N   0  0  0  0  0  0  0  0  0  0  0  0
   -3.0994   -0.8204   -0.0727 H   0  0  0  0  0  0  0  0  0  0  0  0
   -1.0233   -0.5297    0.3055 C   0  0  1  0  0  0  0  0  0  0  0  0
   -0.4234   -0.8847    1.1496 H   0  0  0  0  0  0  0  0  0  0  0  0
   -0.2083   -0.8325   -0.9833 C   0  0  0  0  0  0  0  0  0  0  0  0
    0.8285   -0.9949   -0.6725 H   0  0  0  0  0  0  0  0  0  0  0  0
   -0.5517   -1.7873   -1.3956 H   0  0  0  0  0  0  0  0  0  0  0  0
   -0.1583    0.2054   -2.0958 C   0  0  0  0  0  0  0  0  0  0  0  0
   -0.3427   -0.2251   -3.4215 C   0  0  0  0  0  0  0  0  0  0  0  0
   -0.6043   -1.2592   -3.6258 H   0  0  0  0  0  0  0  0  0  0  0  0
   -0.2138    0.6623   -4.4964 C   0  0  0  0  0  0  0  0  0  0  0  0
   -0.3865    0.3058   -5.5059 H   0  0  0  0  0  0  0  0  0  0  0  0
    0.1419    1.9912   -4.2686 C   0  0  0  0  0  0  0  0  0  0  0  0
    0.2716    2.8664   -5.3080 O   0  0  0  0  0  0  0  0  0  0  0  0
    0.0355    2.4290   -6.1402 H   0  0  0  0  0  0  0  0  0  0  0  0
    0.3894    2.4196   -2.9681 C   0  0  0  0  0  0  0  0  0  0  0  0
    0.6924    3.4478   -2.8000 H   0  0  0  0  0  0  0  0  0  0  0  0
    0.2631    1.5339   -1.8924 C   0  0  0  0  0  0  0  0  0  0  0  0
    0.5170    1.9006   -0.9049 H   0  0  0  0  0  0  0  0  0  0  0  0
   -1.3529    0.9433    0.6201 C   0  0  0  0  0  0  0  0  0  0  0  0
   -2.3706    1.4583    0.1697 O   0  0  0  0  0  0  0  0  0  0  0  0
   -0.6042    1.6412    1.5516 N   0  0  0  0  0  0  0  0  0  0  0  0
    0.1723    1.1561    1.9921 H   0  0  0  0  0  0  0  0  0  0  0  0
   -0.9365    2.9897    1.9953 C   0  0  0  0  0  0  0  0  0  0  0  0
   -1.9167    3.0017    2.4835 H   0  0  0  0  0  0  0  0  0  0  0  0
   -0.1895    3.3476    2.7102 H   0  0  0  0  0  0  0  0  0  0  0  0
   -0.9582    3.6785    1.1441 H   0  0  0  0  0  0  0  0  0  0  0  0
  1  2  1  0  0  0  0
  2  3  1  0  0  0  0
  2  4  1  0  0  0  0
  2  5  1  0  0  0  0
  5  6  2  0  0  0  0
  5  7  1  0  0  0  0
  7  8  1  0  0  0  0
  7  9  1  0  0  0  0
  9 10  1  0  0  0  0
  9 11  1  0  0  0  0
  9 26  1  0  0  0  0
 11 12  1  0  0  0  0
 11 13  1  0  0  0  0
 11 14  1  0  0  0  0
 14 15  2  0  0  0  0
 14 24  1  0  0  0  0
 15 16  1  0  0  0  0
 15 17  1  0  0  0  0
 17 18  1  0  0  0  0
 17 19  2  0  0  0  0
 19 20  1  0  0  0  0
 19 22  1  0  0  0  0
 20 21  1  0  0  0  0
 22 23  1  0  0  0  0
 22 24  2  0  0  0  0
 24 25  1  0  0  0  0
 26 27  2  0  0  0  0
 26 28  1  0  0  0  0
 28 29  1  0  0  0  0
 28 30  1  0  0  0  0
 30 31  1  0  0  0  0
 30 32  1  0  0  0  0
 30 33  1  0  0  0  0
M  END
$$$$

  -OEChem-04042216043D

 33 33  0     1  0  0  0  0  0999 V2000
   -3.8582   -4.0770    1.4626 H   0  0  0  0  0  0  0  0  0  0  0  0
   -3.8593   -3.1501    0.8823 C   0  0  0  0  0  0  0  0  0  0  0  0
   -4.5728   -2.4548    1.3312 H   0  0  0  0  0  0  0  0  0  0  0  0
   -4.1731   -3.3740   -0.1400 H   0  0  0  0  0  0  0  0  0  0  0  0
   -2.4721   -2.5355    0.8742 C   0  0  0  0  0  0  0  0  0  0  0  0
   -1.5451   -3.1099    1.4236 O   0  0  0  0  0  0  0  0  0  0  0  0
   -2.2622   -1.3274    0.2431 N   0  0  0  0  0  0  0  0  0  0  0  0
   -3.0807   -0.8366   -0.1158 H   0  0  0  0  0  0  0  0  0  0  0  0
   -1.0080   -0.5601    0.2890 C   0  0  1  0  0  0  0  0  0  0  0  0
   -0.4304   -0.8985    1.1552 H   0  0  0  0  0  0  0  0  0  0  0  0
   -0.1652   -0.8871   -0.9718 C   0  0  0  0  0  0  0  0  0  0  0  0
    0.8666   -1.0493   -0.6442 H   0  0  0  0  0  0  0  0  0  0  0  0
   -0.5026   -1.8401   -1.3927 H   0  0  0  0  0  0  0  0  0  0  0  0
   -0.1192    0.1665   -2.0625 C   0  0  0  0  0  0  0  0  0  0  0  0
   -0.5891   -0.1457   -3.3482 C   0  0  0  0  0  0  0  0  0  0  0  0
   -1.0478   -1.1113   -3.5392 H   0  0  0  0  0  0  0  0  0  0  0  0
   -0.4876    0.7810   -4.3928 C   0  0  0  0  0  0  0  0  0  0  0  0
   -0.8725    0.5231   -5.3731 H   0  0  0  0  0  0  0  0  0  0  0  0
    0.1097    2.0231   -4.1733 C   0  0  0  0  0  0  0  0  0  0  0  0
    0.2134    2.9345   -5.1842 O   0  0  0  0  0  0  0  0  0  0  0  0
   -0.2312    2.5996   -5.9778 H   0  0  0  0  0  0  0  0  0  0  0  0
    0.6164    2.3284   -2.9128 C   0  0  0  0  0  0  0  0  0  0  0  0
    1.0927    3.2901   -2.7533 H   0  0  0  0  0  0  0  0  0  0  0  0
    0.5176    1.4049   -1.8668 C   0  0  0  0  0  0  0  0  0  0  0  0
    0.9455    1.6607   -0.9031 H   0  0  0  0  0  0  0  0  0  0  0  0
   -1.3166    0.9300    0.5457 C   0  0  0  0  0  0  0  0  0  0  0  0
   -2.3229    1.4418    0.0666 O   0  0  0  0  0  0  0  0  0  0  0  0
   -0.5767    1.6459    1.4706 N   0  0  0  0  0  0  0  0  0  0  0  0
    0.1888    1.1670    1.9362 H   0  0  0  0  0  0  0  0  0  0  0  0
   -0.8953    3.0141    1.8611 C   0  0  0  0  0  0  0  0  0  0  0  0
   -1.8977    3.0640    2.2993 H   0  0  0  0  0  0  0  0  0  0  0  0
   -0.1755    3.3735    2.6026 H   0  0  0  0  0  0  0  0  0  0  0  0
   -0.8571    3.6788    0.9915 H   0  0  0  0  0  0  0  0  0  0  0  0
  1  2  1  0  0  0  0
  2  3  1  0  0  0  0
  2  4  1  0  0  0  0
  2  5  1  0  0  0  0
  5  6  2  0  0  0  0
  5  7  1  0  0  0  0
  7  8  1  0  0  0  0
  7  9  1  0  0  0  0
  9 10  1  0  0  0  0
  9 11  1  0  0  0  0
  9 26  1  0  0  0  0
 11 12  1  0  0  0  0
 11 13  1  0  0  0  0
 11 14  1  0  0  0  0
 14 15  2  0  0  0  0
 14 24  1  0  0  0  0
 15 16  1  0  0  0  0
 15 17  1  0  0  0  0
 17 18  1  0  0  0  0
 17 19  2  0  0  0  0
 19 20  1  0  0  0  0
 19 22  1  0  0  0  0
 20 21  1  0  0  0  0
 22 23  1  0  0  0  0
 22 24  2  0  0  0  0
 24 25  1  0  0  0  0
 26 27  2  0  0  0  0
 26 28  1  0  0  0  0
 28 29  1  0  0  0  0
 28 30  1  0  0  0  0
 30 31  1  0  0  0  0
 30 32  1  0  0  0  0
 30 33  1  0  0  0  0
M  END
$$$$

  -OEChem-04042216043D

 33 33  0     1  0  0  0  0  0999 V2000
   -3.8988   -4.0416    1.4841 H   0  0  0  0  0  0  0  0  0  0  0  0
   -3.8819   -3.1259    0.8863 C   0  0  0  0  0  0  0  0  0  0  0  0
   -4.5882   -2.4119    1.3169 H   0  0  0  0  0  0  0  0  0  0  0  0
   -4.1920   -3.3643   -0.1339 H   0  0  0  0  0  0  0  0  0  0  0  0
   -2.4857   -2.5325    0.8766 C   0  0  0  0  0  0  0  0  0  0  0  0
   -1.5727   -3.1065    1.4494 O   0  0  0  0  0  0  0  0  0  0  0  0
   -2.2535   -1.3429    0.2193 N   0  0  0  0  0  0  0  0  0  0  0  0
   -3.0631   -0.8472   -0.1524 H   0  0  0  0  0  0  0  0  0  0  0  0
   -0.9940   -0.5859    0.2734 C   0  0  1  0  0  0  0  0  0  0  0  0
   -0.4362   -0.9097    1.1580 H   0  0  0  0  0  0  0  0  0  0  0  0
   -0.1250   -0.9326   -0.9604 C   0  0  0  0  0  0  0  0  0  0  0  0
    0.8998   -1.1001   -0.6140 H   0  0  0  0  0  0  0  0  0  0  0  0
   -0.4607   -1.8818   -1.3915 H   0  0  0  0  0  0  0  0  0  0  0  0
   -0.0760    0.1300   -2.0371 C   0  0  0  0  0  0  0  0  0  0  0  0
   -0.7970   -0.0413   -3.2280 C   0  0  0  0  0  0  0  0  0  0  0  0
   -1.4230   -0.9185   -3.3622 H   0  0  0  0  0  0  0  0  0  0  0  0
   -0.7291    0.9186   -4.2449 C   0  0  0  0  0  0  0  0  0  0  0  0
   -1.3034    0.7738   -5.1532 H   0  0  0  0  0  0  0  0  0  0  0  0
    0.0719    2.0516   -4.0882 C   0  0  0  0  0  0  0  0  0  0  0  0
    0.1430    2.9947   -5.0725 O   0  0  0  0  0  0  0  0  0  0  0  0
   -0.4690    2.7700   -5.7899 H   0  0  0  0  0  0  0  0  0  0  0  0
    0.8095    2.2178   -2.9180 C   0  0  0  0  0  0  0  0  0  0  0  0
    1.4337    3.0982   -2.8081 H   0  0  0  0  0  0  0  0  0  0  0  0
    0.7440    1.2622   -1.8985 C   0  0  0  0  0  0  0  0  0  0  0  0
    1.3320    1.4078   -0.9977 H   0  0  0  0  0  0  0  0  0  0  0  0
   -1.2859    0.9154    0.4857 C   0  0  0  0  0  0  0  0  0  0  0  0
   -2.2843    1.4236   -0.0143 O   0  0  0  0  0  0  0  0  0  0  0  0
   -0.5539    1.6429    1.4073 N   0  0  0  0  0  0  0  0  0  0  0  0
    0.2053    1.1691    1.8878 H   0  0  0  0  0  0  0  0  0  0  0  0
   -0.8503    3.0287    1.7488 C   0  0  0  0  0  0  0  0  0  0  0  0
   -1.8603    3.1142    2.1637 H   0  0  0  0  0  0  0  0  0  0  0  0
   -0.1381    3.3949    2.4944 H   0  0  0  0  0  0  0  0  0  0  0  0
   -0.7785    3.6649    0.8602 H   0  0  0  0  0  0  0  0  0  0  0  0
  1  2  1  0  0  0  0
  2  3  1  0  0  0  0
  2  4  1  0  0  0  0
  2  5  1  0  0  0  0
  5  6  2  0  0  0  0
  5  7  1  0  0  0  0
  7  8  1  0  0  0  0
  7  9  1  0  0  0  0
  9 10  1  0  0  0  0
  9 11  1  0  0  0  0
  9 26  1  0  0  0  0
 11 12  1  0  0  0  0
 11 13  1  0  0  0  0
 11 14  1  0  0  0  0
 14 15  2  0  0  0  0
 14 24  1  0  0  0  0
 15 16  1  0  0  0  0
 15 17  1  0  0  0  0
 17 18  1  0  0  0  0
 17 19  2  0  0  0  0
 19 20  1  0  0  0  0
 19 22  1  0  0  0  0
 20 21  1  0  0  0  0
 22 23  1  0  0  0  0
 22 24  2  0  0  0  0
 24 25  1  0  0  0  0
 26 27  2  0  0  0  0
 26 28  1  0  0  0  0
 28 29  1  0  0  0  0
 28 30  1  0  0  0  0
 30 31  1  0  0  0  0
 30 32  1  0  0  0  0
 30 33  1  0  0  0  0
M  END
$$$$

  -OEChem-04042216043D

 33 33  0     1  0  0  0  0  0999 V2000
   -3.9210   -4.0203    1.4984 H   0  0  0  0  0  0  0  0  0  0  0  0
   -3.8967   -3.1093    0.8939 C   0  0  0  0  0  0  0  0  0  0  0  0
   -4.5933   -2.3840    1.3215 H   0  0  0  0  0  0  0  0  0  0  0  0
   -4.2129   -3.3520   -0.1234 H   0  0  0  0  0  0  0  0  0  0  0  0
   -2.4944   -2.5310    0.8753 C   0  0  0  0  0  0  0  0  0  0  0  0
   -1.5878   -3.1055    1.4579 O   0  0  0  0  0  0  0  0  0  0  0  0
   -2.2502   -1.3530    0.2016 N   0  0  0  0  0  0  0  0  0  0  0  0
   -3.0565   -0.8496   -0.1668 H   0  0  0  0  0  0  0  0  0  0  0  0
   -0.9863   -0.6036    0.2595 C   0  0  1  0  0  0  0  0  0  0  0  0
   -0.4425   -0.9193    1.1556 H   0  0  0  0  0  0  0  0  0  0  0  0
   -0.1000   -0.9620   -0.9569 C   0  0  0  0  0  0  0  0  0  0  0  0
    0.9186   -1.1397   -0.5977 H   0  0  0  0  0  0  0  0  0  0  0  0
   -0.4386   -1.9056   -1.3976 H   0  0  0  0  0  0  0  0  0  0  0  0
   -0.0464    0.1048   -2.0265 C   0  0  0  0  0  0  0  0  0  0  0  0
   -0.9782    0.1017   -3.0741 C   0  0  0  0  0  0  0  0  0  0  0  0
   -1.7516   -0.6597   -3.1081 H   0  0  0  0  0  0  0  0  0  0  0  0
   -0.9284    1.0840   -4.0701 C   0  0  0  0  0  0  0  0  0  0  0  0
   -1.6622    1.0707   -4.8682 H   0  0  0  0  0  0  0  0  0  0  0  0
    0.0564    2.0735   -4.0312 C   0  0  0  0  0  0  0  0  0  0  0  0
    0.1107    3.0382   -4.9954 O   0  0  0  0  0  0  0  0  0  0  0  0
   -0.6402    2.9414   -5.6010 H   0  0  0  0  0  0  0  0  0  0  0  0
    0.9920    2.0759   -2.9982 C   0  0  0  0  0  0  0  0  0  0  0  0
    1.7545    2.8474   -2.9786 H   0  0  0  0  0  0  0  0  0  0  0  0
    0.9455    1.0979   -1.9990 C   0  0  0  0  0  0  0  0  0  0  0  0
    1.6825    1.1165   -1.2021 H   0  0  0  0  0  0  0  0  0  0  0  0
   -1.2669    0.9040    0.4460 C   0  0  0  0  0  0  0  0  0  0  0  0
   -2.2667    1.4066   -0.0583 O   0  0  0  0  0  0  0  0  0  0  0  0
   -0.5394    1.6393    1.3646 N   0  0  0  0  0  0  0  0  0  0  0  0
    0.2345    1.1779    1.8333 H   0  0  0  0  0  0  0  0  0  0  0  0
   -0.8264    3.0333    1.6794 C   0  0  0  0  0  0  0  0  0  0  0  0
   -1.8363    3.1334    2.0907 H   0  0  0  0  0  0  0  0  0  0  0  0
   -0.1132    3.4085    2.4194 H   0  0  0  0  0  0  0  0  0  0  0  0
   -0.7492    3.6522    0.7793 H   0  0  0  0  0  0  0  0  0  0  0  0
  1  2  1  0  0  0  0
  2  3  1  0  0  0  0
  2  4  1  0  0  0  0
  2  5  1  0  0  0  0
  5  6  2  0  0  0  0
  5  7  1  0  0  0  0
  7  8  1  0  0  0  0
  7  9  1  0  0  0  0
  9 10  1  0  0  0  0
  9 11  1  0  0  0  0
  9 26  1  0  0  0  0
 11 12  1  0  0  0  0
 11 13  1  0  0  0  0
 11 14  1  0  0  0  0
 14 15  2  0  0  0  0
 14 24  1  0  0  0  0
 15 16  1  0  0  0  0
 15 17  1  0  0  0  0
 17 18  1  0  0  0  0
 17 19  2  0  0  0  0
 19 20  1  0  0  0  0
 19 22  1  0  0  0  0
 20 21  1  0  0  0  0
 22 23  1  0  0  0  0
 22 24  2  0  0  0  0
 24 25  1  0  0  0  0
 26 27  2  0  0  0  0
 26 28  1  0  0  0  0
 28 29  1  0  0  0  0
 28 30  1  0  0  0  0
 30 31  1  0  0  0  0
 30 32  1  0  0  0  0
 30 33  1  0  0  0  0
M  END
$$$$

  -OEChem-04042216043D

 33 33  0     1  0  0  0  0  0999 V2000
   -3.9242   -4.0215    1.5002 H   0  0  0  0  0  0  0  0  0  0  0  0
   -3.9018   -3.1091    0.8977 C   0  0  0  0  0  0  0  0  0  0  0  0
   -4.5959   -2.3843    1.3303 H   0  0  0  0  0  0  0  0  0  0  0  0
   -4.2232   -3.3493   -0.1186 H   0  0  0  0  0  0  0  0  0  0  0  0
   -2.4988   -2.5322    0.8737 C   0  0  0  0  0  0  0  0  0  0  0  0
   -1.5905   -3.1091    1.4512 O   0  0  0  0  0  0  0  0  0  0  0  0
   -2.2551   -1.3550    0.1980 N   0  0  0  0  0  0  0  0  0  0  0  0
   -3.0639   -0.8480   -0.1596 H   0  0  0  0  0  0  0  0  0  0  0  0
   -0.9907   -0.6052    0.2545 C   0  0  1  0  0  0  0  0  0  0  0  0
   -0.4507   -0.9185    1.1540 H   0  0  0  0  0  0  0  0  0  0  0  0
   -0.0946   -0.9670   -0.9533 C   0  0  0  0  0  0  0  0  0  0  0  0
    0.9191   -1.1481   -0.5822 H   0  0  0  0  0  0  0  0  0  0  0  0
   -0.4340   -1.9091   -1.3967 H   0  0  0  0  0  0  0  0  0  0  0  0
   -0.0344    0.0935   -2.0291 C   0  0  0  0  0  0  0  0  0  0  0  0
   -1.1173    0.2816   -2.9001 C   0  0  0  0  0  0  0  0  0  0  0  0
   -2.0064   -0.3337   -2.7981 H   0  0  0  0  0  0  0  0  0  0  0  0
   -1.0696    1.2730   -3.8871 C   0  0  0  0  0  0  0  0  0  0  0  0
   -1.9215    1.4105   -4.5437 H   0  0  0  0  0  0  0  0  0  0  0  0
    0.0621    2.0810   -4.0162 C   0  0  0  0  0  0  0  0  0  0  0  0
    0.1161    3.0542   -4.9714 O   0  0  0  0  0  0  0  0  0  0  0  0
   -0.7310    3.1021   -5.4407 H   0  0  0  0  0  0  0  0  0  0  0  0
    1.1446    1.8937   -3.1592 C   0  0  0  0  0  0  0  0  0  0  0  0
    2.0196    2.5258   -3.2684 H   0  0  0  0  0  0  0  0  0  0  0  0
    1.1009    0.9070   -2.1683 C   0  0  0  0  0  0  0  0  0  0  0  0
    1.9539    0.7804   -1.5084 H   0  0  0  0  0  0  0  0  0  0  0  0
   -1.2639    0.9043    0.4387 C   0  0  0  0  0  0  0  0  0  0  0  0
   -2.2708    1.4057   -0.0531 O   0  0  0  0  0  0  0  0  0  0  0  0
   -0.5329    1.6390    1.3547 N   0  0  0  0  0  0  0  0  0  0  0  0
    0.2585    1.1849    1.8005 H   0  0  0  0  0  0  0  0  0  0  0  0
   -0.8113    3.0361    1.6635 C   0  0  0  0  0  0  0  0  0  0  0  0
   -1.8227    3.1447    2.0691 H   0  0  0  0  0  0  0  0  0  0  0  0
   -0.0994    3.4084    2.4064 H   0  0  0  0  0  0  0  0  0  0  0  0
   -0.7249    3.6517    0.7618 H   0  0  0  0  0  0  0  0  0  0  0  0
  1  2  1  0  0  0  0
  2  3  1  0  0  0  0
  2  4  1  0  0  0  0
  2  5  1  0  0  0  0
  5  6  2  0  0  0  0
  5  7  1  0  0  0  0
  7  8  1  0  0  0  0
  7  9  1  0  0  0  0
  9 10  1  0  0  0  0
  9 11  1  0  0  0  0
  9 26  1  0  0  0  0
 11 12  1  0  0  0  0
 11 13  1  0  0  0  0
 11 14  1  0  0  0  0
 14 15  2  0  0  0  0
 14 24  1  0  0  0  0
 15 16  1  0  0  0  0
 15 17  1  0  0  0  0
 17 18  1  0  0  0  0
 17 19  2  0  0  0  0
 19 20  1  0  0  0  0
 19 22  1  0  0  0  0
 20 21  1  0  0  0  0
 22 23  1  0  0  0  0
 22 24  2  0  0  0  0
 24 25  1  0  0  0  0
 26 27  2  0  0  0  0
 26 28  1  0  0  0  0
 28 29  1  0  0  0  0
 28 30  1  0  0  0  0
 30 31  1  0  0  0  0
 30 32  1  0  0  0  0
 30 33  1  0  0  0  0
M  END
$$$$

  -OEChem-04042216043D

 33 33  0     1  0  0  0  0  0999 V2000
   -3.8977   -4.0384    1.5084 H   0  0  0  0  0  0  0  0  0  0  0  0
   -3.8910   -3.1242    0.9083 C   0  0  0  0  0  0  0  0  0  0  0  0
   -4.5850   -2.4065    1.3527 H   0  0  0  0  0  0  0  0  0  0  0  0
   -4.2246   -3.3644   -0.1041 H   0  0  0  0  0  0  0  0  0  0  0  0
   -2.4931   -2.5358    0.8663 C   0  0  0  0  0  0  0  0  0  0  0  0
   -1.5693   -3.1146    1.4167 O   0  0  0  0  0  0  0  0  0  0  0  0
   -2.2724   -1.3450    0.2062 N   0  0  0  0  0  0  0  0  0  0  0  0
   -3.0934   -0.8383   -0.1217 H   0  0  0  0  0  0  0  0  0  0  0  0
   -1.0135   -0.5851    0.2544 C   0  0  1  0  0  0  0  0  0  0  0  0
   -0.4691   -0.9054    1.1485 H   0  0  0  0  0  0  0  0  0  0  0  0
   -0.1102   -0.9378   -0.9523 C   0  0  0  0  0  0  0  0  0  0  0  0
    0.9008   -1.1114   -0.5707 H   0  0  0  0  0  0  0  0  0  0  0  0
   -0.4415   -1.8845   -1.3917 H   0  0  0  0  0  0  0  0  0  0  0  0
   -0.0421    0.1060   -2.0475 C   0  0  0  0  0  0  0  0  0  0  0  0
   -1.1987    0.5048   -2.7351 C   0  0  0  0  0  0  0  0  0  0  0  0
   -2.1586    0.0650   -2.4807 H   0  0  0  0  0  0  0  0  0  0  0  0
   -1.1326    1.4825   -3.7340 C   0  0  0  0  0  0  0  0  0  0  0  0
   -2.0416    1.7830   -4.2429 H   0  0  0  0  0  0  0  0  0  0  0  0
    0.0912    2.0683   -4.0619 C   0  0  0  0  0  0  0  0  0  0  0  0
    0.1650    3.0268   -5.0306 O   0  0  0  0  0  0  0  0  0  0  0  0
   -0.7233    3.2252   -5.3649 H   0  0  0  0  0  0  0  0  0  0  0  0
    1.2463    1.6720   -3.3911 C   0  0  0  0  0  0  0  0  0  0  0  0
    2.1932    2.1320   -3.6539 H   0  0  0  0  0  0  0  0  0  0  0  0
    1.1845    0.6973   -2.3891 C   0  0  0  0  0  0  0  0  0  0  0  0
    2.0978    0.4065   -1.8792 H   0  0  0  0  0  0  0  0  0  0  0  0
   -1.2817    0.9213    0.4688 C   0  0  0  0  0  0  0  0  0  0  0  0
   -2.3092    1.4256    0.0248 O   0  0  0  0  0  0  0  0  0  0  0  0
   -0.5323    1.6386    1.3838 N   0  0  0  0  0  0  0  0  0  0  0  0
    0.2794    1.1825    1.7897 H   0  0  0  0  0  0  0  0  0  0  0  0
   -0.8060    3.0282    1.7283 C   0  0  0  0  0  0  0  0  0  0  0  0
   -1.8144    3.1289    2.1431 H   0  0  0  0  0  0  0  0  0  0  0  0
   -0.0889    3.3808    2.4757 H   0  0  0  0  0  0  0  0  0  0  0  0
   -0.7236    3.6652    0.8413 H   0  0  0  0  0  0  0  0  0  0  0  0
  1  2  1  0  0  0  0
  2  3  1  0  0  0  0
  2  4  1  0  0  0  0
  2  5  1  0  0  0  0
  5  6  2  0  0  0  0
  5  7  1  0  0  0  0
  7  8  1  0  0  0  0
  7  9  1  0  0  0  0
  9 10  1  0  0  0  0
  9 11  1  0  0  0  0
  9 26  1  0  0  0  0
 11 12  1  0  0  0  0
 11 13  1  0  0  0  0
 11 14  1  0  0  0  0
 14 15  2  0  0  0  0
 14 24  1  0  0  0  0
 15 16  1  0  0  0  0
 15 17  1  0  0  0  0
 17 18  1  0  0  0  0
 17 19  2  0  0  0  0
 19 20  1  0  0  0  0
 19 22  1  0  0  0  0
 20 21  1  0  0  0  0
 22 23  1  0  0  0  0
 22 24  2  0  0  0  0
 24 25  1  0  0  0  0
 26 27  2  0  0  0  0
 26 28  1  0  0  0  0
 28 29  1  0  0  0  0
 28 30  1  0  0  0  0
 30 31  1  0  0  0  0
 30 32  1  0  0  0  0
 30 33  1  0  0  0  0
M  END
$$$$

  -OEChem-04042216043D

 33 33  0     1  0  0  0  0  0999 V2000
   -3.8348   -4.0896    1.4831 H   0  0  0  0  0  0  0  0  0  0  0  0
   -3.8630   -3.1568    0.9127 C   0  0  0  0  0  0  0  0  0  0  0  0
   -4.5590   -2.4684    1.3981 H   0  0  0  0  0  0  0  0  0  0  0  0
   -4.2187   -3.3722   -0.0978 H   0  0  0  0  0  0  0  0  0  0  0  0
   -2.4794   -2.5373    0.8534 C   0  0  0  0  0  0  0  0  0  0  0  0
   -1.5292   -3.1153    1.3580 O   0  0  0  0  0  0  0  0  0  0  0  0
   -2.3010   -1.3215    0.2262 N   0  0  0  0  0  0  0  0  0  0  0  0
   -3.1406   -0.8259   -0.0694 H   0  0  0  0  0  0  0  0  0  0  0  0
   -1.0548   -0.5397    0.2578 C   0  0  1  0  0  0  0  0  0  0  0  0
   -0.5008   -0.8739    1.1411 H   0  0  0  0  0  0  0  0  0  0  0  0
   -0.1458   -0.8807   -0.9498 C   0  0  0  0  0  0  0  0  0  0  0  0
    0.8654   -1.0288   -0.5579 H   0  0  0  0  0  0  0  0  0  0  0  0
   -0.4575   -1.8415   -1.3721 H   0  0  0  0  0  0  0  0  0  0  0  0
   -0.0724    0.1304   -2.0788 C   0  0  0  0  0  0  0  0  0  0  0  0
   -1.2202    0.7468   -2.6037 C   0  0  0  0  0  0  0  0  0  0  0  0
   -2.2032    0.4904   -2.2200 H   0  0  0  0  0  0  0  0  0  0  0  0
   -1.1185    1.6956   -3.6271 C   0  0  0  0  0  0  0  0  0  0  0  0
   -2.0201    2.1628   -4.0075 H   0  0  0  0  0  0  0  0  0  0  0  0
    0.1305    2.0358   -4.1473 C   0  0  0  0  0  0  0  0  0  0  0  0
    0.2402    2.9627   -5.1428 O   0  0  0  0  0  0  0  0  0  0  0  0
   -0.6356    3.3174   -5.3602 H   0  0  0  0  0  0  0  0  0  0  0  0
    1.2746    1.4215   -3.6444 C   0  0  0  0  0  0  0  0  0  0  0  0
    2.2418    1.6875   -4.0575 H   0  0  0  0  0  0  0  0  0  0  0  0
    1.1778    0.4760   -2.6178 C   0  0  0  0  0  0  0  0  0  0  0  0
    2.0855    0.0133   -2.2419 H   0  0  0  0  0  0  0  0  0  0  0  0
   -1.3109    0.9597    0.5287 C   0  0  0  0  0  0  0  0  0  0  0  0
   -2.3630    1.4745    0.1611 O   0  0  0  0  0  0  0  0  0  0  0  0
   -0.5250    1.6449    1.4380 N   0  0  0  0  0  0  0  0  0  0  0  0
    0.3126    1.1823    1.7789 H   0  0  0  0  0  0  0  0  0  0  0  0
   -0.7928    3.0151    1.8580 C   0  0  0  0  0  0  0  0  0  0  0  0
   -1.7764    3.0856    2.3344 H   0  0  0  0  0  0  0  0  0  0  0  0
   -0.0375    3.3443    2.5779 H   0  0  0  0  0  0  0  0  0  0  0  0
   -0.7680    3.6911    0.9968 H   0  0  0  0  0  0  0  0  0  0  0  0
  1  2  1  0  0  0  0
  2  3  1  0  0  0  0
  2  4  1  0  0  0  0
  2  5  1  0  0  0  0
  5  6  2  0  0  0  0
  5  7  1  0  0  0  0
  7  8  1  0  0  0  0
  7  9  1  0  0  0  0
  9 10  1  0  0  0  0
  9 11  1  0  0  0  0
  9 26  1  0  0  0  0
 11 12  1  0  0  0  0
 11 13  1  0  0  0  0
 11 14  1  0  0  0  0
 14 15  2  0  0  0  0
 14 24  1  0  0  0  0
 15 16  1  0  0  0  0
 15 17  1  0  0  0  0
 17 18  1  0  0  0  0
 17 19  2  0  0  0  0
 19 20  1  0  0  0  0
 19 22  1  0  0  0  0
 20 21  1  0  0  0  0
 22 23  1  0  0  0  0
 22 24  2  0  0  0  0
 24 25  1  0  0  0  0
 26 27  2  0  0  0  0
 26 28  1  0  0  0  0
 28 29  1  0  0  0  0
 28 30  1  0  0  0  0
 30 31  1  0  0  0  0
 30 32  1  0  0  0  0
 30 33  1  0  0  0  0
M  END
$$$$

  -OEChem-04042216043D

 33 33  0     1  0  0  0  0  0999 V2000
   -3.7521   -4.1492    1.4526 H   0  0  0  0  0  0  0  0  0  0  0  0
   -3.8231   -3.1978    0.9181 C   0  0  0  0  0  0  0  0  0  0  0  0
   -4.5223   -2.5473    1.4491 H   0  0  0  0  0  0  0  0  0  0  0  0
   -4.2039   -3.3863   -0.0885 H   0  0  0  0  0  0  0  0  0  0  0  0
   -2.4588   -2.5390    0.8398 C   0  0  0  0  0  0  0  0  0  0  0  0
   -1.4782   -3.1120    1.2887 O   0  0  0  0  0  0  0  0  0  0  0  0
   -2.3308   -1.2955    0.2554 N   0  0  0  0  0  0  0  0  0  0  0  0
   -3.1907   -0.8137   -0.0015 H   0  0  0  0  0  0  0  0  0  0  0  0
   -1.1006   -0.4883    0.2616 C   0  0  1  0  0  0  0  0  0  0  0  0
   -0.5276   -0.8389    1.1263 H   0  0  0  0  0  0  0  0  0  0  0  0
   -0.1935   -0.8121   -0.9540 C   0  0  0  0  0  0  0  0  0  0  0  0
    0.8221   -0.9288   -0.5619 H   0  0  0  0  0  0  0  0  0  0  0  0
   -0.4832   -1.7888   -1.3551 H   0  0  0  0  0  0  0  0  0  0  0  0
   -0.1209    0.1627   -2.1182 C   0  0  0  0  0  0  0  0  0  0  0  0
   -1.1850    0.9955   -2.5065 C   0  0  0  0  0  0  0  0  0  0  0  0
   -2.1526    0.9262   -2.0223 H   0  0  0  0  0  0  0  0  0  0  0  0
   -1.0371    1.9075   -3.5577 C   0  0  0  0  0  0  0  0  0  0  0  0
   -1.8761    2.5367   -3.8340 H   0  0  0  0  0  0  0  0  0  0  0  0
    0.1739    2.0000   -4.2433 C   0  0  0  0  0  0  0  0  0  0  0  0
    0.3279    2.8881   -5.2681 O   0  0  0  0  0  0  0  0  0  0  0  0
   -0.4889    3.3966   -5.3889 H   0  0  0  0  0  0  0  0  0  0  0  0
    1.2322    1.1725   -3.8790 C   0  0  0  0  0  0  0  0  0  0  0  0
    2.1703    1.2450   -4.4198 H   0  0  0  0  0  0  0  0  0  0  0  0
    1.0883    0.2619   -2.8267 C   0  0  0  0  0  0  0  0  0  0  0  0
    1.9316   -0.3683   -2.5597 H   0  0  0  0  0  0  0  0  0  0  0  0
   -1.3455    0.9987    0.6012 C   0  0  0  0  0  0  0  0  0  0  0  0
   -2.4225    1.5193    0.3272 O   0  0  0  0  0  0  0  0  0  0  0  0
   -0.5144    1.6489    1.4960 N   0  0  0  0  0  0  0  0  0  0  0  0
    0.3415    1.1763    1.7716 H   0  0  0  0  0  0  0  0  0  0  0  0
   -0.7712    2.9915    2.0031 C   0  0  0  0  0  0  0  0  0  0  0  0
   -1.7208    3.0212    2.5478 H   0  0  0  0  0  0  0  0  0  0  0  0
    0.0275    3.2964    2.6861 H   0  0  0  0  0  0  0  0  0  0  0  0
   -0.8143    3.7103    1.1780 H   0  0  0  0  0  0  0  0  0  0  0  0
  1  2  1  0  0  0  0
  2  3  1  0  0  0  0
  2  4  1  0  0  0  0
  2  5  1  0  0  0  0
  5  6  2  0  0  0  0
  5  7  1  0  0  0  0
  7  8  1  0  0  0  0
  7  9  1  0  0  0  0
  9 10  1  0  0  0  0
  9 11  1  0  0  0  0
  9 26  1  0  0  0  0
 11 12  1  0  0  0  0
 11 13  1  0  0  0  0
 11 14  1  0  0  0  0
 14 15  2  0  0  0  0
 14 24  1  0  0  0  0
 15 16  1  0  0  0  0
 15 17  1  0  0  0  0
 17 18  1  0  0  0  0
 17 19  2  0  0  0  0
 19 20  1  0  0  0  0
 19 22  1  0  0  0  0
 20 21  1  0  0  0  0
 22 23  1  0  0  0  0
 22 24  2  0  0  0  0
 24 25  1  0  0  0  0
 26 27  2  0  0  0  0
 26 28  1  0  0  0  0
 28 29  1  0  0  0  0
 28 30  1  0  0  0  0
 30 31  1  0  0  0  0
 30 32  1  0  0  0  0
 30 33  1  0  0  0  0
M  END
$$$$

  -OEChem-04042216043D

 33 33  0     1  0  0  0  0  0999 V2000
   -3.6572   -4.2211    1.3666 H   0  0  0  0  0  0  0  0  0  0  0  0
   -3.7669   -3.2497    0.8762 C   0  0  0  0  0  0  0  0  0  0  0  0
   -4.4890   -2.6514    1.4372 H   0  0  0  0  0  0  0  0  0  0  0  0
   -4.1438   -3.4074   -0.1373 H   0  0  0  0  0  0  0  0  0  0  0  0
   -2.4297   -2.5345    0.8260 C   0  0  0  0  0  0  0  0  0  0  0  0
   -1.4301   -3.0753    1.2734 O   0  0  0  0  0  0  0  0  0  0  0  0
   -2.3495   -1.2753    0.2675 N   0  0  0  0  0  0  0  0  0  0  0  0
   -3.2263   -0.8294    0.0025 H   0  0  0  0  0  0  0  0  0  0  0  0
   -1.1556   -0.4155    0.2907 C   0  0  1  0  0  0  0  0  0  0  0  0
   -0.5895   -0.7524    1.1654 H   0  0  0  0  0  0  0  0  0  0  0  0
   -0.2023   -0.7163   -0.8971 C   0  0  0  0  0  0  0  0  0  0  0  0
    0.8037   -0.7741   -0.4685 H   0  0  0  0  0  0  0  0  0  0  0  0
   -0.4342   -1.7182   -1.2732 H   0  0  0  0  0  0  0  0  0  0  0  0
   -0.1006    0.2089   -2.1036 C   0  0  0  0  0  0  0  0  0  0  0  0
   -1.0190    1.2217   -2.4389 C   0  0  0  0  0  0  0  0  0  0  0  0
   -1.9396    1.3631   -1.8900 H   0  0  0  0  0  0  0  0  0  0  0  0
   -0.8056    2.0501   -3.5470 C   0  0  0  0  0  0  0  0  0  0  0  0
   -1.5369    2.8155   -3.7829 H   0  0  0  0  0  0  0  0  0  0  0  0
    0.3265    1.8850   -4.3434 C   0  0  0  0  0  0  0  0  0  0  0  0
    0.5401    2.6868   -5.4270 O   0  0  0  0  0  0  0  0  0  0  0  0
   -0.1890    3.3195   -5.5186 H   0  0  0  0  0  0  0  0  0  0  0  0
    1.2407    0.8843   -4.0311 C   0  0  0  0  0  0  0  0  0  0  0  0
    2.1184    0.7553   -4.6558 H   0  0  0  0  0  0  0  0  0  0  0  0
    1.0304    0.0554   -2.9243 C   0  0  0  0  0  0  0  0  0  0  0  0
    1.7630   -0.7152   -2.7014 H   0  0  0  0  0  0  0  0  0  0  0  0
   -1.4544    1.0537    0.6567 C   0  0  0  0  0  0  0  0  0  0  0  0
   -2.5557    1.5327    0.4054 O   0  0  0  0  0  0  0  0  0  0  0  0
   -0.6474    1.7185    1.5627 N   0  0  0  0  0  0  0  0  0  0  0  0
    0.2227    1.2703    1.8350 H   0  0  0  0  0  0  0  0  0  0  0  0
   -0.9622    3.0335    2.1077 C   0  0  0  0  0  0  0  0  0  0  0  0
   -1.8913    2.9963    2.6864 H   0  0  0  0  0  0  0  0  0  0  0  0
   -0.1575    3.3718    2.7675 H   0  0  0  0  0  0  0  0  0  0  0  0
   -1.0774    3.7646    1.3005 H   0  0  0  0  0  0  0  0  0  0  0  0
  1  2  1  0  0  0  0
  2  3  1  0  0  0  0
  2  4  1  0  0  0  0
  2  5  1  0  0  0  0
  5  6  2  0  0  0  0
  5  7  1  0  0  0  0
  7  8  1  0  0  0  0
  7  9  1  0  0  0  0
  9 10  1  0  0  0  0
  9 11  1  0  0  0  0
  9 26  1  0  0  0  0
 11 12  1  0  0  0  0
 11 13  1  0  0  0  0
 11 14  1  0  0  0  0
 14 15  2  0  0  0  0
 14 24  1  0  0  0  0
 15 16  1  0  0  0  0
 15 17  1  0  0  0  0
 17 18  1  0  0  0  0
 17 19  2  0  0  0  0
 19 20  1  0  0  0  0
 19 22  1  0  0  0  0
 20 21  1  0  0  0  0
 22 23  1  0  0  0  0
 22 24  2  0  0  0  0
 24 25  1  0  0  0  0
 26 27  2  0  0  0  0
 26 28  1  0  0  0  0
 28 29  1  0  0  0  0
 28 30  1  0  0  0  0
 30 31  1  0  0  0  0
 30 32  1  0  0  0  0
 30 33  1  0  0  0  0
M  END
$$$$

  -OEChem-04042216043D

 33 33  0     1  0  0  0  0  0999 V2000
   -3.8628   -4.0893    1.3317 H   0  0  0  0  0  0  0  0  0  0  0  0
   -3.9244   -3.1060    0.8570 C   0  0  0  0  0  0  0  0  0  0  0  0
   -4.5914   -2.4724    1.4465 H   0  0  0  0  0  0  0  0  0  0  0  0
   -4.3383   -3.2238   -0.1474 H   0  0  0  0  0  0  0  0  0  0  0  0
   -2.5466   -2.4759    0.7777 C   0  0  0  0  0  0  0  0  0  0  0  0
   -1.5661   -3.1024    1.1492 O   0  0  0  0  0  0  0  0  0  0  0  0
   -2.4074   -1.1947    0.2849 N   0  0  0  0  0  0  0  0  0  0  0  0
   -3.2620   -0.6810    0.0753 H   0  0  0  0  0  0  0  0  0  0  0  0
   -1.1580   -0.4177    0.2949 C   0  0  1  0  0  0  0  0  0  0  0  0
   -0.5685   -0.8372    1.1168 H   0  0  0  0  0  0  0  0  0  0  0  0
   -0.2982   -0.7150   -0.9662 C   0  0  0  0  0  0  0  0  0  0  0  0
    0.7219   -0.8682   -0.5990 H   0  0  0  0  0  0  0  0  0  0  0  0
   -0.6267   -1.6799   -1.3670 H   0  0  0  0  0  0  0  0  0  0  0  0
   -0.1638    0.2381   -2.1518 C   0  0  0  0  0  0  0  0  0  0  0  0
   -0.7735    1.5001   -2.3046 C   0  0  0  0  0  0  0  0  0  0  0  0
   -1.4753    1.9052   -1.5928 H   0  0  0  0  0  0  0  0  0  0  0  0
   -0.5242    2.2903   -3.4334 C   0  0  0  0  0  0  0  0  0  0  0  0
   -1.0157    3.2529   -3.5234 H   0  0  0  0  0  0  0  0  0  0  0  0
    0.3377    1.8441   -4.4331 C   0  0  0  0  0  0  0  0  0  0  0  0
    0.5853    2.6106   -5.5350 O   0  0  0  0  0  0  0  0  0  0  0  0
    0.0797    3.4364   -5.4834 H   0  0  0  0  0  0  0  0  0  0  0  0
    0.9461    0.6010   -4.3029 C   0  0  0  0  0  0  0  0  0  0  0  0
    1.6156    0.2545   -5.0836 H   0  0  0  0  0  0  0  0  0  0  0  0
    0.6984   -0.1911   -3.1774 C   0  0  0  0  0  0  0  0  0  0  0  0
    1.1910   -1.1566   -3.1013 H   0  0  0  0  0  0  0  0  0  0  0  0
   -1.3646    1.0376    0.7576 C   0  0  0  0  0  0  0  0  0  0  0  0
   -2.4435    1.5900    0.5651 O   0  0  0  0  0  0  0  0  0  0  0  0
   -0.4887    1.6097    1.6627 N   0  0  0  0  0  0  0  0  0  0  0  0
    0.3564    1.0937    1.8906 H   0  0  0  0  0  0  0  0  0  0  0  0
   -0.7186    2.9005    2.3002 C   0  0  0  0  0  0  0  0  0  0  0  0
   -1.6225    2.8676    2.9173 H   0  0  0  0  0  0  0  0  0  0  0  0
    0.1284    3.1619    2.9417 H   0  0  0  0  0  0  0  0  0  0  0  0
   -0.8350    3.6851    1.5453 H   0  0  0  0  0  0  0  0  0  0  0  0
  1  2  1  0  0  0  0
  2  3  1  0  0  0  0
  2  4  1  0  0  0  0
  2  5  1  0  0  0  0
  5  6  2  0  0  0  0
  5  7  1  0  0  0  0
  7  8  1  0  0  0  0
  7  9  1  0  0  0  0
  9 10  1  0  0  0  0
  9 11  1  0  0  0  0
  9 26  1  0  0  0  0
 11 12  1  0  0  0  0
 11 13  1  0  0  0  0
 11 14  1  0  0  0  0
 14 15  2  0  0  0  0
 14 24  1  0  0  0  0
 15 16  1  0  0  0  0
 15 17  1  0  0  0  0
 17 18  1  0  0  0  0
 17 19  2  0  0  0  0
 19 20  1  0  0  0  0
 19 22  1  0  0  0  0
 20 21  1  0  0  0  0
 22 23  1  0  0  0  0
 22 24  2  0  0  0  0
 24 25  1  0  0  0  0
 26 27  2  0  0  0  0
 26 28  1  0  0  0  0
 28 29  1  0  0  0  0
 28 30  1  0  0  0  0
 30 31  1  0  0  0  0
 30 32  1  0  0  0  0
 30 33  1  0  0  0  0
M  END
$$$$

  -OEChem-04042216043D

 33 33  0     1  0  0  0  0  0999 V2000
   -3.7486   -4.1763    1.2082 H   0  0  0  0  0  0  0  0  0  0  0  0
   -3.8152   -3.1798    0.7628 C   0  0  0  0  0  0  0  0  0  0  0  0
   -4.5175   -2.5792    1.3462 H   0  0  0  0  0  0  0  0  0  0  0  0
   -4.1892   -3.2749   -0.2596 H   0  0  0  0  0  0  0  0  0  0  0  0
   -2.4498   -2.5183    0.7550 C   0  0  0  0  0  0  0  0  0  0  0  0
   -1.4740   -3.1237    1.1706 O   0  0  0  0  0  0  0  0  0  0  0  0
   -2.3148   -1.2324    0.2746 N   0  0  0  0  0  0  0  0  0  0  0  0
   -3.1671   -0.7374    0.0154 H   0  0  0  0  0  0  0  0  0  0  0  0
   -1.0786   -0.4352    0.3231 C   0  0  1  0  0  0  0  0  0  0  0  0
   -0.4791   -0.8509    1.1395 H   0  0  0  0  0  0  0  0  0  0  0  0
   -0.2307   -0.6885   -0.9578 C   0  0  0  0  0  0  0  0  0  0  0  0
    0.7950   -0.8406   -0.6072 H   0  0  0  0  0  0  0  0  0  0  0  0
   -0.5536   -1.6494   -1.3728 H   0  0  0  0  0  0  0  0  0  0  0  0
   -0.1054    0.2934   -2.1245 C   0  0  0  0  0  0  0  0  0  0  0  0
   -0.4580    1.6604   -2.1435 C   0  0  0  0  0  0  0  0  0  0  0  0
   -0.8636    2.1844   -1.2923 H   0  0  0  0  0  0  0  0  0  0  0  0
   -0.2905    2.4336   -3.2989 C   0  0  0  0  0  0  0  0  0  0  0  0
   -0.5769    3.4795   -3.2802 H   0  0  0  0  0  0  0  0  0  0  0  0
    0.2363    1.8698   -4.4587 C   0  0  0  0  0  0  0  0  0  0  0  0
    0.3978    2.6189   -5.5881 O   0  0  0  0  0  0  0  0  0  0  0  0
    0.0595    3.5156   -5.4410 H   0  0  0  0  0  0  0  0  0  0  0  0
    0.6008    0.5289   -4.4583 C   0  0  0  0  0  0  0  0  0  0  0  0
    1.0146    0.0924   -5.3613 H   0  0  0  0  0  0  0  0  0  0  0  0
    0.4328   -0.2472   -3.3076 C   0  0  0  0  0  0  0  0  0  0  0  0
    0.7267   -1.2925   -3.3413 H   0  0  0  0  0  0  0  0  0  0  0  0
   -1.3581    1.0037    0.7908 C   0  0  0  0  0  0  0  0  0  0  0  0
   -2.4199    1.5463    0.5014 O   0  0  0  0  0  0  0  0  0  0  0  0
   -0.5394    1.6030    1.7312 N   0  0  0  0  0  0  0  0  0  0  0  0
    0.2810    1.0872    2.0376 H   0  0  0  0  0  0  0  0  0  0  0  0
   -0.8385    2.8852    2.3578 C   0  0  0  0  0  0  0  0  0  0  0  0
   -1.7580    2.8173    2.9485 H   0  0  0  0  0  0  0  0  0  0  0  0
   -0.0208    3.1807    3.0224 H   0  0  0  0  0  0  0  0  0  0  0  0
   -0.9640    3.6645    1.5988 H   0  0  0  0  0  0  0  0  0  0  0  0
  1  2  1  0  0  0  0
  2  3  1  0  0  0  0
  2  4  1  0  0  0  0
  2  5  1  0  0  0  0
  5  6  2  0  0  0  0
  5  7  1  0  0  0  0
  7  8  1  0  0  0  0
  7  9  1  0  0  0  0
  9 10  1  0  0  0  0
  9 11  1  0  0  0  0
  9 26  1  0  0  0  0
 11 12  1  0  0  0  0
 11 13  1  0  0  0  0
 11 14  1  0  0  0  0
 14 15  2  0  0  0  0
 14 24  1  0  0  0  0
 15 16  1  0  0  0  0
 15 17  1  0  0  0  0
 17 18  1  0  0  0  0
 17 19  2  0  0  0  0
 19 20  1  0  0  0  0
 19 22  1  0  0  0  0
 20 21  1  0  0  0  0
 22 23  1  0  0  0  0
 22 24  2  0  0  0  0
 24 25  1  0  0  0  0
 26 27  2  0  0  0  0
 26 28  1  0  0  0  0
 28 29  1  0  0  0  0
 28 30  1  0  0  0  0
 30 31  1  0  0  0  0
 30 32  1  0  0  0  0
 30 33  1  0  0  0  0
M  END
$$$$

  -OEChem-04042216043D

 33 33  0     1  0  0  0  0  0999 V2000
   -3.8096   -4.1322    1.2035 H   0  0  0  0  0  0  0  0  0  0  0  0
   -3.8371   -3.1472    0.7291 C   0  0  0  0  0  0  0  0  0  0  0  0
   -4.5631   -2.5229    1.2555 H   0  0  0  0  0  0  0  0  0  0  0  0
   -4.1536   -3.2649   -0.3101 H   0  0  0  0  0  0  0  0  0  0  0  0
   -2.4650   -2.5026    0.7814 C   0  0  0  0  0  0  0  0  0  0  0  0
   -1.5246   -3.1044    1.2765 O   0  0  0  0  0  0  0  0  0  0  0  0
   -2.2830   -1.2381    0.2616 N   0  0  0  0  0  0  0  0  0  0  0  0
   -3.1086   -0.7428   -0.0734 H   0  0  0  0  0  0  0  0  0  0  0  0
   -1.0337   -0.4648    0.3367 C   0  0  1  0  0  0  0  0  0  0  0  0
   -0.4533   -0.8656    1.1741 H   0  0  0  0  0  0  0  0  0  0  0  0
   -0.1846   -0.7512   -0.9372 C   0  0  0  0  0  0  0  0  0  0  0  0
    0.8375   -0.9228   -0.5853 H   0  0  0  0  0  0  0  0  0  0  0  0
   -0.5247   -1.7082   -1.3473 H   0  0  0  0  0  0  0  0  0  0  0  0
   -0.0430    0.2401   -2.0934 C   0  0  0  0  0  0  0  0  0  0  0  0
   -0.0881    1.6478   -2.0048 C   0  0  0  0  0  0  0  0  0  0  0  0
   -0.1824    2.1743   -1.0655 H   0  0  0  0  0  0  0  0  0  0  0  0
    0.0273    2.4473   -3.1485 C   0  0  0  0  0  0  0  0  0  0  0  0
   -0.0138    3.5260   -3.0457 H   0  0  0  0  0  0  0  0  0  0  0  0
    0.1970    1.8666   -4.4038 C   0  0  0  0  0  0  0  0  0  0  0  0
    0.3092    2.6407   -5.5223 O   0  0  0  0  0  0  0  0  0  0  0  0
    0.2022    3.5756   -5.2888 H   0  0  0  0  0  0  0  0  0  0  0  0
    0.2569    0.4823   -4.5111 C   0  0  0  0  0  0  0  0  0  0  0  0
    0.3926    0.0322   -5.4890 H   0  0  0  0  0  0  0  0  0  0  0  0
    0.1383   -0.3200   -3.3722 C   0  0  0  0  0  0  0  0  0  0  0  0
    0.1856   -1.3983   -3.4941 H   0  0  0  0  0  0  0  0  0  0  0  0
   -1.3309    0.9895    0.7417 C   0  0  0  0  0  0  0  0  0  0  0  0
   -2.3397    1.5532    0.3311 O   0  0  0  0  0  0  0  0  0  0  0  0
   -0.5571    1.6171    1.7019 N   0  0  0  0  0  0  0  0  0  0  0  0
    0.2156    1.0908    2.1004 H   0  0  0  0  0  0  0  0  0  0  0  0
   -0.8665    2.9335    2.2477 C   0  0  0  0  0  0  0  0  0  0  0  0
   -1.8245    2.9126    2.7779 H   0  0  0  0  0  0  0  0  0  0  0  0
   -0.0877    3.2439    2.9511 H   0  0  0  0  0  0  0  0  0  0  0  0
   -0.9233    3.6778    1.4463 H   0  0  0  0  0  0  0  0  0  0  0  0
  1  2  1  0  0  0  0
  2  3  1  0  0  0  0
  2  4  1  0  0  0  0
  2  5  1  0  0  0  0
  5  6  2  0  0  0  0
  5  7  1  0  0  0  0
  7  8  1  0  0  0  0
  7  9  1  0  0  0  0
  9 10  1  0  0  0  0
  9 11  1  0  0  0  0
  9 26  1  0  0  0  0
 11 12  1  0  0  0  0
 11 13  1  0  0  0  0
 11 14  1  0  0  0  0
 14 15  2  0  0  0  0
 14 24  1  0  0  0  0
 15 16  1  0  0  0  0
 15 17  1  0  0  0  0
 17 18  1  0  0  0  0
 17 19  2  0  0  0  0
 19 20  1  0  0  0  0
 19 22  1  0  0  0  0
 20 21  1  0  0  0  0
 22 23  1  0  0  0  0
 22 24  2  0  0  0  0
 24 25  1  0  0  0  0
 26 27  2  0  0  0  0
 26 28  1  0  0  0  0
 28 29  1  0  0  0  0
 28 30  1  0  0  0  0
 30 31  1  0  0  0  0
 30 32  1  0  0  0  0
 30 33  1  0  0  0  0
M  END
$$$$

  -OEChem-04042216043D

 33 33  0     1  0  0  0  0  0999 V2000
   -3.8770   -4.0683    1.2940 H   0  0  0  0  0  0  0  0  0  0  0  0
   -3.8640   -3.1185    0.7521 C   0  0  0  0  0  0  0  0  0  0  0  0
   -4.5966   -2.4453    1.2040 H   0  0  0  0  0  0  0  0  0  0  0  0
   -4.1419   -3.3025   -0.2885 H   0  0  0  0  0  0  0  0  0  0  0  0
   -2.4811   -2.4976    0.8160 C   0  0  0  0  0  0  0  0  0  0  0  0
   -1.5699   -3.0883    1.3747 O   0  0  0  0  0  0  0  0  0  0  0  0
   -2.2566   -1.2653    0.2392 N   0  0  0  0  0  0  0  0  0  0  0  0
   -3.0603   -0.7720   -0.1482 H   0  0  0  0  0  0  0  0  0  0  0  0
   -0.9968   -0.5101    0.3232 C   0  0  1  0  0  0  0  0  0  0  0  0
   -0.4372   -0.8820    1.1877 H   0  0  0  0  0  0  0  0  0  0  0  0
   -0.1373   -0.8416   -0.9311 C   0  0  0  0  0  0  0  0  0  0  0  0
    0.8810   -1.0168   -0.5707 H   0  0  0  0  0  0  0  0  0  0  0  0
   -0.4795   -1.7998   -1.3360 H   0  0  0  0  0  0  0  0  0  0  0  0
    0.0012    0.1601   -2.0731 C   0  0  0  0  0  0  0  0  0  0  0  0
    0.2546    1.5355   -1.9036 C   0  0  0  0  0  0  0  0  0  0  0  0
    0.4281    1.9635   -0.9239 H   0  0  0  0  0  0  0  0  0  0  0  0
    0.3302    2.3956   -3.0056 C   0  0  0  0  0  0  0  0  0  0  0  0
    0.5274    3.4495   -2.8440 H   0  0  0  0  0  0  0  0  0  0  0  0
    0.1570    1.9014   -4.2978 C   0  0  0  0  0  0  0  0  0  0  0  0
    0.2270    2.7326   -5.3782 O   0  0  0  0  0  0  0  0  0  0  0  0
    0.3415    3.6489   -5.0831 H   0  0  0  0  0  0  0  0  0  0  0  0
   -0.0870    0.5448   -4.4840 C   0  0  0  0  0  0  0  0  0  0  0  0
   -0.2200    0.1649   -5.4915 H   0  0  0  0  0  0  0  0  0  0  0  0
   -0.1665   -0.3170   -3.3855 C   0  0  0  0  0  0  0  0  0  0  0  0
   -0.3672   -1.3691   -3.5644 H   0  0  0  0  0  0  0  0  0  0  0  0
   -1.2968    0.9670    0.6417 C   0  0  0  0  0  0  0  0  0  0  0  0
   -2.2762    1.5211    0.1551 O   0  0  0  0  0  0  0  0  0  0  0  0
   -0.5559    1.6357    1.6003 N   0  0  0  0  0  0  0  0  0  0  0  0
    0.1824    1.1184    2.0692 H   0  0  0  0  0  0  0  0  0  0  0  0
   -0.8660    2.9865    2.0526 C   0  0  0  0  0  0  0  0  0  0  0  0
   -1.8600    3.0186    2.5110 H   0  0  0  0  0  0  0  0  0  0  0  0
   -0.1317    3.3152    2.7943 H   0  0  0  0  0  0  0  0  0  0  0  0
   -0.8431    3.6868    1.2110 H   0  0  0  0  0  0  0  0  0  0  0  0
  1  2  1  0  0  0  0
  2  3  1  0  0  0  0
  2  4  1  0  0  0  0
  2  5  1  0  0  0  0
  5  6  2  0  0  0  0
  5  7  1  0  0  0  0
  7  8  1  0  0  0  0
  7  9  1  0  0  0  0
  9 10  1  0  0  0  0
  9 11  1  0  0  0  0
  9 26  1  0  0  0  0
 11 12  1  0  0  0  0
 11 13  1  0  0  0  0
 11 14  1  0  0  0  0
 14 15  2  0  0  0  0
 14 24  1  0  0  0  0
 15 16  1  0  0  0  0
 15 17  1  0  0  0  0
 17 18  1  0  0  0  0
 17 19  2  0  0  0  0
 19 20  1  0  0  0  0
 19 22  1  0  0  0  0
 20 21  1  0  0  0  0
 22 23  1  0  0  0  0
 22 24  2  0  0  0  0
 24 25  1  0  0  0  0
 26 27  2  0  0  0  0
 26 28  1  0  0  0  0
 28 29  1  0  0  0  0
 28 30  1  0  0  0  0
 30 31  1  0  0  0  0
 30 32  1  0  0  0  0
 30 33  1  0  0  0  0
M  END
$$$$

  -OEChem-04042216043D

 33 33  0     1  0  0  0  0  0999 V2000
   -3.9123   -4.0317    1.3833 H   0  0  0  0  0  0  0  0  0  0  0  0
   -3.8827   -3.1057    0.8023 C   0  0  0  0  0  0  0  0  0  0  0  0
   -4.6108   -2.4052    1.2185 H   0  0  0  0  0  0  0  0  0  0  0  0
   -4.1534   -3.3298   -0.2322 H   0  0  0  0  0  0  0  0  0  0  0  0
   -2.4925   -2.5000    0.8537 C   0  0  0  0  0  0  0  0  0  0  0  0
   -1.5967   -3.0733    1.4540 O   0  0  0  0  0  0  0  0  0  0  0  0
   -2.2448   -1.3000    0.2209 N   0  0  0  0  0  0  0  0  0  0  0  0
   -3.0388   -0.8126   -0.1932 H   0  0  0  0  0  0  0  0  0  0  0  0
   -0.9803   -0.5522    0.2946 C   0  0  1  0  0  0  0  0  0  0  0  0
   -0.4341   -0.8918    1.1805 H   0  0  0  0  0  0  0  0  0  0  0  0
   -0.1070   -0.9193   -0.9363 C   0  0  0  0  0  0  0  0  0  0  0  0
    0.9101   -1.0902   -0.5697 H   0  0  0  0  0  0  0  0  0  0  0  0
   -0.4460   -1.8789   -1.3410 H   0  0  0  0  0  0  0  0  0  0  0  0
    0.0073    0.0953   -2.0616 C   0  0  0  0  0  0  0  0  0  0  0  0
    0.5344    1.3850   -1.8681 C   0  0  0  0  0  0  0  0  0  0  0  0
    0.9145    1.6855   -0.8973 H   0  0  0  0  0  0  0  0  0  0  0  0
    0.5943    2.3004   -2.9254 C   0  0  0  0  0  0  0  0  0  0  0  0
    1.0038    3.2892   -2.7516 H   0  0  0  0  0  0  0  0  0  0  0  0
    0.1294    1.9426   -4.1914 C   0  0  0  0  0  0  0  0  0  0  0  0
    0.1818    2.8286   -5.2286 O   0  0  0  0  0  0  0  0  0  0  0  0
    0.5105    3.6850   -4.9152 H   0  0  0  0  0  0  0  0  0  0  0  0
   -0.3935    0.6685   -4.3961 C   0  0  0  0  0  0  0  0  0  0  0  0
   -0.7564    0.3988   -5.3826 H   0  0  0  0  0  0  0  0  0  0  0  0
   -0.4579   -0.2486   -3.3414 C   0  0  0  0  0  0  0  0  0  0  0  0
   -0.8802   -1.2318   -3.5256 H   0  0  0  0  0  0  0  0  0  0  0  0
   -1.2687    0.9444    0.5328 C   0  0  0  0  0  0  0  0  0  0  0  0
   -2.2424    1.4788    0.0133 O   0  0  0  0  0  0  0  0  0  0  0  0
   -0.5389    1.6513    1.4726 N   0  0  0  0  0  0  0  0  0  0  0  0
    0.1799    1.1484    1.9852 H   0  0  0  0  0  0  0  0  0  0  0  0
   -0.8455    3.0245    1.8546 C   0  0  0  0  0  0  0  0  0  0  0  0
   -1.8493    3.0867    2.2878 H   0  0  0  0  0  0  0  0  0  0  0  0
   -0.1252    3.3806    2.5974 H   0  0  0  0  0  0  0  0  0  0  0  0
   -0.7963    3.6846    0.9821 H   0  0  0  0  0  0  0  0  0  0  0  0
  1  2  1  0  0  0  0
  2  3  1  0  0  0  0
  2  4  1  0  0  0  0
  2  5  1  0  0  0  0
  5  6  2  0  0  0  0
  5  7  1  0  0  0  0
  7  8  1  0  0  0  0
  7  9  1  0  0  0  0
  9 10  1  0  0  0  0
  9 11  1  0  0  0  0
  9 26  1  0  0  0  0
 11 12  1  0  0  0  0
 11 13  1  0  0  0  0
 11 14  1  0  0  0  0
 14 15  2  0  0  0  0
 14 24  1  0  0  0  0
 15 16  1  0  0  0  0
 15 17  1  0  0  0  0
 17 18  1  0  0  0  0
 17 19  2  0  0  0  0
 19 20  1  0  0  0  0
 19 22  1  0  0  0  0
 20 21  1  0  0  0  0
 22 23  1  0  0  0  0
 22 24  2  0  0  0  0
 24 25  1  0  0  0  0
 26 27  2  0  0  0  0
 26 28  1  0  0  0  0
 28 29  1  0  0  0  0
 28 30  1  0  0  0  0
 30 31  1  0  0  0  0
 30 32  1  0  0  0  0
 30 33  1  0  0  0  0
M  END
$$$$

  -OEChem-04042216043D

 33 33  0     1  0  0  0  0  0999 V2000
   -3.9230   -4.0172    1.4503 H   0  0  0  0  0  0  0  0  0  0  0  0
   -3.8928   -3.1030    0.8508 C   0  0  0  0  0  0  0  0  0  0  0  0
   -4.6130   -2.3899    1.2593 H   0  0  0  0  0  0  0  0  0  0  0  0
   -4.1739   -3.3462   -0.1767 H   0  0  0  0  0  0  0  0  0  0  0  0
   -2.4987   -2.5052    0.8780 C   0  0  0  0  0  0  0  0  0  0  0  0
   -1.6047   -3.0675    1.4913 O   0  0  0  0  0  0  0  0  0  0  0  0
   -2.2439   -1.3286    0.2054 N   0  0  0  0  0  0  0  0  0  0  0  0
   -3.0385   -0.8411   -0.2075 H   0  0  0  0  0  0  0  0  0  0  0  0
   -0.9777   -0.5834    0.2658 C   0  0  1  0  0  0  0  0  0  0  0  0
   -0.4394   -0.8983    1.1653 H   0  0  0  0  0  0  0  0  0  0  0  0
   -0.0919   -0.9680   -0.9456 C   0  0  0  0  0  0  0  0  0  0  0  0
    0.9247   -1.1384   -0.5773 H   0  0  0  0  0  0  0  0  0  0  0  0
   -0.4303   -1.9244   -1.3585 H   0  0  0  0  0  0  0  0  0  0  0  0
   -0.0056    0.0620   -2.0519 C   0  0  0  0  0  0  0  0  0  0  0  0
    0.7683    1.2255   -1.9063 C   0  0  0  0  0  0  0  0  0  0  0  0
    1.3292    1.3967   -0.9928 H   0  0  0  0  0  0  0  0  0  0  0  0
    0.8261    2.1742   -2.9337 C   0  0  0  0  0  0  0  0  0  0  0  0
    1.4293    3.0657   -2.8029 H   0  0  0  0  0  0  0  0  0  0  0  0
    0.1110    1.9724   -4.1160 C   0  0  0  0  0  0  0  0  0  0  0  0
    0.1592    2.8918   -5.1238 O   0  0  0  0  0  0  0  0  0  0  0  0
    0.6726    3.6641   -4.8420 H   0  0  0  0  0  0  0  0  0  0  0  0
   -0.6610    0.8225   -4.2665 C   0  0  0  0  0  0  0  0  0  0  0  0
   -1.2173    0.6761   -5.1862 H   0  0  0  0  0  0  0  0  0  0  0  0
   -0.7246   -0.1273   -3.2413 C   0  0  0  0  0  0  0  0  0  0  0  0
   -1.3408   -1.0117   -3.3728 H   0  0  0  0  0  0  0  0  0  0  0  0
   -1.2514    0.9246    0.4497 C   0  0  0  0  0  0  0  0  0  0  0  0
   -2.2301    1.4424   -0.0775 O   0  0  0  0  0  0  0  0  0  0  0  0
   -0.5217    1.6560    1.3704 N   0  0  0  0  0  0  0  0  0  0  0  0
    0.2011    1.1691    1.8922 H   0  0  0  0  0  0  0  0  0  0  0  0
   -0.8259    3.0403    1.7107 C   0  0  0  0  0  0  0  0  0  0  0  0
   -1.8243    3.1150    2.1546 H   0  0  0  0  0  0  0  0  0  0  0  0
   -0.0965    3.4214    2.4318 H   0  0  0  0  0  0  0  0  0  0  0  0
   -0.7893    3.6711    0.8162 H   0  0  0  0  0  0  0  0  0  0  0  0
  1  2  1  0  0  0  0
  2  3  1  0  0  0  0
  2  4  1  0  0  0  0
  2  5  1  0  0  0  0
  5  6  2  0  0  0  0
  5  7  1  0  0  0  0
  7  8  1  0  0  0  0
  7  9  1  0  0  0  0
  9 10  1  0  0  0  0
  9 11  1  0  0  0  0
  9 26  1  0  0  0  0
 11 12  1  0  0  0  0
 11 13  1  0  0  0  0
 11 14  1  0  0  0  0
 14 15  2  0  0  0  0
 14 24  1  0  0  0  0
 15 16  1  0  0  0  0
 15 17  1  0  0  0  0
 17 18  1  0  0  0  0
 17 19  2  0  0  0  0
 19 20  1  0  0  0  0
 19 22  1  0  0  0  0
 20 21  1  0  0  0  0
 22 23  1  0  0  0  0
 22 24  2  0  0  0  0
 24 25  1  0  0  0  0
 26 27  2  0  0  0  0
 26 28  1  0  0  0  0
 28 29  1  0  0  0  0
 28 30  1  0  0  0  0
 30 31  1  0  0  0  0
 30 32  1  0  0  0  0
 30 33  1  0  0  0  0
M  END
$$$$

  -OEChem-04042216043D

 33 33  0     1  0  0  0  0  0999 V2000
   -3.9279   -4.0096    1.4900 H   0  0  0  0  0  0  0  0  0  0  0  0
   -3.8987   -3.1007    0.8826 C   0  0  0  0  0  0  0  0  0  0  0  0
   -4.6071   -2.3783    1.2953 H   0  0  0  0  0  0  0  0  0  0  0  0
   -4.1964   -3.3495   -0.1388 H   0  0  0  0  0  0  0  0  0  0  0  0
   -2.4996   -2.5141    0.8854 C   0  0  0  0  0  0  0  0  0  0  0  0
   -1.6030   -3.0744    1.4968 O   0  0  0  0  0  0  0  0  0  0  0  0
   -2.2446   -1.3483    0.1941 N   0  0  0  0  0  0  0  0  0  0  0  0
   -3.0430   -0.8575   -0.2072 H   0  0  0  0  0  0  0  0  0  0  0  0
   -0.9786   -0.6019    0.2477 C   0  0  1  0  0  0  0  0  0  0  0  0
   -0.4441   -0.9043    1.1539 H   0  0  0  0  0  0  0  0  0  0  0  0
   -0.0832   -0.9912   -0.9522 C   0  0  0  0  0  0  0  0  0  0  0  0
    0.9311   -1.1640   -0.5789 H   0  0  0  0  0  0  0  0  0  0  0  0
   -0.4217   -1.9439   -1.3732 H   0  0  0  0  0  0  0  0  0  0  0  0
   -0.0128    0.0476   -2.0481 C   0  0  0  0  0  0  0  0  0  0  0  0
    0.9701    1.0497   -2.0265 C   0  0  0  0  0  0  0  0  0  0  0  0
    1.6979    1.0827   -1.2214 H   0  0  0  0  0  0  0  0  0  0  0  0
    1.0202    2.0154   -3.0388 C   0  0  0  0  0  0  0  0  0  0  0  0
    1.7852    2.7829   -3.0070 H   0  0  0  0  0  0  0  0  0  0  0  0
    0.0896    1.9896   -4.0799 C   0  0  0  0  0  0  0  0  0  0  0  0
    0.1288    2.9274   -5.0711 O   0  0  0  0  0  0  0  0  0  0  0  0
    0.8178    3.5819   -4.8808 H   0  0  0  0  0  0  0  0  0  0  0  0
   -0.8898    0.9986   -4.1047 C   0  0  0  0  0  0  0  0  0  0  0  0
   -1.6132    0.9901   -4.9132 H   0  0  0  0  0  0  0  0  0  0  0  0
   -0.9456    0.0322   -3.0945 C   0  0  0  0  0  0  0  0  0  0  0  0
   -1.7219   -0.7264   -3.1216 H   0  0  0  0  0  0  0  0  0  0  0  0
   -1.2459    0.9112    0.4063 C   0  0  0  0  0  0  0  0  0  0  0  0
   -2.2342    1.4180   -0.1145 O   0  0  0  0  0  0  0  0  0  0  0  0
   -0.5160    1.6544    1.3171 N   0  0  0  0  0  0  0  0  0  0  0  0
    0.2255    1.1816    1.8248 H   0  0  0  0  0  0  0  0  0  0  0  0
   -0.8182    3.0435    1.6395 C   0  0  0  0  0  0  0  0  0  0  0  0
   -1.8158    3.1251    2.0838 H   0  0  0  0  0  0  0  0  0  0  0  0
   -0.0878    3.4340    2.3546 H   0  0  0  0  0  0  0  0  0  0  0  0
   -0.7824    3.6624    0.7366 H   0  0  0  0  0  0  0  0  0  0  0  0
  1  2  1  0  0  0  0
  2  3  1  0  0  0  0
  2  4  1  0  0  0  0
  2  5  1  0  0  0  0
  5  6  2  0  0  0  0
  5  7  1  0  0  0  0
  7  8  1  0  0  0  0
  7  9  1  0  0  0  0
  9 10  1  0  0  0  0
  9 11  1  0  0  0  0
  9 26  1  0  0  0  0
 11 12  1  0  0  0  0
 11 13  1  0  0  0  0
 11 14  1  0  0  0  0
 14 15  2  0  0  0  0
 14 24  1  0  0  0  0
 15 16  1  0  0  0  0
 15 17  1  0  0  0  0
 17 18  1  0  0  0  0
 17 19  2  0  0  0  0
 19 20  1  0  0  0  0
 19 22  1  0  0  0  0
 20 21  1  0  0  0  0
 22 23  1  0  0  0  0
 22 24  2  0  0  0  0
 24 25  1  0  0  0  0
 26 27  2  0  0  0  0
 26 28  1  0  0  0  0
 28 29  1  0  0  0  0
 28 30  1  0  0  0  0
 30 31  1  0  0  0  0
 30 32  1  0  0  0  0
 30 33  1  0  0  0  0
M  END
$$$$

  -OEChem-04042216043D

 33 33  0     1  0  0  0  0  0999 V2000
   -3.9233   -4.0045    1.5314 H   0  0  0  0  0  0  0  0  0  0  0  0
   -3.8993   -3.1055    0.9091 C   0  0  0  0  0  0  0  0  0  0  0  0
   -4.5955   -2.3723    1.3234 H   0  0  0  0  0  0  0  0  0  0  0  0
   -4.2172   -3.3679   -0.1028 H   0  0  0  0  0  0  0  0  0  0  0  0
   -2.4965   -2.5284    0.8776 C   0  0  0  0  0  0  0  0  0  0  0  0
   -1.5876   -3.0977    1.4619 O   0  0  0  0  0  0  0  0  0  0  0  0
   -2.2536   -1.3570    0.1913 N   0  0  0  0  0  0  0  0  0  0  0  0
   -3.0616   -0.8569   -0.1777 H   0  0  0  0  0  0  0  0  0  0  0  0
   -0.9899   -0.6063    0.2408 C   0  0  1  0  0  0  0  0  0  0  0  0
   -0.4525   -0.9118    1.1442 H   0  0  0  0  0  0  0  0  0  0  0  0
   -0.0905   -0.9839   -0.9595 C   0  0  0  0  0  0  0  0  0  0  0  0
    0.9223   -1.1601   -0.5842 H   0  0  0  0  0  0  0  0  0  0  0  0
   -0.4286   -1.9319   -1.3914 H   0  0  0  0  0  0  0  0  0  0  0  0
   -0.0280    0.0611   -2.0498 C   0  0  0  0  0  0  0  0  0  0  0  0
    1.1072    0.8721   -2.2042 C   0  0  0  0  0  0  0  0  0  0  0  0
    1.9555    0.7588   -1.5361 H   0  0  0  0  0  0  0  0  0  0  0  0
    1.1572    1.8348   -3.2193 C   0  0  0  0  0  0  0  0  0  0  0  0
    2.0407    2.4545   -3.3245 H   0  0  0  0  0  0  0  0  0  0  0  0
    0.0763    1.9940   -4.0896 C   0  0  0  0  0  0  0  0  0  0  0  0
    0.1149    2.9300   -5.0826 O   0  0  0  0  0  0  0  0  0  0  0  0
    0.9440    3.4295   -5.0350 H   0  0  0  0  0  0  0  0  0  0  0  0
   -1.0518    1.1896   -3.9424 C   0  0  0  0  0  0  0  0  0  0  0  0
   -1.8903    1.3234   -4.6177 H   0  0  0  0  0  0  0  0  0  0  0  0
   -1.1069    0.2261   -2.9300 C   0  0  0  0  0  0  0  0  0  0  0  0
   -1.9967   -0.3867   -2.8211 H   0  0  0  0  0  0  0  0  0  0  0  0
   -1.2572    0.9056    0.4118 C   0  0  0  0  0  0  0  0  0  0  0  0
   -2.2618    1.4077   -0.0822 O   0  0  0  0  0  0  0  0  0  0  0  0
   -0.5219    1.6447    1.3212 N   0  0  0  0  0  0  0  0  0  0  0  0
    0.2513    1.1828    1.7901 H   0  0  0  0  0  0  0  0  0  0  0  0
   -0.8099    3.0379    1.6383 C   0  0  0  0  0  0  0  0  0  0  0  0
   -1.8208    3.1371    2.0477 H   0  0  0  0  0  0  0  0  0  0  0  0
   -0.0983    3.4115    2.3809 H   0  0  0  0  0  0  0  0  0  0  0  0
   -0.7309    3.6587    0.7395 H   0  0  0  0  0  0  0  0  0  0  0  0
  1  2  1  0  0  0  0
  2  3  1  0  0  0  0
  2  4  1  0  0  0  0
  2  5  1  0  0  0  0
  5  6  2  0  0  0  0
  5  7  1  0  0  0  0
  7  8  1  0  0  0  0
  7  9  1  0  0  0  0
  9 10  1  0  0  0  0
  9 11  1  0  0  0  0
  9 26  1  0  0  0  0
 11 12  1  0  0  0  0
 11 13  1  0  0  0  0
 11 14  1  0  0  0  0
 14 15  2  0  0  0  0
 14 24  1  0  0  0  0
 15 16  1  0  0  0  0
 15 17  1  0  0  0  0
 17 18  1  0  0  0  0
 17 19  2  0  0  0  0
 19 20  1  0  0  0  0
 19 22  1  0  0  0  0
 20 21  1  0  0  0  0
 22 23  1  0  0  0  0
 22 24  2  0  0  0  0
 24 25  1  0  0  0  0
 26 27  2  0  0  0  0
 26 28  1  0  0  0  0
 28 29  1  0  0  0  0
 28 30  1  0  0  0  0
 30 31  1  0  0  0  0
 30 32  1  0  0  0  0
 30 33  1  0  0  0  0
M  END
$$$$

  -OEChem-04042216043D

 33 33  0     1  0  0  0  0  0999 V2000
   -3.8957   -4.0252    1.5278 H   0  0  0  0  0  0  0  0  0  0  0  0
   -3.8892   -3.1136    0.9238 C   0  0  0  0  0  0  0  0  0  0  0  0
   -4.5786   -2.3919    1.3688 H   0  0  0  0  0  0  0  0  0  0  0  0
   -4.2285   -3.3569   -0.0859 H   0  0  0  0  0  0  0  0  0  0  0  0
   -2.4897   -2.5301    0.8729 C   0  0  0  0  0  0  0  0  0  0  0  0
   -1.5658   -3.1079    1.4244 O   0  0  0  0  0  0  0  0  0  0  0  0
   -2.2678   -1.3435    0.2061 N   0  0  0  0  0  0  0  0  0  0  0  0
   -3.0878   -0.8381   -0.1274 H   0  0  0  0  0  0  0  0  0  0  0  0
   -1.0074   -0.5862    0.2457 C   0  0  1  0  0  0  0  0  0  0  0  0
   -0.4586   -0.9041    1.1382 H   0  0  0  0  0  0  0  0  0  0  0  0
   -0.1141   -0.9454   -0.9656 C   0  0  0  0  0  0  0  0  0  0  0  0
    0.8995   -1.1208   -0.5921 H   0  0  0  0  0  0  0  0  0  0  0  0
   -0.4511   -1.8924   -1.4002 H   0  0  0  0  0  0  0  0  0  0  0  0
   -0.0531    0.0966   -2.0622 C   0  0  0  0  0  0  0  0  0  0  0  0
    1.1712    0.6829   -2.4210 C   0  0  0  0  0  0  0  0  0  0  0  0
    2.0819    0.4142   -1.8940 H   0  0  0  0  0  0  0  0  0  0  0  0
    1.2343    1.6190   -3.4604 C   0  0  0  0  0  0  0  0  0  0  0  0
    2.1882    2.0646   -3.7203 H   0  0  0  0  0  0  0  0  0  0  0  0
    0.0780    1.9712   -4.1595 C   0  0  0  0  0  0  0  0  0  0  0  0
    0.1284    2.8830   -5.1743 O   0  0  0  0  0  0  0  0  0  0  0  0
    1.0305    3.2239   -5.2707 H   0  0  0  0  0  0  0  0  0  0  0  0
   -1.1377    1.3823   -3.8191 C   0  0  0  0  0  0  0  0  0  0  0  0
   -2.0331    1.6609   -4.3646 H   0  0  0  0  0  0  0  0  0  0  0  0
   -1.2057    0.4462   -2.7819 C   0  0  0  0  0  0  0  0  0  0  0  0
   -2.1627    0.0005   -2.5274 H   0  0  0  0  0  0  0  0  0  0  0  0
   -1.2734    0.9212    0.4529 C   0  0  0  0  0  0  0  0  0  0  0  0
   -2.3009    1.4249    0.0093 O   0  0  0  0  0  0  0  0  0  0  0  0
   -0.5196    1.6417    1.3620 N   0  0  0  0  0  0  0  0  0  0  0  0
    0.2822    1.1804    1.7812 H   0  0  0  0  0  0  0  0  0  0  0  0
   -0.8125    3.0218    1.7289 C   0  0  0  0  0  0  0  0  0  0  0  0
   -1.8118    3.0975    2.1704 H   0  0  0  0  0  0  0  0  0  0  0  0
   -0.0837    3.3816    2.4615 H   0  0  0  0  0  0  0  0  0  0  0  0
   -0.7663    3.6693    0.8470 H   0  0  0  0  0  0  0  0  0  0  0  0
  1  2  1  0  0  0  0
  2  3  1  0  0  0  0
  2  4  1  0  0  0  0
  2  5  1  0  0  0  0
  5  6  2  0  0  0  0
  5  7  1  0  0  0  0
  7  8  1  0  0  0  0
  7  9  1  0  0  0  0
  9 10  1  0  0  0  0
  9 11  1  0  0  0  0
  9 26  1  0  0  0  0
 11 12  1  0  0  0  0
 11 13  1  0  0  0  0
 11 14  1  0  0  0  0
 14 15  2  0  0  0  0
 14 24  1  0  0  0  0
 15 16  1  0  0  0  0
 15 17  1  0  0  0  0
 17 18  1  0  0  0  0
 17 19  2  0  0  0  0
 19 20  1  0  0  0  0
 19 22  1  0  0  0  0
 20 21  1  0  0  0  0
 22 23  1  0  0  0  0
 22 24  2  0  0  0  0
 24 25  1  0  0  0  0
 26 27  2  0  0  0  0
 26 28  1  0  0  0  0
 28 29  1  0  0  0  0
 28 30  1  0  0  0  0
 30 31  1  0  0  0  0
 30 32  1  0  0  0  0
 30 33  1  0  0  0  0
M  END
$$$$

  -OEChem-04042216043D

 33 33  0     1  0  0  0  0  0999 V2000
   -3.8549   -4.0570    1.5090 H   0  0  0  0  0  0  0  0  0  0  0  0
   -3.8695   -3.1395    0.9142 C   0  0  0  0  0  0  0  0  0  0  0  0
   -4.5672   -2.4344    1.3723 H   0  0  0  0  0  0  0  0  0  0  0  0
   -4.2132   -3.3784   -0.0951 H   0  0  0  0  0  0  0  0  0  0  0  0
   -2.4808   -2.5316    0.8572 C   0  0  0  0  0  0  0  0  0  0  0  0
   -1.5372   -3.1147    1.3683 O   0  0  0  0  0  0  0  0  0  0  0  0
   -2.2900   -1.3198    0.2265 N   0  0  0  0  0  0  0  0  0  0  0  0
   -3.1237   -0.8189   -0.0775 H   0  0  0  0  0  0  0  0  0  0  0  0
   -1.0378   -0.5479    0.2585 C   0  0  1  0  0  0  0  0  0  0  0  0
   -0.4792   -0.8865    1.1369 H   0  0  0  0  0  0  0  0  0  0  0  0
   -0.1449   -0.8848   -0.9613 C   0  0  0  0  0  0  0  0  0  0  0  0
    0.8703   -1.0461   -0.5850 H   0  0  0  0  0  0  0  0  0  0  0  0
   -0.4701   -1.8368   -1.3942 H   0  0  0  0  0  0  0  0  0  0  0  0
   -0.0832    0.1467   -2.0708 C   0  0  0  0  0  0  0  0  0  0  0  0
    1.1564    0.4931   -2.6331 C   0  0  0  0  0  0  0  0  0  0  0  0
    2.0733    0.0657   -2.2382 H   0  0  0  0  0  0  0  0  0  0  0  0
    1.2306    1.3928   -3.7032 C   0  0  0  0  0  0  0  0  0  0  0  0
    2.1994    1.6561   -4.1129 H   0  0  0  0  0  0  0  0  0  0  0  0
    0.0649    1.9394   -4.2426 C   0  0  0  0  0  0  0  0  0  0  0  0
    0.1251    2.8173   -5.2864 O   0  0  0  0  0  0  0  0  0  0  0  0
    1.0488    2.9802   -5.5306 H   0  0  0  0  0  0  0  0  0  0  0  0
   -1.1716    1.5747   -3.7160 C   0  0  0  0  0  0  0  0  0  0  0  0
   -2.0759    1.9939   -4.1447 H   0  0  0  0  0  0  0  0  0  0  0  0
   -1.2497    0.6754   -2.6475 C   0  0  0  0  0  0  0  0  0  0  0  0
   -2.2271    0.3950   -2.2661 H   0  0  0  0  0  0  0  0  0  0  0  0
   -1.2928    0.9524    0.5237 C   0  0  0  0  0  0  0  0  0  0  0  0
   -2.3377    1.4700    0.1413 O   0  0  0  0  0  0  0  0  0  0  0  0
   -0.5100    1.6399    1.4341 N   0  0  0  0  0  0  0  0  0  0  0  0
    0.3117    1.1684    1.8003 H   0  0  0  0  0  0  0  0  0  0  0  0
   -0.7786    3.0123    1.8466 C   0  0  0  0  0  0  0  0  0  0  0  0
   -1.7760    3.0915    2.2919 H   0  0  0  0  0  0  0  0  0  0  0  0
   -0.0434    3.3351    2.5899 H   0  0  0  0  0  0  0  0  0  0  0  0
   -0.7219    3.6875    0.9863 H   0  0  0  0  0  0  0  0  0  0  0  0
  1  2  1  0  0  0  0
  2  3  1  0  0  0  0
  2  4  1  0  0  0  0
  2  5  1  0  0  0  0
  5  6  2  0  0  0  0
  5  7  1  0  0  0  0
  7  8  1  0  0  0  0
  7  9  1  0  0  0  0
  9 10  1  0  0  0  0
  9 11  1  0  0  0  0
  9 26  1  0  0  0  0
 11 12  1  0  0  0  0
 11 13  1  0  0  0  0
 11 14  1  0  0  0  0
 14 15  2  0  0  0  0
 14 24  1  0  0  0  0
 15 16  1  0  0  0  0
 15 17  1  0  0  0  0
 17 18  1  0  0  0  0
 17 19  2  0  0  0  0
 19 20  1  0  0  0  0
 19 22  1  0  0  0  0
 20 21  1  0  0  0  0
 22 23  1  0  0  0  0
 22 24  2  0  0  0  0
 24 25  1  0  0  0  0
 26 27  2  0  0  0  0
 26 28  1  0  0  0  0
 28 29  1  0  0  0  0
 28 30  1  0  0  0  0
 30 31  1  0  0  0  0
 30 32  1  0  0  0  0
 30 33  1  0  0  0  0
M  END
$$$$

  -OEChem-04042216043D

 33 33  0     1  0  0  0  0  0999 V2000
   -3.7886   -4.1206    1.4124 H   0  0  0  0  0  0  0  0  0  0  0  0
   -3.8414   -3.1593    0.8938 C   0  0  0  0  0  0  0  0  0  0  0  0
   -4.5313   -2.5055    1.4330 H   0  0  0  0  0  0  0  0  0  0  0  0
   -4.2216   -3.3251   -0.1172 H   0  0  0  0  0  0  0  0  0  0  0  0
   -2.4660   -2.5222    0.8317 C   0  0  0  0  0  0  0  0  0  0  0  0
   -1.5000   -3.1088    1.2949 O   0  0  0  0  0  0  0  0  0  0  0  0
   -2.3123   -1.2823    0.2468 N   0  0  0  0  0  0  0  0  0  0  0  0
   -3.1616   -0.7883   -0.0225 H   0  0  0  0  0  0  0  0  0  0  0  0
   -1.0717   -0.4918    0.2691 C   0  0  1  0  0  0  0  0  0  0  0  0
   -0.5027   -0.8513    1.1328 H   0  0  0  0  0  0  0  0  0  0  0  0
   -0.1740   -0.8079   -0.9540 C   0  0  0  0  0  0  0  0  0  0  0  0
    0.8428   -0.9457   -0.5723 H   0  0  0  0  0  0  0  0  0  0  0  0
   -0.4793   -1.7704   -1.3776 H   0  0  0  0  0  0  0  0  0  0  0  0
   -0.1075    0.2028   -2.0852 C   0  0  0  0  0  0  0  0  0  0  0  0
    1.0777    0.2995   -2.8339 C   0  0  0  0  0  0  0  0  0  0  0  0
    1.9485   -0.2849   -2.5512 H   0  0  0  0  0  0  0  0  0  0  0  0
    1.1637    1.1516   -3.9410 C   0  0  0  0  0  0  0  0  0  0  0  0
    2.0973    1.2234   -4.4880 H   0  0  0  0  0  0  0  0  0  0  0  0
    0.0529    1.8944   -4.3417 C   0  0  0  0  0  0  0  0  0  0  0  0
    0.1249    2.7293   -5.4194 O   0  0  0  0  0  0  0  0  0  0  0  0
    1.0179    2.7092   -5.7957 H   0  0  0  0  0  0  0  0  0  0  0  0
   -1.1455    1.7628   -3.6458 C   0  0  0  0  0  0  0  0  0  0  0  0
   -2.0149    2.3215   -3.9768 H   0  0  0  0  0  0  0  0  0  0  0  0
   -1.2348    0.9091   -2.5410 C   0  0  0  0  0  0  0  0  0  0  0  0
   -2.1988    0.7952   -2.0565 H   0  0  0  0  0  0  0  0  0  0  0  0
   -1.3121    0.9973    0.6025 C   0  0  0  0  0  0  0  0  0  0  0  0
   -2.3796    1.5246    0.3065 O   0  0  0  0  0  0  0  0  0  0  0  0
   -0.4923    1.6450    1.5095 N   0  0  0  0  0  0  0  0  0  0  0  0
    0.3522    1.1655    1.8070 H   0  0  0  0  0  0  0  0  0  0  0  0
   -0.7508    2.9910    2.0069 C   0  0  0  0  0  0  0  0  0  0  0  0
   -1.6979    3.0218    2.5559 H   0  0  0  0  0  0  0  0  0  0  0  0
    0.0502    3.3048    2.6830 H   0  0  0  0  0  0  0  0  0  0  0  0
   -0.8010    3.7029    1.1763 H   0  0  0  0  0  0  0  0  0  0  0  0
  1  2  1  0  0  0  0
  2  3  1  0  0  0  0
  2  4  1  0  0  0  0
  2  5  1  0  0  0  0
  5  6  2  0  0  0  0
  5  7  1  0  0  0  0
  7  8  1  0  0  0  0
  7  9  1  0  0  0  0
  9 10  1  0  0  0  0
  9 11  1  0  0  0  0
  9 26  1  0  0  0  0
 11 12  1  0  0  0  0
 11 13  1  0  0  0  0
 11 14  1  0  0  0  0
 14 15  2  0  0  0  0
 14 24  1  0  0  0  0
 15 16  1  0  0  0  0
 15 17  1  0  0  0  0
 17 18  1  0  0  0  0
 17 19  2  0  0  0  0
 19 20  1  0  0  0  0
 19 22  1  0  0  0  0
 20 21  1  0  0  0  0
 22 23  1  0  0  0  0
 22 24  2  0  0  0  0
 24 25  1  0  0  0  0
 26 27  2  0  0  0  0
 26 28  1  0  0  0  0
 28 29  1  0  0  0  0
 28 30  1  0  0  0  0
 30 31  1  0  0  0  0
 30 32  1  0  0  0  0
 30 33  1  0  0  0  0
M  END
$$$$

  -OEChem-04042216043D

 33 33  0     1  0  0  0  0  0999 V2000
   -3.6893   -4.1776    1.3702 H   0  0  0  0  0  0  0  0  0  0  0  0
   -3.7778   -3.2177    0.8537 C   0  0  0  0  0  0  0  0  0  0  0  0
   -4.5006   -2.5962    1.3879 H   0  0  0  0  0  0  0  0  0  0  0  0
   -4.1405   -3.3952   -0.1616 H   0  0  0  0  0  0  0  0  0  0  0  0
   -2.4303   -2.5217    0.8063 C   0  0  0  0  0  0  0  0  0  0  0  0
   -1.4384   -3.0790    1.2507 O   0  0  0  0  0  0  0  0  0  0  0  0
   -2.3307   -1.2611    0.2540 N   0  0  0  0  0  0  0  0  0  0  0  0
   -3.2004   -0.8006   -0.0094 H   0  0  0  0  0  0  0  0  0  0  0  0
   -1.1256   -0.4175    0.2902 C   0  0  1  0  0  0  0  0  0  0  0  0
   -0.5639   -0.7686    1.1622 H   0  0  0  0  0  0  0  0  0  0  0  0
   -0.1773   -0.7064   -0.9029 C   0  0  0  0  0  0  0  0  0  0  0  0
    0.8309   -0.7850   -0.4830 H   0  0  0  0  0  0  0  0  0  0  0  0
   -0.4230   -1.6947   -1.3053 H   0  0  0  0  0  0  0  0  0  0  0  0
   -0.0865    0.2583   -2.0756 C   0  0  0  0  0  0  0  0  0  0  0  0
    1.0093    0.1133   -2.9440 C   0  0  0  0  0  0  0  0  0  0  0  0
    1.7881   -0.6079   -2.7129 H   0  0  0  0  0  0  0  0  0  0  0  0
    1.1307    0.8940   -4.0993 C   0  0  0  0  0  0  0  0  0  0  0  0
    2.0017    0.7768   -4.7345 H   0  0  0  0  0  0  0  0  0  0  0  0
    0.1321    1.8075   -4.4338 C   0  0  0  0  0  0  0  0  0  0  0  0
    0.2343    2.5719   -5.5601 O   0  0  0  0  0  0  0  0  0  0  0  0
    1.0623    2.3723   -6.0229 H   0  0  0  0  0  0  0  0  0  0  0  0
   -0.9935    1.9148   -3.6230 C   0  0  0  0  0  0  0  0  0  0  0  0
   -1.7865    2.5995   -3.9057 H   0  0  0  0  0  0  0  0  0  0  0  0
   -1.1170    1.1328   -2.4693 C   0  0  0  0  0  0  0  0  0  0  0  0
   -2.0469    1.2037   -1.9203 H   0  0  0  0  0  0  0  0  0  0  0  0
   -1.4079    1.0544    0.6614 C   0  0  0  0  0  0  0  0  0  0  0  0
   -2.5016    1.5482    0.4069 O   0  0  0  0  0  0  0  0  0  0  0  0
   -0.5992    1.7049    1.5767 N   0  0  0  0  0  0  0  0  0  0  0  0
    0.2674    1.2494    1.8476 H   0  0  0  0  0  0  0  0  0  0  0  0
   -0.8960    3.0286    2.1113 C   0  0  0  0  0  0  0  0  0  0  0  0
   -1.8539    3.0219    2.6422 H   0  0  0  0  0  0  0  0  0  0  0  0
   -0.1151    3.3376    2.8127 H   0  0  0  0  0  0  0  0  0  0  0  0
   -0.9459    3.7648    1.3021 H   0  0  0  0  0  0  0  0  0  0  0  0
  1  2  1  0  0  0  0
  2  3  1  0  0  0  0
  2  4  1  0  0  0  0
  2  5  1  0  0  0  0
  5  6  2  0  0  0  0
  5  7  1  0  0  0  0
  7  8  1  0  0  0  0
  7  9  1  0  0  0  0
  9 10  1  0  0  0  0
  9 11  1  0  0  0  0
  9 26  1  0  0  0  0
 11 12  1  0  0  0  0
 11 13  1  0  0  0  0
 11 14  1  0  0  0  0
 14 15  2  0  0  0  0
 14 24  1  0  0  0  0
 15 16  1  0  0  0  0
 15 17  1  0  0  0  0
 17 18  1  0  0  0  0
 17 19  2  0  0  0  0
 19 20  1  0  0  0  0
 19 22  1  0  0  0  0
 20 21  1  0  0  0  0
 22 23  1  0  0  0  0
 22 24  2  0  0  0  0
 24 25  1  0  0  0  0
 26 27  2  0  0  0  0
 26 28  1  0  0  0  0
 28 29  1  0  0  0  0
 28 30  1  0  0  0  0
 30 31  1  0  0  0  0
 30 32  1  0  0  0  0
 30 33  1  0  0  0  0
M  END
$$$$

  -OEChem-04042216043D

 33 33  0     1  0  0  0  0  0999 V2000
   -3.6315   -4.2613    1.1819 H   0  0  0  0  0  0  0  0  0  0  0  0
   -3.7256   -3.2587    0.7555 C   0  0  0  0  0  0  0  0  0  0  0  0
   -4.4337   -2.6843    1.3578 H   0  0  0  0  0  0  0  0  0  0  0  0
   -4.1106   -3.3441   -0.2635 H   0  0  0  0  0  0  0  0  0  0  0  0
   -2.3761   -2.5656    0.7418 C   0  0  0  0  0  0  0  0  0  0  0  0
   -1.3814   -3.1532    1.1382 O   0  0  0  0  0  0  0  0  0  0  0  0
   -2.2754   -1.2733    0.2706 N   0  0  0  0  0  0  0  0  0  0  0  0
   -3.1427   -0.7895    0.0401 H   0  0  0  0  0  0  0  0  0  0  0  0
   -1.0588   -0.4474    0.3332 C   0  0  1  0  0  0  0  0  0  0  0  0
   -0.4400   -0.8466    1.1438 H   0  0  0  0  0  0  0  0  0  0  0  0
   -0.2173   -0.6496   -0.9638 C   0  0  0  0  0  0  0  0  0  0  0  0
    0.7314   -1.0840   -0.6314 H   0  0  0  0  0  0  0  0  0  0  0  0
   -0.7158   -1.4273   -1.5523 H   0  0  0  0  0  0  0  0  0  0  0  0
    0.1584    0.4502   -1.9600 C   0  0  0  0  0  0  0  0  0  0  0  0
    0.9283    0.0146   -3.0551 C   0  0  0  0  0  0  0  0  0  0  0  0
    1.2179   -1.0303   -3.1261 H   0  0  0  0  0  0  0  0  0  0  0  0
    1.3409    0.8924   -4.0629 C   0  0  0  0  0  0  0  0  0  0  0  0
    1.9385    0.5175   -4.8865 H   0  0  0  0  0  0  0  0  0  0  0  0
    0.9829    2.2366   -4.0060 C   0  0  0  0  0  0  0  0  0  0  0  0
    1.3769    3.1063   -4.9817 O   0  0  0  0  0  0  0  0  0  0  0  0
    1.8882    2.6369   -5.6585 H   0  0  0  0  0  0  0  0  0  0  0  0
    0.2095    2.6898   -2.9432 C   0  0  0  0  0  0  0  0  0  0  0  0
   -0.0779    3.7357   -2.9103 H   0  0  0  0  0  0  0  0  0  0  0  0
   -0.2062    1.8144   -1.9329 C   0  0  0  0  0  0  0  0  0  0  0  0
   -0.8215    2.2596   -1.1668 H   0  0  0  0  0  0  0  0  0  0  0  0
   -1.4072    0.9720    0.8128 C   0  0  0  0  0  0  0  0  0  0  0  0
   -2.4828    1.4753    0.5031 O   0  0  0  0  0  0  0  0  0  0  0  0
   -0.6288    1.5978    1.7697 N   0  0  0  0  0  0  0  0  0  0  0  0
    0.2272    1.1326    2.0583 H   0  0  0  0  0  0  0  0  0  0  0  0
   -0.9683    2.8834    2.3674 C   0  0  0  0  0  0  0  0  0  0  0  0
   -1.9154    2.8147    2.9129 H   0  0  0  0  0  0  0  0  0  0  0  0
   -0.1873    3.1922    3.0690 H   0  0  0  0  0  0  0  0  0  0  0  0
   -1.0614    3.6526    1.5937 H   0  0  0  0  0  0  0  0  0  0  0  0
  1  2  1  0  0  0  0
  2  3  1  0  0  0  0
  2  4  1  0  0  0  0
  2  5  1  0  0  0  0
  5  6  2  0  0  0  0
  5  7  1  0  0  0  0
  7  8  1  0  0  0  0
  7  9  1  0  0  0  0
  9 10  1  0  0  0  0
  9 11  1  0  0  0  0
  9 26  1  0  0  0  0
 11 12  1  0  0  0  0
 11 13  1  0  0  0  0
 11 14  1  0  0  0  0
 14 15  2  0  0  0  0
 14 24  1  0  0  0  0
 15 16  1  0  0  0  0
 15 17  1  0  0  0  0
 17 18  1  0  0  0  0
 17 19  2  0  0  0  0
 19 20  1  0  0  0  0
 19 22  1  0  0  0  0
 20 21  1  0  0  0  0
 22 23  1  0  0  0  0
 22 24  2  0  0  0  0
 24 25  1  0  0  0  0
 26 27  2  0  0  0  0
 26 28  1  0  0  0  0
 28 29  1  0  0  0  0
 28 30  1  0  0  0  0
 30 31  1  0  0  0  0
 30 32  1  0  0  0  0
 30 33  1  0  0  0  0
M  END
$$$$

  -OEChem-04042216043D

 33 33  0     1  0  0  0  0  0999 V2000
   -3.7210   -4.1902    1.2654 H   0  0  0  0  0  0  0  0  0  0  0  0
   -3.7713   -3.2216    0.7603 C   0  0  0  0  0  0  0  0  0  0  0  0
   -4.5076   -2.5957    1.2704 H   0  0  0  0  0  0  0  0  0  0  0  0
   -4.0903   -3.3785   -0.2729 H   0  0  0  0  0  0  0  0  0  0  0  0
   -2.4121   -2.5483    0.7854 C   0  0  0  0  0  0  0  0  0  0  0  0
   -1.4491   -3.1296    1.2611 O   0  0  0  0  0  0  0  0  0  0  0  0
   -2.2668   -1.2791    0.2667 N   0  0  0  0  0  0  0  0  0  0  0  0
   -3.1115   -0.7930   -0.0340 H   0  0  0  0  0  0  0  0  0  0  0  0
   -1.0376   -0.4734    0.3501 C   0  0  1  0  0  0  0  0  0  0  0  0
   -0.4241   -0.8499    1.1752 H   0  0  0  0  0  0  0  0  0  0  0  0
   -0.2158   -0.6973   -0.9585 C   0  0  0  0  0  0  0  0  0  0  0  0
    0.7276   -1.1553   -0.6442 H   0  0  0  0  0  0  0  0  0  0  0  0
   -0.7402   -1.4613   -1.5427 H   0  0  0  0  0  0  0  0  0  0  0  0
    0.1695    0.4086   -1.9444 C   0  0  0  0  0  0  0  0  0  0  0  0
    0.6112   -0.0331   -3.2063 C   0  0  0  0  0  0  0  0  0  0  0  0
    0.6138   -1.0953   -3.4350 H   0  0  0  0  0  0  0  0  0  0  0  0
    1.0419    0.8620   -4.1916 C   0  0  0  0  0  0  0  0  0  0  0  0
    1.3585    0.4818   -5.1566 H   0  0  0  0  0  0  0  0  0  0  0  0
    1.0663    2.2294   -3.9292 C   0  0  0  0  0  0  0  0  0  0  0  0
    1.4819    3.1168   -4.8797 O   0  0  0  0  0  0  0  0  0  0  0  0
    1.6909    2.6483   -5.7023 H   0  0  0  0  0  0  0  0  0  0  0  0
    0.6758    2.6882   -2.6764 C   0  0  0  0  0  0  0  0  0  0  0  0
    0.7138    3.7531   -2.4709 H   0  0  0  0  0  0  0  0  0  0  0  0
    0.2460    1.7950   -1.6880 C   0  0  0  0  0  0  0  0  0  0  0  0
   -0.0012    2.2400   -0.7365 H   0  0  0  0  0  0  0  0  0  0  0  0
   -1.4331    0.9568    0.7580 C   0  0  0  0  0  0  0  0  0  0  0  0
   -2.4505    1.4717    0.3064 O   0  0  0  0  0  0  0  0  0  0  0  0
   -0.7167    1.6271    1.7342 N   0  0  0  0  0  0  0  0  0  0  0  0
    0.0827    1.1510    2.1430 H   0  0  0  0  0  0  0  0  0  0  0  0
   -1.0876    2.9436    2.2390 C   0  0  0  0  0  0  0  0  0  0  0  0
   -2.0866    2.9156    2.6869 H   0  0  0  0  0  0  0  0  0  0  0  0
   -0.3758    3.2703    3.0032 H   0  0  0  0  0  0  0  0  0  0  0  0
   -1.0850    3.6790    1.4275 H   0  0  0  0  0  0  0  0  0  0  0  0
  1  2  1  0  0  0  0
  2  3  1  0  0  0  0
  2  4  1  0  0  0  0
  2  5  1  0  0  0  0
  5  6  2  0  0  0  0
  5  7  1  0  0  0  0
  7  8  1  0  0  0  0
  7  9  1  0  0  0  0
  9 10  1  0  0  0  0
  9 11  1  0  0  0  0
  9 26  1  0  0  0  0
 11 12  1  0  0  0  0
 11 13  1  0  0  0  0
 11 14  1  0  0  0  0
 14 15  2  0  0  0  0
 14 24  1  0  0  0  0
 15 16  1  0  0  0  0
 15 17  1  0  0  0  0
 17 18  1  0  0  0  0
 17 19  2  0  0  0  0
 19 20  1  0  0  0  0
 19 22  1  0  0  0  0
 20 21  1  0  0  0  0
 22 23  1  0  0  0  0
 22 24  2  0  0  0  0
 24 25  1  0  0  0  0
 26 27  2  0  0  0  0
 26 28  1  0  0  0  0
 28 29  1  0  0  0  0
 28 30  1  0  0  0  0
 30 31  1  0  0  0  0
 30 32  1  0  0  0  0
 30 33  1  0  0  0  0
M  END
$$$$

  -OEChem-04042216043D

 33 33  0     1  0  0  0  0  0999 V2000
   -3.7784   -4.1365    1.3545 H   0  0  0  0  0  0  0  0  0  0  0  0
   -3.8005   -3.1858    0.8146 C   0  0  0  0  0  0  0  0  0  0  0  0
   -4.5300   -2.5266    1.2916 H   0  0  0  0  0  0  0  0  0  0  0  0
   -4.1088   -3.3726   -0.2169 H   0  0  0  0  0  0  0  0  0  0  0  0
   -2.4275   -2.5407    0.8352 C   0  0  0  0  0  0  0  0  0  0  0  0
   -1.4876   -3.1161    1.3611 O   0  0  0  0  0  0  0  0  0  0  0  0
   -2.2449   -1.3012    0.2599 N   0  0  0  0  0  0  0  0  0  0  0  0
   -3.0733   -0.8115   -0.0780 H   0  0  0  0  0  0  0  0  0  0  0  0
   -1.0035   -0.5146    0.3388 C   0  0  1  0  0  0  0  0  0  0  0  0
   -0.3955   -0.8658    1.1789 H   0  0  0  0  0  0  0  0  0  0  0  0
   -0.1981   -0.7760   -0.9714 C   0  0  0  0  0  0  0  0  0  0  0  0
    0.7461   -1.2407   -0.6706 H   0  0  0  0  0  0  0  0  0  0  0  0
   -0.7346   -1.5347   -1.5514 H   0  0  0  0  0  0  0  0  0  0  0  0
    0.1664    0.3568   -1.9259 C   0  0  0  0  0  0  0  0  0  0  0  0
    0.2765    0.0408   -3.2925 C   0  0  0  0  0  0  0  0  0  0  0  0
    0.0150   -0.9541   -3.6414 H   0  0  0  0  0  0  0  0  0  0  0  0
    0.7000    0.9897   -4.2299 C   0  0  0  0  0  0  0  0  0  0  0  0
    0.7472    0.7193   -5.2790 H   0  0  0  0  0  0  0  0  0  0  0  0
    1.0665    2.2682   -3.8139 C   0  0  0  0  0  0  0  0  0  0  0  0
    1.4820    3.2036   -4.7170 O   0  0  0  0  0  0  0  0  0  0  0  0
    1.4147    2.8484   -5.6165 H   0  0  0  0  0  0  0  0  0  0  0  0
    1.0333    2.5798   -2.4588 C   0  0  0  0  0  0  0  0  0  0  0  0
    1.3516    3.5658   -2.1366 H   0  0  0  0  0  0  0  0  0  0  0  0
    0.6126    1.6306   -1.5206 C   0  0  0  0  0  0  0  0  0  0  0  0
    0.6730    1.9114   -0.4784 H   0  0  0  0  0  0  0  0  0  0  0  0
   -1.4062    0.9382    0.6673 C   0  0  0  0  0  0  0  0  0  0  0  0
   -2.4095    1.4322    0.1633 O   0  0  0  0  0  0  0  0  0  0  0  0
   -0.7188    1.6525    1.6337 N   0  0  0  0  0  0  0  0  0  0  0  0
    0.0468    1.1842    2.1103 H   0  0  0  0  0  0  0  0  0  0  0  0
   -1.1087    2.9883    2.0687 C   0  0  0  0  0  0  0  0  0  0  0  0
   -2.1168    2.9736    2.4964 H   0  0  0  0  0  0  0  0  0  0  0  0
   -0.4148    3.3555    2.8310 H   0  0  0  0  0  0  0  0  0  0  0  0
   -1.0944    3.6852    1.2239 H   0  0  0  0  0  0  0  0  0  0  0  0
  1  2  1  0  0  0  0
  2  3  1  0  0  0  0
  2  4  1  0  0  0  0
  2  5  1  0  0  0  0
  5  6  2  0  0  0  0
  5  7  1  0  0  0  0
  7  8  1  0  0  0  0
  7  9  1  0  0  0  0
  9 10  1  0  0  0  0
  9 11  1  0  0  0  0
  9 26  1  0  0  0  0
 11 12  1  0  0  0  0
 11 13  1  0  0  0  0
 11 14  1  0  0  0  0
 14 15  2  0  0  0  0
 14 24  1  0  0  0  0
 15 16  1  0  0  0  0
 15 17  1  0  0  0  0
 17 18  1  0  0  0  0
 17 19  2  0  0  0  0
 19 20  1  0  0  0  0
 19 22  1  0  0  0  0
 20 21  1  0  0  0  0
 22 23  1  0  0  0  0
 22 24  2  0  0  0  0
 24 25  1  0  0  0  0
 26 27  2  0  0  0  0
 26 28  1  0  0  0  0
 28 29  1  0  0  0  0
 28 30  1  0  0  0  0
 30 31  1  0  0  0  0
 30 32  1  0  0  0  0
 30 33  1  0  0  0  0
M  END
$$$$

  -OEChem-04042216043D

 33 33  0     1  0  0  0  0  0999 V2000
   -3.8342   -4.0997    1.4250 H   0  0  0  0  0  0  0  0  0  0  0  0
   -3.8351   -3.1669    0.8541 C   0  0  0  0  0  0  0  0  0  0  0  0
   -4.5575   -2.4804    1.3024 H   0  0  0  0  0  0  0  0  0  0  0  0
   -4.1367   -3.3822   -0.1738 H   0  0  0  0  0  0  0  0  0  0  0  0
   -2.4520   -2.5441    0.8674 C   0  0  0  0  0  0  0  0  0  0  0  0
   -1.5289   -3.1134    1.4286 O   0  0  0  0  0  0  0  0  0  0  0  0
   -2.2412   -1.3318    0.2459 N   0  0  0  0  0  0  0  0  0  0  0  0
   -3.0570   -0.8422   -0.1215 H   0  0  0  0  0  0  0  0  0  0  0  0
   -0.9915   -0.5585    0.3201 C   0  0  1  0  0  0  0  0  0  0  0  0
   -0.4018   -0.8886    1.1815 H   0  0  0  0  0  0  0  0  0  0  0  0
   -0.1663   -0.8520   -0.9664 C   0  0  0  0  0  0  0  0  0  0  0  0
    0.7758   -1.3117   -0.6515 H   0  0  0  0  0  0  0  0  0  0  0  0
   -0.6916   -1.6126   -1.5534 H   0  0  0  0  0  0  0  0  0  0  0  0
    0.1870    0.3059   -1.8863 C   0  0  0  0  0  0  0  0  0  0  0  0
    0.0179    0.1516   -3.2729 C   0  0  0  0  0  0  0  0  0  0  0  0
   -0.4436   -0.7490   -3.6672 H   0  0  0  0  0  0  0  0  0  0  0  0
    0.4163    1.1547   -4.1646 C   0  0  0  0  0  0  0  0  0  0  0  0
    0.2492    1.0207   -5.2277 H   0  0  0  0  0  0  0  0  0  0  0  0
    1.0293    2.3133   -3.6877 C   0  0  0  0  0  0  0  0  0  0  0  0
    1.4198    3.2996   -4.5467 O   0  0  0  0  0  0  0  0  0  0  0  0
    1.1412    3.0816   -5.4493 H   0  0  0  0  0  0  0  0  0  0  0  0
    1.2627    2.4521   -2.3226 C   0  0  0  0  0  0  0  0  0  0  0  0
    1.7647    3.3434   -1.9615 H   0  0  0  0  0  0  0  0  0  0  0  0
    0.8662    1.4508   -1.4299 C   0  0  0  0  0  0  0  0  0  0  0  0
    1.1093    1.5735   -0.3808 H   0  0  0  0  0  0  0  0  0  0  0  0
   -1.3701    0.9165    0.5804 C   0  0  0  0  0  0  0  0  0  0  0  0
   -2.3624    1.4017    0.0465 O   0  0  0  0  0  0  0  0  0  0  0  0
   -0.6883    1.6585    1.5294 N   0  0  0  0  0  0  0  0  0  0  0  0
    0.0693    1.2033    2.0302 H   0  0  0  0  0  0  0  0  0  0  0  0
   -1.0440    3.0283    1.8795 C   0  0  0  0  0  0  0  0  0  0  0  0
   -2.0631    3.0702    2.2783 H   0  0  0  0  0  0  0  0  0  0  0  0
   -0.3585    3.4142    2.6398 H   0  0  0  0  0  0  0  0  0  0  0  0
   -0.9830    3.6763    0.9986 H   0  0  0  0  0  0  0  0  0  0  0  0
  1  2  1  0  0  0  0
  2  3  1  0  0  0  0
  2  4  1  0  0  0  0
  2  5  1  0  0  0  0
  5  6  2  0  0  0  0
  5  7  1  0  0  0  0
  7  8  1  0  0  0  0
  7  9  1  0  0  0  0
  9 10  1  0  0  0  0
  9 11  1  0  0  0  0
  9 26  1  0  0  0  0
 11 12  1  0  0  0  0
 11 13  1  0  0  0  0
 11 14  1  0  0  0  0
 14 15  2  0  0  0  0
 14 24  1  0  0  0  0
 15 16  1  0  0  0  0
 15 17  1  0  0  0  0
 17 18  1  0  0  0  0
 17 19  2  0  0  0  0
 19 20  1  0  0  0  0
 19 22  1  0  0  0  0
 20 21  1  0  0  0  0
 22 23  1  0  0  0  0
 22 24  2  0  0  0  0
 24 25  1  0  0  0  0
 26 27  2  0  0  0  0
 26 28  1  0  0  0  0
 28 29  1  0  0  0  0
 28 30  1  0  0  0  0
 30 31  1  0  0  0  0
 30 32  1  0  0  0  0
 30 33  1  0  0  0  0
M  END
$$$$

  -OEChem-04042216043D

 33 33  0     1  0  0  0  0  0999 V2000
   -3.8738   -4.0639    1.4855 H   0  0  0  0  0  0  0  0  0  0  0  0
   -3.8595   -3.1509    0.8835 C   0  0  0  0  0  0  0  0  0  0  0  0
   -4.5771   -2.4414    1.3029 H   0  0  0  0  0  0  0  0  0  0  0  0
   -4.1568   -3.3979   -0.1385 H   0  0  0  0  0  0  0  0  0  0  0  0
   -2.4692   -2.5438    0.8856 C   0  0  0  0  0  0  0  0  0  0  0  0
   -1.5565   -3.1069    1.4698 O   0  0  0  0  0  0  0  0  0  0  0  0
   -2.2413   -1.3522    0.2305 N   0  0  0  0  0  0  0  0  0  0  0  0
   -3.0506   -0.8615   -0.1493 H   0  0  0  0  0  0  0  0  0  0  0  0
   -0.9851   -0.5900    0.2981 C   0  0  1  0  0  0  0  0  0  0  0  0
   -0.4124   -0.9044    1.1765 H   0  0  0  0  0  0  0  0  0  0  0  0
   -0.1356   -0.9085   -0.9625 C   0  0  0  0  0  0  0  0  0  0  0  0
    0.8028   -1.3631   -0.6292 H   0  0  0  0  0  0  0  0  0  0  0  0
   -0.6475   -1.6716   -1.5579 H   0  0  0  0  0  0  0  0  0  0  0  0
    0.2119    0.2640   -1.8597 C   0  0  0  0  0  0  0  0  0  0  0  0
   -0.2089    0.2751   -3.1989 C   0  0  0  0  0  0  0  0  0  0  0  0
   -0.8392   -0.5240   -3.5778 H   0  0  0  0  0  0  0  0  0  0  0  0
    0.1597    1.3200   -4.0549 C   0  0  0  0  0  0  0  0  0  0  0  0
   -0.1927    1.3177   -5.0804 H   0  0  0  0  0  0  0  0  0  0  0  0
    0.9765    2.3526   -3.5910 C   0  0  0  0  0  0  0  0  0  0  0  0
    1.3408    3.3773   -4.4159 O   0  0  0  0  0  0  0  0  0  0  0  0
    0.9032    3.2813   -5.2757 H   0  0  0  0  0  0  0  0  0  0  0  0
    1.4337    2.3295   -2.2758 C   0  0  0  0  0  0  0  0  0  0  0  0
    2.0811    3.1276   -1.9282 H   0  0  0  0  0  0  0  0  0  0  0  0
    1.0671    1.2879   -1.4173 C   0  0  0  0  0  0  0  0  0  0  0  0
    1.4554    1.2806   -0.4042 H   0  0  0  0  0  0  0  0  0  0  0  0
   -1.3333    0.9003    0.5109 C   0  0  0  0  0  0  0  0  0  0  0  0
   -2.3188    1.3862   -0.0356 O   0  0  0  0  0  0  0  0  0  0  0  0
   -0.6424    1.6517    1.4451 N   0  0  0  0  0  0  0  0  0  0  0  0
    0.1141    1.1993    1.9496 H   0  0  0  0  0  0  0  0  0  0  0  0
   -0.9579    3.0430    1.7434 C   0  0  0  0  0  0  0  0  0  0  0  0
   -1.9914    3.1364    2.0935 H   0  0  0  0  0  0  0  0  0  0  0  0
   -0.2928    3.4210    2.5255 H   0  0  0  0  0  0  0  0  0  0  0  0
   -0.8305    3.6637    0.8501 H   0  0  0  0  0  0  0  0  0  0  0  0
  1  2  1  0  0  0  0
  2  3  1  0  0  0  0
  2  4  1  0  0  0  0
  2  5  1  0  0  0  0
  5  6  2  0  0  0  0
  5  7  1  0  0  0  0
  7  8  1  0  0  0  0
  7  9  1  0  0  0  0
  9 10  1  0  0  0  0
  9 11  1  0  0  0  0
  9 26  1  0  0  0  0
 11 12  1  0  0  0  0
 11 13  1  0  0  0  0
 11 14  1  0  0  0  0
 14 15  2  0  0  0  0
 14 24  1  0  0  0  0
 15 16  1  0  0  0  0
 15 17  1  0  0  0  0
 17 18  1  0  0  0  0
 17 19  2  0  0  0  0
 19 20  1  0  0  0  0
 19 22  1  0  0  0  0
 20 21  1  0  0  0  0
 22 23  1  0  0  0  0
 22 24  2  0  0  0  0
 24 25  1  0  0  0  0
 26 27  2  0  0  0  0
 26 28  1  0  0  0  0
 28 29  1  0  0  0  0
 28 30  1  0  0  0  0
 30 31  1  0  0  0  0
 30 32  1  0  0  0  0
 30 33  1  0  0  0  0
M  END
$$$$

  -OEChem-04042216043D

 33 33  0     1  0  0  0  0  0999 V2000
   -3.9090   -4.0368    1.5057 H   0  0  0  0  0  0  0  0  0  0  0  0
   -3.8821   -3.1307    0.8937 C   0  0  0  0  0  0  0  0  0  0  0  0
   -4.5877   -2.4056    1.3066 H   0  0  0  0  0  0  0  0  0  0  0  0
   -4.1851   -3.3842   -0.1251 H   0  0  0  0  0  0  0  0  0  0  0  0
   -2.4829   -2.5444    0.8872 C   0  0  0  0  0  0  0  0  0  0  0  0
   -1.5792   -3.1110    1.4817 O   0  0  0  0  0  0  0  0  0  0  0  0
   -2.2376   -1.3670    0.2132 N   0  0  0  0  0  0  0  0  0  0  0  0
   -3.0419   -0.8681   -0.1663 H   0  0  0  0  0  0  0  0  0  0  0  0
   -0.9754   -0.6150    0.2801 C   0  0  1  0  0  0  0  0  0  0  0  0
   -0.4183   -0.9210    1.1714 H   0  0  0  0  0  0  0  0  0  0  0  0
   -0.1062   -0.9537   -0.9586 C   0  0  0  0  0  0  0  0  0  0  0  0
    0.8258   -1.4095   -0.6090 H   0  0  0  0  0  0  0  0  0  0  0  0
   -0.6101   -1.7148   -1.5635 H   0  0  0  0  0  0  0  0  0  0  0  0
    0.2415    0.2261   -1.8404 C   0  0  0  0  0  0  0  0  0  0  0  0
   -0.4041    0.4077   -3.0721 C   0  0  0  0  0  0  0  0  0  0  0  0
   -1.1840   -0.2808   -3.3835 H   0  0  0  0  0  0  0  0  0  0  0  0
   -0.0657    1.4855   -3.8989 C   0  0  0  0  0  0  0  0  0  0  0  0
   -0.5859    1.6168   -4.8412 H   0  0  0  0  0  0  0  0  0  0  0  0
    0.9306    2.3833   -3.5100 C   0  0  0  0  0  0  0  0  0  0  0  0
    1.2650    3.4398   -4.3071 O   0  0  0  0  0  0  0  0  0  0  0  0
    0.6812    3.4673   -5.0807 H   0  0  0  0  0  0  0  0  0  0  0  0
    1.5919    2.1962   -2.2979 C   0  0  0  0  0  0  0  0  0  0  0  0
    2.3694    2.8953   -2.0082 H   0  0  0  0  0  0  0  0  0  0  0  0
    1.2568    1.1215   -1.4675 C   0  0  0  0  0  0  0  0  0  0  0  0
    1.7889    0.9877   -0.5309 H   0  0  0  0  0  0  0  0  0  0  0  0
   -1.2995    0.8853    0.4626 C   0  0  0  0  0  0  0  0  0  0  0  0
   -2.2839    1.3705   -0.0875 O   0  0  0  0  0  0  0  0  0  0  0  0
   -0.6048    1.6435    1.3880 N   0  0  0  0  0  0  0  0  0  0  0  0
    0.1763    1.2052    1.8664 H   0  0  0  0  0  0  0  0  0  0  0  0
   -0.8905    3.0499    1.6423 C   0  0  0  0  0  0  0  0  0  0  0  0
   -1.9247    3.1764    1.9797 H   0  0  0  0  0  0  0  0  0  0  0  0
   -0.2244    3.4370    2.4192 H   0  0  0  0  0  0  0  0  0  0  0  0
   -0.7413    3.6400    0.7319 H   0  0  0  0  0  0  0  0  0  0  0  0
  1  2  1  0  0  0  0
  2  3  1  0  0  0  0
  2  4  1  0  0  0  0
  2  5  1  0  0  0  0
  5  6  2  0  0  0  0
  5  7  1  0  0  0  0
  7  8  1  0  0  0  0
  7  9  1  0  0  0  0
  9 10  1  0  0  0  0
  9 11  1  0  0  0  0
  9 26  1  0  0  0  0
 11 12  1  0  0  0  0
 11 13  1  0  0  0  0
 11 14  1  0  0  0  0
 14 15  2  0  0  0  0
 14 24  1  0  0  0  0
 15 16  1  0  0  0  0
 15 17  1  0  0  0  0
 17 18  1  0  0  0  0
 17 19  2  0  0  0  0
 19 20  1  0  0  0  0
 19 22  1  0  0  0  0
 20 21  1  0  0  0  0
 22 23  1  0  0  0  0
 22 24  2  0  0  0  0
 24 25  1  0  0  0  0
 26 27  2  0  0  0  0
 26 28  1  0  0  0  0
 28 29  1  0  0  0  0
 28 30  1  0  0  0  0
 30 31  1  0  0  0  0
 30 32  1  0  0  0  0
 30 33  1  0  0  0  0
M  END
$$$$

  -OEChem-04042216043D

 33 33  0     1  0  0  0  0  0999 V2000
   -3.9255   -4.0248    1.5143 H   0  0  0  0  0  0  0  0  0  0  0  0
   -3.8939   -3.1236    0.8958 C   0  0  0  0  0  0  0  0  0  0  0  0
   -4.5969   -2.3927    1.3025 H   0  0  0  0  0  0  0  0  0  0  0  0
   -4.1960   -3.3833   -0.1216 H   0  0  0  0  0  0  0  0  0  0  0  0
   -2.4921   -2.5437    0.8869 C   0  0  0  0  0  0  0  0  0  0  0  0
   -1.5915   -3.1116    1.4850 O   0  0  0  0  0  0  0  0  0  0  0  0
   -2.2401   -1.3727    0.2037 N   0  0  0  0  0  0  0  0  0  0  0  0
   -3.0423   -0.8711   -0.1761 H   0  0  0  0  0  0  0  0  0  0  0  0
   -0.9742   -0.6265    0.2688 C   0  0  1  0  0  0  0  0  0  0  0  0
   -0.4256   -0.9280    1.1668 H   0  0  0  0  0  0  0  0  0  0  0  0
   -0.0923   -0.9771   -0.9560 C   0  0  0  0  0  0  0  0  0  0  0  0
    0.8318   -1.4403   -0.5962 H   0  0  0  0  0  0  0  0  0  0  0  0
   -0.5961   -1.7323   -1.5682 H   0  0  0  0  0  0  0  0  0  0  0  0
    0.2597    0.2019   -1.8347 C   0  0  0  0  0  0  0  0  0  0  0  0
   -0.5689    0.5624   -2.9071 C   0  0  0  0  0  0  0  0  0  0  0  0
   -1.4769   -0.0003   -3.1035 H   0  0  0  0  0  0  0  0  0  0  0  0
   -0.2464    1.6602   -3.7134 C   0  0  0  0  0  0  0  0  0  0  0  0
   -0.9055    1.9306   -4.5309 H   0  0  0  0  0  0  0  0  0  0  0  0
    0.9088    2.4025   -3.4597 C   0  0  0  0  0  0  0  0  0  0  0  0
    1.2268    3.4786   -4.2363 O   0  0  0  0  0  0  0  0  0  0  0  0
    0.5273    3.6308   -4.8904 H   0  0  0  0  0  0  0  0  0  0  0  0
    1.7424    2.0420   -2.4026 C   0  0  0  0  0  0  0  0  0  0  0  0
    2.6392    2.6235   -2.2159 H   0  0  0  0  0  0  0  0  0  0  0  0
    1.4242    0.9468   -1.5923 C   0  0  0  0  0  0  0  0  0  0  0  0
    2.0855    0.6802   -0.7735 H   0  0  0  0  0  0  0  0  0  0  0  0
   -1.2825    0.8791    0.4385 C   0  0  0  0  0  0  0  0  0  0  0  0
   -2.2699    1.3653   -0.1062 O   0  0  0  0  0  0  0  0  0  0  0  0
   -0.5821    1.6376    1.3590 N   0  0  0  0  0  0  0  0  0  0  0  0
    0.2182    1.2065    1.8114 H   0  0  0  0  0  0  0  0  0  0  0  0
   -0.8425    3.0534    1.5872 C   0  0  0  0  0  0  0  0  0  0  0  0
   -1.8782    3.2067    1.9083 H   0  0  0  0  0  0  0  0  0  0  0  0
   -0.1792    3.4390    2.3672 H   0  0  0  0  0  0  0  0  0  0  0  0
   -0.6690    3.6257    0.6698 H   0  0  0  0  0  0  0  0  0  0  0  0
  1  2  1  0  0  0  0
  2  3  1  0  0  0  0
  2  4  1  0  0  0  0
  2  5  1  0  0  0  0
  5  6  2  0  0  0  0
  5  7  1  0  0  0  0
  7  8  1  0  0  0  0
  7  9  1  0  0  0  0
  9 10  1  0  0  0  0
  9 11  1  0  0  0  0
  9 26  1  0  0  0  0
 11 12  1  0  0  0  0
 11 13  1  0  0  0  0
 11 14  1  0  0  0  0
 14 15  2  0  0  0  0
 14 24  1  0  0  0  0
 15 16  1  0  0  0  0
 15 17  1  0  0  0  0
 17 18  1  0  0  0  0
 17 19  2  0  0  0  0
 19 20  1  0  0  0  0
 19 22  1  0  0  0  0
 20 21  1  0  0  0  0
 22 23  1  0  0  0  0
 22 24  2  0  0  0  0
 24 25  1  0  0  0  0
 26 27  2  0  0  0  0
 26 28  1  0  0  0  0
 28 29  1  0  0  0  0
 28 30  1  0  0  0  0
 30 31  1  0  0  0  0
 30 32  1  0  0  0  0
 30 33  1  0  0  0  0
M  END
$$$$

  -OEChem-04042216043D

 33 33  0     1  0  0  0  0  0999 V2000
   -3.9158   -4.0314    1.5028 H   0  0  0  0  0  0  0  0  0  0  0  0
   -3.8932   -3.1229    0.8945 C   0  0  0  0  0  0  0  0  0  0  0  0
   -4.5925   -2.3979    1.3181 H   0  0  0  0  0  0  0  0  0  0  0  0
   -4.2074   -3.3712   -0.1221 H   0  0  0  0  0  0  0  0  0  0  0  0
   -2.4921   -2.5415    0.8754 C   0  0  0  0  0  0  0  0  0  0  0  0
   -1.5845   -3.1139    1.4583 O   0  0  0  0  0  0  0  0  0  0  0  0
   -2.2495   -1.3637    0.2007 N   0  0  0  0  0  0  0  0  0  0  0  0
   -3.0577   -0.8592   -0.1619 H   0  0  0  0  0  0  0  0  0  0  0  0
   -0.9857   -0.6137    0.2630 C   0  0  1  0  0  0  0  0  0  0  0  0
   -0.4411   -0.9185    1.1626 H   0  0  0  0  0  0  0  0  0  0  0  0
   -0.0922   -0.9684   -0.9526 C   0  0  0  0  0  0  0  0  0  0  0  0
    0.8263   -1.4315   -0.5781 H   0  0  0  0  0  0  0  0  0  0  0  0
   -0.5909   -1.7276   -1.5642 H   0  0  0  0  0  0  0  0  0  0  0  0
    0.2669    0.1983   -1.8466 C   0  0  0  0  0  0  0  0  0  0  0  0
   -0.6806    0.7414   -2.7273 C   0  0  0  0  0  0  0  0  0  0  0  0
   -1.6829    0.3241   -2.7681 H   0  0  0  0  0  0  0  0  0  0  0  0
   -0.3531    1.8356   -3.5358 C   0  0  0  0  0  0  0  0  0  0  0  0
   -1.1040    2.2469   -4.2011 H   0  0  0  0  0  0  0  0  0  0  0  0
    0.9249    2.3945   -3.4761 C   0  0  0  0  0  0  0  0  0  0  0  0
    1.2512    3.4662   -4.2555 O   0  0  0  0  0  0  0  0  0  0  0  0
    0.4780    3.7477   -4.7684 H   0  0  0  0  0  0  0  0  0  0  0  0
    1.8737    1.8549   -2.6097 C   0  0  0  0  0  0  0  0  0  0  0  0
    2.8650    2.2946   -2.5730 H   0  0  0  0  0  0  0  0  0  0  0  0
    1.5507    0.7629   -1.7968 C   0  0  0  0  0  0  0  0  0  0  0  0
    2.3038    0.3586   -1.1270 H   0  0  0  0  0  0  0  0  0  0  0  0
   -1.2841    0.8918    0.4481 C   0  0  0  0  0  0  0  0  0  0  0  0
   -2.2882    1.3805   -0.0635 O   0  0  0  0  0  0  0  0  0  0  0  0
   -0.5720    1.6393    1.3685 N   0  0  0  0  0  0  0  0  0  0  0  0
    0.2455    1.2092    1.7907 H   0  0  0  0  0  0  0  0  0  0  0  0
   -0.8401    3.0480    1.6296 C   0  0  0  0  0  0  0  0  0  0  0  0
   -1.8689    3.1849    1.9788 H   0  0  0  0  0  0  0  0  0  0  0  0
   -0.1618    3.4251    2.4008 H   0  0  0  0  0  0  0  0  0  0  0  0
   -0.6944    3.6393    0.7195 H   0  0  0  0  0  0  0  0  0  0  0  0
  1  2  1  0  0  0  0
  2  3  1  0  0  0  0
  2  4  1  0  0  0  0
  2  5  1  0  0  0  0
  5  6  2  0  0  0  0
  5  7  1  0  0  0  0
  7  8  1  0  0  0  0
  7  9  1  0  0  0  0
  9 10  1  0  0  0  0
  9 11  1  0  0  0  0
  9 26  1  0  0  0  0
 11 12  1  0  0  0  0
 11 13  1  0  0  0  0
 11 14  1  0  0  0  0
 14 15  2  0  0  0  0
 14 24  1  0  0  0  0
 15 16  1  0  0  0  0
 15 17  1  0  0  0  0
 17 18  1  0  0  0  0
 17 19  2  0  0  0  0
 19 20  1  0  0  0  0
 19 22  1  0  0  0  0
 20 21  1  0  0  0  0
 22 23  1  0  0  0  0
 22 24  2  0  0  0  0
 24 25  1  0  0  0  0
 26 27  2  0  0  0  0
 26 28  1  0  0  0  0
 28 29  1  0  0  0  0
 28 30  1  0  0  0  0
 30 31  1  0  0  0  0
 30 32  1  0  0  0  0
 30 33  1  0  0  0  0
M  END
$$$$

  -OEChem-04042216043D

 33 33  0     1  0  0  0  0  0999 V2000
   -3.8723   -4.0679    1.4813 H   0  0  0  0  0  0  0  0  0  0  0  0
   -3.8749   -3.1459    0.8930 C   0  0  0  0  0  0  0  0  0  0  0  0
   -4.5762   -2.4412    1.3463 H   0  0  0  0  0  0  0  0  0  0  0  0
   -4.2058   -3.3763   -0.1226 H   0  0  0  0  0  0  0  0  0  0  0  0
   -2.4832   -2.5429    0.8587 C   0  0  0  0  0  0  0  0  0  0  0  0
   -1.5533   -3.1203    1.4002 O   0  0  0  0  0  0  0  0  0  0  0  0
   -2.2727   -1.3442    0.2096 N   0  0  0  0  0  0  0  0  0  0  0  0
   -3.0973   -0.8420   -0.1169 H   0  0  0  0  0  0  0  0  0  0  0  0
   -1.0185   -0.5766    0.2639 C   0  0  1  0  0  0  0  0  0  0  0  0
   -0.4705   -0.8914    1.1578 H   0  0  0  0  0  0  0  0  0  0  0  0
   -0.1113   -0.9263   -0.9453 C   0  0  0  0  0  0  0  0  0  0  0  0
    0.8061   -1.3778   -0.5542 H   0  0  0  0  0  0  0  0  0  0  0  0
   -0.5989   -1.6998   -1.5479 H   0  0  0  0  0  0  0  0  0  0  0  0
    0.2551    0.2144   -1.8740 C   0  0  0  0  0  0  0  0  0  0  0  0
   -0.7288    0.9434   -2.5613 C   0  0  0  0  0  0  0  0  0  0  0  0
   -1.7775    0.6825   -2.4466 H   0  0  0  0  0  0  0  0  0  0  0  0
   -0.3750    2.0139   -3.3902 C   0  0  0  0  0  0  0  0  0  0  0  0
   -1.1540    2.5663   -3.9040 H   0  0  0  0  0  0  0  0  0  0  0  0
    0.9662    2.3671   -3.5460 C   0  0  0  0  0  0  0  0  0  0  0  0
    1.3218    3.4130   -4.3473 O   0  0  0  0  0  0  0  0  0  0  0  0
    0.5284    3.8243   -4.7234 H   0  0  0  0  0  0  0  0  0  0  0  0
    1.9503    1.6454   -2.8743 C   0  0  0  0  0  0  0  0  0  0  0  0
    2.9906    1.9256   -3.0031 H   0  0  0  0  0  0  0  0  0  0  0  0
    1.6012    0.5759   -2.0426 C   0  0  0  0  0  0  0  0  0  0  0  0
    2.3863    0.0306   -1.5273 H   0  0  0  0  0  0  0  0  0  0  0  0
   -1.3102    0.9237    0.4939 C   0  0  0  0  0  0  0  0  0  0  0  0
   -2.3400    1.4192    0.0441 O   0  0  0  0  0  0  0  0  0  0  0  0
   -0.5735    1.6453    1.4158 N   0  0  0  0  0  0  0  0  0  0  0  0
    0.2626    1.2088    1.7929 H   0  0  0  0  0  0  0  0  0  0  0  0
   -0.8486    3.0385    1.7453 C   0  0  0  0  0  0  0  0  0  0  0  0
   -1.8636    3.1465    2.1421 H   0  0  0  0  0  0  0  0  0  0  0  0
   -0.1438    3.3944    2.5029 H   0  0  0  0  0  0  0  0  0  0  0  0
   -0.7484    3.6683    0.8550 H   0  0  0  0  0  0  0  0  0  0  0  0
  1  2  1  0  0  0  0
  2  3  1  0  0  0  0
  2  4  1  0  0  0  0
  2  5  1  0  0  0  0
  5  6  2  0  0  0  0
  5  7  1  0  0  0  0
  7  8  1  0  0  0  0
  7  9  1  0  0  0  0
  9 10  1  0  0  0  0
  9 11  1  0  0  0  0
  9 26  1  0  0  0  0
 11 12  1  0  0  0  0
 11 13  1  0  0  0  0
 11 14  1  0  0  0  0
 14 15  2  0  0  0  0
 14 24  1  0  0  0  0
 15 16  1  0  0  0  0
 15 17  1  0  0  0  0
 17 18  1  0  0  0  0
 17 19  2  0  0  0  0
 19 20  1  0  0  0  0
 19 22  1  0  0  0  0
 20 21  1  0  0  0  0
 22 23  1  0  0  0  0
 22 24  2  0  0  0  0
 24 25  1  0  0  0  0
 26 27  2  0  0  0  0
 26 28  1  0  0  0  0
 28 29  1  0  0  0  0
 28 30  1  0  0  0  0
 30 31  1  0  0  0  0
 30 32  1  0  0  0  0
 30 33  1  0  0  0  0
M  END
$$$$

  -OEChem-04042216043D

 33 33  0     1  0  0  0  0  0999 V2000
   -3.7966   -4.1227    1.4500 H   0  0  0  0  0  0  0  0  0  0  0  0
   -3.8394   -3.1828    0.8926 C   0  0  0  0  0  0  0  0  0  0  0  0
   -4.5438   -2.5107    1.3889 H   0  0  0  0  0  0  0  0  0  0  0  0
   -4.1948   -3.3892   -0.1199 H   0  0  0  0  0  0  0  0  0  0  0  0
   -2.4642   -2.5444    0.8385 C   0  0  0  0  0  0  0  0  0  0  0  0
   -1.5055   -3.1176    1.3323 O   0  0  0  0  0  0  0  0  0  0  0  0
   -2.3016   -1.3183    0.2274 N   0  0  0  0  0  0  0  0  0  0  0  0
   -3.1467   -0.8287   -0.0632 H   0  0  0  0  0  0  0  0  0  0  0  0
   -1.0632   -0.5244    0.2666 C   0  0  1  0  0  0  0  0  0  0  0  0
   -0.5071   -0.8525    1.1509 H   0  0  0  0  0  0  0  0  0  0  0  0
   -0.1438   -0.8625   -0.9395 C   0  0  0  0  0  0  0  0  0  0  0  0
    0.7777   -1.2886   -0.5301 H   0  0  0  0  0  0  0  0  0  0  0  0
   -0.6135   -1.6598   -1.5247 H   0  0  0  0  0  0  0  0  0  0  0  0
    0.2264    0.2443   -1.9133 C   0  0  0  0  0  0  0  0  0  0  0  0
   -0.7135    1.1575   -2.4226 C   0  0  0  0  0  0  0  0  0  0  0  0
   -1.7668    1.0595   -2.1781 H   0  0  0  0  0  0  0  0  0  0  0  0
   -0.3185    2.1920   -3.2783 C   0  0  0  0  0  0  0  0  0  0  0  0
   -1.0655    2.8822   -3.6552 H   0  0  0  0  0  0  0  0  0  0  0  0
    1.0209    2.3291   -3.6429 C   0  0  0  0  0  0  0  0  0  0  0  0
    1.4163    3.3363   -4.4746 O   0  0  0  0  0  0  0  0  0  0  0  0
    0.6525    3.8812   -4.7193 H   0  0  0  0  0  0  0  0  0  0  0  0
    1.9607    1.4256   -3.1545 C   0  0  0  0  0  0  0  0  0  0  0  0
    2.9998    1.5355   -3.4468 H   0  0  0  0  0  0  0  0  0  0  0  0
    1.5701    0.3917   -2.2967 C   0  0  0  0  0  0  0  0  0  0  0  0
    2.3256   -0.2955   -1.9274 H   0  0  0  0  0  0  0  0  0  0  0  0
   -1.3492    0.9650    0.5598 C   0  0  0  0  0  0  0  0  0  0  0  0
   -2.4091    1.4654    0.1940 O   0  0  0  0  0  0  0  0  0  0  0  0
   -0.5773    1.6536    1.4781 N   0  0  0  0  0  0  0  0  0  0  0  0
    0.2783    1.2094    1.7983 H   0  0  0  0  0  0  0  0  0  0  0  0
   -0.8628    3.0183    1.9036 C   0  0  0  0  0  0  0  0  0  0  0  0
   -1.8545    3.0772    2.3646 H   0  0  0  0  0  0  0  0  0  0  0  0
   -0.1218    3.3484    2.6381 H   0  0  0  0  0  0  0  0  0  0  0  0
   -0.8303    3.7002    1.0473 H   0  0  0  0  0  0  0  0  0  0  0  0
  1  2  1  0  0  0  0
  2  3  1  0  0  0  0
  2  4  1  0  0  0  0
  2  5  1  0  0  0  0
  5  6  2  0  0  0  0
  5  7  1  0  0  0  0
  7  8  1  0  0  0  0
  7  9  1  0  0  0  0
  9 10  1  0  0  0  0
  9 11  1  0  0  0  0
  9 26  1  0  0  0  0
 11 12  1  0  0  0  0
 11 13  1  0  0  0  0
 11 14  1  0  0  0  0
 14 15  2  0  0  0  0
 14 24  1  0  0  0  0
 15 16  1  0  0  0  0
 15 17  1  0  0  0  0
 17 18  1  0  0  0  0
 17 19  2  0  0  0  0
 19 20  1  0  0  0  0
 19 22  1  0  0  0  0
 20 21  1  0  0  0  0
 22 23  1  0  0  0  0
 22 24  2  0  0  0  0
 24 25  1  0  0  0  0
 26 27  2  0  0  0  0
 26 28  1  0  0  0  0
 28 29  1  0  0  0  0
 28 30  1  0  0  0  0
 30 31  1  0  0  0  0
 30 32  1  0  0  0  0
 30 33  1  0  0  0  0
M  END
$$$$

  -OEChem-04042216043D

 33 33  0     1  0  0  0  0  0999 V2000
   -3.7035   -4.1934    1.3769 H   0  0  0  0  0  0  0  0  0  0  0  0
   -3.7845   -3.2355    0.8555 C   0  0  0  0  0  0  0  0  0  0  0  0
   -4.5059   -2.6071    1.3835 H   0  0  0  0  0  0  0  0  0  0  0  0
   -4.1430   -3.4160   -0.1608 H   0  0  0  0  0  0  0  0  0  0  0  0
   -2.4329   -2.5482    0.8118 C   0  0  0  0  0  0  0  0  0  0  0  0
   -1.4505   -3.1029    1.2794 O   0  0  0  0  0  0  0  0  0  0  0  0
   -2.3183   -1.2989    0.2379 N   0  0  0  0  0  0  0  0  0  0  0  0
   -3.1817   -0.8315   -0.0350 H   0  0  0  0  0  0  0  0  0  0  0  0
   -1.1066   -0.4655    0.2816 C   0  0  1  0  0  0  0  0  0  0  0  0
   -0.5461   -0.7965    1.1624 H   0  0  0  0  0  0  0  0  0  0  0  0
   -0.1636   -0.7790   -0.9154 C   0  0  0  0  0  0  0  0  0  0  0  0
    0.7635   -1.1675   -0.4814 H   0  0  0  0  0  0  0  0  0  0  0  0
   -0.6007   -1.6054   -1.4854 H   0  0  0  0  0  0  0  0  0  0  0  0
    0.2164    0.2934   -1.9295 C   0  0  0  0  0  0  0  0  0  0  0  0
   -0.6027    1.3779   -2.2959 C   0  0  0  0  0  0  0  0  0  0  0  0
   -1.6216    1.4630   -1.9384 H   0  0  0  0  0  0  0  0  0  0  0  0
   -0.1497    2.3537   -3.1914 C   0  0  0  0  0  0  0  0  0  0  0  0
   -0.8083    3.1728   -3.4590 H   0  0  0  0  0  0  0  0  0  0  0  0
    1.1288    2.2667   -3.7400 C   0  0  0  0  0  0  0  0  0  0  0  0
    1.5790    3.2155   -4.6116 O   0  0  0  0  0  0  0  0  0  0  0  0
    0.8944    3.8881   -4.7503 H   0  0  0  0  0  0  0  0  0  0  0  0
    1.9475    1.1949   -3.3984 C   0  0  0  0  0  0  0  0  0  0  0  0
    2.9394    1.1279   -3.8334 H   0  0  0  0  0  0  0  0  0  0  0  0
    1.4975    0.2180   -2.5040 C   0  0  0  0  0  0  0  0  0  0  0  0
    2.1611   -0.6044   -2.2528 H   0  0  0  0  0  0  0  0  0  0  0  0
   -1.4237    1.0053    0.6250 C   0  0  0  0  0  0  0  0  0  0  0  0
   -2.5097    1.4833    0.3096 O   0  0  0  0  0  0  0  0  0  0  0  0
   -0.6510    1.6844    1.5498 N   0  0  0  0  0  0  0  0  0  0  0  0
    0.2172    1.2489    1.8479 H   0  0  0  0  0  0  0  0  0  0  0  0
   -0.9844    3.0090    2.0586 C   0  0  0  0  0  0  0  0  0  0  0  0
   -1.9577    2.9930    2.5599 H   0  0  0  0  0  0  0  0  0  0  0  0
   -0.2307    3.3377    2.7803 H   0  0  0  0  0  0  0  0  0  0  0  0
   -1.0204    3.7353    1.2400 H   0  0  0  0  0  0  0  0  0  0  0  0
  1  2  1  0  0  0  0
  2  3  1  0  0  0  0
  2  4  1  0  0  0  0
  2  5  1  0  0  0  0
  5  6  2  0  0  0  0
  5  7  1  0  0  0  0
  7  8  1  0  0  0  0
  7  9  1  0  0  0  0
  9 10  1  0  0  0  0
  9 11  1  0  0  0  0
  9 26  1  0  0  0  0
 11 12  1  0  0  0  0
 11 13  1  0  0  0  0
 11 14  1  0  0  0  0
 14 15  2  0  0  0  0
 14 24  1  0  0  0  0
 15 16  1  0  0  0  0
 15 17  1  0  0  0  0
 17 18  1  0  0  0  0
 17 19  2  0  0  0  0
 19 20  1  0  0  0  0
 19 22  1  0  0  0  0
 20 21  1  0  0  0  0
 22 23  1  0  0  0  0
 22 24  2  0  0  0  0
 24 25  1  0  0  0  0
 26 27  2  0  0  0  0
 26 28  1  0  0  0  0
 28 29  1  0  0  0  0
 28 30  1  0  0  0  0
 30 31  1  0  0  0  0
 30 32  1  0  0  0  0
 30 33  1  0  0  0  0
M  END
$$$$

  -OEChem-04042216043D

 33 33  0     1  0  0  0  0  0999 V2000
   -3.8066   -4.0893    1.4236 H   0  0  0  0  0  0  0  0  0  0  0  0
   -3.8715   -3.1247    0.9121 C   0  0  0  0  0  0  0  0  0  0  0  0
   -4.5552   -2.4776    1.4671 H   0  0  0  0  0  0  0  0  0  0  0  0
   -4.2675   -3.2843   -0.0938 H   0  0  0  0  0  0  0  0  0  0  0  0
   -2.4994   -2.4822    0.8315 C   0  0  0  0  0  0  0  0  0  0  0  0
   -1.5165   -3.0879    1.2298 O   0  0  0  0  0  0  0  0  0  0  0  0
   -2.3666   -1.2136    0.3058 N   0  0  0  0  0  0  0  0  0  0  0  0
   -3.2236   -0.7091    0.0830 H   0  0  0  0  0  0  0  0  0  0  0  0
   -1.1235   -0.4259    0.3188 C   0  0  1  0  0  0  0  0  0  0  0  0
   -0.5300   -0.8120    1.1542 H   0  0  0  0  0  0  0  0  0  0  0  0
   -0.2604   -0.7297   -0.9420 C   0  0  0  0  0  0  0  0  0  0  0  0
    0.6703   -1.1662   -0.5642 H   0  0  0  0  0  0  0  0  0  0  0  0
   -0.7628   -1.5258   -1.5015 H   0  0  0  0  0  0  0  0  0  0  0  0
    0.1419    0.3222   -1.9757 C   0  0  0  0  0  0  0  0  0  0  0  0
   -0.4155    1.6077   -2.1376 C   0  0  0  0  0  0  0  0  0  0  0  0
   -1.2758    1.9463   -1.5794 H   0  0  0  0  0  0  0  0  0  0  0  0
    0.0881    2.4993   -3.0924 C   0  0  0  0  0  0  0  0  0  0  0  0
   -0.3709    3.4765   -3.1970 H   0  0  0  0  0  0  0  0  0  0  0  0
    1.1573    2.1326   -3.9071 C   0  0  0  0  0  0  0  0  0  0  0  0
    1.6550    2.9980   -4.8377 O   0  0  0  0  0  0  0  0  0  0  0  0
    1.1555    3.8288   -4.8174 H   0  0  0  0  0  0  0  0  0  0  0  0
    1.7149    0.8667   -3.7704 C   0  0  0  0  0  0  0  0  0  0  0  0
    2.5440    0.5820   -4.4099 H   0  0  0  0  0  0  0  0  0  0  0  0
    1.2133   -0.0267   -2.8188 C   0  0  0  0  0  0  0  0  0  0  0  0
    1.6737   -1.0070   -2.7337 H   0  0  0  0  0  0  0  0  0  0  0  0
   -1.3792    1.0333    0.7412 C   0  0  0  0  0  0  0  0  0  0  0  0
   -2.4566    1.5618    0.4827 O   0  0  0  0  0  0  0  0  0  0  0  0
   -0.5428    1.6515    1.6529 N   0  0  0  0  0  0  0  0  0  0  0  0
    0.3128    1.1672    1.9101 H   0  0  0  0  0  0  0  0  0  0  0  0
   -0.8051    2.9684    2.2205 C   0  0  0  0  0  0  0  0  0  0  0  0
   -1.7447    2.9630    2.7829 H   0  0  0  0  0  0  0  0  0  0  0  0
    0.0029    3.2544    2.9007 H   0  0  0  0  0  0  0  0  0  0  0  0
   -0.8724    3.7209    1.4278 H   0  0  0  0  0  0  0  0  0  0  0  0
  1  2  1  0  0  0  0
  2  3  1  0  0  0  0
  2  4  1  0  0  0  0
  2  5  1  0  0  0  0
  5  6  2  0  0  0  0
  5  7  1  0  0  0  0
  7  8  1  0  0  0  0
  7  9  1  0  0  0  0
  9 10  1  0  0  0  0
  9 11  1  0  0  0  0
  9 26  1  0  0  0  0
 11 12  1  0  0  0  0
 11 13  1  0  0  0  0
 11 14  1  0  0  0  0
 14 15  2  0  0  0  0
 14 24  1  0  0  0  0
 15 16  1  0  0  0  0
 15 17  1  0  0  0  0
 17 18  1  0  0  0  0
 17 19  2  0  0  0  0
 19 20  1  0  0  0  0
 19 22  1  0  0  0  0
 20 21  1  0  0  0  0
 22 23  1  0  0  0  0
 22 24  2  0  0  0  0
 24 25  1  0  0  0  0
 26 27  2  0  0  0  0
 26 28  1  0  0  0  0
 28 29  1  0  0  0  0
 28 30  1  0  0  0  0
 30 31  1  0  0  0  0
 30 32  1  0  0  0  0
 30 33  1  0  0  0  0
M  END
$$$$

  -OEChem-04042216043D

 33 33  0     1  0  0  0  0  0999 V2000
   -3.6840   -4.2254    1.1983 H   0  0  0  0  0  0  0  0  0  0  0  0
   -3.7574   -3.2341    0.7425 C   0  0  0  0  0  0  0  0  0  0  0  0
   -4.4830   -2.6409    1.3041 H   0  0  0  0  0  0  0  0  0  0  0  0
   -4.1057   -3.3442   -0.2873 H   0  0  0  0  0  0  0  0  0  0  0  0
   -2.4043   -2.5485    0.7596 C   0  0  0  0  0  0  0  0  0  0  0  0
   -1.4267   -3.1341    1.1986 O   0  0  0  0  0  0  0  0  0  0  0  0
   -2.2823   -1.2632    0.2746 N   0  0  0  0  0  0  0  0  0  0  0  0
   -3.1387   -0.7799    0.0059 H   0  0  0  0  0  0  0  0  0  0  0  0
   -1.0603   -0.4463    0.3522 C   0  0  1  0  0  0  0  0  0  0  0  0
   -0.4572   -0.8394    1.1774 H   0  0  0  0  0  0  0  0  0  0  0  0
   -0.2006   -0.6677   -0.9308 C   0  0  0  0  0  0  0  0  0  0  0  0
    0.7389   -1.1080   -0.5804 H   0  0  0  0  0  0  0  0  0  0  0  0
   -0.6963   -1.4461   -1.5211 H   0  0  0  0  0  0  0  0  0  0  0  0
    0.2006    0.4196   -1.9313 C   0  0  0  0  0  0  0  0  0  0  0  0
   -0.1149    1.7962   -1.8998 C   0  0  0  0  0  0  0  0  0  0  0  0
   -0.7269    2.2561   -1.1399 H   0  0  0  0  0  0  0  0  0  0  0  0
    0.3454    2.6656   -2.8963 C   0  0  0  0  0  0  0  0  0  0  0  0
    0.0782    3.7154   -2.8450 H   0  0  0  0  0  0  0  0  0  0  0  0
    1.1308    2.1912   -3.9442 C   0  0  0  0  0  0  0  0  0  0  0  0
    1.5788    3.0356   -4.9182 O   0  0  0  0  0  0  0  0  0  0  0  0
    1.2399    3.9303   -4.7611 H   0  0  0  0  0  0  0  0  0  0  0  0
    1.4549    0.8411   -3.9941 C   0  0  0  0  0  0  0  0  0  0  0  0
    2.0649    0.4725   -4.8124 H   0  0  0  0  0  0  0  0  0  0  0  0
    0.9961   -0.0303   -3.0019 C   0  0  0  0  0  0  0  0  0  0  0  0
    1.2665   -1.0803   -3.0692 H   0  0  0  0  0  0  0  0  0  0  0  0
   -1.4115    0.9804    0.8068 C   0  0  0  0  0  0  0  0  0  0  0  0
   -2.4688    1.4945    0.4545 O   0  0  0  0  0  0  0  0  0  0  0  0
   -0.6506    1.6134    1.7730 N   0  0  0  0  0  0  0  0  0  0  0  0
    0.1817    1.1343    2.1055 H   0  0  0  0  0  0  0  0  0  0  0  0
   -1.0024    2.9024    2.3558 C   0  0  0  0  0  0  0  0  0  0  0  0
   -1.9698    2.8410    2.8653 H   0  0  0  0  0  0  0  0  0  0  0  0
   -0.2456    3.2066    3.0855 H   0  0  0  0  0  0  0  0  0  0  0  0
   -1.0612    3.6713    1.5783 H   0  0  0  0  0  0  0  0  0  0  0  0
  1  2  1  0  0  0  0
  2  3  1  0  0  0  0
  2  4  1  0  0  0  0
  2  5  1  0  0  0  0
  5  6  2  0  0  0  0
  5  7  1  0  0  0  0
  7  8  1  0  0  0  0
  7  9  1  0  0  0  0
  9 10  1  0  0  0  0
  9 11  1  0  0  0  0
  9 26  1  0  0  0  0
 11 12  1  0  0  0  0
 11 13  1  0  0  0  0
 11 14  1  0  0  0  0
 14 15  2  0  0  0  0
 14 24  1  0  0  0  0
 15 16  1  0  0  0  0
 15 17  1  0  0  0  0
 17 18  1  0  0  0  0
 17 19  2  0  0  0  0
 19 20  1  0  0  0  0
 19 22  1  0  0  0  0
 20 21  1  0  0  0  0
 22 23  1  0  0  0  0
 22 24  2  0  0  0  0
 24 25  1  0  0  0  0
 26 27  2  0  0  0  0
 26 28  1  0  0  0  0
 28 29  1  0  0  0  0
 28 30  1  0  0  0  0
 30 31  1  0  0  0  0
 30 32  1  0  0  0  0
 30 33  1  0  0  0  0
M  END
$$$$

  -OEChem-04042216043D

 33 33  0     1  0  0  0  0  0999 V2000
   -3.7633   -4.1805    1.1613 H   0  0  0  0  0  0  0  0  0  0  0  0
   -3.7964   -3.1958    0.6868 C   0  0  0  0  0  0  0  0  0  0  0  0
   -4.5438   -2.5837    1.1973 H   0  0  0  0  0  0  0  0  0  0  0  0
   -4.0877   -3.3183   -0.3593 H   0  0  0  0  0  0  0  0  0  0  0  0
   -2.4363   -2.5287    0.7698 C   0  0  0  0  0  0  0  0  0  0  0  0
   -1.4960   -3.1167    1.2812 O   0  0  0  0  0  0  0  0  0  0  0  0
   -2.2643   -1.2576    0.2633 N   0  0  0  0  0  0  0  0  0  0  0  0
   -3.0917   -0.7689   -0.0773 H   0  0  0  0  0  0  0  0  0  0  0  0
   -1.0279   -0.4667    0.3747 C   0  0  1  0  0  0  0  0  0  0  0  0
   -0.4427   -0.8568    1.2139 H   0  0  0  0  0  0  0  0  0  0  0  0
   -0.1675   -0.7028   -0.9065 C   0  0  0  0  0  0  0  0  0  0  0  0
    0.7607   -1.1687   -0.5599 H   0  0  0  0  0  0  0  0  0  0  0  0
   -0.6813   -1.4652   -1.5020 H   0  0  0  0  0  0  0  0  0  0  0  0
    0.2647    0.3885   -1.8908 C   0  0  0  0  0  0  0  0  0  0  0  0
    0.2396    1.7878   -1.6993 C   0  0  0  0  0  0  0  0  0  0  0  0
   -0.0818    2.2599   -0.7838 H   0  0  0  0  0  0  0  0  0  0  0  0
    0.6610    2.6637   -2.7073 C   0  0  0  0  0  0  0  0  0  0  0  0
    0.6239    3.7326   -2.5284 H   0  0  0  0  0  0  0  0  0  0  0  0
    1.1252    2.1718   -3.9249 C   0  0  0  0  0  0  0  0  0  0  0  0
    1.5365    3.0214   -4.9108 O   0  0  0  0  0  0  0  0  0  0  0  0
    1.3979    3.9403   -4.6344 H   0  0  0  0  0  0  0  0  0  0  0  0
    1.1710    0.7985   -4.1300 C   0  0  0  0  0  0  0  0  0  0  0  0
    1.5373    0.4164   -5.0771 H   0  0  0  0  0  0  0  0  0  0  0  0
    0.7470   -0.0792   -3.1279 C   0  0  0  0  0  0  0  0  0  0  0  0
    0.7947   -1.1470   -3.3221 H   0  0  0  0  0  0  0  0  0  0  0  0
   -1.3979    0.9688    0.7845 C   0  0  0  0  0  0  0  0  0  0  0  0
   -2.3970    1.5092    0.3215 O   0  0  0  0  0  0  0  0  0  0  0  0
   -0.6809    1.6162    1.7754 N   0  0  0  0  0  0  0  0  0  0  0  0
    0.0966    1.1153    2.1971 H   0  0  0  0  0  0  0  0  0  0  0  0
   -1.0395    2.9292    2.2976 C   0  0  0  0  0  0  0  0  0  0  0  0
   -2.0260    2.8959    2.7717 H   0  0  0  0  0  0  0  0  0  0  0  0
   -0.3070    3.2519    3.0436 H   0  0  0  0  0  0  0  0  0  0  0  0
   -1.0599    3.6705    1.4918 H   0  0  0  0  0  0  0  0  0  0  0  0
  1  2  1  0  0  0  0
  2  3  1  0  0  0  0
  2  4  1  0  0  0  0
  2  5  1  0  0  0  0
  5  6  2  0  0  0  0
  5  7  1  0  0  0  0
  7  8  1  0  0  0  0
  7  9  1  0  0  0  0
  9 10  1  0  0  0  0
  9 11  1  0  0  0  0
  9 26  1  0  0  0  0
 11 12  1  0  0  0  0
 11 13  1  0  0  0  0
 11 14  1  0  0  0  0
 14 15  2  0  0  0  0
 14 24  1  0  0  0  0
 15 16  1  0  0  0  0
 15 17  1  0  0  0  0
 17 18  1  0  0  0  0
 17 19  2  0  0  0  0
 19 20  1  0  0  0  0
 19 22  1  0  0  0  0
 20 21  1  0  0  0  0
 22 23  1  0  0  0  0
 22 24  2  0  0  0  0
 24 25  1  0  0  0  0
 26 27  2  0  0  0  0
 26 28  1  0  0  0  0
 28 29  1  0  0  0  0
 28 30  1  0  0  0  0
 30 31  1  0  0  0  0
 30 32  1  0  0  0  0
 30 33  1  0  0  0  0
M  END
$$$$

  -OEChem-04042216043D

 33 33  0     1  0  0  0  0  0999 V2000
   -3.8459   -4.1033    1.2138 H   0  0  0  0  0  0  0  0  0  0  0  0
   -3.8378   -3.1362    0.7032 C   0  0  0  0  0  0  0  0  0  0  0  0
   -4.5802   -2.4851    1.1711 H   0  0  0  0  0  0  0  0  0  0  0  0
   -4.1057   -3.2886   -0.3452 H   0  0  0  0  0  0  0  0  0  0  0  0
   -2.4614   -2.5052    0.7989 C   0  0  0  0  0  0  0  0  0  0  0  0
   -1.5556   -3.0953    1.3669 O   0  0  0  0  0  0  0  0  0  0  0  0
   -2.2358   -1.2628    0.2450 N   0  0  0  0  0  0  0  0  0  0  0  0
   -3.0367   -0.7653   -0.1433 H   0  0  0  0  0  0  0  0  0  0  0  0
   -0.9812   -0.5026    0.3694 C   0  0  1  0  0  0  0  0  0  0  0  0
   -0.4157   -0.8747    1.2299 H   0  0  0  0  0  0  0  0  0  0  0  0
   -0.1255   -0.7873   -0.9052 C   0  0  0  0  0  0  0  0  0  0  0  0
    0.7927   -1.2696   -0.5557 H   0  0  0  0  0  0  0  0  0  0  0  0
   -0.6539   -1.5446   -1.4943 H   0  0  0  0  0  0  0  0  0  0  0  0
    0.3224    0.3075   -1.8745 C   0  0  0  0  0  0  0  0  0  0  0  0
    0.5898    1.6514   -1.5418 C   0  0  0  0  0  0  0  0  0  0  0  0
    0.5563    2.0116   -0.5238 H   0  0  0  0  0  0  0  0  0  0  0  0
    0.9619    2.5792   -2.5221 C   0  0  0  0  0  0  0  0  0  0  0  0
    1.1609    3.6053   -2.2337 H   0  0  0  0  0  0  0  0  0  0  0  0
    1.0805    2.1886   -3.8546 C   0  0  0  0  0  0  0  0  0  0  0  0
    1.4412    3.0874   -4.8164 O   0  0  0  0  0  0  0  0  0  0  0  0
    1.5304    3.9707   -4.4271 H   0  0  0  0  0  0  0  0  0  0  0  0
    0.8332    0.8654   -4.2017 C   0  0  0  0  0  0  0  0  0  0  0  0
    0.9303    0.5636   -5.2394 H   0  0  0  0  0  0  0  0  0  0  0  0
    0.4590   -0.0630   -3.2253 C   0  0  0  0  0  0  0  0  0  0  0  0
    0.2690   -1.0872   -3.5324 H   0  0  0  0  0  0  0  0  0  0  0  0
   -1.3503    0.9559    0.7044 C   0  0  0  0  0  0  0  0  0  0  0  0
   -2.3162    1.4925    0.1724 O   0  0  0  0  0  0  0  0  0  0  0  0
   -0.6661    1.6350    1.6981 N   0  0  0  0  0  0  0  0  0  0  0  0
    0.0613    1.1297    2.1965 H   0  0  0  0  0  0  0  0  0  0  0  0
   -1.0382    2.9679    2.1567 C   0  0  0  0  0  0  0  0  0  0  0  0
   -2.0380    2.9536    2.6030 H   0  0  0  0  0  0  0  0  0  0  0  0
   -0.3271    3.3211    2.9095 H   0  0  0  0  0  0  0  0  0  0  0  0
   -1.0349    3.6757    1.3211 H   0  0  0  0  0  0  0  0  0  0  0  0
  1  2  1  0  0  0  0
  2  3  1  0  0  0  0
  2  4  1  0  0  0  0
  2  5  1  0  0  0  0
  5  6  2  0  0  0  0
  5  7  1  0  0  0  0
  7  8  1  0  0  0  0
  7  9  1  0  0  0  0
  9 10  1  0  0  0  0
  9 11  1  0  0  0  0
  9 26  1  0  0  0  0
 11 12  1  0  0  0  0
 11 13  1  0  0  0  0
 11 14  1  0  0  0  0
 14 15  2  0  0  0  0
 14 24  1  0  0  0  0
 15 16  1  0  0  0  0
 15 17  1  0  0  0  0
 17 18  1  0  0  0  0
 17 19  2  0  0  0  0
 19 20  1  0  0  0  0
 19 22  1  0  0  0  0
 20 21  1  0  0  0  0
 22 23  1  0  0  0  0
 22 24  2  0  0  0  0
 24 25  1  0  0  0  0
 26 27  2  0  0  0  0
 26 28  1  0  0  0  0
 28 29  1  0  0  0  0
 28 30  1  0  0  0  0
 30 31  1  0  0  0  0
 30 32  1  0  0  0  0
 30 33  1  0  0  0  0
M  END
$$$$

  -OEChem-04042216043D

 33 33  0     1  0  0  0  0  0999 V2000
   -3.9048   -4.0391    1.3352 H   0  0  0  0  0  0  0  0  0  0  0  0
   -3.8660   -3.1093    0.7608 C   0  0  0  0  0  0  0  0  0  0  0  0
   -4.6001   -2.4114    1.1708 H   0  0  0  0  0  0  0  0  0  0  0  0
   -4.1219   -3.3264   -0.2791 H   0  0  0  0  0  0  0  0  0  0  0  0
   -2.4767   -2.5043    0.8375 C   0  0  0  0  0  0  0  0  0  0  0  0
   -1.5883   -3.0846    1.4417 O   0  0  0  0  0  0  0  0  0  0  0  0
   -2.2211   -1.2943    0.2277 N   0  0  0  0  0  0  0  0  0  0  0  0
   -3.0101   -0.7972   -0.1851 H   0  0  0  0  0  0  0  0  0  0  0  0
   -0.9573   -0.5480    0.3397 C   0  0  1  0  0  0  0  0  0  0  0  0
   -0.4046   -0.8912    1.2203 H   0  0  0  0  0  0  0  0  0  0  0  0
   -0.0980   -0.8802   -0.9179 C   0  0  0  0  0  0  0  0  0  0  0  0
    0.8195   -1.3554   -0.5573 H   0  0  0  0  0  0  0  0  0  0  0  0
   -0.6201   -1.6462   -1.5010 H   0  0  0  0  0  0  0  0  0  0  0  0
    0.3361    0.2275   -1.8702 C   0  0  0  0  0  0  0  0  0  0  0  0
    0.8645    1.4611   -1.4458 C   0  0  0  0  0  0  0  0  0  0  0  0
    1.0461    1.6587   -0.3964 H   0  0  0  0  0  0  0  0  0  0  0  0
    1.2078    2.4544   -2.3707 C   0  0  0  0  0  0  0  0  0  0  0  0
    1.6138    3.3951   -2.0159 H   0  0  0  0  0  0  0  0  0  0  0  0
    1.0334    2.2335   -3.7366 C   0  0  0  0  0  0  0  0  0  0  0  0
    1.3643    3.1958   -4.6463 O   0  0  0  0  0  0  0  0  0  0  0  0
    1.6517    3.9999   -4.1876 H   0  0  0  0  0  0  0  0  0  0  0  0
    0.5192    1.0165   -4.1732 C   0  0  0  0  0  0  0  0  0  0  0  0
    0.3852    0.8501   -5.2371 H   0  0  0  0  0  0  0  0  0  0  0  0
    0.1716    0.0235   -3.2515 C   0  0  0  0  0  0  0  0  0  0  0  0
   -0.2374   -0.9112   -3.6230 H   0  0  0  0  0  0  0  0  0  0  0  0
   -1.3076    0.9338    0.5956 C   0  0  0  0  0  0  0  0  0  0  0  0
   -2.2645    1.4522    0.0301 O   0  0  0  0  0  0  0  0  0  0  0  0
   -0.6324    1.6527    1.5674 N   0  0  0  0  0  0  0  0  0  0  0  0
    0.0768    1.1633    2.1060 H   0  0  0  0  0  0  0  0  0  0  0  0
   -0.9864    3.0162    1.9430 C   0  0  0  0  0  0  0  0  0  0  0  0
   -2.0120    3.0549    2.3251 H   0  0  0  0  0  0  0  0  0  0  0  0
   -0.3126    3.3807    2.7245 H   0  0  0  0  0  0  0  0  0  0  0  0
   -0.9067    3.6840    1.0786 H   0  0  0  0  0  0  0  0  0  0  0  0
  1  2  1  0  0  0  0
  2  3  1  0  0  0  0
  2  4  1  0  0  0  0
  2  5  1  0  0  0  0
  5  6  2  0  0  0  0
  5  7  1  0  0  0  0
  7  8  1  0  0  0  0
  7  9  1  0  0  0  0
  9 10  1  0  0  0  0
  9 11  1  0  0  0  0
  9 26  1  0  0  0  0
 11 12  1  0  0  0  0
 11 13  1  0  0  0  0
 11 14  1  0  0  0  0
 14 15  2  0  0  0  0
 14 24  1  0  0  0  0
 15 16  1  0  0  0  0
 15 17  1  0  0  0  0
 17 18  1  0  0  0  0
 17 19  2  0  0  0  0
 19 20  1  0  0  0  0
 19 22  1  0  0  0  0
 20 21  1  0  0  0  0
 22 23  1  0  0  0  0
 22 24  2  0  0  0  0
 24 25  1  0  0  0  0
 26 27  2  0  0  0  0
 26 28  1  0  0  0  0
 28 29  1  0  0  0  0
 28 30  1  0  0  0  0
 30 31  1  0  0  0  0
 30 32  1  0  0  0  0
 30 33  1  0  0  0  0
M  END
$$$$

  -OEChem-04042216043D

 33 33  0     1  0  0  0  0  0999 V2000
   -3.9245   -4.0067    1.4407 H   0  0  0  0  0  0  0  0  0  0  0  0
   -3.8813   -3.0963    0.8364 C   0  0  0  0  0  0  0  0  0  0  0  0
   -4.6006   -2.3759    1.2335 H   0  0  0  0  0  0  0  0  0  0  0  0
   -4.1531   -3.3430   -0.1928 H   0  0  0  0  0  0  0  0  0  0  0  0
   -2.4833   -2.5082    0.8749 C   0  0  0  0  0  0  0  0  0  0  0  0
   -1.5964   -3.0762    1.4933 O   0  0  0  0  0  0  0  0  0  0  0  0
   -2.2187   -1.3277    0.2136 N   0  0  0  0  0  0  0  0  0  0  0  0
   -3.0084   -0.8311   -0.1987 H   0  0  0  0  0  0  0  0  0  0  0  0
   -0.9501   -0.5878    0.2975 C   0  0  1  0  0  0  0  0  0  0  0  0
   -0.4007   -0.9028    1.1905 H   0  0  0  0  0  0  0  0  0  0  0  0
   -0.0854   -0.9504   -0.9425 C   0  0  0  0  0  0  0  0  0  0  0  0
    0.8351   -1.4176   -0.5787 H   0  0  0  0  0  0  0  0  0  0  0  0
   -0.6028   -1.7190   -1.5262 H   0  0  0  0  0  0  0  0  0  0  0  0
    0.3176    0.1788   -1.8734 C   0  0  0  0  0  0  0  0  0  0  0  0
    1.0860    1.2684   -1.4280 C   0  0  0  0  0  0  0  0  0  0  0  0
    1.4363    1.3069   -0.4017 H   0  0  0  0  0  0  0  0  0  0  0  0
    1.4235    2.3097   -2.3005 C   0  0  0  0  0  0  0  0  0  0  0  0
    2.0185    3.1395   -1.9360 H   0  0  0  0  0  0  0  0  0  0  0  0
    0.9986    2.2769   -3.6296 C   0  0  0  0  0  0  0  0  0  0  0  0
    1.3213    3.2870   -4.4893 O   0  0  0  0  0  0  0  0  0  0  0  0
    1.7952    3.9871   -4.0152 H   0  0  0  0  0  0  0  0  0  0  0  0
    0.2371    1.2020   -4.0813 C   0  0  0  0  0  0  0  0  0  0  0  0
   -0.0925    1.1854   -5.1149 H   0  0  0  0  0  0  0  0  0  0  0  0
   -0.1057    0.1608   -3.2119 C   0  0  0  0  0  0  0  0  0  0  0  0
   -0.7095   -0.6608   -3.5855 H   0  0  0  0  0  0  0  0  0  0  0  0
   -1.2759    0.9101    0.4889 C   0  0  0  0  0  0  0  0  0  0  0  0
   -2.2398    1.4105   -0.0814 O   0  0  0  0  0  0  0  0  0  0  0  0
   -0.5898    1.6588    1.4294 N   0  0  0  0  0  0  0  0  0  0  0  0
    0.1214    1.1862    1.9794 H   0  0  0  0  0  0  0  0  0  0  0  0
   -0.9302    3.0389    1.7522 C   0  0  0  0  0  0  0  0  0  0  0  0
   -1.9555    3.1018    2.1316 H   0  0  0  0  0  0  0  0  0  0  0  0
   -0.2527    3.4268    2.5190 H   0  0  0  0  0  0  0  0  0  0  0  0
   -0.8439    3.6715    0.8625 H   0  0  0  0  0  0  0  0  0  0  0  0
  1  2  1  0  0  0  0
  2  3  1  0  0  0  0
  2  4  1  0  0  0  0
  2  5  1  0  0  0  0
  5  6  2  0  0  0  0
  5  7  1  0  0  0  0
  7  8  1  0  0  0  0
  7  9  1  0  0  0  0
  9 10  1  0  0  0  0
  9 11  1  0  0  0  0
  9 26  1  0  0  0  0
 11 12  1  0  0  0  0
 11 13  1  0  0  0  0
 11 14  1  0  0  0  0
 14 15  2  0  0  0  0
 14 24  1  0  0  0  0
 15 16  1  0  0  0  0
 15 17  1  0  0  0  0
 17 18  1  0  0  0  0
 17 19  2  0  0  0  0
 19 20  1  0  0  0  0
 19 22  1  0  0  0  0
 20 21  1  0  0  0  0
 22 23  1  0  0  0  0
 22 24  2  0  0  0  0
 24 25  1  0  0  0  0
 26 27  2  0  0  0  0
 26 28  1  0  0  0  0
 28 29  1  0  0  0  0
 28 30  1  0  0  0  0
 30 31  1  0  0  0  0
 30 32  1  0  0  0  0
 30 33  1  0  0  0  0
M  END
$$$$

  -OEChem-04042216043D

 33 33  0     1  0  0  0  0  0999 V2000
   -3.9325   -3.9984    1.5066 H   0  0  0  0  0  0  0  0  0  0  0  0
   -3.8925   -3.0988    0.8862 C   0  0  0  0  0  0  0  0  0  0  0  0
   -4.5994   -2.3660    1.2828 H   0  0  0  0  0  0  0  0  0  0  0  0
   -4.1836   -3.3606   -0.1338 H   0  0  0  0  0  0  0  0  0  0  0  0
   -2.4895   -2.5211    0.8917 C   0  0  0  0  0  0  0  0  0  0  0  0
   -1.5995   -3.0812    1.5128 O   0  0  0  0  0  0  0  0  0  0  0  0
   -2.2241   -1.3588    0.1989 N   0  0  0  0  0  0  0  0  0  0  0  0
   -3.0170   -0.8634   -0.2082 H   0  0  0  0  0  0  0  0  0  0  0  0
   -0.9546   -0.6188    0.2646 C   0  0  1  0  0  0  0  0  0  0  0  0
   -0.4105   -0.9137    1.1675 H   0  0  0  0  0  0  0  0  0  0  0  0
   -0.0757   -0.9960   -0.9565 C   0  0  0  0  0  0  0  0  0  0  0  0
    0.8464   -1.4542   -0.5849 H   0  0  0  0  0  0  0  0  0  0  0  0
   -0.5821   -1.7663   -1.5479 H   0  0  0  0  0  0  0  0  0  0  0  0
    0.3012    0.1521   -1.8684 C   0  0  0  0  0  0  0  0  0  0  0  0
    1.2834    1.0804   -1.4862 C   0  0  0  0  0  0  0  0  0  0  0  0
    1.7981    0.9676   -0.5371 H   0  0  0  0  0  0  0  0  0  0  0  0
    1.6097    2.1550   -2.3218 C   0  0  0  0  0  0  0  0  0  0  0  0
    2.3716    2.8611   -2.0113 H   0  0  0  0  0  0  0  0  0  0  0  0
    0.9570    2.3147   -3.5458 C   0  0  0  0  0  0  0  0  0  0  0  0
    1.2664    3.3592   -4.3684 O   0  0  0  0  0  0  0  0  0  0  0  0
    1.9224    3.9327   -3.9442 H   0  0  0  0  0  0  0  0  0  0  0  0
   -0.0213    1.3997   -3.9296 C   0  0  0  0  0  0  0  0  0  0  0  0
   -0.5293    1.5350   -4.8788 H   0  0  0  0  0  0  0  0  0  0  0  0
   -0.3528    0.3250   -3.0970 C   0  0  0  0  0  0  0  0  0  0  0  0
   -1.1283   -0.3692   -3.4068 H   0  0  0  0  0  0  0  0  0  0  0  0
   -1.2612    0.8883    0.4162 C   0  0  0  0  0  0  0  0  0  0  0  0
   -2.2339    1.3774   -0.1497 O   0  0  0  0  0  0  0  0  0  0  0  0
   -0.5650    1.6534    1.3351 N   0  0  0  0  0  0  0  0  0  0  0  0
    0.1744    1.2001    1.8633 H   0  0  0  0  0  0  0  0  0  0  0  0
   -0.8708    3.0530    1.6027 C   0  0  0  0  0  0  0  0  0  0  0  0
   -1.8934    3.1559    1.9806 H   0  0  0  0  0  0  0  0  0  0  0  0
   -0.1828    3.4545    2.3526 H   0  0  0  0  0  0  0  0  0  0  0  0
   -0.7709    3.6472    0.6881 H   0  0  0  0  0  0  0  0  0  0  0  0
  1  2  1  0  0  0  0
  2  3  1  0  0  0  0
  2  4  1  0  0  0  0
  2  5  1  0  0  0  0
  5  6  2  0  0  0  0
  5  7  1  0  0  0  0
  7  8  1  0  0  0  0
  7  9  1  0  0  0  0
  9 10  1  0  0  0  0
  9 11  1  0  0  0  0
  9 26  1  0  0  0  0
 11 12  1  0  0  0  0
 11 13  1  0  0  0  0
 11 14  1  0  0  0  0
 14 15  2  0  0  0  0
 14 24  1  0  0  0  0
 15 16  1  0  0  0  0
 15 17  1  0  0  0  0
 17 18  1  0  0  0  0
 17 19  2  0  0  0  0
 19 20  1  0  0  0  0
 19 22  1  0  0  0  0
 20 21  1  0  0  0  0
 22 23  1  0  0  0  0
 22 24  2  0  0  0  0
 24 25  1  0  0  0  0
 26 27  2  0  0  0  0
 26 28  1  0  0  0  0
 28 29  1  0  0  0  0
 28 30  1  0  0  0  0
 30 31  1  0  0  0  0
 30 32  1  0  0  0  0
 30 33  1  0  0  0  0
M  END
$$$$

  -OEChem-04042216043D

 33 33  0     1  0  0  0  0  0999 V2000
   -3.9310   -4.0048    1.5284 H   0  0  0  0  0  0  0  0  0  0  0  0
   -3.8942   -3.1106    0.8998 C   0  0  0  0  0  0  0  0  0  0  0  0
   -4.6003   -2.3747    1.2922 H   0  0  0  0  0  0  0  0  0  0  0  0
   -4.1882   -3.3817   -0.1171 H   0  0  0  0  0  0  0  0  0  0  0  0
   -2.4920   -2.5317    0.8950 C   0  0  0  0  0  0  0  0  0  0  0  0
   -1.5971   -3.0911    1.5094 O   0  0  0  0  0  0  0  0  0  0  0  0
   -2.2327   -1.3716    0.1964 N   0  0  0  0  0  0  0  0  0  0  0  0
   -3.0305   -0.8762   -0.2007 H   0  0  0  0  0  0  0  0  0  0  0  0
   -0.9644   -0.6286    0.2529 C   0  0  1  0  0  0  0  0  0  0  0  0
   -0.4205   -0.9191    1.1573 H   0  0  0  0  0  0  0  0  0  0  0  0
   -0.0789   -1.0063   -0.9610 C   0  0  0  0  0  0  0  0  0  0  0  0
    0.8419   -1.4657   -0.5877 H   0  0  0  0  0  0  0  0  0  0  0  0
   -0.5831   -1.7720   -1.5599 H   0  0  0  0  0  0  0  0  0  0  0  0
    0.2824    0.1513   -1.8638 C   0  0  0  0  0  0  0  0  0  0  0  0
    1.4448    0.9022   -1.6310 C   0  0  0  0  0  0  0  0  0  0  0  0
    2.1031    0.6454   -0.8067 H   0  0  0  0  0  0  0  0  0  0  0  0
    1.7653    1.9862   -2.4568 C   0  0  0  0  0  0  0  0  0  0  0  0
    2.6674    2.5561   -2.2637 H   0  0  0  0  0  0  0  0  0  0  0  0
    0.9280    2.3293   -3.5208 C   0  0  0  0  0  0  0  0  0  0  0  0
    1.2312    3.3845   -4.3318 O   0  0  0  0  0  0  0  0  0  0  0  0
    2.0422    3.8171   -4.0247 H   0  0  0  0  0  0  0  0  0  0  0  0
   -0.2288    1.5885   -3.7546 C   0  0  0  0  0  0  0  0  0  0  0  0
   -0.8789    1.8658   -4.5779 H   0  0  0  0  0  0  0  0  0  0  0  0
   -0.5545    0.5054   -2.9315 C   0  0  0  0  0  0  0  0  0  0  0  0
   -1.4685   -0.0514   -3.1159 H   0  0  0  0  0  0  0  0  0  0  0  0
   -1.2620    0.8812    0.4000 C   0  0  0  0  0  0  0  0  0  0  0  0
   -2.2472    1.3661   -0.1484 O   0  0  0  0  0  0  0  0  0  0  0  0
   -0.5571    1.6479    1.3106 N   0  0  0  0  0  0  0  0  0  0  0  0
    0.2195    1.2092    1.7958 H   0  0  0  0  0  0  0  0  0  0  0  0
   -0.8342    3.0588    1.5494 C   0  0  0  0  0  0  0  0  0  0  0  0
   -1.8652    3.1945    1.8926 H   0  0  0  0  0  0  0  0  0  0  0  0
   -0.1606    3.4522    2.3164 H   0  0  0  0  0  0  0  0  0  0  0  0
   -0.6895    3.6371    0.6307 H   0  0  0  0  0  0  0  0  0  0  0  0
  1  2  1  0  0  0  0
  2  3  1  0  0  0  0
  2  4  1  0  0  0  0
  2  5  1  0  0  0  0
  5  6  2  0  0  0  0
  5  7  1  0  0  0  0
  7  8  1  0  0  0  0
  7  9  1  0  0  0  0
  9 10  1  0  0  0  0
  9 11  1  0  0  0  0
  9 26  1  0  0  0  0
 11 12  1  0  0  0  0
 11 13  1  0  0  0  0
 11 14  1  0  0  0  0
 14 15  2  0  0  0  0
 14 24  1  0  0  0  0
 15 16  1  0  0  0  0
 15 17  1  0  0  0  0
 17 18  1  0  0  0  0
 17 19  2  0  0  0  0
 19 20  1  0  0  0  0
 19 22  1  0  0  0  0
 20 21  1  0  0  0  0
 22 23  1  0  0  0  0
 22 24  2  0  0  0  0
 24 25  1  0  0  0  0
 26 27  2  0  0  0  0
 26 28  1  0  0  0  0
 28 29  1  0  0  0  0
 28 30  1  0  0  0  0
 30 31  1  0  0  0  0
 30 32  1  0  0  0  0
 30 33  1  0  0  0  0
M  END
$$$$

  -OEChem-04042216043D

 33 33  0     1  0  0  0  0  0999 V2000
   -3.9121   -4.0145    1.5431 H   0  0  0  0  0  0  0  0  0  0  0  0
   -3.8883   -3.1185    0.9167 C   0  0  0  0  0  0  0  0  0  0  0  0
   -4.5837   -2.3830    1.3286 H   0  0  0  0  0  0  0  0  0  0  0  0
   -4.2071   -3.3856   -0.0938 H   0  0  0  0  0  0  0  0  0  0  0  0
   -2.4854   -2.5419    0.8812 C   0  0  0  0  0  0  0  0  0  0  0  0
   -1.5745   -3.1130    1.4606 O   0  0  0  0  0  0  0  0  0  0  0  0
   -2.2449   -1.3686    0.1976 N   0  0  0  0  0  0  0  0  0  0  0  0
   -3.0546   -0.8650   -0.1638 H   0  0  0  0  0  0  0  0  0  0  0  0
   -0.9805   -0.6186    0.2502 C   0  0  1  0  0  0  0  0  0  0  0  0
   -0.4311   -0.9188    1.1484 H   0  0  0  0  0  0  0  0  0  0  0  0
   -0.0938   -0.9801   -0.9680 C   0  0  0  0  0  0  0  0  0  0  0  0
    0.8259   -1.4434   -0.5969 H   0  0  0  0  0  0  0  0  0  0  0  0
   -0.5970   -1.7412   -1.5739 H   0  0  0  0  0  0  0  0  0  0  0  0
    0.2623    0.1803   -1.8708 C   0  0  0  0  0  0  0  0  0  0  0  0
    1.5511    0.7349   -1.8416 C   0  0  0  0  0  0  0  0  0  0  0  0
    2.3013    0.3387   -1.1637 H   0  0  0  0  0  0  0  0  0  0  0  0
    1.8837    1.8017   -2.6851 C   0  0  0  0  0  0  0  0  0  0  0  0
    2.8839    2.2192   -2.6493 H   0  0  0  0  0  0  0  0  0  0  0  0
    0.9340    2.3218   -3.5672 C   0  0  0  0  0  0  0  0  0  0  0  0
    1.2489    3.3617   -4.3935 O   0  0  0  0  0  0  0  0  0  0  0  0
    2.1680    3.6338   -4.2499 H   0  0  0  0  0  0  0  0  0  0  0  0
   -0.3457    1.7721   -3.6043 C   0  0  0  0  0  0  0  0  0  0  0  0
   -1.0812    2.1840   -4.2875 H   0  0  0  0  0  0  0  0  0  0  0  0
   -0.6826    0.7045   -2.7655 C   0  0  0  0  0  0  0  0  0  0  0  0
   -1.6880    0.2940   -2.7983 H   0  0  0  0  0  0  0  0  0  0  0  0
   -1.2791    0.8880    0.4265 C   0  0  0  0  0  0  0  0  0  0  0  0
   -2.2873    1.3716   -0.0808 O   0  0  0  0  0  0  0  0  0  0  0  0
   -0.5643    1.6426    1.3394 N   0  0  0  0  0  0  0  0  0  0  0  0
    0.2436    1.2111    1.7780 H   0  0  0  0  0  0  0  0  0  0  0  0
   -0.8484    3.0465    1.6093 C   0  0  0  0  0  0  0  0  0  0  0  0
   -1.8760    3.1682    1.9675 H   0  0  0  0  0  0  0  0  0  0  0  0
   -0.1685    3.4293    2.3762 H   0  0  0  0  0  0  0  0  0  0  0  0
   -0.7189    3.6441    0.7007 H   0  0  0  0  0  0  0  0  0  0  0  0
  1  2  1  0  0  0  0
  2  3  1  0  0  0  0
  2  4  1  0  0  0  0
  2  5  1  0  0  0  0
  5  6  2  0  0  0  0
  5  7  1  0  0  0  0
  7  8  1  0  0  0  0
  7  9  1  0  0  0  0
  9 10  1  0  0  0  0
  9 11  1  0  0  0  0
  9 26  1  0  0  0  0
 11 12  1  0  0  0  0
 11 13  1  0  0  0  0
 11 14  1  0  0  0  0
 14 15  2  0  0  0  0
 14 24  1  0  0  0  0
 15 16  1  0  0  0  0
 15 17  1  0  0  0  0
 17 18  1  0  0  0  0
 17 19  2  0  0  0  0
 19 20  1  0  0  0  0
 19 22  1  0  0  0  0
 20 21  1  0  0  0  0
 22 23  1  0  0  0  0
 22 24  2  0  0  0  0
 24 25  1  0  0  0  0
 26 27  2  0  0  0  0
 26 28  1  0  0  0  0
 28 29  1  0  0  0  0
 28 30  1  0  0  0  0
 30 31  1  0  0  0  0
 30 32  1  0  0  0  0
 30 33  1  0  0  0  0
M  END
$$$$

  -OEChem-04042216043D

 33 33  0     1  0  0  0  0  0999 V2000
   -3.8772   -4.0492    1.5103 H   0  0  0  0  0  0  0  0  0  0  0  0
   -3.8739   -3.1392    0.9040 C   0  0  0  0  0  0  0  0  0  0  0  0
   -4.5741   -2.4229    1.3404 H   0  0  0  0  0  0  0  0  0  0  0  0
   -4.2013   -3.3882   -0.1081 H   0  0  0  0  0  0  0  0  0  0  0  0
   -2.4799   -2.5423    0.8644 C   0  0  0  0  0  0  0  0  0  0  0  0
   -1.5526   -3.1178    1.4127 O   0  0  0  0  0  0  0  0  0  0  0  0
   -2.2654   -1.3464    0.2116 N   0  0  0  0  0  0  0  0  0  0  0  0
   -3.0869   -0.8447   -0.1240 H   0  0  0  0  0  0  0  0  0  0  0  0
   -1.0086   -0.5835    0.2631 C   0  0  1  0  0  0  0  0  0  0  0  0
   -0.4541   -0.8999    1.1524 H   0  0  0  0  0  0  0  0  0  0  0  0
   -0.1156   -0.9252   -0.9579 C   0  0  0  0  0  0  0  0  0  0  0  0
    0.8042   -1.3841   -0.5819 H   0  0  0  0  0  0  0  0  0  0  0  0
   -0.6126   -1.6892   -1.5648 H   0  0  0  0  0  0  0  0  0  0  0  0
    0.2422    0.2281   -1.8735 C   0  0  0  0  0  0  0  0  0  0  0  0
    1.5872    0.5786   -2.0740 C   0  0  0  0  0  0  0  0  0  0  0  0
    2.3743    0.0512   -1.5430 H   0  0  0  0  0  0  0  0  0  0  0  0
    1.9316    1.6104   -2.9559 C   0  0  0  0  0  0  0  0  0  0  0  0
    2.9754    1.8722   -3.0897 H   0  0  0  0  0  0  0  0  0  0  0  0
    0.9378    2.2916   -3.6614 C   0  0  0  0  0  0  0  0  0  0  0  0
    1.2616    3.2990   -4.5242 O   0  0  0  0  0  0  0  0  0  0  0  0
    2.2217    3.4309   -4.5373 H   0  0  0  0  0  0  0  0  0  0  0  0
   -0.3969    1.9322   -3.4889 C   0  0  0  0  0  0  0  0  0  0  0  0
   -1.1654    2.4607   -4.0437 H   0  0  0  0  0  0  0  0  0  0  0  0
   -0.7453    0.9010   -2.6103 C   0  0  0  0  0  0  0  0  0  0  0  0
   -1.7917    0.6321   -2.4947 H   0  0  0  0  0  0  0  0  0  0  0  0
   -1.3031    0.9164    0.4892 C   0  0  0  0  0  0  0  0  0  0  0  0
   -2.3308    1.4107    0.0340 O   0  0  0  0  0  0  0  0  0  0  0  0
   -0.5672    1.6401    1.4098 N   0  0  0  0  0  0  0  0  0  0  0  0
    0.2579    1.1980    1.8037 H   0  0  0  0  0  0  0  0  0  0  0  0
   -0.8461    3.0326    1.7383 C   0  0  0  0  0  0  0  0  0  0  0  0
   -1.8660    3.1398    2.1226 H   0  0  0  0  0  0  0  0  0  0  0  0
   -0.1507    3.3876    2.5049 H   0  0  0  0  0  0  0  0  0  0  0  0
   -0.7353    3.6631    0.8498 H   0  0  0  0  0  0  0  0  0  0  0  0
  1  2  1  0  0  0  0
  2  3  1  0  0  0  0
  2  4  1  0  0  0  0
  2  5  1  0  0  0  0
  5  6  2  0  0  0  0
  5  7  1  0  0  0  0
  7  8  1  0  0  0  0
  7  9  1  0  0  0  0
  9 10  1  0  0  0  0
  9 11  1  0  0  0  0
  9 26  1  0  0  0  0
 11 12  1  0  0  0  0
 11 13  1  0  0  0  0
 11 14  1  0  0  0  0
 14 15  2  0  0  0  0
 14 24  1  0  0  0  0
 15 16  1  0  0  0  0
 15 17  1  0  0  0  0
 17 18  1  0  0  0  0
 17 19  2  0  0  0  0
 19 20  1  0  0  0  0
 19 22  1  0  0  0  0
 20 21  1  0  0  0  0
 22 23  1  0  0  0  0
 22 24  2  0  0  0  0
 24 25  1  0  0  0  0
 26 27  2  0  0  0  0
 26 28  1  0  0  0  0
 28 29  1  0  0  0  0
 28 30  1  0  0  0  0
 30 31  1  0  0  0  0
 30 32  1  0  0  0  0
 30 33  1  0  0  0  0
M  END
$$$$

  -OEChem-04042216043D

 33 33  0     1  0  0  0  0  0999 V2000
   -3.8242   -4.0962    1.4443 H   0  0  0  0  0  0  0  0  0  0  0  0
   -3.8485   -3.1624    0.8755 C   0  0  0  0  0  0  0  0  0  0  0  0
   -4.5549   -2.4782    1.3517 H   0  0  0  0  0  0  0  0  0  0  0  0
   -4.1885   -3.3769   -0.1405 H   0  0  0  0  0  0  0  0  0  0  0  0
   -2.4669   -2.5372    0.8367 C   0  0  0  0  0  0  0  0  0  0  0  0
   -1.5180   -3.1197    1.3389 O   0  0  0  0  0  0  0  0  0  0  0  0
   -2.2868   -1.3130    0.2274 N   0  0  0  0  0  0  0  0  0  0  0  0
   -3.1247   -0.8126   -0.0667 H   0  0  0  0  0  0  0  0  0  0  0  0
   -1.0416   -0.5314    0.2782 C   0  0  1  0  0  0  0  0  0  0  0  0
   -0.4840   -0.8690    1.1578 H   0  0  0  0  0  0  0  0  0  0  0  0
   -0.1357   -0.8550   -0.9400 C   0  0  0  0  0  0  0  0  0  0  0  0
    0.7879   -1.2943   -0.5496 H   0  0  0  0  0  0  0  0  0  0  0  0
   -0.6151   -1.6342   -1.5417 H   0  0  0  0  0  0  0  0  0  0  0  0
    0.2258    0.2826   -1.8776 C   0  0  0  0  0  0  0  0  0  0  0  0
    1.5558    0.4239   -2.3075 C   0  0  0  0  0  0  0  0  0  0  0  0
    2.3283   -0.2310   -1.9151 H   0  0  0  0  0  0  0  0  0  0  0  0
    1.9103    1.4114   -3.2342 C   0  0  0  0  0  0  0  0  0  0  0  0
    2.9471    1.5139   -3.5350 H   0  0  0  0  0  0  0  0  0  0  0  0
    0.9339    2.2499   -3.7735 C   0  0  0  0  0  0  0  0  0  0  0  0
    1.2687    3.2166   -4.6775 O   0  0  0  0  0  0  0  0  0  0  0  0
    2.2249    3.2064   -4.8363 H   0  0  0  0  0  0  0  0  0  0  0  0
   -0.3964    2.0832   -3.3976 C   0  0  0  0  0  0  0  0  0  0  0  0
   -1.1564    2.7214   -3.8362 H   0  0  0  0  0  0  0  0  0  0  0  0
   -0.7538    1.0961   -2.4731 C   0  0  0  0  0  0  0  0  0  0  0  0
   -1.8043    0.9654   -2.2304 H   0  0  0  0  0  0  0  0  0  0  0  0
   -1.3264    0.9587    0.5694 C   0  0  0  0  0  0  0  0  0  0  0  0
   -2.3783    1.4628    0.1874 O   0  0  0  0  0  0  0  0  0  0  0  0
   -0.5626    1.6449    1.4964 N   0  0  0  0  0  0  0  0  0  0  0  0
    0.2854    1.1963    1.8299 H   0  0  0  0  0  0  0  0  0  0  0  0
   -0.8410    3.0162    1.9056 C   0  0  0  0  0  0  0  0  0  0  0  0
   -1.8437    3.0921    2.3392 H   0  0  0  0  0  0  0  0  0  0  0  0
   -0.1152    3.3409    2.6573 H   0  0  0  0  0  0  0  0  0  0  0  0
   -0.7763    3.6917    1.0462 H   0  0  0  0  0  0  0  0  0  0  0  0
  1  2  1  0  0  0  0
  2  3  1  0  0  0  0
  2  4  1  0  0  0  0
  2  5  1  0  0  0  0
  5  6  2  0  0  0  0
  5  7  1  0  0  0  0
  7  8  1  0  0  0  0
  7  9  1  0  0  0  0
  9 10  1  0  0  0  0
  9 11  1  0  0  0  0
  9 26  1  0  0  0  0
 11 12  1  0  0  0  0
 11 13  1  0  0  0  0
 11 14  1  0  0  0  0
 14 15  2  0  0  0  0
 14 24  1  0  0  0  0
 15 16  1  0  0  0  0
 15 17  1  0  0  0  0
 17 18  1  0  0  0  0
 17 19  2  0  0  0  0
 19 20  1  0  0  0  0
 19 22  1  0  0  0  0
 20 21  1  0  0  0  0
 22 23  1  0  0  0  0
 22 24  2  0  0  0  0
 24 25  1  0  0  0  0
 26 27  2  0  0  0  0
 26 28  1  0  0  0  0
 28 29  1  0  0  0  0
 28 30  1  0  0  0  0
 30 31  1  0  0  0  0
 30 32  1  0  0  0  0
 30 33  1  0  0  0  0
M  END
$$$$

  -OEChem-04042216043D

 33 33  0     1  0  0  0  0  0999 V2000
   -3.7399   -4.1672    1.3351 H   0  0  0  0  0  0  0  0  0  0  0  0
   -3.8031   -3.2056    0.8182 C   0  0  0  0  0  0  0  0  0  0  0  0
   -4.5213   -2.5708    1.3428 H   0  0  0  0  0  0  0  0  0  0  0  0
   -4.1547   -3.3764   -0.2022 H   0  0  0  0  0  0  0  0  0  0  0  0
   -2.4420   -2.5360    0.7912 C   0  0  0  0  0  0  0  0  0  0  0  0
   -1.4717   -3.1070    1.2648 O   0  0  0  0  0  0  0  0  0  0  0  0
   -2.3037   -1.2855    0.2253 N   0  0  0  0  0  0  0  0  0  0  0  0
   -3.1579   -0.8033   -0.0518 H   0  0  0  0  0  0  0  0  0  0  0  0
   -1.0816   -0.4688    0.2923 C   0  0  1  0  0  0  0  0  0  0  0  0
   -0.5305   -0.8149    1.1729 H   0  0  0  0  0  0  0  0  0  0  0  0
   -0.1376   -0.7685   -0.9049 C   0  0  0  0  0  0  0  0  0  0  0  0
    0.7873   -1.1735   -0.4815 H   0  0  0  0  0  0  0  0  0  0  0  0
   -0.5794   -1.5734   -1.5014 H   0  0  0  0  0  0  0  0  0  0  0  0
    0.2389    0.3438   -1.8711 C   0  0  0  0  0  0  0  0  0  0  0  0
    1.4967    0.2796   -2.4959 C   0  0  0  0  0  0  0  0  0  0  0  0
    2.2027   -0.4965   -2.2145 H   0  0  0  0  0  0  0  0  0  0  0  0
    1.8719    1.2129   -3.4692 C   0  0  0  0  0  0  0  0  0  0  0  0
    2.8599    1.1541   -3.9126 H   0  0  0  0  0  0  0  0  0  0  0  0
    0.9756    2.2020   -3.8723 C   0  0  0  0  0  0  0  0  0  0  0  0
    1.3277    3.1173   -4.8215 O   0  0  0  0  0  0  0  0  0  0  0  0
    2.2385    2.9599   -5.1132 H   0  0  0  0  0  0  0  0  0  0  0  0
   -0.3009    2.2332   -3.3197 C   0  0  0  0  0  0  0  0  0  0  0  0
   -1.0095    2.9795   -3.6639 H   0  0  0  0  0  0  0  0  0  0  0  0
   -0.6776    1.2992   -2.3486 C   0  0  0  0  0  0  0  0  0  0  0  0
   -1.7046    1.3187   -2.0022 H   0  0  0  0  0  0  0  0  0  0  0  0
   -1.3848    1.0050    0.6389 C   0  0  0  0  0  0  0  0  0  0  0  0
   -2.4599    1.4981    0.3110 O   0  0  0  0  0  0  0  0  0  0  0  0
   -0.6175    1.6687    1.5795 N   0  0  0  0  0  0  0  0  0  0  0  0
    0.2433    1.2228    1.8833 H   0  0  0  0  0  0  0  0  0  0  0  0
   -0.9280    3.0062    2.0695 C   0  0  0  0  0  0  0  0  0  0  0  0
   -1.9083    3.0183    2.5577 H   0  0  0  0  0  0  0  0  0  0  0  0
   -0.1765    3.3256    2.7977 H   0  0  0  0  0  0  0  0  0  0  0  0
   -0.9362    3.7240    1.2426 H   0  0  0  0  0  0  0  0  0  0  0  0
  1  2  1  0  0  0  0
  2  3  1  0  0  0  0
  2  4  1  0  0  0  0
  2  5  1  0  0  0  0
  5  6  2  0  0  0  0
  5  7  1  0  0  0  0
  7  8  1  0  0  0  0
  7  9  1  0  0  0  0
  9 10  1  0  0  0  0
  9 11  1  0  0  0  0
  9 26  1  0  0  0  0
 11 12  1  0  0  0  0
 11 13  1  0  0  0  0
 11 14  1  0  0  0  0
 14 15  2  0  0  0  0
 14 24  1  0  0  0  0
 15 16  1  0  0  0  0
 15 17  1  0  0  0  0
 17 18  1  0  0  0  0
 17 19  2  0  0  0  0
 19 20  1  0  0  0  0
 19 22  1  0  0  0  0
 20 21  1  0  0  0  0
 22 23  1  0  0  0  0
 22 24  2  0  0  0  0
 24 25  1  0  0  0  0
 26 27  2  0  0  0  0
 26 28  1  0  0  0  0
 28 29  1  0  0  0  0
 28 30  1  0  0  0  0
 30 31  1  0  0  0  0
 30 32  1  0  0  0  0
 30 33  1  0  0  0  0
M  END
$$$$

  -OEChem-04042216043D

 33 33  0     1  0  0  0  0  0999 V2000
   -3.8156   -4.0846    1.3461 H   0  0  0  0  0  0  0  0  0  0  0  0
   -3.8712   -3.1121    0.8491 C   0  0  0  0  0  0  0  0  0  0  0  0
   -4.5634   -2.4731    1.4027 H   0  0  0  0  0  0  0  0  0  0  0  0
   -4.2500   -3.2553   -0.1657 H   0  0  0  0  0  0  0  0  0  0  0  0
   -2.4978   -2.4697    0.8015 C   0  0  0  0  0  0  0  0  0  0  0  0
   -1.5233   -3.0800    1.2134 O   0  0  0  0  0  0  0  0  0  0  0  0
   -2.3535   -1.2000    0.2818 N   0  0  0  0  0  0  0  0  0  0  0  0
   -3.2058   -0.6923    0.0487 H   0  0  0  0  0  0  0  0  0  0  0  0
   -1.1103   -0.4136    0.3191 C   0  0  1  0  0  0  0  0  0  0  0  0
   -0.5368   -0.8032    1.1666 H   0  0  0  0  0  0  0  0  0  0  0  0
   -0.2167   -0.7156   -0.9189 C   0  0  0  0  0  0  0  0  0  0  0  0
    0.7092   -1.1484   -0.5255 H   0  0  0  0  0  0  0  0  0  0  0  0
   -0.7031   -1.5094   -1.4958 H   0  0  0  0  0  0  0  0  0  0  0  0
    0.1921    0.3565   -1.9240 C   0  0  0  0  0  0  0  0  0  0  0  0
    1.2525    0.0286   -2.7886 C   0  0  0  0  0  0  0  0  0  0  0  0
    1.7777   -0.9142   -2.6635 H   0  0  0  0  0  0  0  0  0  0  0  0
    1.6692    0.9002   -3.8009 C   0  0  0  0  0  0  0  0  0  0  0  0
    2.5097    0.6265   -4.4291 H   0  0  0  0  0  0  0  0  0  0  0  0
    1.0010    2.1060   -4.0027 C   0  0  0  0  0  0  0  0  0  0  0  0
    1.3952    2.9673   -4.9858 O   0  0  0  0  0  0  0  0  0  0  0  0
    2.1586    2.6038   -5.4600 H   0  0  0  0  0  0  0  0  0  0  0  0
   -0.0976    2.4163   -3.2079 C   0  0  0  0  0  0  0  0  0  0  0  0
   -0.6423    3.3365   -3.3931 H   0  0  0  0  0  0  0  0  0  0  0  0
   -0.5163    1.5442   -2.1969 C   0  0  0  0  0  0  0  0  0  0  0  0
   -1.4229    1.8167   -1.6756 H   0  0  0  0  0  0  0  0  0  0  0  0
   -1.3605    1.0487    0.7398 C   0  0  0  0  0  0  0  0  0  0  0  0
   -2.4405    1.5755    0.4895 O   0  0  0  0  0  0  0  0  0  0  0  0
   -0.5317    1.6565    1.6657 N   0  0  0  0  0  0  0  0  0  0  0  0
    0.3338    1.1813    1.9048 H   0  0  0  0  0  0  0  0  0  0  0  0
   -0.7907    2.9734    2.2351 C   0  0  0  0  0  0  0  0  0  0  0  0
   -1.7491    2.9807    2.7649 H   0  0  0  0  0  0  0  0  0  0  0  0
   -0.0022    3.2396    2.9456 H   0  0  0  0  0  0  0  0  0  0  0  0
   -0.8173    3.7332    1.4469 H   0  0  0  0  0  0  0  0  0  0  0  0
  1  2  1  0  0  0  0
  2  3  1  0  0  0  0
  2  4  1  0  0  0  0
  2  5  1  0  0  0  0
  5  6  2  0  0  0  0
  5  7  1  0  0  0  0
  7  8  1  0  0  0  0
  7  9  1  0  0  0  0
  9 10  1  0  0  0  0
  9 11  1  0  0  0  0
  9 26  1  0  0  0  0
 11 12  1  0  0  0  0
 11 13  1  0  0  0  0
 11 14  1  0  0  0  0
 14 15  2  0  0  0  0
 14 24  1  0  0  0  0
 15 16  1  0  0  0  0
 15 17  1  0  0  0  0
 17 18  1  0  0  0  0
 17 19  2  0  0  0  0
 19 20  1  0  0  0  0
 19 22  1  0  0  0  0
 20 21  1  0  0  0  0
 22 23  1  0  0  0  0
 22 24  2  0  0  0  0
 24 25  1  0  0  0  0
 26 27  2  0  0  0  0
 26 28  1  0  0  0  0
 28 29  1  0  0  0  0
 28 30  1  0  0  0  0
 30 31  1  0  0  0  0
 30 32  1  0  0  0  0
 30 33  1  0  0  0  0
M  END
$$$$

  -OEChem-04042216043D

 33 33  0     1  0  0  0  0  0999 V2000
   -3.6870   -4.2135    1.1781 H   0  0  0  0  0  0  0  0  0  0  0  0
   -3.7298   -3.2371    0.6876 C   0  0  0  0  0  0  0  0  0  0  0  0
   -4.4942   -2.6295    1.1780 H   0  0  0  0  0  0  0  0  0  0  0  0
   -4.0050   -3.3801   -0.3601 H   0  0  0  0  0  0  0  0  0  0  0  0
   -2.3819   -2.5471    0.7775 C   0  0  0  0  0  0  0  0  0  0  0  0
   -1.4393   -3.1100    1.3119 O   0  0  0  0  0  0  0  0  0  0  0  0
   -2.2239   -1.2821    0.2525 N   0  0  0  0  0  0  0  0  0  0  0  0
   -3.0568   -0.8086   -0.0970 H   0  0  0  0  0  0  0  0  0  0  0  0
   -1.0079   -0.4640    0.3910 C   0  0  1  0  0  0  0  0  0  0  0  0
   -0.4149   -0.8176    1.2409 H   0  0  0  0  0  0  0  0  0  0  0  0
   -0.1461   -0.6718   -0.8933 C   0  0  0  0  0  0  0  0  0  0  0  0
    0.6304   -1.3931   -0.6179 H   0  0  0  0  0  0  0  0  0  0  0  0
   -0.7860   -1.1762   -1.6256 H   0  0  0  0  0  0  0  0  0  0  0  0
    0.5451    0.4393   -1.6893 C   0  0  0  0  0  0  0  0  0  0  0  0
    1.2668   -0.0022   -2.8145 C   0  0  0  0  0  0  0  0  0  0  0  0
    1.2898   -1.0612   -3.0560 H   0  0  0  0  0  0  0  0  0  0  0  0
    1.9614    0.8868   -3.6416 C   0  0  0  0  0  0  0  0  0  0  0  0
    2.5028    0.5058   -4.5005 H   0  0  0  0  0  0  0  0  0  0  0  0
    1.9552    2.2502   -3.3605 C   0  0  0  0  0  0  0  0  0  0  0  0
    2.6262    3.1315   -4.1584 O   0  0  0  0  0  0  0  0  0  0  0  0
    3.0314    2.6625   -4.9039 H   0  0  0  0  0  0  0  0  0  0  0  0
    1.2555    2.7124   -2.2519 C   0  0  0  0  0  0  0  0  0  0  0  0
    1.2525    3.7763   -2.0383 H   0  0  0  0  0  0  0  0  0  0  0  0
    0.5590    1.8261   -1.4220 C   0  0  0  0  0  0  0  0  0  0  0  0
    0.0485    2.2851   -0.5908 H   0  0  0  0  0  0  0  0  0  0  0  0
   -1.4630    0.9583    0.7621 C   0  0  0  0  0  0  0  0  0  0  0  0
   -2.4529    1.4517    0.2316 O   0  0  0  0  0  0  0  0  0  0  0  0
   -0.8205    1.6548    1.7708 N   0  0  0  0  0  0  0  0  0  0  0  0
   -0.0337    1.2027    2.2285 H   0  0  0  0  0  0  0  0  0  0  0  0
   -1.2450    2.9705    2.2330 C   0  0  0  0  0  0  0  0  0  0  0  0
   -2.2651    2.9268    2.6285 H   0  0  0  0  0  0  0  0  0  0  0  0
   -0.5810    3.3243    3.0274 H   0  0  0  0  0  0  0  0  0  0  0  0
   -1.2160    3.6935    1.4112 H   0  0  0  0  0  0  0  0  0  0  0  0
  1  2  1  0  0  0  0
  2  3  1  0  0  0  0
  2  4  1  0  0  0  0
  2  5  1  0  0  0  0
  5  6  2  0  0  0  0
  5  7  1  0  0  0  0
  7  8  1  0  0  0  0
  7  9  1  0  0  0  0
  9 10  1  0  0  0  0
  9 11  1  0  0  0  0
  9 26  1  0  0  0  0
 11 12  1  0  0  0  0
 11 13  1  0  0  0  0
 11 14  1  0  0  0  0
 14 15  2  0  0  0  0
 14 24  1  0  0  0  0
 15 16  1  0  0  0  0
 15 17  1  0  0  0  0
 17 18  1  0  0  0  0
 17 19  2  0  0  0  0
 19 20  1  0  0  0  0
 19 22  1  0  0  0  0
 20 21  1  0  0  0  0
 22 23  1  0  0  0  0
 22 24  2  0  0  0  0
 24 25  1  0  0  0  0
 26 27  2  0  0  0  0
 26 28  1  0  0  0  0
 28 29  1  0  0  0  0
 28 30  1  0  0  0  0
 30 31  1  0  0  0  0
 30 32  1  0  0  0  0
 30 33  1  0  0  0  0
M  END
$$$$

  -OEChem-04042216043D

 33 33  0     1  0  0  0  0  0999 V2000
   -3.7470   -4.1405    1.3012 H   0  0  0  0  0  0  0  0  0  0  0  0
   -3.7574   -3.1949    0.7520 C   0  0  0  0  0  0  0  0  0  0  0  0
   -4.5058   -2.5363    1.1995 H   0  0  0  0  0  0  0  0  0  0  0  0
   -4.0315   -3.3930   -0.2869 H   0  0  0  0  0  0  0  0  0  0  0  0
   -2.3899   -2.5404    0.8112 C   0  0  0  0  0  0  0  0  0  0  0  0
   -1.4602   -3.1109    1.3599 O   0  0  0  0  0  0  0  0  0  0  0  0
   -2.2012   -1.2939    0.2534 N   0  0  0  0  0  0  0  0  0  0  0  0
   -3.0231   -0.8056   -0.1026 H   0  0  0  0  0  0  0  0  0  0  0  0
   -0.9675   -0.5002    0.3821 C   0  0  1  0  0  0  0  0  0  0  0  0
   -0.3579   -0.8459    1.2233 H   0  0  0  0  0  0  0  0  0  0  0  0
   -0.1648   -0.7193   -0.9386 C   0  0  0  0  0  0  0  0  0  0  0  0
    0.6117   -1.4568   -0.7115 H   0  0  0  0  0  0  0  0  0  0  0  0
   -0.8414   -1.1969   -1.6556 H   0  0  0  0  0  0  0  0  0  0  0  0
    0.5076    0.4121   -1.7126 C   0  0  0  0  0  0  0  0  0  0  0  0
    0.9000    0.1174   -3.0318 C   0  0  0  0  0  0  0  0  0  0  0  0
    0.6483   -0.8456   -3.4671 H   0  0  0  0  0  0  0  0  0  0  0  0
    1.5980    1.0442   -3.8142 C   0  0  0  0  0  0  0  0  0  0  0  0
    1.8641    0.7901   -4.8343 H   0  0  0  0  0  0  0  0  0  0  0  0
    1.9544    2.2802   -3.2800 C   0  0  0  0  0  0  0  0  0  0  0  0
    2.6371    3.1945   -4.0291 O   0  0  0  0  0  0  0  0  0  0  0  0
    2.7616    2.8588   -4.9301 H   0  0  0  0  0  0  0  0  0  0  0  0
    1.6297    2.5702   -1.9596 C   0  0  0  0  0  0  0  0  0  0  0  0
    1.9358    3.5226   -1.5397 H   0  0  0  0  0  0  0  0  0  0  0  0
    0.9346    1.6427   -1.1753 C   0  0  0  0  0  0  0  0  0  0  0  0
    0.7755    1.9129   -0.1436 H   0  0  0  0  0  0  0  0  0  0  0  0
   -1.4327    0.9350    0.7115 C   0  0  0  0  0  0  0  0  0  0  0  0
   -2.4108    1.4147    0.1471 O   0  0  0  0  0  0  0  0  0  0  0  0
   -0.8122    1.6620    1.7131 N   0  0  0  0  0  0  0  0  0  0  0  0
   -0.0608    1.2099    2.2266 H   0  0  0  0  0  0  0  0  0  0  0  0
   -1.2502    2.9895    2.1267 C   0  0  0  0  0  0  0  0  0  0  0  0
   -2.2890    2.9605    2.4721 H   0  0  0  0  0  0  0  0  0  0  0  0
   -0.6238    3.3561    2.9454 H   0  0  0  0  0  0  0  0  0  0  0  0
   -1.1757    3.6943    1.2918 H   0  0  0  0  0  0  0  0  0  0  0  0
  1  2  1  0  0  0  0
  2  3  1  0  0  0  0
  2  4  1  0  0  0  0
  2  5  1  0  0  0  0
  5  6  2  0  0  0  0
  5  7  1  0  0  0  0
  7  8  1  0  0  0  0
  7  9  1  0  0  0  0
  9 10  1  0  0  0  0
  9 11  1  0  0  0  0
  9 26  1  0  0  0  0
 11 12  1  0  0  0  0
 11 13  1  0  0  0  0
 11 14  1  0  0  0  0
 14 15  2  0  0  0  0
 14 24  1  0  0  0  0
 15 16  1  0  0  0  0
 15 17  1  0  0  0  0
 17 18  1  0  0  0  0
 17 19  2  0  0  0  0
 19 20  1  0  0  0  0
 19 22  1  0  0  0  0
 20 21  1  0  0  0  0
 22 23  1  0  0  0  0
 22 24  2  0  0  0  0
 24 25  1  0  0  0  0
 26 27  2  0  0  0  0
 26 28  1  0  0  0  0
 28 29  1  0  0  0  0
 28 30  1  0  0  0  0
 30 31  1  0  0  0  0
 30 32  1  0  0  0  0
 30 33  1  0  0  0  0
M  END
$$$$

  -OEChem-04042216043D

 33 33  0     1  0  0  0  0  0999 V2000
   -3.8134   -4.1081    1.3771 H   0  0  0  0  0  0  0  0  0  0  0  0
   -3.8056   -3.1744    0.8076 C   0  0  0  0  0  0  0  0  0  0  0  0
   -4.5490   -2.4961    1.2333 H   0  0  0  0  0  0  0  0  0  0  0  0
   -4.0720   -3.3911   -0.2297 H   0  0  0  0  0  0  0  0  0  0  0  0
   -2.4300   -2.5376    0.8660 C   0  0  0  0  0  0  0  0  0  0  0  0
   -1.5235   -3.0908    1.4686 O   0  0  0  0  0  0  0  0  0  0  0  0
   -2.2076   -1.3281    0.2434 N   0  0  0  0  0  0  0  0  0  0  0  0
   -3.0142   -0.8445   -0.1518 H   0  0  0  0  0  0  0  0  0  0  0  0
   -0.9640   -0.5489    0.3572 C   0  0  1  0  0  0  0  0  0  0  0  0
   -0.3697   -0.8633    1.2211 H   0  0  0  0  0  0  0  0  0  0  0  0
   -0.1500   -0.8091   -0.9448 C   0  0  0  0  0  0  0  0  0  0  0  0
    0.6303   -1.5383   -0.7043 H   0  0  0  0  0  0  0  0  0  0  0  0
   -0.8142   -1.2953   -1.6675 H   0  0  0  0  0  0  0  0  0  0  0  0
    0.5101    0.3539   -1.6709 C   0  0  0  0  0  0  0  0  0  0  0  0
    0.6588    0.2709   -3.0665 C   0  0  0  0  0  0  0  0  0  0  0  0
    0.2152   -0.5579   -3.6106 H   0  0  0  0  0  0  0  0  0  0  0  0
    1.3506    1.2549   -3.7819 C   0  0  0  0  0  0  0  0  0  0  0  0
    1.4209    1.1789   -4.8613 H   0  0  0  0  0  0  0  0  0  0  0  0
    1.9520    2.3173   -3.1081 C   0  0  0  0  0  0  0  0  0  0  0  0
    2.6276    3.2855   -3.7930 O   0  0  0  0  0  0  0  0  0  0  0  0
    2.5423    3.1364   -4.7471 H   0  0  0  0  0  0  0  0  0  0  0  0
    1.8832    2.3725   -1.7196 C   0  0  0  0  0  0  0  0  0  0  0  0
    2.3864    3.1807   -1.1991 H   0  0  0  0  0  0  0  0  0  0  0  0
    1.1921    1.3888   -1.0041 C   0  0  0  0  0  0  0  0  0  0  0  0
    1.2241    1.4343    0.0766 H   0  0  0  0  0  0  0  0  0  0  0  0
   -1.4087    0.9137    0.5947 C   0  0  0  0  0  0  0  0  0  0  0  0
   -2.3696    1.3716   -0.0165 O   0  0  0  0  0  0  0  0  0  0  0  0
   -0.8016    1.6914    1.5658 N   0  0  0  0  0  0  0  0  0  0  0  0
   -0.0740    1.2608    2.1289 H   0  0  0  0  0  0  0  0  0  0  0  0
   -1.2122    3.0572    1.8681 C   0  0  0  0  0  0  0  0  0  0  0  0
   -2.2561    3.0807    2.1983 H   0  0  0  0  0  0  0  0  0  0  0  0
   -0.5879    3.4720    2.6652 H   0  0  0  0  0  0  0  0  0  0  0  0
   -1.1084    3.6923    0.9819 H   0  0  0  0  0  0  0  0  0  0  0  0
  1  2  1  0  0  0  0
  2  3  1  0  0  0  0
  2  4  1  0  0  0  0
  2  5  1  0  0  0  0
  5  6  2  0  0  0  0
  5  7  1  0  0  0  0
  7  8  1  0  0  0  0
  7  9  1  0  0  0  0
  9 10  1  0  0  0  0
  9 11  1  0  0  0  0
  9 26  1  0  0  0  0
 11 12  1  0  0  0  0
 11 13  1  0  0  0  0
 11 14  1  0  0  0  0
 14 15  2  0  0  0  0
 14 24  1  0  0  0  0
 15 16  1  0  0  0  0
 15 17  1  0  0  0  0
 17 18  1  0  0  0  0
 17 19  2  0  0  0  0
 19 20  1  0  0  0  0
 19 22  1  0  0  0  0
 20 21  1  0  0  0  0
 22 23  1  0  0  0  0
 22 24  2  0  0  0  0
 24 25  1  0  0  0  0
 26 27  2  0  0  0  0
 26 28  1  0  0  0  0
 28 29  1  0  0  0  0
 28 30  1  0  0  0  0
 30 31  1  0  0  0  0
 30 32  1  0  0  0  0
 30 33  1  0  0  0  0
M  END
$$$$

  -OEChem-04042216043D

 33 33  0     1  0  0  0  0  0999 V2000
   -3.8578   -4.0802    1.4466 H   0  0  0  0  0  0  0  0  0  0  0  0
   -3.8392   -3.1599    0.8561 C   0  0  0  0  0  0  0  0  0  0  0  0
   -4.5705   -2.4610    1.2695 H   0  0  0  0  0  0  0  0  0  0  0  0
   -4.1140   -3.3967   -0.1746 H   0  0  0  0  0  0  0  0  0  0  0  0
   -2.4541   -2.5422    0.8936 C   0  0  0  0  0  0  0  0  0  0  0  0
   -1.5546   -3.0920    1.5096 O   0  0  0  0  0  0  0  0  0  0  0  0
   -2.2152   -1.3549    0.2352 N   0  0  0  0  0  0  0  0  0  0  0  0
   -3.0167   -0.8697   -0.1681 H   0  0  0  0  0  0  0  0  0  0  0  0
   -0.9626   -0.5888    0.3293 C   0  0  1  0  0  0  0  0  0  0  0  0
   -0.3801   -0.8895    1.2062 H   0  0  0  0  0  0  0  0  0  0  0  0
   -0.1321   -0.8808   -0.9511 C   0  0  0  0  0  0  0  0  0  0  0  0
    0.6508   -1.6002   -0.6910 H   0  0  0  0  0  0  0  0  0  0  0  0
   -0.7803   -1.3788   -1.6799 H   0  0  0  0  0  0  0  0  0  0  0  0
    0.5175    0.3033   -1.6441 C   0  0  0  0  0  0  0  0  0  0  0  0
    0.4330    0.4270   -3.0405 C   0  0  0  0  0  0  0  0  0  0  0  0
   -0.1650   -0.2752   -3.6141 H   0  0  0  0  0  0  0  0  0  0  0  0
    1.0948    1.4634   -3.7097 C   0  0  0  0  0  0  0  0  0  0  0  0
    0.9928    1.5535   -4.7854 H   0  0  0  0  0  0  0  0  0  0  0  0
    1.8829    2.3683   -2.9973 C   0  0  0  0  0  0  0  0  0  0  0  0
    2.5306    3.3844   -3.6385 O   0  0  0  0  0  0  0  0  0  0  0  0
    2.2970    3.3836   -4.5795 H   0  0  0  0  0  0  0  0  0  0  0  0
    2.0229    2.2202   -1.6201 C   0  0  0  0  0  0  0  0  0  0  0  0
    2.6582    2.9120   -1.0771 H   0  0  0  0  0  0  0  0  0  0  0  0
    1.3622    1.1862   -0.9491 C   0  0  0  0  0  0  0  0  0  0  0  0
    1.5225    1.0708    0.1171 H   0  0  0  0  0  0  0  0  0  0  0  0
   -1.3636    0.8932    0.5219 C   0  0  0  0  0  0  0  0  0  0  0  0
   -2.3217    1.3539   -0.0919 O   0  0  0  0  0  0  0  0  0  0  0  0
   -0.7322    1.6813    1.4686 N   0  0  0  0  0  0  0  0  0  0  0  0
    0.0117    1.2593    2.0159 H   0  0  0  0  0  0  0  0  0  0  0  0
   -1.0849    3.0745    1.7124 C   0  0  0  0  0  0  0  0  0  0  0  0
   -2.1313    3.1564    2.0248 H   0  0  0  0  0  0  0  0  0  0  0  0
   -0.4545    3.4921    2.5033 H   0  0  0  0  0  0  0  0  0  0  0  0
   -0.9398    3.6694    0.8044 H   0  0  0  0  0  0  0  0  0  0  0  0
  1  2  1  0  0  0  0
  2  3  1  0  0  0  0
  2  4  1  0  0  0  0
  2  5  1  0  0  0  0
  5  6  2  0  0  0  0
  5  7  1  0  0  0  0
  7  8  1  0  0  0  0
  7  9  1  0  0  0  0
  9 10  1  0  0  0  0
  9 11  1  0  0  0  0
  9 26  1  0  0  0  0
 11 12  1  0  0  0  0
 11 13  1  0  0  0  0
 11 14  1  0  0  0  0
 14 15  2  0  0  0  0
 14 24  1  0  0  0  0
 15 16  1  0  0  0  0
 15 17  1  0  0  0  0
 17 18  1  0  0  0  0
 17 19  2  0  0  0  0
 19 20  1  0  0  0  0
 19 22  1  0  0  0  0
 20 21  1  0  0  0  0
 22 23  1  0  0  0  0
 22 24  2  0  0  0  0
 24 25  1  0  0  0  0
 26 27  2  0  0  0  0
 26 28  1  0  0  0  0
 28 29  1  0  0  0  0
 28 30  1  0  0  0  0
 30 31  1  0  0  0  0
 30 32  1  0  0  0  0
 30 33  1  0  0  0  0
M  END
$$$$

  -OEChem-04042216043D

 33 33  0     1  0  0  0  0  0999 V2000
   -3.9002   -4.0442    1.5155 H   0  0  0  0  0  0  0  0  0  0  0  0
   -3.8675   -3.1461    0.8924 C   0  0  0  0  0  0  0  0  0  0  0  0
   -4.5849   -2.4205    1.2835 H   0  0  0  0  0  0  0  0  0  0  0  0
   -4.1505   -3.4143   -0.1282 H   0  0  0  0  0  0  0  0  0  0  0  0
   -2.4715   -2.5519    0.9035 C   0  0  0  0  0  0  0  0  0  0  0  0
   -1.5757   -3.1046    1.5226 O   0  0  0  0  0  0  0  0  0  0  0  0
   -2.2204   -1.3799    0.2222 N   0  0  0  0  0  0  0  0  0  0  0  0
   -3.0191   -0.8903   -0.1809 H   0  0  0  0  0  0  0  0  0  0  0  0
   -0.9607   -0.6244    0.3036 C   0  0  1  0  0  0  0  0  0  0  0  0
   -0.3895   -0.9160    1.1907 H   0  0  0  0  0  0  0  0  0  0  0  0
   -0.1123   -0.9365   -0.9561 C   0  0  0  0  0  0  0  0  0  0  0  0
    0.6710   -1.6490   -0.6789 H   0  0  0  0  0  0  0  0  0  0  0  0
   -0.7441   -1.4418   -1.6941 H   0  0  0  0  0  0  0  0  0  0  0  0
    0.5302    0.2633   -1.6227 C   0  0  0  0  0  0  0  0  0  0  0  0
    0.2257    0.5880   -2.9536 C   0  0  0  0  0  0  0  0  0  0  0  0
   -0.5155    0.0116   -3.4994 H   0  0  0  0  0  0  0  0  0  0  0  0
    0.8547    1.6680   -3.5843 C   0  0  0  0  0  0  0  0  0  0  0  0
    0.5913    1.9132   -4.6071 H   0  0  0  0  0  0  0  0  0  0  0  0
    1.8115    2.4205   -2.9009 C   0  0  0  0  0  0  0  0  0  0  0  0
    2.4277    3.4769   -3.5066 O   0  0  0  0  0  0  0  0  0  0  0  0
    2.0648    3.6050   -4.3966 H   0  0  0  0  0  0  0  0  0  0  0  0
    2.1465    2.0832   -1.5913 C   0  0  0  0  0  0  0  0  0  0  0  0
    2.9022    2.6648   -1.0734 H   0  0  0  0  0  0  0  0  0  0  0  0
    1.5205    1.0047   -0.9571 C   0  0  0  0  0  0  0  0  0  0  0  0
    1.8101    0.7447    0.0561 H   0  0  0  0  0  0  0  0  0  0  0  0
   -1.3275    0.8692    0.4672 C   0  0  0  0  0  0  0  0  0  0  0  0
   -2.2853    1.3350   -0.1436 O   0  0  0  0  0  0  0  0  0  0  0  0
   -0.6746    1.6567    1.3987 N   0  0  0  0  0  0  0  0  0  0  0  0
    0.1025    1.2424    1.9038 H   0  0  0  0  0  0  0  0  0  0  0  0
   -0.9603    3.0737    1.5841 C   0  0  0  0  0  0  0  0  0  0  0  0
   -2.0137    3.2235    1.8439 H   0  0  0  0  0  0  0  0  0  0  0  0
   -0.3455    3.4813    2.3923 H   0  0  0  0  0  0  0  0  0  0  0  0
   -0.7400    3.6294    0.6666 H   0  0  0  0  0  0  0  0  0  0  0  0
  1  2  1  0  0  0  0
  2  3  1  0  0  0  0
  2  4  1  0  0  0  0
  2  5  1  0  0  0  0
  5  6  2  0  0  0  0
  5  7  1  0  0  0  0
  7  8  1  0  0  0  0
  7  9  1  0  0  0  0
  9 10  1  0  0  0  0
  9 11  1  0  0  0  0
  9 26  1  0  0  0  0
 11 12  1  0  0  0  0
 11 13  1  0  0  0  0
 11 14  1  0  0  0  0
 14 15  2  0  0  0  0
 14 24  1  0  0  0  0
 15 16  1  0  0  0  0
 15 17  1  0  0  0  0
 17 18  1  0  0  0  0
 17 19  2  0  0  0  0
 19 20  1  0  0  0  0
 19 22  1  0  0  0  0
 20 21  1  0  0  0  0
 22 23  1  0  0  0  0
 22 24  2  0  0  0  0
 24 25  1  0  0  0  0
 26 27  2  0  0  0  0
 26 28  1  0  0  0  0
 28 29  1  0  0  0  0
 28 30  1  0  0  0  0
 30 31  1  0  0  0  0
 30 32  1  0  0  0  0
 30 33  1  0  0  0  0
M  END
$$$$

  -OEChem-04042216043D

 33 33  0     1  0  0  0  0  0999 V2000
   -3.9207   -4.0255    1.5364 H   0  0  0  0  0  0  0  0  0  0  0  0
   -3.8837   -3.1300    0.9097 C   0  0  0  0  0  0  0  0  0  0  0  0
   -4.5903   -2.3954    1.3037 H   0  0  0  0  0  0  0  0  0  0  0  0
   -4.1777   -3.3991   -0.1077 H   0  0  0  0  0  0  0  0  0  0  0  0
   -2.4818   -2.5500    0.9074 C   0  0  0  0  0  0  0  0  0  0  0  0
   -1.5888   -3.1059    1.5277 O   0  0  0  0  0  0  0  0  0  0  0  0
   -2.2216   -1.3889    0.2108 N   0  0  0  0  0  0  0  0  0  0  0  0
   -3.0181   -0.8932   -0.1888 H   0  0  0  0  0  0  0  0  0  0  0  0
   -0.9550   -0.6443    0.2829 C   0  0  1  0  0  0  0  0  0  0  0  0
   -0.3918   -0.9305    1.1770 H   0  0  0  0  0  0  0  0  0  0  0  0
   -0.0962   -0.9753   -0.9630 C   0  0  0  0  0  0  0  0  0  0  0  0
    0.6816   -1.6894   -0.6737 H   0  0  0  0  0  0  0  0  0  0  0  0
   -0.7200   -1.4800   -1.7083 H   0  0  0  0  0  0  0  0  0  0  0  0
    0.5458    0.2288   -1.6172 C   0  0  0  0  0  0  0  0  0  0  0  0
    0.0438    0.7467   -2.8202 C   0  0  0  0  0  0  0  0  0  0  0  0
   -0.8318    0.2997   -3.2820 H   0  0  0  0  0  0  0  0  0  0  0  0
    0.6494    1.8568   -3.4206 C   0  0  0  0  0  0  0  0  0  0  0  0
    0.2382    2.2522   -4.3428 H   0  0  0  0  0  0  0  0  0  0  0  0
    1.7686    2.4504   -2.8327 C   0  0  0  0  0  0  0  0  0  0  0  0
    2.3633    3.5360   -3.4078 O   0  0  0  0  0  0  0  0  0  0  0  0
    1.8732    3.7985   -4.2023 H   0  0  0  0  0  0  0  0  0  0  0  0
    2.2844    1.9277   -1.6484 C   0  0  0  0  0  0  0  0  0  0  0  0
    3.1593    2.3911   -1.2041 H   0  0  0  0  0  0  0  0  0  0  0  0
    1.6823    0.8195   -1.0434 C   0  0  0  0  0  0  0  0  0  0  0  0
    2.1020    0.4194   -0.1254 H   0  0  0  0  0  0  0  0  0  0  0  0
   -1.2964    0.8572    0.4280 C   0  0  0  0  0  0  0  0  0  0  0  0
   -2.2559    1.3268   -0.1778 O   0  0  0  0  0  0  0  0  0  0  0  0
   -0.6288    1.6445    1.3486 N   0  0  0  0  0  0  0  0  0  0  0  0
    0.1714    1.2358    1.8213 H   0  0  0  0  0  0  0  0  0  0  0  0
   -0.8892    3.0689    1.5128 C   0  0  0  0  0  0  0  0  0  0  0  0
   -1.9385    3.2400    1.7751 H   0  0  0  0  0  0  0  0  0  0  0  0
   -0.2637    3.4783    2.3118 H   0  0  0  0  0  0  0  0  0  0  0  0
   -0.6645    3.6066    0.5856 H   0  0  0  0  0  0  0  0  0  0  0  0
  1  2  1  0  0  0  0
  2  3  1  0  0  0  0
  2  4  1  0  0  0  0
  2  5  1  0  0  0  0
  5  6  2  0  0  0  0
  5  7  1  0  0  0  0
  7  8  1  0  0  0  0
  7  9  1  0  0  0  0
  9 10  1  0  0  0  0
  9 11  1  0  0  0  0
  9 26  1  0  0  0  0
 11 12  1  0  0  0  0
 11 13  1  0  0  0  0
 11 14  1  0  0  0  0
 14 15  2  0  0  0  0
 14 24  1  0  0  0  0
 15 16  1  0  0  0  0
 15 17  1  0  0  0  0
 17 18  1  0  0  0  0
 17 19  2  0  0  0  0
 19 20  1  0  0  0  0
 19 22  1  0  0  0  0
 20 21  1  0  0  0  0
 22 23  1  0  0  0  0
 22 24  2  0  0  0  0
 24 25  1  0  0  0  0
 26 27  2  0  0  0  0
 26 28  1  0  0  0  0
 28 29  1  0  0  0  0
 28 30  1  0  0  0  0
 30 31  1  0  0  0  0
 30 32  1  0  0  0  0
 30 33  1  0  0  0  0
M  END
$$$$

  -OEChem-04042216043D

 33 33  0     1  0  0  0  0  0999 V2000
   -3.9287   -4.0200    1.5323 H   0  0  0  0  0  0  0  0  0  0  0  0
   -3.8901   -3.1256    0.9043 C   0  0  0  0  0  0  0  0  0  0  0  0
   -4.5968   -2.3899    1.2958 H   0  0  0  0  0  0  0  0  0  0  0  0
   -4.1825   -3.3961   -0.1130 H   0  0  0  0  0  0  0  0  0  0  0  0
   -2.4875   -2.5476    0.9029 C   0  0  0  0  0  0  0  0  0  0  0  0
   -1.5942   -3.1072    1.5196 O   0  0  0  0  0  0  0  0  0  0  0  0
   -2.2260   -1.3870    0.2061 N   0  0  0  0  0  0  0  0  0  0  0  0
   -3.0226   -0.8889   -0.1901 H   0  0  0  0  0  0  0  0  0  0  0  0
   -0.9574   -0.6458    0.2738 C   0  0  1  0  0  0  0  0  0  0  0  0
   -0.3991   -0.9325    1.1708 H   0  0  0  0  0  0  0  0  0  0  0  0
   -0.0894   -0.9882   -0.9621 C   0  0  0  0  0  0  0  0  0  0  0  0
    0.6818   -1.7054   -0.6630 H   0  0  0  0  0  0  0  0  0  0  0  0
   -0.7087   -1.4915   -1.7118 H   0  0  0  0  0  0  0  0  0  0  0  0
    0.5560    0.2110   -1.6200 C   0  0  0  0  0  0  0  0  0  0  0  0
   -0.1010    0.9091   -2.6442 C   0  0  0  0  0  0  0  0  0  0  0  0
   -1.0887    0.5938   -2.9690 H   0  0  0  0  0  0  0  0  0  0  0  0
    0.4955    2.0305   -3.2318 C   0  0  0  0  0  0  0  0  0  0  0  0
   -0.0339    2.5649   -4.0128 H   0  0  0  0  0  0  0  0  0  0  0  0
    1.7549    2.4593   -2.8077 C   0  0  0  0  0  0  0  0  0  0  0  0
    2.3422    3.5545   -3.3718 O   0  0  0  0  0  0  0  0  0  0  0  0
    1.7535    3.9365   -4.0410 H   0  0  0  0  0  0  0  0  0  0  0  0
    2.4166    1.7637   -1.7974 C   0  0  0  0  0  0  0  0  0  0  0  0
    3.3965    2.1027   -1.4779 H   0  0  0  0  0  0  0  0  0  0  0  0
    1.8237    0.6443   -1.2040 C   0  0  0  0  0  0  0  0  0  0  0  0
    2.3534    0.1139   -0.4182 H   0  0  0  0  0  0  0  0  0  0  0  0
   -1.2839    0.8585    0.4206 C   0  0  0  0  0  0  0  0  0  0  0  0
   -2.2504    1.3334   -0.1705 O   0  0  0  0  0  0  0  0  0  0  0  0
   -0.6040    1.6384    1.3382 N   0  0  0  0  0  0  0  0  0  0  0  0
    0.2092    1.2274    1.7865 H   0  0  0  0  0  0  0  0  0  0  0  0
   -0.8486    3.0654    1.5032 C   0  0  0  0  0  0  0  0  0  0  0  0
   -1.8961    3.2485    1.7648 H   0  0  0  0  0  0  0  0  0  0  0  0
   -0.2194    3.4663    2.3036 H   0  0  0  0  0  0  0  0  0  0  0  0
   -0.6168    3.6017    0.5770 H   0  0  0  0  0  0  0  0  0  0  0  0
  1  2  1  0  0  0  0
  2  3  1  0  0  0  0
  2  4  1  0  0  0  0
  2  5  1  0  0  0  0
  5  6  2  0  0  0  0
  5  7  1  0  0  0  0
  7  8  1  0  0  0  0
  7  9  1  0  0  0  0
  9 10  1  0  0  0  0
  9 11  1  0  0  0  0
  9 26  1  0  0  0  0
 11 12  1  0  0  0  0
 11 13  1  0  0  0  0
 11 14  1  0  0  0  0
 14 15  2  0  0  0  0
 14 24  1  0  0  0  0
 15 16  1  0  0  0  0
 15 17  1  0  0  0  0
 17 18  1  0  0  0  0
 17 19  2  0  0  0  0
 19 20  1  0  0  0  0
 19 22  1  0  0  0  0
 20 21  1  0  0  0  0
 22 23  1  0  0  0  0
 22 24  2  0  0  0  0
 24 25  1  0  0  0  0
 26 27  2  0  0  0  0
 26 28  1  0  0  0  0
 28 29  1  0  0  0  0
 28 30  1  0  0  0  0
 30 31  1  0  0  0  0
 30 32  1  0  0  0  0
 30 33  1  0  0  0  0
M  END
$$$$

  -OEChem-04042216043D

 33 33  0     1  0  0  0  0  0999 V2000
   -3.9135   -4.0350    1.5091 H   0  0  0  0  0  0  0  0  0  0  0  0
   -3.8846   -3.1330    0.8917 C   0  0  0  0  0  0  0  0  0  0  0  0
   -4.5929   -2.4063    1.2971 H   0  0  0  0  0  0  0  0  0  0  0  0
   -4.1825   -3.3929   -0.1270 H   0  0  0  0  0  0  0  0  0  0  0  0
   -2.4856   -2.5462    0.8872 C   0  0  0  0  0  0  0  0  0  0  0  0
   -1.5836   -3.1089    1.4880 O   0  0  0  0  0  0  0  0  0  0  0  0
   -2.2386   -1.3728    0.2066 N   0  0  0  0  0  0  0  0  0  0  0  0
   -3.0425   -0.8759   -0.1755 H   0  0  0  0  0  0  0  0  0  0  0  0
   -0.9751   -0.6228    0.2730 C   0  0  1  0  0  0  0  0  0  0  0  0
   -0.4201   -0.9154    1.1703 H   0  0  0  0  0  0  0  0  0  0  0  0
   -0.0922   -0.9706   -0.9525 C   0  0  0  0  0  0  0  0  0  0  0  0
    0.6722   -1.6879   -0.6367 H   0  0  0  0  0  0  0  0  0  0  0  0
   -0.7057   -1.4822   -1.7015 H   0  0  0  0  0  0  0  0  0  0  0  0
    0.5614    0.2109   -1.6381 C   0  0  0  0  0  0  0  0  0  0  0  0
   -0.1815    1.0750   -2.4583 C   0  0  0  0  0  0  0  0  0  0  0  0
   -1.2410    0.8925   -2.6193 H   0  0  0  0  0  0  0  0  0  0  0  0
    0.4256    2.1849   -3.0562 C   0  0  0  0  0  0  0  0  0  0  0  0
   -0.1701    2.8440   -3.6782 H   0  0  0  0  0  0  0  0  0  0  0  0
    1.7811    2.4420   -2.8441 C   0  0  0  0  0  0  0  0  0  0  0  0
    2.3802    3.5255   -3.4181 O   0  0  0  0  0  0  0  0  0  0  0  0
    1.7319    4.0236   -3.9397 H   0  0  0  0  0  0  0  0  0  0  0  0
    2.5268    1.5862   -2.0358 C   0  0  0  0  0  0  0  0  0  0  0  0
    3.5803    1.7933   -1.8786 H   0  0  0  0  0  0  0  0  0  0  0  0
    1.9239    0.4764   -1.4333 C   0  0  0  0  0  0  0  0  0  0  0  0
    2.5218   -0.1761   -0.8036 H   0  0  0  0  0  0  0  0  0  0  0  0
   -1.2952    0.8792    0.4466 C   0  0  0  0  0  0  0  0  0  0  0  0
   -2.2801    1.3612   -0.1075 O   0  0  0  0  0  0  0  0  0  0  0  0
   -0.6012    1.6412    1.3686 N   0  0  0  0  0  0  0  0  0  0  0  0
    0.2243    1.2251    1.7897 H   0  0  0  0  0  0  0  0  0  0  0  0
   -0.8558    3.0604    1.5803 C   0  0  0  0  0  0  0  0  0  0  0  0
   -1.8992    3.2251    1.8689 H   0  0  0  0  0  0  0  0  0  0  0  0
   -0.2137    3.4444    2.3787 H   0  0  0  0  0  0  0  0  0  0  0  0
   -0.6491    3.6256    0.6654 H   0  0  0  0  0  0  0  0  0  0  0  0
  1  2  1  0  0  0  0
  2  3  1  0  0  0  0
  2  4  1  0  0  0  0
  2  5  1  0  0  0  0
  5  6  2  0  0  0  0
  5  7  1  0  0  0  0
  7  8  1  0  0  0  0
  7  9  1  0  0  0  0
  9 10  1  0  0  0  0
  9 11  1  0  0  0  0
  9 26  1  0  0  0  0
 11 12  1  0  0  0  0
 11 13  1  0  0  0  0
 11 14  1  0  0  0  0
 14 15  2  0  0  0  0
 14 24  1  0  0  0  0
 15 16  1  0  0  0  0
 15 17  1  0  0  0  0
 17 18  1  0  0  0  0
 17 19  2  0  0  0  0
 19 20  1  0  0  0  0
 19 22  1  0  0  0  0
 20 21  1  0  0  0  0
 22 23  1  0  0  0  0
 22 24  2  0  0  0  0
 24 25  1  0  0  0  0
 26 27  2  0  0  0  0
 26 28  1  0  0  0  0
 28 29  1  0  0  0  0
 28 30  1  0  0  0  0
 30 31  1  0  0  0  0
 30 32  1  0  0  0  0
 30 33  1  0  0  0  0
M  END
$$$$

  -OEChem-04042216043D

 33 33  0     1  0  0  0  0  0999 V2000
   -3.8597   -4.0708    1.4883 H   0  0  0  0  0  0  0  0  0  0  0  0
   -3.8601   -3.1557    0.8895 C   0  0  0  0  0  0  0  0  0  0  0  0
   -4.5660   -2.4477    1.3304 H   0  0  0  0  0  0  0  0  0  0  0  0
   -4.1837   -3.3984   -0.1254 H   0  0  0  0  0  0  0  0  0  0  0  0
   -2.4695   -2.5498    0.8581 C   0  0  0  0  0  0  0  0  0  0  0  0
   -1.5414   -3.1202    1.4100 O   0  0  0  0  0  0  0  0  0  0  0  0
   -2.2593   -1.3511    0.2091 N   0  0  0  0  0  0  0  0  0  0  0  0
   -3.0823   -0.8540   -0.1298 H   0  0  0  0  0  0  0  0  0  0  0  0
   -1.0084   -0.5793    0.2729 C   0  0  1  0  0  0  0  0  0  0  0  0
   -0.4524   -0.8826    1.1661 H   0  0  0  0  0  0  0  0  0  0  0  0
   -0.1060   -0.9225   -0.9433 C   0  0  0  0  0  0  0  0  0  0  0  0
    0.6560   -1.6333   -0.6073 H   0  0  0  0  0  0  0  0  0  0  0  0
   -0.7120   -1.4518   -1.6859 H   0  0  0  0  0  0  0  0  0  0  0  0
    0.5563    0.2321   -1.6742 C   0  0  0  0  0  0  0  0  0  0  0  0
   -0.1886    1.2539   -2.2880 C   0  0  0  0  0  0  0  0  0  0  0  0
   -1.2742    1.2109   -2.2959 H   0  0  0  0  0  0  0  0  0  0  0  0
    0.4508    2.3324   -2.9082 C   0  0  0  0  0  0  0  0  0  0  0  0
   -0.1490    3.1080   -3.3717 H   0  0  0  0  0  0  0  0  0  0  0  0
    1.8441    2.4051   -2.9273 C   0  0  0  0  0  0  0  0  0  0  0  0
    2.4775    3.4542   -3.5280 O   0  0  0  0  0  0  0  0  0  0  0  0
    1.8232    4.0663   -3.8990 H   0  0  0  0  0  0  0  0  0  0  0  0
    2.5935    1.3958   -2.3273 C   0  0  0  0  0  0  0  0  0  0  0  0
    3.6766    1.4589   -2.3485 H   0  0  0  0  0  0  0  0  0  0  0  0
    1.9578    0.3170   -1.7031 C   0  0  0  0  0  0  0  0  0  0  0  0
    2.5647   -0.4534   -1.2363 H   0  0  0  0  0  0  0  0  0  0  0  0
   -1.3332    0.9135    0.4996 C   0  0  0  0  0  0  0  0  0  0  0  0
   -2.3514    1.3973    0.0121 O   0  0  0  0  0  0  0  0  0  0  0  0
   -0.6225    1.6509    1.4288 N   0  0  0  0  0  0  0  0  0  0  0  0
    0.2204    1.2316    1.8107 H   0  0  0  0  0  0  0  0  0  0  0  0
   -0.9087    3.0484    1.7279 C   0  0  0  0  0  0  0  0  0  0  0  0
   -1.9405    3.1634    2.0767 H   0  0  0  0  0  0  0  0  0  0  0  0
   -0.2382    3.4119    2.5127 H   0  0  0  0  0  0  0  0  0  0  0  0
   -0.7661    3.6669    0.8354 H   0  0  0  0  0  0  0  0  0  0  0  0
  1  2  1  0  0  0  0
  2  3  1  0  0  0  0
  2  4  1  0  0  0  0
  2  5  1  0  0  0  0
  5  6  2  0  0  0  0
  5  7  1  0  0  0  0
  7  8  1  0  0  0  0
  7  9  1  0  0  0  0
  9 10  1  0  0  0  0
  9 11  1  0  0  0  0
  9 26  1  0  0  0  0
 11 12  1  0  0  0  0
 11 13  1  0  0  0  0
 11 14  1  0  0  0  0
 14 15  2  0  0  0  0
 14 24  1  0  0  0  0
 15 16  1  0  0  0  0
 15 17  1  0  0  0  0
 17 18  1  0  0  0  0
 17 19  2  0  0  0  0
 19 20  1  0  0  0  0
 19 22  1  0  0  0  0
 20 21  1  0  0  0  0
 22 23  1  0  0  0  0
 22 24  2  0  0  0  0
 24 25  1  0  0  0  0
 26 27  2  0  0  0  0
 26 28  1  0  0  0  0
 28 29  1  0  0  0  0
 28 30  1  0  0  0  0
 30 31  1  0  0  0  0
 30 32  1  0  0  0  0
 30 33  1  0  0  0  0
M  END
$$$$

  -OEChem-04042216043D

 33 33  0     1  0  0  0  0  0999 V2000
   -3.7720   -4.1505    1.4069 H   0  0  0  0  0  0  0  0  0  0  0  0
   -3.8127   -3.2083    0.8533 C   0  0  0  0  0  0  0  0  0  0  0  0
   -4.5382   -2.5481    1.3349 H   0  0  0  0  0  0  0  0  0  0  0  0
   -4.1399   -3.4138   -0.1688 H   0  0  0  0  0  0  0  0  0  0  0  0
   -2.4448   -2.5523    0.8368 C   0  0  0  0  0  0  0  0  0  0  0  0
   -1.4935   -3.1093    1.3622 O   0  0  0  0  0  0  0  0  0  0  0  0
   -2.2789   -1.3276    0.2244 N   0  0  0  0  0  0  0  0  0  0  0  0
   -3.1194   -0.8486   -0.0969 H   0  0  0  0  0  0  0  0  0  0  0  0
   -1.0480   -0.5238    0.2885 C   0  0  1  0  0  0  0  0  0  0  0  0
   -0.4875   -0.8338    1.1767 H   0  0  0  0  0  0  0  0  0  0  0  0
   -0.1285   -0.8516   -0.9226 C   0  0  0  0  0  0  0  0  0  0  0  0
    0.6388   -1.5455   -0.5639 H   0  0  0  0  0  0  0  0  0  0  0  0
   -0.7230   -1.4076   -1.6549 H   0  0  0  0  0  0  0  0  0  0  0  0
    0.5393    0.2735   -1.7035 C   0  0  0  0  0  0  0  0  0  0  0  0
   -0.1252    1.4424   -2.1196 C   0  0  0  0  0  0  0  0  0  0  0  0
   -1.1947    1.5567   -1.9812 H   0  0  0  0  0  0  0  0  0  0  0  0
    0.5644    2.4704   -2.7720 C   0  0  0  0  0  0  0  0  0  0  0  0
    0.0222    3.3561   -3.0846 H   0  0  0  0  0  0  0  0  0  0  0  0
    1.9309    2.3519   -3.0220 C   0  0  0  0  0  0  0  0  0  0  0  0
    2.6130    3.3507   -3.6543 O   0  0  0  0  0  0  0  0  0  0  0  0
    2.0077    4.0746   -3.8775 H   0  0  0  0  0  0  0  0  0  0  0  0
    2.6018    1.1992   -2.6247 C   0  0  0  0  0  0  0  0  0  0  0  0
    3.6645    1.1112   -2.8256 H   0  0  0  0  0  0  0  0  0  0  0  0
    1.9155    0.1696   -1.9717 C   0  0  0  0  0  0  0  0  0  0  0  0
    2.4691   -0.7138   -1.6664 H   0  0  0  0  0  0  0  0  0  0  0  0
   -1.3919    0.9538    0.5700 C   0  0  0  0  0  0  0  0  0  0  0  0
   -2.4389    1.4294    0.1390 O   0  0  0  0  0  0  0  0  0  0  0  0
   -0.6714    1.6720    1.5069 N   0  0  0  0  0  0  0  0  0  0  0  0
    0.1850    1.2538    1.8595 H   0  0  0  0  0  0  0  0  0  0  0  0
   -0.9950    3.0406    1.8899 C   0  0  0  0  0  0  0  0  0  0  0  0
   -2.0130    3.0967    2.2896 H   0  0  0  0  0  0  0  0  0  0  0  0
   -0.3025    3.3906    2.6613 H   0  0  0  0  0  0  0  0  0  0  0  0
   -0.9174    3.7081    1.0253 H   0  0  0  0  0  0  0  0  0  0  0  0
  1  2  1  0  0  0  0
  2  3  1  0  0  0  0
  2  4  1  0  0  0  0
  2  5  1  0  0  0  0
  5  6  2  0  0  0  0
  5  7  1  0  0  0  0
  7  8  1  0  0  0  0
  7  9  1  0  0  0  0
  9 10  1  0  0  0  0
  9 11  1  0  0  0  0
  9 26  1  0  0  0  0
 11 12  1  0  0  0  0
 11 13  1  0  0  0  0
 11 14  1  0  0  0  0
 14 15  2  0  0  0  0
 14 24  1  0  0  0  0
 15 16  1  0  0  0  0
 15 17  1  0  0  0  0
 17 18  1  0  0  0  0
 17 19  2  0  0  0  0
 19 20  1  0  0  0  0
 19 22  1  0  0  0  0
 20 21  1  0  0  0  0
 22 23  1  0  0  0  0
 22 24  2  0  0  0  0
 24 25  1  0  0  0  0
 26 27  2  0  0  0  0
 26 28  1  0  0  0  0
 28 29  1  0  0  0  0
 28 30  1  0  0  0  0
 30 31  1  0  0  0  0
 30 32  1  0  0  0  0
 30 33  1  0  0  0  0
M  END
$$$$

  -OEChem-04042216043D

 33 33  0     1  0  0  0  0  0999 V2000
   -3.6964   -4.2187    1.3073 H   0  0  0  0  0  0  0  0  0  0  0  0
   -3.7614   -3.2596    0.7860 C   0  0  0  0  0  0  0  0  0  0  0  0
   -4.5100   -2.6386    1.2843 H   0  0  0  0  0  0  0  0  0  0  0  0
   -4.0749   -3.4394   -0.2453 H   0  0  0  0  0  0  0  0  0  0  0  0
   -2.4136   -2.5629    0.8028 C   0  0  0  0  0  0  0  0  0  0  0  0
   -1.4509   -3.1078    1.3200 O   0  0  0  0  0  0  0  0  0  0  0  0
   -2.2785   -1.3148    0.2312 N   0  0  0  0  0  0  0  0  0  0  0  0
   -3.1284   -0.8519   -0.0891 H   0  0  0  0  0  0  0  0  0  0  0  0
   -1.0691   -0.4810    0.3222 C   0  0  1  0  0  0  0  0  0  0  0  0
   -0.5028   -0.8005    1.2032 H   0  0  0  0  0  0  0  0  0  0  0  0
   -0.1397   -0.7648   -0.8955 C   0  0  0  0  0  0  0  0  0  0  0  0
    0.6333   -1.4515   -0.5346 H   0  0  0  0  0  0  0  0  0  0  0  0
   -0.7270   -1.3271   -1.6289 H   0  0  0  0  0  0  0  0  0  0  0  0
    0.5390    0.3436   -1.7008 C   0  0  0  0  0  0  0  0  0  0  0  0
    0.0375    1.6448   -1.9106 C   0  0  0  0  0  0  0  0  0  0  0  0
   -0.9537    1.9404   -1.5945 H   0  0  0  0  0  0  0  0  0  0  0  0
    0.7803    2.6024   -2.6111 C   0  0  0  0  0  0  0  0  0  0  0  0
    0.3596    3.5903   -2.7634 H   0  0  0  0  0  0  0  0  0  0  0  0
    2.0389    2.2865   -3.1188 C   0  0  0  0  0  0  0  0  0  0  0  0
    2.7699    3.2152   -3.8014 O   0  0  0  0  0  0  0  0  0  0  0  0
    2.2728    4.0451   -3.8669 H   0  0  0  0  0  0  0  0  0  0  0  0
    2.5472    1.0060   -2.9323 C   0  0  0  0  0  0  0  0  0  0  0  0
    3.5250    0.7617   -3.3346 H   0  0  0  0  0  0  0  0  0  0  0  0
    1.8074    0.0467   -2.2334 C   0  0  0  0  0  0  0  0  0  0  0  0
    2.2373   -0.9421   -2.1009 H   0  0  0  0  0  0  0  0  0  0  0  0
   -1.4624    0.9720    0.6508 C   0  0  0  0  0  0  0  0  0  0  0  0
   -2.5151    1.4328    0.2180 O   0  0  0  0  0  0  0  0  0  0  0  0
   -0.7692    1.6850    1.6122 N   0  0  0  0  0  0  0  0  0  0  0  0
    0.0860    1.2736    1.9760 H   0  0  0  0  0  0  0  0  0  0  0  0
   -1.1437    3.0267    2.0419 C   0  0  0  0  0  0  0  0  0  0  0  0
   -2.1599    3.0291    2.4501 H   0  0  0  0  0  0  0  0  0  0  0  0
   -0.4596    3.3799    2.8194 H   0  0  0  0  0  0  0  0  0  0  0  0
   -1.0998    3.7242    1.1989 H   0  0  0  0  0  0  0  0  0  0  0  0
  1  2  1  0  0  0  0
  2  3  1  0  0  0  0
  2  4  1  0  0  0  0
  2  5  1  0  0  0  0
  5  6  2  0  0  0  0
  5  7  1  0  0  0  0
  7  8  1  0  0  0  0
  7  9  1  0  0  0  0
  9 10  1  0  0  0  0
  9 11  1  0  0  0  0
  9 26  1  0  0  0  0
 11 12  1  0  0  0  0
 11 13  1  0  0  0  0
 11 14  1  0  0  0  0
 14 15  2  0  0  0  0
 14 24  1  0  0  0  0
 15 16  1  0  0  0  0
 15 17  1  0  0  0  0
 17 18  1  0  0  0  0
 17 19  2  0  0  0  0
 19 20  1  0  0  0  0
 19 22  1  0  0  0  0
 20 21  1  0  0  0  0
 22 23  1  0  0  0  0
 22 24  2  0  0  0  0
 24 25  1  0  0  0  0
 26 27  2  0  0  0  0
 26 28  1  0  0  0  0
 28 29  1  0  0  0  0
 28 30  1  0  0  0  0
 30 31  1  0  0  0  0
 30 32  1  0  0  0  0
 30 33  1  0  0  0  0
M  END
$$$$

  -OEChem-04042216043D

 33 33  0     1  0  0  0  0  0999 V2000
   -3.6701   -4.2382    1.2073 H   0  0  0  0  0  0  0  0  0  0  0  0
   -3.7323   -3.2559    0.7308 C   0  0  0  0  0  0  0  0  0  0  0  0
   -4.4885   -2.6606    1.2482 H   0  0  0  0  0  0  0  0  0  0  0  0
   -4.0328   -3.3880   -0.3115 H   0  0  0  0  0  0  0  0  0  0  0  0
   -2.3880   -2.5561    0.7968 C   0  0  0  0  0  0  0  0  0  0  0  0
   -1.4339   -3.1098    1.3206 O   0  0  0  0  0  0  0  0  0  0  0  0
   -2.2470   -1.2925    0.2629 N   0  0  0  0  0  0  0  0  0  0  0  0
   -3.0893   -0.8275   -0.0744 H   0  0  0  0  0  0  0  0  0  0  0  0
   -1.0364   -0.4635    0.3797 C   0  0  1  0  0  0  0  0  0  0  0  0
   -0.4512   -0.8080    1.2388 H   0  0  0  0  0  0  0  0  0  0  0  0
   -0.1453   -0.6954   -0.8786 C   0  0  0  0  0  0  0  0  0  0  0  0
    0.6320   -1.3998   -0.5635 H   0  0  0  0  0  0  0  0  0  0  0  0
   -0.7599   -1.2277   -1.6122 H   0  0  0  0  0  0  0  0  0  0  0  0
    0.5429    0.4095   -1.6857 C   0  0  0  0  0  0  0  0  0  0  0  0
    0.2873    1.7987   -1.6524 C   0  0  0  0  0  0  0  0  0  0  0  0
   -0.4995    2.2492   -1.0668 H   0  0  0  0  0  0  0  0  0  0  0  0
    1.0315    2.6894   -2.4359 C   0  0  0  0  0  0  0  0  0  0  0  0
    0.8030    3.7487   -2.3923 H   0  0  0  0  0  0  0  0  0  0  0  0
    2.0453    2.2233   -3.2697 C   0  0  0  0  0  0  0  0  0  0  0  0
    2.7727    3.0868   -4.0364 O   0  0  0  0  0  0  0  0  0  0  0  0
    2.4489    3.9924   -3.9137 H   0  0  0  0  0  0  0  0  0  0  0  0
    2.3100    0.8605   -3.3220 C   0  0  0  0  0  0  0  0  0  0  0  0
    3.0973    0.4990   -3.9754 H   0  0  0  0  0  0  0  0  0  0  0  0
    1.5689   -0.0323   -2.5423 C   0  0  0  0  0  0  0  0  0  0  0  0
    1.8029   -1.0913   -2.6063 H   0  0  0  0  0  0  0  0  0  0  0  0
   -1.4623    0.9674    0.7491 C   0  0  0  0  0  0  0  0  0  0  0  0
   -2.4847    1.4489    0.2702 O   0  0  0  0  0  0  0  0  0  0  0  0
   -0.7917    1.6652    1.7372 N   0  0  0  0  0  0  0  0  0  0  0  0
    0.0258    1.2258    2.1517 H   0  0  0  0  0  0  0  0  0  0  0  0
   -1.2000    2.9829    2.2080 C   0  0  0  0  0  0  0  0  0  0  0  0
   -2.2040    2.9400    2.6434 H   0  0  0  0  0  0  0  0  0  0  0  0
   -0.5060    3.3420    2.9740 H   0  0  0  0  0  0  0  0  0  0  0  0
   -1.2042    3.7014    1.3815 H   0  0  0  0  0  0  0  0  0  0  0  0
  1  2  1  0  0  0  0
  2  3  1  0  0  0  0
  2  4  1  0  0  0  0
  2  5  1  0  0  0  0
  5  6  2  0  0  0  0
  5  7  1  0  0  0  0
  7  8  1  0  0  0  0
  7  9  1  0  0  0  0
  9 10  1  0  0  0  0
  9 11  1  0  0  0  0
  9 26  1  0  0  0  0
 11 12  1  0  0  0  0
 11 13  1  0  0  0  0
 11 14  1  0  0  0  0
 14 15  2  0  0  0  0
 14 24  1  0  0  0  0
 15 16  1  0  0  0  0
 15 17  1  0  0  0  0
 17 18  1  0  0  0  0
 17 19  2  0  0  0  0
 19 20  1  0  0  0  0
 19 22  1  0  0  0  0
 20 21  1  0  0  0  0
 22 23  1  0  0  0  0
 22 24  2  0  0  0  0
 24 25  1  0  0  0  0
 26 27  2  0  0  0  0
 26 28  1  0  0  0  0
 28 29  1  0  0  0  0
 28 30  1  0  0  0  0
 30 31  1  0  0  0  0
 30 32  1  0  0  0  0
 30 33  1  0  0  0  0
M  END
$$$$

  -OEChem-04042216043D

 33 33  0     1  0  0  0  0  0999 V2000
   -3.7128   -4.2083    1.1387 H   0  0  0  0  0  0  0  0  0  0  0  0
   -3.7443   -3.2278    0.6554 C   0  0  0  0  0  0  0  0  0  0  0  0
   -4.5182   -2.6232    1.1346 H   0  0  0  0  0  0  0  0  0  0  0  0
   -3.9978   -3.3626   -0.3988 H   0  0  0  0  0  0  0  0  0  0  0  0
   -2.3976   -2.5402    0.7797 C   0  0  0  0  0  0  0  0  0  0  0  0
   -1.4714   -3.1039    1.3414 O   0  0  0  0  0  0  0  0  0  0  0  0
   -2.2213   -1.2773    0.2547 N   0  0  0  0  0  0  0  0  0  0  0  0
   -3.0420   -0.8034   -0.1219 H   0  0  0  0  0  0  0  0  0  0  0  0
   -1.0023   -0.4666    0.4120 C   0  0  1  0  0  0  0  0  0  0  0  0
   -0.4273   -0.8225    1.2732 H   0  0  0  0  0  0  0  0  0  0  0  0
   -0.1193   -0.6882   -0.8551 C   0  0  0  0  0  0  0  0  0  0  0  0
    0.6470   -1.4132   -0.5612 H   0  0  0  0  0  0  0  0  0  0  0  0
   -0.7491   -1.1926   -1.5962 H   0  0  0  0  0  0  0  0  0  0  0  0
    0.5945    0.4118   -1.6458 C   0  0  0  0  0  0  0  0  0  0  0  0
    0.6006    1.8030   -1.4005 C   0  0  0  0  0  0  0  0  0  0  0  0
    0.0694    2.2716   -0.5877 H   0  0  0  0  0  0  0  0  0  0  0  0
    1.3128    2.6793   -2.2290 C   0  0  0  0  0  0  0  0  0  0  0  0
    1.2925    3.7424   -2.0161 H   0  0  0  0  0  0  0  0  0  0  0  0
    2.0369    2.1963   -3.3166 C   0  0  0  0  0  0  0  0  0  0  0  0
    2.7288    3.0477   -4.1286 O   0  0  0  0  0  0  0  0  0  0  0  0
    2.5866    3.9640   -3.8453 H   0  0  0  0  0  0  0  0  0  0  0  0
    2.0487    0.8310   -3.5733 C   0  0  0  0  0  0  0  0  0  0  0  0
    2.6138    0.4561   -4.4205 H   0  0  0  0  0  0  0  0  0  0  0  0
    1.3374   -0.0468   -2.7499 C   0  0  0  0  0  0  0  0  0  0  0  0
    1.3644   -1.1086   -2.9782 H   0  0  0  0  0  0  0  0  0  0  0  0
   -1.4475    0.9614    0.7718 C   0  0  0  0  0  0  0  0  0  0  0  0
   -2.4182    1.4677    0.2186 O   0  0  0  0  0  0  0  0  0  0  0  0
   -0.8147    1.6552    1.7887 N   0  0  0  0  0  0  0  0  0  0  0  0
   -0.0547    1.1872    2.2753 H   0  0  0  0  0  0  0  0  0  0  0  0
   -1.2476    2.9676    2.2537 C   0  0  0  0  0  0  0  0  0  0  0  0
   -2.2651    2.9147    2.6548 H   0  0  0  0  0  0  0  0  0  0  0  0
   -0.5820    3.3272    3.0443 H   0  0  0  0  0  0  0  0  0  0  0  0
   -1.2297    3.6911    1.4318 H   0  0  0  0  0  0  0  0  0  0  0  0
  1  2  1  0  0  0  0
  2  3  1  0  0  0  0
  2  4  1  0  0  0  0
  2  5  1  0  0  0  0
  5  6  2  0  0  0  0
  5  7  1  0  0  0  0
  7  8  1  0  0  0  0
  7  9  1  0  0  0  0
  9 10  1  0  0  0  0
  9 11  1  0  0  0  0
  9 26  1  0  0  0  0
 11 12  1  0  0  0  0
 11 13  1  0  0  0  0
 11 14  1  0  0  0  0
 14 15  2  0  0  0  0
 14 24  1  0  0  0  0
 15 16  1  0  0  0  0
 15 17  1  0  0  0  0
 17 18  1  0  0  0  0
 17 19  2  0  0  0  0
 19 20  1  0  0  0  0
 19 22  1  0  0  0  0
 20 21  1  0  0  0  0
 22 23  1  0  0  0  0
 22 24  2  0  0  0  0
 24 25  1  0  0  0  0
 26 27  2  0  0  0  0
 26 28  1  0  0  0  0
 28 29  1  0  0  0  0
 28 30  1  0  0  0  0
 30 31  1  0  0  0  0
 30 32  1  0  0  0  0
 30 33  1  0  0  0  0
M  END
$$$$

  -OEChem-04042216043D

 33 33  0     1  0  0  0  0  0999 V2000
   -3.8075   -4.1256    1.1745 H   0  0  0  0  0  0  0  0  0  0  0  0
   -3.7921   -3.1642    0.6532 C   0  0  0  0  0  0  0  0  0  0  0  0
   -4.5575   -2.5159    1.0870 H   0  0  0  0  0  0  0  0  0  0  0  0
   -4.0212   -3.3317   -0.4019 H   0  0  0  0  0  0  0  0  0  0  0  0
   -2.4265   -2.5176    0.7890 C   0  0  0  0  0  0  0  0  0  0  0  0
   -1.5294   -3.1004    1.3779 O   0  0  0  0  0  0  0  0  0  0  0  0
   -2.2006   -1.2688    0.2498 N   0  0  0  0  0  0  0  0  0  0  0  0
   -2.9974   -0.7734   -0.1501 H   0  0  0  0  0  0  0  0  0  0  0  0
   -0.9559   -0.4999    0.4180 C   0  0  1  0  0  0  0  0  0  0  0  0
   -0.3852   -0.8662    1.2774 H   0  0  0  0  0  0  0  0  0  0  0  0
   -0.1057   -0.7414   -0.8698 C   0  0  0  0  0  0  0  0  0  0  0  0
    0.6431   -1.4955   -0.6062 H   0  0  0  0  0  0  0  0  0  0  0  0
   -0.7672   -1.2124   -1.6055 H   0  0  0  0  0  0  0  0  0  0  0  0
    0.6280    0.3564   -1.6419 C   0  0  0  0  0  0  0  0  0  0  0  0
    0.9161    1.6624   -1.1955 C   0  0  0  0  0  0  0  0  0  0  0  0
    0.6736    2.0066   -0.2033 H   0  0  0  0  0  0  0  0  0  0  0  0
    1.5770    2.5807   -2.0210 C   0  0  0  0  0  0  0  0  0  0  0  0
    1.7844    3.5773   -1.6470 H   0  0  0  0  0  0  0  0  0  0  0  0
    1.9696    2.2190   -3.3081 C   0  0  0  0  0  0  0  0  0  0  0  0
    2.6117    3.1097   -4.1193 O   0  0  0  0  0  0  0  0  0  0  0  0
    2.6834    3.9692   -3.6766 H   0  0  0  0  0  0  0  0  0  0  0  0
    1.7046    0.9331   -3.7642 C   0  0  0  0  0  0  0  0  0  0  0  0
    2.0139    0.6522   -4.7656 H   0  0  0  0  0  0  0  0  0  0  0  0
    1.0437    0.0149   -2.9424 C   0  0  0  0  0  0  0  0  0  0  0  0
    0.8484   -0.9808   -3.3304 H   0  0  0  0  0  0  0  0  0  0  0  0
   -1.3850    0.9430    0.7523 C   0  0  0  0  0  0  0  0  0  0  0  0
   -2.3260    1.4660    0.1645 O   0  0  0  0  0  0  0  0  0  0  0  0
   -0.7619    1.6359    1.7767 N   0  0  0  0  0  0  0  0  0  0  0  0
   -0.0510    1.1435    2.3109 H   0  0  0  0  0  0  0  0  0  0  0  0
   -1.1792    2.9624    2.2146 C   0  0  0  0  0  0  0  0  0  0  0  0
   -2.2104    2.9375    2.5822 H   0  0  0  0  0  0  0  0  0  0  0  0
   -0.5316    3.3146    3.0232 H   0  0  0  0  0  0  0  0  0  0  0  0
   -1.1169    3.6766    1.3868 H   0  0  0  0  0  0  0  0  0  0  0  0
  1  2  1  0  0  0  0
  2  3  1  0  0  0  0
  2  4  1  0  0  0  0
  2  5  1  0  0  0  0
  5  6  2  0  0  0  0
  5  7  1  0  0  0  0
  7  8  1  0  0  0  0
  7  9  1  0  0  0  0
  9 10  1  0  0  0  0
  9 11  1  0  0  0  0
  9 26  1  0  0  0  0
 11 12  1  0  0  0  0
 11 13  1  0  0  0  0
 11 14  1  0  0  0  0
 14 15  2  0  0  0  0
 14 24  1  0  0  0  0
 15 16  1  0  0  0  0
 15 17  1  0  0  0  0
 17 18  1  0  0  0  0
 17 19  2  0  0  0  0
 19 20  1  0  0  0  0
 19 22  1  0  0  0  0
 20 21  1  0  0  0  0
 22 23  1  0  0  0  0
 22 24  2  0  0  0  0
 24 25  1  0  0  0  0
 26 27  2  0  0  0  0
 26 28  1  0  0  0  0
 28 29  1  0  0  0  0
 28 30  1  0  0  0  0
 30 31  1  0  0  0  0
 30 32  1  0  0  0  0
 30 33  1  0  0  0  0
M  END
$$$$

  -OEChem-04042216043D

 33 33  0     1  0  0  0  0  0999 V2000
   -3.8925   -4.0584    1.2495 H   0  0  0  0  0  0  0  0  0  0  0  0
   -3.8439   -3.1149    0.6987 C   0  0  0  0  0  0  0  0  0  0  0  0
   -4.5965   -2.4327    1.1013 H   0  0  0  0  0  0  0  0  0  0  0  0
   -4.0639   -3.3091   -0.3537 H   0  0  0  0  0  0  0  0  0  0  0  0
   -2.4631   -2.5012    0.8334 C   0  0  0  0  0  0  0  0  0  0  0  0
   -1.5985   -3.0727    1.4792 O   0  0  0  0  0  0  0  0  0  0  0  0
   -2.1871   -1.2922    0.2312 N   0  0  0  0  0  0  0  0  0  0  0  0
   -2.9605   -0.7947   -0.2103 H   0  0  0  0  0  0  0  0  0  0  0  0
   -0.9280   -0.5466    0.3950 C   0  0  1  0  0  0  0  0  0  0  0  0
   -0.3771   -0.8801    1.2801 H   0  0  0  0  0  0  0  0  0  0  0  0
   -0.0712   -0.8451   -0.8742 C   0  0  0  0  0  0  0  0  0  0  0  0
    0.6699   -1.5982   -0.5885 H   0  0  0  0  0  0  0  0  0  0  0  0
   -0.7260   -1.3256   -1.6096 H   0  0  0  0  0  0  0  0  0  0  0  0
    0.6722    0.2581   -1.6214 C   0  0  0  0  0  0  0  0  0  0  0  0
    1.1892    1.4240   -1.0264 C   0  0  0  0  0  0  0  0  0  0  0  0
    1.1565    1.5710    0.0438 H   0  0  0  0  0  0  0  0  0  0  0  0
    1.8184    2.4103   -1.7956 C   0  0  0  0  0  0  0  0  0  0  0  0
    2.2102    3.2963   -1.3085 H   0  0  0  0  0  0  0  0  0  0  0  0
    1.9468    2.2516   -3.1749 C   0  0  0  0  0  0  0  0  0  0  0  0
    2.5574    3.2077   -3.9340 O   0  0  0  0  0  0  0  0  0  0  0  0
    2.8131    3.9594   -3.3779 H   0  0  0  0  0  0  0  0  0  0  0  0
    1.4515    1.1008   -3.7789 C   0  0  0  0  0  0  0  0  0  0  0  0
    1.5556    0.9800   -4.8521 H   0  0  0  0  0  0  0  0  0  0  0  0
    0.8212    0.1149   -3.0127 C   0  0  0  0  0  0  0  0  0  0  0  0
    0.4379   -0.7685   -3.5150 H   0  0  0  0  0  0  0  0  0  0  0  0
   -1.3451    0.9232    0.6315 C   0  0  0  0  0  0  0  0  0  0  0  0
   -2.2684    1.4170   -0.0082 O   0  0  0  0  0  0  0  0  0  0  0  0
   -0.7495    1.6714    1.6327 N   0  0  0  0  0  0  0  0  0  0  0  0
   -0.0741    1.2018    2.2292 H   0  0  0  0  0  0  0  0  0  0  0  0
   -1.1634    3.0277    1.9708 C   0  0  0  0  0  0  0  0  0  0  0  0
   -2.2005    3.0354    2.3218 H   0  0  0  0  0  0  0  0  0  0  0  0
   -0.5258    3.4312    2.7632 H   0  0  0  0  0  0  0  0  0  0  0  0
   -1.0819    3.6824    1.0966 H   0  0  0  0  0  0  0  0  0  0  0  0
  1  2  1  0  0  0  0
  2  3  1  0  0  0  0
  2  4  1  0  0  0  0
  2  5  1  0  0  0  0
  5  6  2  0  0  0  0
  5  7  1  0  0  0  0
  7  8  1  0  0  0  0
  7  9  1  0  0  0  0
  9 10  1  0  0  0  0
  9 11  1  0  0  0  0
  9 26  1  0  0  0  0
 11 12  1  0  0  0  0
 11 13  1  0  0  0  0
 11 14  1  0  0  0  0
 14 15  2  0  0  0  0
 14 24  1  0  0  0  0
 15 16  1  0  0  0  0
 15 17  1  0  0  0  0
 17 18  1  0  0  0  0
 17 19  2  0  0  0  0
 19 20  1  0  0  0  0
 19 22  1  0  0  0  0
 20 21  1  0  0  0  0
 22 23  1  0  0  0  0
 22 24  2  0  0  0  0
 24 25  1  0  0  0  0
 26 27  2  0  0  0  0
 26 28  1  0  0  0  0
 28 29  1  0  0  0  0
 28 30  1  0  0  0  0
 30 31  1  0  0  0  0
 30 32  1  0  0  0  0
 30 33  1  0  0  0  0
M  END
$$$$

  -OEChem-04042216043D

 33 33  0     1  0  0  0  0  0999 V2000
   -3.9318   -4.0070    1.4045 H   0  0  0  0  0  0  0  0  0  0  0  0
   -3.8715   -3.0967    0.8015 C   0  0  0  0  0  0  0  0  0  0  0  0
   -4.6008   -2.3758    1.1790 H   0  0  0  0  0  0  0  0  0  0  0  0
   -4.1162   -3.3430   -0.2346 H   0  0  0  0  0  0  0  0  0  0  0  0
   -2.4743   -2.5099    0.8777 C   0  0  0  0  0  0  0  0  0  0  0  0
   -1.6066   -3.0741    1.5259 O   0  0  0  0  0  0  0  0  0  0  0  0
   -2.1892   -1.3314    0.2219 N   0  0  0  0  0  0  0  0  0  0  0  0
   -2.9660   -0.8318   -0.2110 H   0  0  0  0  0  0  0  0  0  0  0  0
   -0.9203   -0.5961    0.3432 C   0  0  1  0  0  0  0  0  0  0  0  0
   -0.3661   -0.9043    1.2355 H   0  0  0  0  0  0  0  0  0  0  0  0
   -0.0706   -0.9268   -0.9177 C   0  0  0  0  0  0  0  0  0  0  0  0
    0.6819   -1.6659   -0.6257 H   0  0  0  0  0  0  0  0  0  0  0  0
   -0.7199   -1.4222   -1.6474 H   0  0  0  0  0  0  0  0  0  0  0  0
    0.6445    0.2049   -1.6400 C   0  0  0  0  0  0  0  0  0  0  0  0
    1.3743    1.1965   -0.9608 C   0  0  0  0  0  0  0  0  0  0  0  0
    1.4933    1.1506    0.1155 H   0  0  0  0  0  0  0  0  0  0  0  0
    1.9917    2.2402   -1.6603 C   0  0  0  0  0  0  0  0  0  0  0  0
    2.5530    2.9905   -1.1145 H   0  0  0  0  0  0  0  0  0  0  0  0
    1.8904    2.3099   -3.0501 C   0  0  0  0  0  0  0  0  0  0  0  0
    2.4893    3.3222   -3.7428 O   0  0  0  0  0  0  0  0  0  0  0  0
    2.9148    3.9389   -3.1280 H   0  0  0  0  0  0  0  0  0  0  0  0
    1.1738    1.3331   -3.7356 C   0  0  0  0  0  0  0  0  0  0  0  0
    1.0971    1.3936   -4.8163 H   0  0  0  0  0  0  0  0  0  0  0  0
    0.5542    0.2895   -3.0396 C   0  0  0  0  0  0  0  0  0  0  0  0
   -0.0059   -0.4535   -3.5997 H   0  0  0  0  0  0  0  0  0  0  0  0
   -1.3006    0.8923    0.5209 C   0  0  0  0  0  0  0  0  0  0  0  0
   -2.2335    1.3715   -0.1164 O   0  0  0  0  0  0  0  0  0  0  0  0
   -0.6770    1.6687    1.4824 N   0  0  0  0  0  0  0  0  0  0  0  0
    0.0083    1.2163    2.0800 H   0  0  0  0  0  0  0  0  0  0  0  0
   -1.0481    3.0514    1.7561 C   0  0  0  0  0  0  0  0  0  0  0  0
   -2.0975    3.1136    2.0627 H   0  0  0  0  0  0  0  0  0  0  0  0
   -0.4281    3.4570    2.5612 H   0  0  0  0  0  0  0  0  0  0  0  0
   -0.9041    3.6693    0.8633 H   0  0  0  0  0  0  0  0  0  0  0  0
  1  2  1  0  0  0  0
  2  3  1  0  0  0  0
  2  4  1  0  0  0  0
  2  5  1  0  0  0  0
  5  6  2  0  0  0  0
  5  7  1  0  0  0  0
  7  8  1  0  0  0  0
  7  9  1  0  0  0  0
  9 10  1  0  0  0  0
  9 11  1  0  0  0  0
  9 26  1  0  0  0  0
 11 12  1  0  0  0  0
 11 13  1  0  0  0  0
 11 14  1  0  0  0  0
 14 15  2  0  0  0  0
 14 24  1  0  0  0  0
 15 16  1  0  0  0  0
 15 17  1  0  0  0  0
 17 18  1  0  0  0  0
 17 19  2  0  0  0  0
 19 20  1  0  0  0  0
 19 22  1  0  0  0  0
 20 21  1  0  0  0  0
 22 23  1  0  0  0  0
 22 24  2  0  0  0  0
 24 25  1  0  0  0  0
 26 27  2  0  0  0  0
 26 28  1  0  0  0  0
 28 29  1  0  0  0  0
 28 30  1  0  0  0  0
 30 31  1  0  0  0  0
 30 32  1  0  0  0  0
 30 33  1  0  0  0  0
M  END
$$$$

  -OEChem-04042216043D

 33 33  0     1  0  0  0  0  0999 V2000
   -3.9406   -3.9931    1.5049 H   0  0  0  0  0  0  0  0  0  0  0  0
   -3.8844   -3.1013    0.8744 C   0  0  0  0  0  0  0  0  0  0  0  0
   -4.6004   -2.3632    1.2441 H   0  0  0  0  0  0  0  0  0  0  0  0
   -4.1502   -3.3757   -0.1494 H   0  0  0  0  0  0  0  0  0  0  0  0
   -2.4817   -2.5244    0.9083 C   0  0  0  0  0  0  0  0  0  0  0  0
   -1.6078   -3.0769    1.5583 O   0  0  0  0  0  0  0  0  0  0  0  0
   -2.1990   -1.3683    0.2124 N   0  0  0  0  0  0  0  0  0  0  0  0
   -2.9803   -0.8743   -0.2186 H   0  0  0  0  0  0  0  0  0  0  0  0
   -0.9260   -0.6363    0.2985 C   0  0  1  0  0  0  0  0  0  0  0  0
   -0.3696   -0.9246    1.1962 H   0  0  0  0  0  0  0  0  0  0  0  0
   -0.0742   -0.9904   -0.9495 C   0  0  0  0  0  0  0  0  0  0  0  0
    0.6888   -1.7154   -0.6495 H   0  0  0  0  0  0  0  0  0  0  0  0
   -0.7118   -1.4979   -1.6811 H   0  0  0  0  0  0  0  0  0  0  0  0
    0.6094    0.1700   -1.6467 C   0  0  0  0  0  0  0  0  0  0  0  0
    1.5415    0.9724   -0.9680 C   0  0  0  0  0  0  0  0  0  0  0  0
    1.8081    0.7444    0.0590 H   0  0  0  0  0  0  0  0  0  0  0  0
    2.1443    2.0623   -1.6068 C   0  0  0  0  0  0  0  0  0  0  0  0
    2.8634    2.6680   -1.0666 H   0  0  0  0  0  0  0  0  0  0  0  0
    1.8212    2.3651   -2.9307 C   0  0  0  0  0  0  0  0  0  0  0  0
    2.4027    3.4256   -3.5639 O   0  0  0  0  0  0  0  0  0  0  0  0
    2.9983    3.8897   -2.9563 H   0  0  0  0  0  0  0  0  0  0  0  0
    0.8951    1.5773   -3.6105 C   0  0  0  0  0  0  0  0  0  0  0  0
    0.6444    1.8231   -4.6370 H   0  0  0  0  0  0  0  0  0  0  0  0
    0.2888    0.4876   -2.9758 C   0  0  0  0  0  0  0  0  0  0  0  0
   -0.4403   -0.1041   -3.5215 H   0  0  0  0  0  0  0  0  0  0  0  0
   -1.2713    0.8651    0.4341 C   0  0  0  0  0  0  0  0  0  0  0  0
   -2.2119    1.3381   -0.1970 O   0  0  0  0  0  0  0  0  0  0  0  0
   -0.6190    1.6575    1.3622 N   0  0  0  0  0  0  0  0  0  0  0  0
    0.1104    1.2269    1.9219 H   0  0  0  0  0  0  0  0  0  0  0  0
   -0.9183    3.0707    1.5553 C   0  0  0  0  0  0  0  0  0  0  0  0
   -1.9672    3.2054    1.8399 H   0  0  0  0  0  0  0  0  0  0  0  0
   -0.2891    3.4862    2.3479 H   0  0  0  0  0  0  0  0  0  0  0  0
   -0.7281    3.6299    0.6330 H   0  0  0  0  0  0  0  0  0  0  0  0
  1  2  1  0  0  0  0
  2  3  1  0  0  0  0
  2  4  1  0  0  0  0
  2  5  1  0  0  0  0
  5  6  2  0  0  0  0
  5  7  1  0  0  0  0
  7  8  1  0  0  0  0
  7  9  1  0  0  0  0
  9 10  1  0  0  0  0
  9 11  1  0  0  0  0
  9 26  1  0  0  0  0
 11 12  1  0  0  0  0
 11 13  1  0  0  0  0
 11 14  1  0  0  0  0
 14 15  2  0  0  0  0
 14 24  1  0  0  0  0
 15 16  1  0  0  0  0
 15 17  1  0  0  0  0
 17 18  1  0  0  0  0
 17 19  2  0  0  0  0
 19 20  1  0  0  0  0
 19 22  1  0  0  0  0
 20 21  1  0  0  0  0
 22 23  1  0  0  0  0
 22 24  2  0  0  0  0
 24 25  1  0  0  0  0
 26 27  2  0  0  0  0
 26 28  1  0  0  0  0
 28 29  1  0  0  0  0
 28 30  1  0  0  0  0
 30 31  1  0  0  0  0
 30 32  1  0  0  0  0
 30 33  1  0  0  0  0
M  END
$$$$

  -OEChem-04042216043D

 33 33  0     1  0  0  0  0  0999 V2000
   -3.9386   -3.9894    1.5514 H   0  0  0  0  0  0  0  0  0  0  0  0
   -3.8886   -3.1048    0.9107 C   0  0  0  0  0  0  0  0  0  0  0  0
   -4.5954   -2.3595    1.2833 H   0  0  0  0  0  0  0  0  0  0  0  0
   -4.1714   -3.3889   -0.1057 H   0  0  0  0  0  0  0  0  0  0  0  0
   -2.4831   -2.5339    0.9159 C   0  0  0  0  0  0  0  0  0  0  0  0
   -1.6004   -3.0852    1.5551 O   0  0  0  0  0  0  0  0  0  0  0  0
   -2.2072   -1.3869    0.2026 N   0  0  0  0  0  0  0  0  0  0  0  0
   -2.9944   -0.8950   -0.2198 H   0  0  0  0  0  0  0  0  0  0  0  0
   -0.9338   -0.6541    0.2678 C   0  0  1  0  0  0  0  0  0  0  0  0
   -0.3779   -0.9321    1.1686 H   0  0  0  0  0  0  0  0  0  0  0  0
   -0.0758   -1.0202   -0.9689 C   0  0  0  0  0  0  0  0  0  0  0  0
    0.6923   -1.7376   -0.6627 H   0  0  0  0  0  0  0  0  0  0  0  0
   -0.7034   -1.5331   -1.7055 H   0  0  0  0  0  0  0  0  0  0  0  0
    0.5849    0.1583   -1.6501 C   0  0  0  0  0  0  0  0  0  0  0  0
    1.7052    0.7736   -1.0700 C   0  0  0  0  0  0  0  0  0  0  0  0
    2.1206    0.3838   -0.1457 H   0  0  0  0  0  0  0  0  0  0  0  0
    2.2981    1.8865   -1.6778 C   0  0  0  0  0  0  0  0  0  0  0  0
    3.1650    2.3479   -1.2180 H   0  0  0  0  0  0  0  0  0  0  0  0
    1.7751    2.3968   -2.8680 C   0  0  0  0  0  0  0  0  0  0  0  0
    2.3451    3.4813   -3.4700 O   0  0  0  0  0  0  0  0  0  0  0  0
    3.1069    3.7860   -2.9542 H   0  0  0  0  0  0  0  0  0  0  0  0
    0.6593    1.7940   -3.4453 C   0  0  0  0  0  0  0  0  0  0  0  0
    0.2535    2.2014   -4.3654 H   0  0  0  0  0  0  0  0  0  0  0  0
    0.0622    0.6822   -2.8417 C   0  0  0  0  0  0  0  0  0  0  0  0
   -0.8182    0.2374   -3.2963 H   0  0  0  0  0  0  0  0  0  0  0  0
   -1.2593    0.8532    0.3876 C   0  0  0  0  0  0  0  0  0  0  0  0
   -2.2146    1.3227   -0.2240 O   0  0  0  0  0  0  0  0  0  0  0  0
   -0.5871    1.6491    1.2980 N   0  0  0  0  0  0  0  0  0  0  0  0
    0.1878    1.2332    1.8048 H   0  0  0  0  0  0  0  0  0  0  0  0
   -0.8519    3.0732    1.4583 C   0  0  0  0  0  0  0  0  0  0  0  0
   -1.8980    3.2402    1.7362 H   0  0  0  0  0  0  0  0  0  0  0  0
   -0.2158    3.4906    2.2447 H   0  0  0  0  0  0  0  0  0  0  0  0
   -0.6451    3.6070    0.5245 H   0  0  0  0  0  0  0  0  0  0  0  0
  1  2  1  0  0  0  0
  2  3  1  0  0  0  0
  2  4  1  0  0  0  0
  2  5  1  0  0  0  0
  5  6  2  0  0  0  0
  5  7  1  0  0  0  0
  7  8  1  0  0  0  0
  7  9  1  0  0  0  0
  9 10  1  0  0  0  0
  9 11  1  0  0  0  0
  9 26  1  0  0  0  0
 11 12  1  0  0  0  0
 11 13  1  0  0  0  0
 11 14  1  0  0  0  0
 14 15  2  0  0  0  0
 14 24  1  0  0  0  0
 15 16  1  0  0  0  0
 15 17  1  0  0  0  0
 17 18  1  0  0  0  0
 17 19  2  0  0  0  0
 19 20  1  0  0  0  0
 19 22  1  0  0  0  0
 20 21  1  0  0  0  0
 22 23  1  0  0  0  0
 22 24  2  0  0  0  0
 24 25  1  0  0  0  0
 26 27  2  0  0  0  0
 26 28  1  0  0  0  0
 28 29  1  0  0  0  0
 28 30  1  0  0  0  0
 30 31  1  0  0  0  0
 30 32  1  0  0  0  0
 30 33  1  0  0  0  0
M  END
$$$$

  -OEChem-04042216043D

 33 33  0     1  0  0  0  0  0999 V2000
   -3.9260   -4.0026    1.5637 H   0  0  0  0  0  0  0  0  0  0  0  0
   -3.8859   -3.1150    0.9261 C   0  0  0  0  0  0  0  0  0  0  0  0
   -4.5861   -2.3707    1.3134 H   0  0  0  0  0  0  0  0  0  0  0  0
   -4.1853   -3.3941   -0.0870 H   0  0  0  0  0  0  0  0  0  0  0  0
   -2.4804   -2.5443    0.9109 C   0  0  0  0  0  0  0  0  0  0  0  0
   -1.5866   -3.1012    1.5294 O   0  0  0  0  0  0  0  0  0  0  0  0
   -2.2174   -1.3915    0.2018 N   0  0  0  0  0  0  0  0  0  0  0  0
   -3.0138   -0.8944   -0.1964 H   0  0  0  0  0  0  0  0  0  0  0  0
   -0.9461   -0.6538    0.2581 C   0  0  1  0  0  0  0  0  0  0  0  0
   -0.3856   -0.9336    1.1559 H   0  0  0  0  0  0  0  0  0  0  0  0
   -0.0851   -1.0106   -0.9784 C   0  0  0  0  0  0  0  0  0  0  0  0
    0.6817   -1.7314   -0.6770 H   0  0  0  0  0  0  0  0  0  0  0  0
   -0.7120   -1.5163   -1.7205 H   0  0  0  0  0  0  0  0  0  0  0  0
    0.5655    0.1754   -1.6558 C   0  0  0  0  0  0  0  0  0  0  0  0
    1.8417    0.6005   -1.2572 C   0  0  0  0  0  0  0  0  0  0  0  0
    2.3719    0.0680   -0.4732 H   0  0  0  0  0  0  0  0  0  0  0  0
    2.4430    1.7081   -1.8664 C   0  0  0  0  0  0  0  0  0  0  0  0
    3.4308    2.0220   -1.5477 H   0  0  0  0  0  0  0  0  0  0  0  0
    1.7742    2.4021   -2.8772 C   0  0  0  0  0  0  0  0  0  0  0  0
    2.3514    3.4841   -3.4768 O   0  0  0  0  0  0  0  0  0  0  0  0
    3.2332    3.6392   -3.1057 H   0  0  0  0  0  0  0  0  0  0  0  0
    0.5053    1.9862   -3.2755 C   0  0  0  0  0  0  0  0  0  0  0  0
   -0.0120    2.5347   -4.0559 H   0  0  0  0  0  0  0  0  0  0  0  0
   -0.1000    0.8789   -2.6711 C   0  0  0  0  0  0  0  0  0  0  0  0
   -1.0973    0.5788   -2.9807 H   0  0  0  0  0  0  0  0  0  0  0  0
   -1.2701    0.8524    0.3909 C   0  0  0  0  0  0  0  0  0  0  0  0
   -2.2435    1.3191   -0.1948 O   0  0  0  0  0  0  0  0  0  0  0  0
   -0.5881    1.6433    1.2978 N   0  0  0  0  0  0  0  0  0  0  0  0
    0.2195    1.2369    1.7597 H   0  0  0  0  0  0  0  0  0  0  0  0
   -0.8517    3.0672    1.4636 C   0  0  0  0  0  0  0  0  0  0  0  0
   -1.8954    3.2336    1.7508 H   0  0  0  0  0  0  0  0  0  0  0  0
   -0.2094    3.4826    2.2458 H   0  0  0  0  0  0  0  0  0  0  0  0
   -0.6531    3.6032    0.5294 H   0  0  0  0  0  0  0  0  0  0  0  0
  1  2  1  0  0  0  0
  2  3  1  0  0  0  0
  2  4  1  0  0  0  0
  2  5  1  0  0  0  0
  5  6  2  0  0  0  0
  5  7  1  0  0  0  0
  7  8  1  0  0  0  0
  7  9  1  0  0  0  0
  9 10  1  0  0  0  0
  9 11  1  0  0  0  0
  9 26  1  0  0  0  0
 11 12  1  0  0  0  0
 11 13  1  0  0  0  0
 11 14  1  0  0  0  0
 14 15  2  0  0  0  0
 14 24  1  0  0  0  0
 15 16  1  0  0  0  0
 15 17  1  0  0  0  0
 17 18  1  0  0  0  0
 17 19  2  0  0  0  0
 19 20  1  0  0  0  0
 19 22  1  0  0  0  0
 20 21  1  0  0  0  0
 22 23  1  0  0  0  0
 22 24  2  0  0  0  0
 24 25  1  0  0  0  0
 26 27  2  0  0  0  0
 26 28  1  0  0  0  0
 28 29  1  0  0  0  0
 28 30  1  0  0  0  0
 30 31  1  0  0  0  0
 30 32  1  0  0  0  0
 30 33  1  0  0  0  0
M  END
$$$$

  -OEChem-04042216043D

 33 33  0     1  0  0  0  0  0999 V2000
   -3.9029   -4.0340    1.5286 H   0  0  0  0  0  0  0  0  0  0  0  0
   -3.8771   -3.1347    0.9067 C   0  0  0  0  0  0  0  0  0  0  0  0
   -4.5842   -2.4066    1.3117 H   0  0  0  0  0  0  0  0  0  0  0  0
   -4.1794   -3.3995   -0.1094 H   0  0  0  0  0  0  0  0  0  0  0  0
   -2.4783   -2.5472    0.8930 C   0  0  0  0  0  0  0  0  0  0  0  0
   -1.5727   -3.1088    1.4897 O   0  0  0  0  0  0  0  0  0  0  0  0
   -2.2343   -1.3756    0.2082 N   0  0  0  0  0  0  0  0  0  0  0  0
   -3.0397   -0.8791   -0.1719 H   0  0  0  0  0  0  0  0  0  0  0  0
   -0.9702   -0.6257    0.2681 C   0  0  1  0  0  0  0  0  0  0  0  0
   -0.4088   -0.9168    1.1619 H   0  0  0  0  0  0  0  0  0  0  0  0
   -0.0987   -0.9708   -0.9654 C   0  0  0  0  0  0  0  0  0  0  0  0
    0.6667   -1.6913   -0.6594 H   0  0  0  0  0  0  0  0  0  0  0  0
   -0.7203   -1.4778   -1.7107 H   0  0  0  0  0  0  0  0  0  0  0  0
    0.5502    0.2128   -1.6524 C   0  0  0  0  0  0  0  0  0  0  0  0
    1.9216    0.4581   -1.4851 C   0  0  0  0  0  0  0  0  0  0  0  0
    2.5175   -0.1910   -0.8499 H   0  0  0  0  0  0  0  0  0  0  0  0
    2.5344    1.5394   -2.1297 C   0  0  0  0  0  0  0  0  0  0  0  0
    3.5941    1.7168   -1.9831 H   0  0  0  0  0  0  0  0  0  0  0  0
    1.7861    2.3796   -2.9568 C   0  0  0  0  0  0  0  0  0  0  0  0
    2.3736    3.4378   -3.5878 O   0  0  0  0  0  0  0  0  0  0  0  0
    3.3171    3.4742   -3.3688 H   0  0  0  0  0  0  0  0  0  0  0  0
    0.4276    2.1320   -3.1414 C   0  0  0  0  0  0  0  0  0  0  0  0
   -0.1492    2.7871   -3.7860 H   0  0  0  0  0  0  0  0  0  0  0  0
   -0.1893    1.0522   -2.5008 C   0  0  0  0  0  0  0  0  0  0  0  0
   -1.2512    0.8764   -2.6522 H   0  0  0  0  0  0  0  0  0  0  0  0
   -1.2931    0.8759    0.4390 C   0  0  0  0  0  0  0  0  0  0  0  0
   -2.2836    1.3519   -0.1096 O   0  0  0  0  0  0  0  0  0  0  0  0
   -0.5988    1.6435    1.3563 N   0  0  0  0  0  0  0  0  0  0  0  0
    0.2247    1.2300    1.7833 H   0  0  0  0  0  0  0  0  0  0  0  0
   -0.8645    3.0607    1.5694 C   0  0  0  0  0  0  0  0  0  0  0  0
   -1.9059    3.2152    1.8710 H   0  0  0  0  0  0  0  0  0  0  0  0
   -0.2162    3.4529    2.3588 H   0  0  0  0  0  0  0  0  0  0  0  0
   -0.6755    3.6265    0.6509 H   0  0  0  0  0  0  0  0  0  0  0  0
  1  2  1  0  0  0  0
  2  3  1  0  0  0  0
  2  4  1  0  0  0  0
  2  5  1  0  0  0  0
  5  6  2  0  0  0  0
  5  7  1  0  0  0  0
  7  8  1  0  0  0  0
  7  9  1  0  0  0  0
  9 10  1  0  0  0  0
  9 11  1  0  0  0  0
  9 26  1  0  0  0  0
 11 12  1  0  0  0  0
 11 13  1  0  0  0  0
 11 14  1  0  0  0  0
 14 15  2  0  0  0  0
 14 24  1  0  0  0  0
 15 16  1  0  0  0  0
 15 17  1  0  0  0  0
 17 18  1  0  0  0  0
 17 19  2  0  0  0  0
 19 20  1  0  0  0  0
 19 22  1  0  0  0  0
 20 21  1  0  0  0  0
 22 23  1  0  0  0  0
 22 24  2  0  0  0  0
 24 25  1  0  0  0  0
 26 27  2  0  0  0  0
 26 28  1  0  0  0  0
 28 29  1  0  0  0  0
 28 30  1  0  0  0  0
 30 31  1  0  0  0  0
 30 32  1  0  0  0  0
 30 33  1  0  0  0  0
M  END
$$$$

  -OEChem-04042216043D

 33 33  0     1  0  0  0  0  0999 V2000
   -3.8638   -4.0651    1.4782 H   0  0  0  0  0  0  0  0  0  0  0  0
   -3.8580   -3.1491    0.8807 C   0  0  0  0  0  0  0  0  0  0  0  0
   -4.5635   -2.4389    1.3188 H   0  0  0  0  0  0  0  0  0  0  0  0
   -4.1768   -3.3889   -0.1365 H   0  0  0  0  0  0  0  0  0  0  0  0
   -2.4655   -2.5476    0.8579 C   0  0  0  0  0  0  0  0  0  0  0  0
   -1.5425   -3.1205    1.4159 O   0  0  0  0  0  0  0  0  0  0  0  0
   -2.2480   -1.3489    0.2120 N   0  0  0  0  0  0  0  0  0  0  0  0
   -3.0669   -0.8492   -0.1333 H   0  0  0  0  0  0  0  0  0  0  0  0
   -0.9948   -0.5823    0.2840 C   0  0  1  0  0  0  0  0  0  0  0  0
   -0.4354   -0.8918    1.1728 H   0  0  0  0  0  0  0  0  0  0  0  0
   -0.1061   -0.9099   -0.9445 C   0  0  0  0  0  0  0  0  0  0  0  0
    0.6583   -1.6264   -0.6273 H   0  0  0  0  0  0  0  0  0  0  0  0
   -0.7181   -1.4240   -1.6932 H   0  0  0  0  0  0  0  0  0  0  0  0
    0.5484    0.2636   -1.6487 C   0  0  0  0  0  0  0  0  0  0  0  0
    1.9487    0.3305   -1.7335 C   0  0  0  0  0  0  0  0  0  0  0  0
    2.5609   -0.4253   -1.2497 H   0  0  0  0  0  0  0  0  0  0  0  0
    2.5743    1.3701   -2.4322 C   0  0  0  0  0  0  0  0  0  0  0  0
    3.6573    1.4099   -2.4727 H   0  0  0  0  0  0  0  0  0  0  0  0
    1.8085    2.3422   -3.0777 C   0  0  0  0  0  0  0  0  0  0  0  0
    2.4079    3.3611   -3.7601 O   0  0  0  0  0  0  0  0  0  0  0  0
    3.3720    3.2760   -3.7065 H   0  0  0  0  0  0  0  0  0  0  0  0
    0.4189    2.2621   -3.0347 C   0  0  0  0  0  0  0  0  0  0  0  0
   -0.1730    3.0105   -3.5514 H   0  0  0  0  0  0  0  0  0  0  0  0
   -0.2099    1.2234   -2.3404 C   0  0  0  0  0  0  0  0  0  0  0  0
   -1.2952    1.1699   -2.3432 H   0  0  0  0  0  0  0  0  0  0  0  0
   -1.3225    0.9101    0.5114 C   0  0  0  0  0  0  0  0  0  0  0  0
   -2.3373    1.3925    0.0160 O   0  0  0  0  0  0  0  0  0  0  0  0
   -0.6195    1.6484    1.4461 N   0  0  0  0  0  0  0  0  0  0  0  0
    0.2190    1.2302    1.8379 H   0  0  0  0  0  0  0  0  0  0  0  0
   -0.9135    3.0445    1.7445 C   0  0  0  0  0  0  0  0  0  0  0  0
   -1.9476    3.1543    2.0882 H   0  0  0  0  0  0  0  0  0  0  0  0
   -0.2486    3.4112    2.5324 H   0  0  0  0  0  0  0  0  0  0  0  0
   -0.7701    3.6638    0.8528 H   0  0  0  0  0  0  0  0  0  0  0  0
  1  2  1  0  0  0  0
  2  3  1  0  0  0  0
  2  4  1  0  0  0  0
  2  5  1  0  0  0  0
  5  6  2  0  0  0  0
  5  7  1  0  0  0  0
  7  8  1  0  0  0  0
  7  9  1  0  0  0  0
  9 10  1  0  0  0  0
  9 11  1  0  0  0  0
  9 26  1  0  0  0  0
 11 12  1  0  0  0  0
 11 13  1  0  0  0  0
 11 14  1  0  0  0  0
 14 15  2  0  0  0  0
 14 24  1  0  0  0  0
 15 16  1  0  0  0  0
 15 17  1  0  0  0  0
 17 18  1  0  0  0  0
 17 19  2  0  0  0  0
 19 20  1  0  0  0  0
 19 22  1  0  0  0  0
 20 21  1  0  0  0  0
 22 23  1  0  0  0  0
 22 24  2  0  0  0  0
 24 25  1  0  0  0  0
 26 27  2  0  0  0  0
 26 28  1  0  0  0  0
 28 29  1  0  0  0  0
 28 30  1  0  0  0  0
 30 31  1  0  0  0  0
 30 32  1  0  0  0  0
 30 33  1  0  0  0  0
M  END
$$$$

  -OEChem-04042216043D

 33 33  0     1  0  0  0  0  0999 V2000
   -3.8027   -4.1283    1.3776 H   0  0  0  0  0  0  0  0  0  0  0  0
   -3.8251   -3.1870    0.8217 C   0  0  0  0  0  0  0  0  0  0  0  0
   -4.5491   -2.5178    1.2931 H   0  0  0  0  0  0  0  0  0  0  0  0
   -4.1408   -3.3909   -0.2044 H   0  0  0  0  0  0  0  0  0  0  0  0
   -2.4500   -2.5465    0.8215 C   0  0  0  0  0  0  0  0  0  0  0  0
   -1.5091   -3.1179    1.3507 O   0  0  0  0  0  0  0  0  0  0  0  0
   -2.2652   -1.3208    0.2169 N   0  0  0  0  0  0  0  0  0  0  0  0
   -3.0979   -0.8294   -0.1063 H   0  0  0  0  0  0  0  0  0  0  0  0
   -1.0285   -0.5290    0.3043 C   0  0  1  0  0  0  0  0  0  0  0  0
   -0.4759   -0.8513    1.1928 H   0  0  0  0  0  0  0  0  0  0  0  0
   -0.1088   -0.8397   -0.9084 C   0  0  0  0  0  0  0  0  0  0  0  0
    0.6580   -1.5413   -0.5641 H   0  0  0  0  0  0  0  0  0  0  0  0
   -0.6996   -1.3750   -1.6592 H   0  0  0  0  0  0  0  0  0  0  0  0
    0.5549    0.3176   -1.6376 C   0  0  0  0  0  0  0  0  0  0  0  0
    1.9173    0.2153   -1.9677 C   0  0  0  0  0  0  0  0  0  0  0  0
    2.4959   -0.6395   -1.6297 H   0  0  0  0  0  0  0  0  0  0  0  0
    2.5569    1.2113   -2.7148 C   0  0  0  0  0  0  0  0  0  0  0  0
    3.6154    1.1183   -2.9317 H   0  0  0  0  0  0  0  0  0  0  0  0
    1.8339    2.3085   -3.1829 C   0  0  0  0  0  0  0  0  0  0  0  0
    2.4454    3.2882   -3.9107 O   0  0  0  0  0  0  0  0  0  0  0  0
    3.3871    3.0847   -4.0174 H   0  0  0  0  0  0  0  0  0  0  0  0
    0.4687    2.3886   -2.9248 C   0  0  0  0  0  0  0  0  0  0  0  0
   -0.0976    3.2257   -3.3201 H   0  0  0  0  0  0  0  0  0  0  0  0
   -0.1727    1.3922   -2.1814 C   0  0  0  0  0  0  0  0  0  0  0  0
   -1.2483    1.4612   -2.0545 H   0  0  0  0  0  0  0  0  0  0  0  0
   -1.3661    0.9506    0.5874 C   0  0  0  0  0  0  0  0  0  0  0  0
   -2.4040    1.4344    0.1444 O   0  0  0  0  0  0  0  0  0  0  0  0
   -0.6553    1.6587    1.5394 N   0  0  0  0  0  0  0  0  0  0  0  0
    0.1929    1.2330    1.9019 H   0  0  0  0  0  0  0  0  0  0  0  0
   -0.9657    3.0337    1.9110 C   0  0  0  0  0  0  0  0  0  0  0  0
   -1.9904    3.1074    2.2908 H   0  0  0  0  0  0  0  0  0  0  0  0
   -0.2826    3.3761    2.6942 H   0  0  0  0  0  0  0  0  0  0  0  0
   -0.8613    3.6968    1.0456 H   0  0  0  0  0  0  0  0  0  0  0  0
  1  2  1  0  0  0  0
  2  3  1  0  0  0  0
  2  4  1  0  0  0  0
  2  5  1  0  0  0  0
  5  6  2  0  0  0  0
  5  7  1  0  0  0  0
  7  8  1  0  0  0  0
  7  9  1  0  0  0  0
  9 10  1  0  0  0  0
  9 11  1  0  0  0  0
  9 26  1  0  0  0  0
 11 12  1  0  0  0  0
 11 13  1  0  0  0  0
 11 14  1  0  0  0  0
 14 15  2  0  0  0  0
 14 24  1  0  0  0  0
 15 16  1  0  0  0  0
 15 17  1  0  0  0  0
 17 18  1  0  0  0  0
 17 19  2  0  0  0  0
 19 20  1  0  0  0  0
 19 22  1  0  0  0  0
 20 21  1  0  0  0  0
 22 23  1  0  0  0  0
 22 24  2  0  0  0  0
 24 25  1  0  0  0  0
 26 27  2  0  0  0  0
 26 28  1  0  0  0  0
 28 29  1  0  0  0  0
 28 30  1  0  0  0  0
 30 31  1  0  0  0  0
 30 32  1  0  0  0  0
 30 33  1  0  0  0  0
M  END
$$$$

  -OEChem-04042216043D

 33 33  0     1  0  0  0  0  0999 V2000
   -3.7370   -4.1905    1.2594 H   0  0  0  0  0  0  0  0  0  0  0  0
   -3.7816   -3.2263    0.7452 C   0  0  0  0  0  0  0  0  0  0  0  0
   -4.5215   -2.5955    1.2440 H   0  0  0  0  0  0  0  0  0  0  0  0
   -4.0919   -3.3919   -0.2893 H   0  0  0  0  0  0  0  0  0  0  0  0
   -2.4221   -2.5535    0.7747 C   0  0  0  0  0  0  0  0  0  0  0  0
   -1.4692   -3.1213    1.2859 O   0  0  0  0  0  0  0  0  0  0  0  0
   -2.2651   -1.3026    0.2158 N   0  0  0  0  0  0  0  0  0  0  0  0
   -3.1086   -0.8219   -0.0958 H   0  0  0  0  0  0  0  0  0  0  0  0
   -1.0485   -0.4829    0.3302 C   0  0  1  0  0  0  0  0  0  0  0  0
   -0.4988   -0.8177    1.2162 H   0  0  0  0  0  0  0  0  0  0  0  0
   -0.1036   -0.7602   -0.8748 C   0  0  0  0  0  0  0  0  0  0  0  0
    0.6665   -1.4506   -0.5153 H   0  0  0  0  0  0  0  0  0  0  0  0
   -0.6784   -1.3085   -1.6283 H   0  0  0  0  0  0  0  0  0  0  0  0
    0.5776    0.3763   -1.6304 C   0  0  0  0  0  0  0  0  0  0  0  0
    1.8318    0.1034   -2.2075 C   0  0  0  0  0  0  0  0  0  0  0  0
    2.3139   -0.8535   -2.0276 H   0  0  0  0  0  0  0  0  0  0  0  0
    2.4938    1.0492   -2.9989 C   0  0  0  0  0  0  0  0  0  0  0  0
    3.4725    0.8159   -3.4036 H   0  0  0  0  0  0  0  0  0  0  0  0
    1.8918    2.2759   -3.2726 C   0  0  0  0  0  0  0  0  0  0  0  0
    2.5236    3.2087   -4.0431 O   0  0  0  0  0  0  0  0  0  0  0  0
    3.3917    2.8784   -4.3207 H   0  0  0  0  0  0  0  0  0  0  0  0
    0.6183    2.5348   -2.7775 C   0  0  0  0  0  0  0  0  0  0  0  0
    0.1337    3.4728   -3.0285 H   0  0  0  0  0  0  0  0  0  0  0  0
   -0.0458    1.5886   -1.9896 C   0  0  0  0  0  0  0  0  0  0  0  0
   -1.0654    1.8188   -1.7085 H   0  0  0  0  0  0  0  0  0  0  0  0
   -1.4243    0.9747    0.6658 C   0  0  0  0  0  0  0  0  0  0  0  0
   -2.4785    1.4432    0.2452 O   0  0  0  0  0  0  0  0  0  0  0  0
   -0.7329    1.6698    1.6412 N   0  0  0  0  0  0  0  0  0  0  0  0
    0.1242    1.2541    1.9946 H   0  0  0  0  0  0  0  0  0  0  0  0
   -1.0910    3.0162    2.0706 C   0  0  0  0  0  0  0  0  0  0  0  0
   -2.1075    3.0316    2.4776 H   0  0  0  0  0  0  0  0  0  0  0  0
   -0.4029    3.3604    2.8486 H   0  0  0  0  0  0  0  0  0  0  0  0
   -1.0378    3.7135    1.2279 H   0  0  0  0  0  0  0  0  0  0  0  0
  1  2  1  0  0  0  0
  2  3  1  0  0  0  0
  2  4  1  0  0  0  0
  2  5  1  0  0  0  0
  5  6  2  0  0  0  0
  5  7  1  0  0  0  0
  7  8  1  0  0  0  0
  7  9  1  0  0  0  0
  9 10  1  0  0  0  0
  9 11  1  0  0  0  0
  9 26  1  0  0  0  0
 11 12  1  0  0  0  0
 11 13  1  0  0  0  0
 11 14  1  0  0  0  0
 14 15  2  0  0  0  0
 14 24  1  0  0  0  0
 15 16  1  0  0  0  0
 15 17  1  0  0  0  0
 17 18  1  0  0  0  0
 17 19  2  0  0  0  0
 19 20  1  0  0  0  0
 19 22  1  0  0  0  0
 20 21  1  0  0  0  0
 22 23  1  0  0  0  0
 22 24  2  0  0  0  0
 24 25  1  0  0  0  0
 26 27  2  0  0  0  0
 26 28  1  0  0  0  0
 28 29  1  0  0  0  0
 28 30  1  0  0  0  0
 30 31  1  0  0  0  0
 30 32  1  0  0  0  0
 30 33  1  0  0  0  0
M  END
$$$$

  -OEChem-04042216043D

 33 33  0     1  0  0  0  0  0999 V2000
   -3.6767   -4.2247    1.2119 H   0  0  0  0  0  0  0  0  0  0  0  0
   -3.7350   -3.2479    0.7237 C   0  0  0  0  0  0  0  0  0  0  0  0
   -4.4759   -2.6372    1.2455 H   0  0  0  0  0  0  0  0  0  0  0  0
   -4.0530   -3.3891   -0.3121 H   0  0  0  0  0  0  0  0  0  0  0  0
   -2.3817   -2.5638    0.7592 C   0  0  0  0  0  0  0  0  0  0  0  0
   -1.4155   -3.1413    1.2329 O   0  0  0  0  0  0  0  0  0  0  0  0
   -2.2459   -1.2895    0.2502 N   0  0  0  0  0  0  0  0  0  0  0  0
   -3.0965   -0.8058   -0.0368 H   0  0  0  0  0  0  0  0  0  0  0  0
   -1.0295   -0.4691    0.3644 C   0  0  1  0  0  0  0  0  0  0  0  0
   -0.4405   -0.8351    1.2116 H   0  0  0  0  0  0  0  0  0  0  0  0
   -0.1438   -0.6852   -0.8995 C   0  0  0  0  0  0  0  0  0  0  0  0
    0.6340   -1.3960   -0.6004 H   0  0  0  0  0  0  0  0  0  0  0  0
   -0.7623   -1.2035   -1.6396 H   0  0  0  0  0  0  0  0  0  0  0  0
    0.5381    0.4382   -1.6837 C   0  0  0  0  0  0  0  0  0  0  0  0
    1.5470    0.0216   -2.5727 C   0  0  0  0  0  0  0  0  0  0  0  0
    1.8233   -1.0281   -2.6202 H   0  0  0  0  0  0  0  0  0  0  0  0
    2.2241    0.9272   -3.3961 C   0  0  0  0  0  0  0  0  0  0  0  0
    3.0080    0.5682   -4.0538 H   0  0  0  0  0  0  0  0  0  0  0  0
    1.8864    2.2776   -3.3736 C   0  0  0  0  0  0  0  0  0  0  0  0
    2.5370    3.1732   -4.1719 O   0  0  0  0  0  0  0  0  0  0  0  0
    3.2036    2.7168   -4.7078 H   0  0  0  0  0  0  0  0  0  0  0  0
    0.8590    2.7077   -2.5417 C   0  0  0  0  0  0  0  0  0  0  0  0
    0.5770    3.7556   -2.5507 H   0  0  0  0  0  0  0  0  0  0  0  0
    0.1774    1.8034   -1.7191 C   0  0  0  0  0  0  0  0  0  0  0  0
   -0.6436    2.2216   -1.1563 H   0  0  0  0  0  0  0  0  0  0  0  0
   -1.4308    0.9589    0.7724 C   0  0  0  0  0  0  0  0  0  0  0  0
   -2.4737    1.4472    0.3474 O   0  0  0  0  0  0  0  0  0  0  0  0
   -0.7331    1.6276    1.7617 N   0  0  0  0  0  0  0  0  0  0  0  0
    0.1115    1.1899    2.1194 H   0  0  0  0  0  0  0  0  0  0  0  0
   -1.1007    2.9527    2.2457 C   0  0  0  0  0  0  0  0  0  0  0  0
   -2.1166    2.9446    2.6541 H   0  0  0  0  0  0  0  0  0  0  0  0
   -0.4143    3.2703    3.0362 H   0  0  0  0  0  0  0  0  0  0  0  0
   -1.0538    3.6839    1.4319 H   0  0  0  0  0  0  0  0  0  0  0  0
  1  2  1  0  0  0  0
  2  3  1  0  0  0  0
  2  4  1  0  0  0  0
  2  5  1  0  0  0  0
  5  6  2  0  0  0  0
  5  7  1  0  0  0  0
  7  8  1  0  0  0  0
  7  9  1  0  0  0  0
  9 10  1  0  0  0  0
  9 11  1  0  0  0  0
  9 26  1  0  0  0  0
 11 12  1  0  0  0  0
 11 13  1  0  0  0  0
 11 14  1  0  0  0  0
 14 15  2  0  0  0  0
 14 24  1  0  0  0  0
 15 16  1  0  0  0  0
 15 17  1  0  0  0  0
 17 18  1  0  0  0  0
 17 19  2  0  0  0  0
 19 20  1  0  0  0  0
 19 22  1  0  0  0  0
 20 21  1  0  0  0  0
 22 23  1  0  0  0  0
 22 24  2  0  0  0  0
 24 25  1  0  0  0  0
 26 27  2  0  0  0  0
 26 28  1  0  0  0  0
 28 29  1  0  0  0  0
 28 30  1  0  0  0  0
 30 31  1  0  0  0  0
 30 32  1  0  0  0  0
 30 33  1  0  0  0  0
M  END
$$$$

  -OEChem-04042216043D

 33 33  0     1  0  0  0  0  0999 V2000
   -3.6905   -4.1802    1.1938 H   0  0  0  0  0  0  0  0  0  0  0  0
   -3.6941   -3.2303    0.6520 C   0  0  0  0  0  0  0  0  0  0  0  0
   -4.5007   -2.6047    1.0419 H   0  0  0  0  0  0  0  0  0  0  0  0
   -3.8757   -3.4295   -0.4069 H   0  0  0  0  0  0  0  0  0  0  0  0
   -2.3620   -2.5253    0.8241 C   0  0  0  0  0  0  0  0  0  0  0  0
   -1.4732   -3.0469    1.4790 O   0  0  0  0  0  0  0  0  0  0  0  0
   -2.1565   -1.2933    0.2406 N   0  0  0  0  0  0  0  0  0  0  0  0
   -2.9550   -0.8412   -0.2051 H   0  0  0  0  0  0  0  0  0  0  0  0
   -0.9555   -0.4658    0.4427 C   0  0  1  0  0  0  0  0  0  0  0  0
   -0.3930   -0.7683    1.3318 H   0  0  0  0  0  0  0  0  0  0  0  0
   -0.0785   -0.7042   -0.8220 C   0  0  0  0  0  0  0  0  0  0  0  0
    0.4960   -1.6166   -0.6305 H   0  0  0  0  0  0  0  0  0  0  0  0
   -0.7644   -0.9310   -1.6459 H   0  0  0  0  0  0  0  0  0  0  0  0
    0.8835    0.3271   -1.4075 C   0  0  0  0  0  0  0  0  0  0  0  0
    1.5829   -0.0823   -2.5575 C   0  0  0  0  0  0  0  0  0  0  0  0
    1.3846   -1.0609   -2.9858 H   0  0  0  0  0  0  0  0  0  0  0  0
    2.5282    0.7436   -3.1754 C   0  0  0  0  0  0  0  0  0  0  0  0
    3.0394    0.3964   -4.0665 H   0  0  0  0  0  0  0  0  0  0  0  0
    2.8104    1.9996   -2.6435 C   0  0  0  0  0  0  0  0  0  0  0  0
    3.7299    2.8178   -3.2332 O   0  0  0  0  0  0  0  0  0  0  0  0
    4.0796    2.4001   -4.0351 H   0  0  0  0  0  0  0  0  0  0  0  0
    2.1517    2.4147   -1.4915 C   0  0  0  0  0  0  0  0  0  0  0  0
    2.3846    3.3892   -1.0750 H   0  0  0  0  0  0  0  0  0  0  0  0
    1.2064    1.5894   -0.8717 C   0  0  0  0  0  0  0  0  0  0  0  0
    0.7637    1.9752    0.0303 H   0  0  0  0  0  0  0  0  0  0  0  0
   -1.4854    0.9644    0.6828 C   0  0  0  0  0  0  0  0  0  0  0  0
   -2.4057    1.4050    0.0014 O   0  0  0  0  0  0  0  0  0  0  0  0
   -0.9745    1.7443    1.7063 N   0  0  0  0  0  0  0  0  0  0  0  0
   -0.2642    1.3303    2.3039 H   0  0  0  0  0  0  0  0  0  0  0  0
   -1.4693    3.0795    2.0190 C   0  0  0  0  0  0  0  0  0  0  0  0
   -2.5299    3.0416    2.2890 H   0  0  0  0  0  0  0  0  0  0  0  0
   -0.9132    3.5016    2.8615 H   0  0  0  0  0  0  0  0  0  0  0  0
   -1.3479    3.7438    1.1567 H   0  0  0  0  0  0  0  0  0  0  0  0
  1  2  1  0  0  0  0
  2  3  1  0  0  0  0
  2  4  1  0  0  0  0
  2  5  1  0  0  0  0
  5  6  2  0  0  0  0
  5  7  1  0  0  0  0
  7  8  1  0  0  0  0
  7  9  1  0  0  0  0
  9 10  1  0  0  0  0
  9 11  1  0  0  0  0
  9 26  1  0  0  0  0
 11 12  1  0  0  0  0
 11 13  1  0  0  0  0
 11 14  1  0  0  0  0
 14 15  2  0  0  0  0
 14 24  1  0  0  0  0
 15 16  1  0  0  0  0
 15 17  1  0  0  0  0
 17 18  1  0  0  0  0
 17 19  2  0  0  0  0
 19 20  1  0  0  0  0
 19 22  1  0  0  0  0
 20 21  1  0  0  0  0
 22 23  1  0  0  0  0
 22 24  2  0  0  0  0
 24 25  1  0  0  0  0
 26 27  2  0  0  0  0
 26 28  1  0  0  0  0
 28 29  1  0  0  0  0
 28 30  1  0  0  0  0
 30 31  1  0  0  0  0
 30 32  1  0  0  0  0
 30 33  1  0  0  0  0
M  END
$$$$

  -OEChem-04042216043D

 33 33  0     1  0  0  0  0  0999 V2000
   -3.8037   -4.1079    1.3113 H   0  0  0  0  0  0  0  0  0  0  0  0
   -3.7791   -3.1764    0.7388 C   0  0  0  0  0  0  0  0  0  0  0  0
   -4.5485   -2.5043    1.1265 H   0  0  0  0  0  0  0  0  0  0  0  0
   -3.9953   -3.4006   -0.3085 H   0  0  0  0  0  0  0  0  0  0  0  0
   -2.4138   -2.5253    0.8571 C   0  0  0  0  0  0  0  0  0  0  0  0
   -1.5321   -3.0638    1.5076 O   0  0  0  0  0  0  0  0  0  0  0  0
   -2.1721   -1.3194    0.2348 N   0  0  0  0  0  0  0  0  0  0  0  0
   -2.9627   -0.8456   -0.2025 H   0  0  0  0  0  0  0  0  0  0  0  0
   -0.9405   -0.5305    0.4002 C   0  0  1  0  0  0  0  0  0  0  0  0
   -0.3613   -0.8341    1.2780 H   0  0  0  0  0  0  0  0  0  0  0  0
   -0.1123   -0.7699   -0.8927 C   0  0  0  0  0  0  0  0  0  0  0  0
    0.4637   -1.6895   -0.7462 H   0  0  0  0  0  0  0  0  0  0  0  0
   -0.8215   -0.9656   -1.7048 H   0  0  0  0  0  0  0  0  0  0  0  0
    0.8346    0.2988   -1.4209 C   0  0  0  0  0  0  0  0  0  0  0  0
    1.2914    0.1598   -2.7431 C   0  0  0  0  0  0  0  0  0  0  0  0
    0.8917   -0.6321   -3.3701 H   0  0  0  0  0  0  0  0  0  0  0  0
    2.2364    1.0393   -3.2836 C   0  0  0  0  0  0  0  0  0  0  0  0
    2.5433    0.9232   -4.3172 H   0  0  0  0  0  0  0  0  0  0  0  0
    2.7832    2.0491   -2.4935 C   0  0  0  0  0  0  0  0  0  0  0  0
    3.7061    2.9143   -3.0060 O   0  0  0  0  0  0  0  0  0  0  0  0
    3.8418    2.7335   -3.9488 H   0  0  0  0  0  0  0  0  0  0  0  0
    2.4018    2.1539   -1.1597 C   0  0  0  0  0  0  0  0  0  0  0  0
    2.8610    2.9167   -0.5395 H   0  0  0  0  0  0  0  0  0  0  0  0
    1.4573    1.2740   -0.6198 C   0  0  0  0  0  0  0  0  0  0  0  0
    1.2555    1.3514    0.4385 H   0  0  0  0  0  0  0  0  0  0  0  0
   -1.4275    0.9249    0.6029 C   0  0  0  0  0  0  0  0  0  0  0  0
   -2.3470    1.3637   -0.0819 O   0  0  0  0  0  0  0  0  0  0  0  0
   -0.8928    1.7304    1.5932 N   0  0  0  0  0  0  0  0  0  0  0  0
   -0.2020    1.3187    2.2139 H   0  0  0  0  0  0  0  0  0  0  0  0
   -1.3377    3.0964    1.8412 C   0  0  0  0  0  0  0  0  0  0  0  0
   -2.4045    3.1142    2.0882 H   0  0  0  0  0  0  0  0  0  0  0  0
   -0.7819    3.5294    2.6785 H   0  0  0  0  0  0  0  0  0  0  0  0
   -1.1699    3.7188    0.9557 H   0  0  0  0  0  0  0  0  0  0  0  0
  1  2  1  0  0  0  0
  2  3  1  0  0  0  0
  2  4  1  0  0  0  0
  2  5  1  0  0  0  0
  5  6  2  0  0  0  0
  5  7  1  0  0  0  0
  7  8  1  0  0  0  0
  7  9  1  0  0  0  0
  9 10  1  0  0  0  0
  9 11  1  0  0  0  0
  9 26  1  0  0  0  0
 11 12  1  0  0  0  0
 11 13  1  0  0  0  0
 11 14  1  0  0  0  0
 14 15  2  0  0  0  0
 14 24  1  0  0  0  0
 15 16  1  0  0  0  0
 15 17  1  0  0  0  0
 17 18  1  0  0  0  0
 17 19  2  0  0  0  0
 19 20  1  0  0  0  0
 19 22  1  0  0  0  0
 20 21  1  0  0  0  0
 22 23  1  0  0  0  0
 22 24  2  0  0  0  0
 24 25  1  0  0  0  0
 26 27  2  0  0  0  0
 26 28  1  0  0  0  0
 28 29  1  0  0  0  0
 28 30  1  0  0  0  0
 30 31  1  0  0  0  0
 30 32  1  0  0  0  0
 30 33  1  0  0  0  0
M  END
$$$$

  -OEChem-04042216043D

 33 33  0     1  0  0  0  0  0999 V2000
   -3.8538   -4.0806    1.4083 H   0  0  0  0  0  0  0  0  0  0  0  0
   -3.8221   -3.1645    0.8119 C   0  0  0  0  0  0  0  0  0  0  0  0
   -4.5751   -2.4701    1.1924 H   0  0  0  0  0  0  0  0  0  0  0  0
   -4.0554   -3.4115   -0.2266 H   0  0  0  0  0  0  0  0  0  0  0  0
   -2.4455   -2.5327    0.8965 C   0  0  0  0  0  0  0  0  0  0  0  0
   -1.5663   -3.0659    1.5550 O   0  0  0  0  0  0  0  0  0  0  0  0
   -2.1906   -1.3518    0.2328 N   0  0  0  0  0  0  0  0  0  0  0  0
   -2.9789   -0.8787   -0.2092 H   0  0  0  0  0  0  0  0  0  0  0  0
   -0.9461   -0.5779    0.3628 C   0  0  1  0  0  0  0  0  0  0  0  0
   -0.3701   -0.8687    1.2469 H   0  0  0  0  0  0  0  0  0  0  0  0
   -0.1151   -0.8456   -0.9183 C   0  0  0  0  0  0  0  0  0  0  0  0
    0.4707   -1.7568   -0.7607 H   0  0  0  0  0  0  0  0  0  0  0  0
   -0.8149   -1.0531   -1.7351 H   0  0  0  0  0  0  0  0  0  0  0  0
    0.8170    0.2523   -1.4008 C   0  0  0  0  0  0  0  0  0  0  0  0
    1.0769    0.3689   -2.7762 C   0  0  0  0  0  0  0  0  0  0  0  0
    0.5441   -0.2606   -3.4829 H   0  0  0  0  0  0  0  0  0  0  0  0
    1.9999    1.3044   -3.2586 C   0  0  0  0  0  0  0  0  0  0  0  0
    2.1595    1.3936   -4.3275 H   0  0  0  0  0  0  0  0  0  0  0  0
    2.7122    2.1085   -2.3687 C   0  0  0  0  0  0  0  0  0  0  0  0
    3.6123    3.0270   -2.8262 O   0  0  0  0  0  0  0  0  0  0  0  0
    3.6062    3.0424   -3.7957 H   0  0  0  0  0  0  0  0  0  0  0  0
    2.5169    1.9544   -0.9991 C   0  0  0  0  0  0  0  0  0  0  0  0
    3.0999    2.5597   -0.3128 H   0  0  0  0  0  0  0  0  0  0  0  0
    1.5947    1.0201   -0.5156 C   0  0  0  0  0  0  0  0  0  0  0  0
    1.5094    0.8868    0.5563 H   0  0  0  0  0  0  0  0  0  0  0  0
   -1.3802    0.8993    0.5229 C   0  0  0  0  0  0  0  0  0  0  0  0
   -2.3032    1.3406   -0.1555 O   0  0  0  0  0  0  0  0  0  0  0  0
   -0.8052    1.7164    1.4806 N   0  0  0  0  0  0  0  0  0  0  0  0
   -0.0887    1.3145    2.0773 H   0  0  0  0  0  0  0  0  0  0  0  0
   -1.1810    3.1119    1.6711 C   0  0  0  0  0  0  0  0  0  0  0  0
   -2.2454    3.1934    1.9150 H   0  0  0  0  0  0  0  0  0  0  0  0
   -0.6043    3.5506    2.4910 H   0  0  0  0  0  0  0  0  0  0  0  0
   -0.9822    3.6880    0.7612 H   0  0  0  0  0  0  0  0  0  0  0  0
  1  2  1  0  0  0  0
  2  3  1  0  0  0  0
  2  4  1  0  0  0  0
  2  5  1  0  0  0  0
  5  6  2  0  0  0  0
  5  7  1  0  0  0  0
  7  8  1  0  0  0  0
  7  9  1  0  0  0  0
  9 10  1  0  0  0  0
  9 11  1  0  0  0  0
  9 26  1  0  0  0  0
 11 12  1  0  0  0  0
 11 13  1  0  0  0  0
 11 14  1  0  0  0  0
 14 15  2  0  0  0  0
 14 24  1  0  0  0  0
 15 16  1  0  0  0  0
 15 17  1  0  0  0  0
 17 18  1  0  0  0  0
 17 19  2  0  0  0  0
 19 20  1  0  0  0  0
 19 22  1  0  0  0  0
 20 21  1  0  0  0  0
 22 23  1  0  0  0  0
 22 24  2  0  0  0  0
 24 25  1  0  0  0  0
 26 27  2  0  0  0  0
 26 28  1  0  0  0  0
 28 29  1  0  0  0  0
 28 30  1  0  0  0  0
 30 31  1  0  0  0  0
 30 32  1  0  0  0  0
 30 33  1  0  0  0  0
M  END
$$$$

  -OEChem-04042216043D

 33 33  0     1  0  0  0  0  0999 V2000
   -3.8930   -4.0520    1.4903 H   0  0  0  0  0  0  0  0  0  0  0  0
   -3.8535   -3.1518    0.8706 C   0  0  0  0  0  0  0  0  0  0  0  0
   -4.5880   -2.4342    1.2443 H   0  0  0  0  0  0  0  0  0  0  0  0
   -4.1074   -3.4204   -0.1576 H   0  0  0  0  0  0  0  0  0  0  0  0
   -2.4645   -2.5436    0.9184 C   0  0  0  0  0  0  0  0  0  0  0  0
   -1.5840   -3.0787    1.5737 O   0  0  0  0  0  0  0  0  0  0  0  0
   -2.2021   -1.3795    0.2282 N   0  0  0  0  0  0  0  0  0  0  0  0
   -2.9903   -0.9036   -0.2103 H   0  0  0  0  0  0  0  0  0  0  0  0
   -0.9473   -0.6189    0.3296 C   0  0  1  0  0  0  0  0  0  0  0  0
   -0.3733   -0.9028    1.2176 H   0  0  0  0  0  0  0  0  0  0  0  0
   -0.1117   -0.9091   -0.9405 C   0  0  0  0  0  0  0  0  0  0  0  0
    0.4823   -1.8127   -0.7698 H   0  0  0  0  0  0  0  0  0  0  0  0
   -0.8000   -1.1302   -1.7632 H   0  0  0  0  0  0  0  0  0  0  0  0
    0.8076    0.2107   -1.3884 C   0  0  0  0  0  0  0  0  0  0  0  0
    0.8686    0.5762   -2.7425 C   0  0  0  0  0  0  0  0  0  0  0  0
    0.2071    0.1057   -3.4642 H   0  0  0  0  0  0  0  0  0  0  0  0
    1.7627    1.5624   -3.1761 C   0  0  0  0  0  0  0  0  0  0  0  0
    1.7770    1.8448   -4.2230 H   0  0  0  0  0  0  0  0  0  0  0  0
    2.6300    2.1720   -2.2682 C   0  0  0  0  0  0  0  0  0  0  0  0
    3.5052    3.1351   -2.6798 O   0  0  0  0  0  0  0  0  0  0  0  0
    3.3890    3.3046   -3.6274 H   0  0  0  0  0  0  0  0  0  0  0  0
    2.6126    1.7807   -0.9317 C   0  0  0  0  0  0  0  0  0  0  0  0
    3.3072    2.2429   -0.2381 H   0  0  0  0  0  0  0  0  0  0  0  0
    1.7205    0.7961   -0.4948 C   0  0  0  0  0  0  0  0  0  0  0  0
    1.7493    0.4828    0.5437 H   0  0  0  0  0  0  0  0  0  0  0  0
   -1.3379    0.8720    0.4652 C   0  0  0  0  0  0  0  0  0  0  0  0
   -2.2641    1.3226   -0.2029 O   0  0  0  0  0  0  0  0  0  0  0  0
   -0.7244    1.6865    1.4003 N   0  0  0  0  0  0  0  0  0  0  0  0
    0.0310    1.2882    1.9489 H   0  0  0  0  0  0  0  0  0  0  0  0
   -1.0278    3.1045    1.5454 C   0  0  0  0  0  0  0  0  0  0  0  0
   -2.0915    3.2500    1.7617 H   0  0  0  0  0  0  0  0  0  0  0  0
   -0.4468    3.5336    2.3675 H   0  0  0  0  0  0  0  0  0  0  0  0
   -0.7778    3.6434    0.6256 H   0  0  0  0  0  0  0  0  0  0  0  0
  1  2  1  0  0  0  0
  2  3  1  0  0  0  0
  2  4  1  0  0  0  0
  2  5  1  0  0  0  0
  5  6  2  0  0  0  0
  5  7  1  0  0  0  0
  7  8  1  0  0  0  0
  7  9  1  0  0  0  0
  9 10  1  0  0  0  0
  9 11  1  0  0  0  0
  9 26  1  0  0  0  0
 11 12  1  0  0  0  0
 11 13  1  0  0  0  0
 11 14  1  0  0  0  0
 14 15  2  0  0  0  0
 14 24  1  0  0  0  0
 15 16  1  0  0  0  0
 15 17  1  0  0  0  0
 17 18  1  0  0  0  0
 17 19  2  0  0  0  0
 19 20  1  0  0  0  0
 19 22  1  0  0  0  0
 20 21  1  0  0  0  0
 22 23  1  0  0  0  0
 22 24  2  0  0  0  0
 24 25  1  0  0  0  0
 26 27  2  0  0  0  0
 26 28  1  0  0  0  0
 28 29  1  0  0  0  0
 28 30  1  0  0  0  0
 30 31  1  0  0  0  0
 30 32  1  0  0  0  0
 30 33  1  0  0  0  0
M  END
$$$$

  -OEChem-04042216043D

 33 33  0     1  0  0  0  0  0999 V2000
   -3.9174   -4.0312    1.5376 H   0  0  0  0  0  0  0  0  0  0  0  0
   -3.8743   -3.1433    0.9006 C   0  0  0  0  0  0  0  0  0  0  0  0
   -4.5979   -2.4113    1.2675 H   0  0  0  0  0  0  0  0  0  0  0  0
   -4.1401   -3.4286   -0.1200 H   0  0  0  0  0  0  0  0  0  0  0  0
   -2.4784   -2.5490    0.9257 C   0  0  0  0  0  0  0  0  0  0  0  0
   -1.5958   -3.0888    1.5745 O   0  0  0  0  0  0  0  0  0  0  0  0
   -2.2108   -1.3951    0.2200 N   0  0  0  0  0  0  0  0  0  0  0  0
   -3.0001   -0.9128   -0.2092 H   0  0  0  0  0  0  0  0  0  0  0  0
   -0.9473   -0.6469    0.3028 C   0  0  1  0  0  0  0  0  0  0  0  0
   -0.3779   -0.9272    1.1947 H   0  0  0  0  0  0  0  0  0  0  0  0
   -0.1058   -0.9579   -0.9553 C   0  0  0  0  0  0  0  0  0  0  0  0
    0.4889   -1.8584   -0.7718 H   0  0  0  0  0  0  0  0  0  0  0  0
   -0.7830   -1.1859   -1.7850 H   0  0  0  0  0  0  0  0  0  0  0  0
    0.8071    0.1730   -1.3800 C   0  0  0  0  0  0  0  0  0  0  0  0
    0.6770    0.7656   -2.6453 C   0  0  0  0  0  0  0  0  0  0  0  0
   -0.1107    0.4432   -3.3205 H   0  0  0  0  0  0  0  0  0  0  0  0
    1.5446    1.7907   -3.0409 C   0  0  0  0  0  0  0  0  0  0  0  0
    1.4175    2.2475   -4.0162 H   0  0  0  0  0  0  0  0  0  0  0  0
    2.5615    2.2199   -2.1855 C   0  0  0  0  0  0  0  0  0  0  0  0
    3.4103    3.2204   -2.5609 O   0  0  0  0  0  0  0  0  0  0  0  0
    3.1709    3.5439   -3.4432 H   0  0  0  0  0  0  0  0  0  0  0  0
    2.7159    1.6151   -0.9399 C   0  0  0  0  0  0  0  0  0  0  0  0
    3.5187    1.9458   -0.2888 H   0  0  0  0  0  0  0  0  0  0  0  0
    1.8518    0.5905   -0.5398 C   0  0  0  0  0  0  0  0  0  0  0  0
    1.9995    0.1165    0.4258 H   0  0  0  0  0  0  0  0  0  0  0  0
   -1.3017    0.8535    0.4258 C   0  0  0  0  0  0  0  0  0  0  0  0
   -2.2310    1.3156   -0.2303 O   0  0  0  0  0  0  0  0  0  0  0  0
   -0.6575    1.6600    1.3467 N   0  0  0  0  0  0  0  0  0  0  0  0
    0.1370    1.2627    1.8385 H   0  0  0  0  0  0  0  0  0  0  0  0
   -0.9017    3.0927    1.4549 C   0  0  0  0  0  0  0  0  0  0  0  0
   -1.9602    3.2888    1.6560 H   0  0  0  0  0  0  0  0  0  0  0  0
   -0.3123    3.5160    2.2737 H   0  0  0  0  0  0  0  0  0  0  0  0
   -0.6186    3.5984    0.5257 H   0  0  0  0  0  0  0  0  0  0  0  0
  1  2  1  0  0  0  0
  2  3  1  0  0  0  0
  2  4  1  0  0  0  0
  2  5  1  0  0  0  0
  5  6  2  0  0  0  0
  5  7  1  0  0  0  0
  7  8  1  0  0  0  0
  7  9  1  0  0  0  0
  9 10  1  0  0  0  0
  9 11  1  0  0  0  0
  9 26  1  0  0  0  0
 11 12  1  0  0  0  0
 11 13  1  0  0  0  0
 11 14  1  0  0  0  0
 14 15  2  0  0  0  0
 14 24  1  0  0  0  0
 15 16  1  0  0  0  0
 15 17  1  0  0  0  0
 17 18  1  0  0  0  0
 17 19  2  0  0  0  0
 19 20  1  0  0  0  0
 19 22  1  0  0  0  0
 20 21  1  0  0  0  0
 22 23  1  0  0  0  0
 22 24  2  0  0  0  0
 24 25  1  0  0  0  0
 26 27  2  0  0  0  0
 26 28  1  0  0  0  0
 28 29  1  0  0  0  0
 28 30  1  0  0  0  0
 30 31  1  0  0  0  0
 30 32  1  0  0  0  0
 30 33  1  0  0  0  0
M  END
$$$$

  -OEChem-04042216043D

 33 33  0     1  0  0  0  0  0999 V2000
   -3.9341   -4.0154    1.5492 H   0  0  0  0  0  0  0  0  0  0  0  0
   -3.8857   -3.1296    0.9097 C   0  0  0  0  0  0  0  0  0  0  0  0
   -4.6005   -2.3900    1.2785 H   0  0  0  0  0  0  0  0  0  0  0  0
   -4.1595   -3.4149   -0.1090 H   0  0  0  0  0  0  0  0  0  0  0  0
   -2.4841   -2.5487    0.9249 C   0  0  0  0  0  0  0  0  0  0  0  0
   -1.6010   -3.0967    1.5662 O   0  0  0  0  0  0  0  0  0  0  0  0
   -2.2111   -1.4000    0.2130 N   0  0  0  0  0  0  0  0  0  0  0  0
   -2.9992   -0.9129   -0.2126 H   0  0  0  0  0  0  0  0  0  0  0  0
   -0.9421   -0.6610    0.2848 C   0  0  1  0  0  0  0  0  0  0  0  0
   -0.3749   -0.9418    1.1779 H   0  0  0  0  0  0  0  0  0  0  0  0
   -0.0979   -0.9886   -0.9659 C   0  0  0  0  0  0  0  0  0  0  0  0
    0.4932   -1.8899   -0.7737 H   0  0  0  0  0  0  0  0  0  0  0  0
   -0.7682   -1.2192   -1.8006 H   0  0  0  0  0  0  0  0  0  0  0  0
    0.8136    0.1440   -1.3828 C   0  0  0  0  0  0  0  0  0  0  0  0
    0.5118    0.9408   -2.4977 C   0  0  0  0  0  0  0  0  0  0  0  0
   -0.3954    0.7595   -3.0677 H   0  0  0  0  0  0  0  0  0  0  0  0
    1.3621    1.9892   -2.8687 C   0  0  0  0  0  0  0  0  0  0  0  0
    1.1075    2.6013   -3.7269 H   0  0  0  0  0  0  0  0  0  0  0  0
    2.5224    2.2454   -2.1350 C   0  0  0  0  0  0  0  0  0  0  0  0
    3.3558    3.2678   -2.4858 O   0  0  0  0  0  0  0  0  0  0  0  0
    3.0087    3.7244   -3.2678 H   0  0  0  0  0  0  0  0  0  0  0  0
    2.8335    1.4484   -1.0348 C   0  0  0  0  0  0  0  0  0  0  0  0
    3.7415    1.6512   -0.4763 H   0  0  0  0  0  0  0  0  0  0  0  0
    1.9883    0.3991   -0.6596 C   0  0  0  0  0  0  0  0  0  0  0  0
    2.2491   -0.2183    0.1951 H   0  0  0  0  0  0  0  0  0  0  0  0
   -1.2739    0.8446    0.4033 C   0  0  0  0  0  0  0  0  0  0  0  0
   -2.2050    1.3152   -0.2445 O   0  0  0  0  0  0  0  0  0  0  0  0
   -0.6107    1.6444    1.3163 N   0  0  0  0  0  0  0  0  0  0  0  0
    0.1985    1.2434    1.7809 H   0  0  0  0  0  0  0  0  0  0  0  0
   -0.8330    3.0809    1.4195 C   0  0  0  0  0  0  0  0  0  0  0  0
   -1.8870    3.2932    1.6274 H   0  0  0  0  0  0  0  0  0  0  0  0
   -0.2316    3.4986    2.2324 H   0  0  0  0  0  0  0  0  0  0  0  0
   -0.5497    3.5786    0.4861 H   0  0  0  0  0  0  0  0  0  0  0  0
  1  2  1  0  0  0  0
  2  3  1  0  0  0  0
  2  4  1  0  0  0  0
  2  5  1  0  0  0  0
  5  6  2  0  0  0  0
  5  7  1  0  0  0  0
  7  8  1  0  0  0  0
  7  9  1  0  0  0  0
  9 10  1  0  0  0  0
  9 11  1  0  0  0  0
  9 26  1  0  0  0  0
 11 12  1  0  0  0  0
 11 13  1  0  0  0  0
 11 14  1  0  0  0  0
 14 15  2  0  0  0  0
 14 24  1  0  0  0  0
 15 16  1  0  0  0  0
 15 17  1  0  0  0  0
 17 18  1  0  0  0  0
 17 19  2  0  0  0  0
 19 20  1  0  0  0  0
 19 22  1  0  0  0  0
 20 21  1  0  0  0  0
 22 23  1  0  0  0  0
 22 24  2  0  0  0  0
 24 25  1  0  0  0  0
 26 27  2  0  0  0  0
 26 28  1  0  0  0  0
 28 29  1  0  0  0  0
 28 30  1  0  0  0  0
 30 31  1  0  0  0  0
 30 32  1  0  0  0  0
 30 33  1  0  0  0  0
M  END
$$$$

  -OEChem-04042216043D

 33 33  0     1  0  0  0  0  0999 V2000
   -3.9371   -4.0161    1.5297 H   0  0  0  0  0  0  0  0  0  0  0  0
   -3.8869   -3.1288    0.8926 C   0  0  0  0  0  0  0  0  0  0  0  0
   -4.6048   -2.3909    1.2589 H   0  0  0  0  0  0  0  0  0  0  0  0
   -4.1545   -3.4118   -0.1284 H   0  0  0  0  0  0  0  0  0  0  0  0
   -2.4867   -2.5456    0.9164 C   0  0  0  0  0  0  0  0  0  0  0  0
   -1.6046   -3.0953    1.5575 O   0  0  0  0  0  0  0  0  0  0  0  0
   -2.2152   -1.3926    0.2110 N   0  0  0  0  0  0  0  0  0  0  0  0
   -3.0035   -0.9068   -0.2155 H   0  0  0  0  0  0  0  0  0  0  0  0
   -0.9461   -0.6539    0.2825 C   0  0  1  0  0  0  0  0  0  0  0  0
   -0.3822   -0.9371    1.1771 H   0  0  0  0  0  0  0  0  0  0  0  0
   -0.0944   -0.9936   -0.9605 C   0  0  0  0  0  0  0  0  0  0  0  0
    0.4872   -1.8990   -0.7587 H   0  0  0  0  0  0  0  0  0  0  0  0
   -0.7599   -1.2250   -1.7990 H   0  0  0  0  0  0  0  0  0  0  0  0
    0.8221    0.1305   -1.3892 C   0  0  0  0  0  0  0  0  0  0  0  0
    0.3914    1.1012   -2.3067 C   0  0  0  0  0  0  0  0  0  0  0  0
   -0.6125    1.0496   -2.7204 H   0  0  0  0  0  0  0  0  0  0  0  0
    1.2374    2.1535   -2.6742 C   0  0  0  0  0  0  0  0  0  0  0  0
    0.8825    2.8983   -3.3778 H   0  0  0  0  0  0  0  0  0  0  0  0
    2.5208    2.2443   -2.1320 C   0  0  0  0  0  0  0  0  0  0  0  0
    3.3521    3.2685   -2.4821 O   0  0  0  0  0  0  0  0  0  0  0  0
    2.9162    3.8404   -3.1327 H   0  0  0  0  0  0  0  0  0  0  0  0
    2.9557    1.2804   -1.2238 C   0  0  0  0  0  0  0  0  0  0  0  0
    3.9560    1.3580   -0.8102 H   0  0  0  0  0  0  0  0  0  0  0  0
    2.1138    0.2266   -0.8519 C   0  0  0  0  0  0  0  0  0  0  0  0
    2.4681   -0.5167   -0.1435 H   0  0  0  0  0  0  0  0  0  0  0  0
   -1.2687    0.8518    0.4115 C   0  0  0  0  0  0  0  0  0  0  0  0
   -2.2013    1.3318   -0.2276 O   0  0  0  0  0  0  0  0  0  0  0  0
   -0.5959    1.6403    1.3268 N   0  0  0  0  0  0  0  0  0  0  0  0
    0.2144    1.2306    1.7822 H   0  0  0  0  0  0  0  0  0  0  0  0
   -0.8105    3.0768    1.4451 C   0  0  0  0  0  0  0  0  0  0  0  0
   -1.8636    3.2927    1.6539 H   0  0  0  0  0  0  0  0  0  0  0  0
   -0.2082    3.4825    2.2636 H   0  0  0  0  0  0  0  0  0  0  0  0
   -0.5230    3.5830    0.5175 H   0  0  0  0  0  0  0  0  0  0  0  0
  1  2  1  0  0  0  0
  2  3  1  0  0  0  0
  2  4  1  0  0  0  0
  2  5  1  0  0  0  0
  5  6  2  0  0  0  0
  5  7  1  0  0  0  0
  7  8  1  0  0  0  0
  7  9  1  0  0  0  0
  9 10  1  0  0  0  0
  9 11  1  0  0  0  0
  9 26  1  0  0  0  0
 11 12  1  0  0  0  0
 11 13  1  0  0  0  0
 11 14  1  0  0  0  0
 14 15  2  0  0  0  0
 14 24  1  0  0  0  0
 15 16  1  0  0  0  0
 15 17  1  0  0  0  0
 17 18  1  0  0  0  0
 17 19  2  0  0  0  0
 19 20  1  0  0  0  0
 19 22  1  0  0  0  0
 20 21  1  0  0  0  0
 22 23  1  0  0  0  0
 22 24  2  0  0  0  0
 24 25  1  0  0  0  0
 26 27  2  0  0  0  0
 26 28  1  0  0  0  0
 28 29  1  0  0  0  0
 28 30  1  0  0  0  0
 30 31  1  0  0  0  0
 30 32  1  0  0  0  0
 30 33  1  0  0  0  0
M  END
$$$$

  -OEChem-04042216043D

 33 33  0     1  0  0  0  0  0999 V2000
   -3.9114   -4.0361    1.5090 H   0  0  0  0  0  0  0  0  0  0  0  0
   -3.8754   -3.1420    0.8805 C   0  0  0  0  0  0  0  0  0  0  0  0
   -4.5942   -2.4135    1.2635 H   0  0  0  0  0  0  0  0  0  0  0  0
   -4.1535   -3.4166   -0.1399 H   0  0  0  0  0  0  0  0  0  0  0  0
   -2.4791   -2.5485    0.8936 C   0  0  0  0  0  0  0  0  0  0  0  0
   -1.5822   -3.1071    1.5057 O   0  0  0  0  0  0  0  0  0  0  0  0
   -2.2274   -1.3780    0.2099 N   0  0  0  0  0  0  0  0  0  0  0  0
   -3.0273   -0.8876   -0.1887 H   0  0  0  0  0  0  0  0  0  0  0  0
   -0.9658   -0.6264    0.2846 C   0  0  1  0  0  0  0  0  0  0  0  0
   -0.4056   -0.9155    1.1797 H   0  0  0  0  0  0  0  0  0  0  0  0
   -0.0966   -0.9702   -0.9481 C   0  0  0  0  0  0  0  0  0  0  0  0
    0.4777   -1.8766   -0.7304 H   0  0  0  0  0  0  0  0  0  0  0  0
   -0.7575   -1.2108   -1.7873 H   0  0  0  0  0  0  0  0  0  0  0  0
    0.8287    0.1363   -1.4124 C   0  0  0  0  0  0  0  0  0  0  0  0
    0.3431    1.2552   -2.1100 C   0  0  0  0  0  0  0  0  0  0  0  0
   -0.7135    1.3276   -2.3560 H   0  0  0  0  0  0  0  0  0  0  0  0
    1.2078    2.2879   -2.4887 C   0  0  0  0  0  0  0  0  0  0  0  0
    0.8092    3.1433   -3.0230 H   0  0  0  0  0  0  0  0  0  0  0  0
    2.5665    2.2156   -2.1766 C   0  0  0  0  0  0  0  0  0  0  0  0
    3.4174    3.2197   -2.5381 O   0  0  0  0  0  0  0  0  0  0  0  0
    2.9337    3.9047   -3.0251 H   0  0  0  0  0  0  0  0  0  0  0  0
    3.0568    1.1087   -1.4869 C   0  0  0  0  0  0  0  0  0  0  0  0
    4.1147    1.0602   -1.2501 H   0  0  0  0  0  0  0  0  0  0  0  0
    2.1962    0.0741   -1.1038 C   0  0  0  0  0  0  0  0  0  0  0  0
    2.5972   -0.7775   -0.5614 H   0  0  0  0  0  0  0  0  0  0  0  0
   -1.2952    0.8734    0.4477 C   0  0  0  0  0  0  0  0  0  0  0  0
   -2.2492    1.3569   -0.1562 O   0  0  0  0  0  0  0  0  0  0  0  0
   -0.6172    1.6472    1.3718 N   0  0  0  0  0  0  0  0  0  0  0  0
    0.2072    1.2372    1.8016 H   0  0  0  0  0  0  0  0  0  0  0  0
   -0.8504    3.0768    1.5331 C   0  0  0  0  0  0  0  0  0  0  0  0
   -1.9024    3.2717    1.7665 H   0  0  0  0  0  0  0  0  0  0  0  0
   -0.2391    3.4695    2.3512 H   0  0  0  0  0  0  0  0  0  0  0  0
   -0.5877    3.6118    0.6146 H   0  0  0  0  0  0  0  0  0  0  0  0
  1  2  1  0  0  0  0
  2  3  1  0  0  0  0
  2  4  1  0  0  0  0
  2  5  1  0  0  0  0
  5  6  2  0  0  0  0
  5  7  1  0  0  0  0
  7  8  1  0  0  0  0
  7  9  1  0  0  0  0
  9 10  1  0  0  0  0
  9 11  1  0  0  0  0
  9 26  1  0  0  0  0
 11 12  1  0  0  0  0
 11 13  1  0  0  0  0
 11 14  1  0  0  0  0
 14 15  2  0  0  0  0
 14 24  1  0  0  0  0
 15 16  1  0  0  0  0
 15 17  1  0  0  0  0
 17 18  1  0  0  0  0
 17 19  2  0  0  0  0
 19 20  1  0  0  0  0
 19 22  1  0  0  0  0
 20 21  1  0  0  0  0
 22 23  1  0  0  0  0
 22 24  2  0  0  0  0
 24 25  1  0  0  0  0
 26 27  2  0  0  0  0
 26 28  1  0  0  0  0
 28 29  1  0  0  0  0
 28 30  1  0  0  0  0
 30 31  1  0  0  0  0
 30 32  1  0  0  0  0
 30 33  1  0  0  0  0
M  END
$$$$

  -OEChem-04042216043D

 33 33  0     1  0  0  0  0  0999 V2000
   -3.8420   -4.0950    1.4419 H   0  0  0  0  0  0  0  0  0  0  0  0
   -3.8399   -3.1707    0.8574 C   0  0  0  0  0  0  0  0  0  0  0  0
   -4.5676   -2.4795    1.2896 H   0  0  0  0  0  0  0  0  0  0  0  0
   -4.1327   -3.4025   -0.1694 H   0  0  0  0  0  0  0  0  0  0  0  0
   -2.4581   -2.5444    0.8723 C   0  0  0  0  0  0  0  0  0  0  0  0
   -1.5427   -3.0962    1.4628 O   0  0  0  0  0  0  0  0  0  0  0  0
   -2.2397   -1.3512    0.2161 N   0  0  0  0  0  0  0  0  0  0  0  0
   -3.0536   -0.8712   -0.1666 H   0  0  0  0  0  0  0  0  0  0  0  0
   -0.9934   -0.5738    0.2963 C   0  0  1  0  0  0  0  0  0  0  0  0
   -0.4336   -0.8658    1.1908 H   0  0  0  0  0  0  0  0  0  0  0  0
   -0.1033   -0.9172   -0.9262 C   0  0  0  0  0  0  0  0  0  0  0  0
    0.4656   -1.8213   -0.6857 H   0  0  0  0  0  0  0  0  0  0  0  0
   -0.7614   -1.1773   -1.7619 H   0  0  0  0  0  0  0  0  0  0  0  0
    0.8317    0.1627   -1.4470 C   0  0  0  0  0  0  0  0  0  0  0  0
    0.3742    1.4047   -1.9239 C   0  0  0  0  0  0  0  0  0  0  0  0
   -0.6899    1.6072   -2.0058 H   0  0  0  0  0  0  0  0  0  0  0  0
    1.2770    2.3918   -2.3348 C   0  0  0  0  0  0  0  0  0  0  0  0
    0.8957    3.3373   -2.7048 H   0  0  0  0  0  0  0  0  0  0  0  0
    2.6509    2.1573   -2.2716 C   0  0  0  0  0  0  0  0  0  0  0  0
    3.5401    3.1143   -2.6667 O   0  0  0  0  0  0  0  0  0  0  0  0
    3.0649    3.8963   -2.9874 H   0  0  0  0  0  0  0  0  0  0  0  0
    3.1169    0.9325   -1.8014 C   0  0  0  0  0  0  0  0  0  0  0  0
    4.1867    0.7566   -1.7557 H   0  0  0  0  0  0  0  0  0  0  0  0
    2.2177   -0.0576   -1.3911 C   0  0  0  0  0  0  0  0  0  0  0  0
    2.6085   -1.0009   -1.0204 H   0  0  0  0  0  0  0  0  0  0  0  0
   -1.3446    0.9140    0.5016 C   0  0  0  0  0  0  0  0  0  0  0  0
   -2.3262    1.3944   -0.0583 O   0  0  0  0  0  0  0  0  0  0  0  0
   -0.6653    1.6707    1.4385 N   0  0  0  0  0  0  0  0  0  0  0  0
    0.1602    1.2565    1.8623 H   0  0  0  0  0  0  0  0  0  0  0  0
   -0.9580    3.0745    1.6981 C   0  0  0  0  0  0  0  0  0  0  0  0
   -2.0008    3.1984    2.0088 H   0  0  0  0  0  0  0  0  0  0  0  0
   -0.3138    3.4531    2.4977 H   0  0  0  0  0  0  0  0  0  0  0  0
   -0.7835    3.6740    0.7985 H   0  0  0  0  0  0  0  0  0  0  0  0
  1  2  1  0  0  0  0
  2  3  1  0  0  0  0
  2  4  1  0  0  0  0
  2  5  1  0  0  0  0
  5  6  2  0  0  0  0
  5  7  1  0  0  0  0
  7  8  1  0  0  0  0
  7  9  1  0  0  0  0
  9 10  1  0  0  0  0
  9 11  1  0  0  0  0
  9 26  1  0  0  0  0
 11 12  1  0  0  0  0
 11 13  1  0  0  0  0
 11 14  1  0  0  0  0
 14 15  2  0  0  0  0
 14 24  1  0  0  0  0
 15 16  1  0  0  0  0
 15 17  1  0  0  0  0
 17 18  1  0  0  0  0
 17 19  2  0  0  0  0
 19 20  1  0  0  0  0
 19 22  1  0  0  0  0
 20 21  1  0  0  0  0
 22 23  1  0  0  0  0
 22 24  2  0  0  0  0
 24 25  1  0  0  0  0
 26 27  2  0  0  0  0
 26 28  1  0  0  0  0
 28 29  1  0  0  0  0
 28 30  1  0  0  0  0
 30 31  1  0  0  0  0
 30 32  1  0  0  0  0
 30 33  1  0  0  0  0
M  END
$$$$

  -OEChem-04042216043D

 33 33  0     1  0  0  0  0  0999 V2000
   -3.7728   -4.1489    1.3730 H   0  0  0  0  0  0  0  0  0  0  0  0
   -3.7927   -3.2077    0.8165 C   0  0  0  0  0  0  0  0  0  0  0  0
   -4.5362   -2.5467    1.2683 H   0  0  0  0  0  0  0  0  0  0  0  0
   -4.0797   -3.4153   -0.2172 H   0  0  0  0  0  0  0  0  0  0  0  0
   -2.4263   -2.5495    0.8521 C   0  0  0  0  0  0  0  0  0  0  0  0
   -1.4990   -3.0938    1.4308 O   0  0  0  0  0  0  0  0  0  0  0  0
   -2.2375   -1.3329    0.2313 N   0  0  0  0  0  0  0  0  0  0  0  0
   -3.0625   -0.8648   -0.1424 H   0  0  0  0  0  0  0  0  0  0  0  0
   -1.0105   -0.5273    0.3302 C   0  0  1  0  0  0  0  0  0  0  0  0
   -0.4474   -0.8261    1.2205 H   0  0  0  0  0  0  0  0  0  0  0  0
   -0.1079   -0.8429   -0.8945 C   0  0  0  0  0  0  0  0  0  0  0  0
    0.4620   -1.7445   -0.6474 H   0  0  0  0  0  0  0  0  0  0  0  0
   -0.7670   -1.1118   -1.7265 H   0  0  0  0  0  0  0  0  0  0  0  0
    0.8349    0.2166   -1.4590 C   0  0  0  0  0  0  0  0  0  0  0  0
    0.4847    1.5611   -1.6958 C   0  0  0  0  0  0  0  0  0  0  0  0
   -0.5351    1.9109   -1.5830 H   0  0  0  0  0  0  0  0  0  0  0  0
    1.4323    2.4839   -2.1539 C   0  0  0  0  0  0  0  0  0  0  0  0
    1.1282    3.5085   -2.3377 H   0  0  0  0  0  0  0  0  0  0  0  0
    2.7486    2.0866   -2.3834 C   0  0  0  0  0  0  0  0  0  0  0  0
    3.6785    2.9788   -2.8333 O   0  0  0  0  0  0  0  0  0  0  0  0
    3.2656    3.8441   -2.9776 H   0  0  0  0  0  0  0  0  0  0  0  0
    3.1120    0.7629   -2.1578 C   0  0  0  0  0  0  0  0  0  0  0  0
    4.1371    0.4575   -2.3404 H   0  0  0  0  0  0  0  0  0  0  0  0
    2.1679   -0.1621   -1.7001 C   0  0  0  0  0  0  0  0  0  0  0  0
    2.4867   -1.1859   -1.5261 H   0  0  0  0  0  0  0  0  0  0  0  0
   -1.4068    0.9403    0.5794 C   0  0  0  0  0  0  0  0  0  0  0  0
   -2.4014    1.4083    0.0325 O   0  0  0  0  0  0  0  0  0  0  0  0
   -0.7496    1.6917    1.5362 N   0  0  0  0  0  0  0  0  0  0  0  0
    0.0746    1.2828    1.9682 H   0  0  0  0  0  0  0  0  0  0  0  0
   -1.1035    3.0686    1.8569 C   0  0  0  0  0  0  0  0  0  0  0  0
   -2.1432    3.1283    2.1957 H   0  0  0  0  0  0  0  0  0  0  0  0
   -0.4588    3.4484    2.6552 H   0  0  0  0  0  0  0  0  0  0  0  0
   -0.9810    3.7095    0.9776 H   0  0  0  0  0  0  0  0  0  0  0  0
  1  2  1  0  0  0  0
  2  3  1  0  0  0  0
  2  4  1  0  0  0  0
  2  5  1  0  0  0  0
  5  6  2  0  0  0  0
  5  7  1  0  0  0  0
  7  8  1  0  0  0  0
  7  9  1  0  0  0  0
  9 10  1  0  0  0  0
  9 11  1  0  0  0  0
  9 26  1  0  0  0  0
 11 12  1  0  0  0  0
 11 13  1  0  0  0  0
 11 14  1  0  0  0  0
 14 15  2  0  0  0  0
 14 24  1  0  0  0  0
 15 16  1  0  0  0  0
 15 17  1  0  0  0  0
 17 18  1  0  0  0  0
 17 19  2  0  0  0  0
 19 20  1  0  0  0  0
 19 22  1  0  0  0  0
 20 21  1  0  0  0  0
 22 23  1  0  0  0  0
 22 24  2  0  0  0  0
 24 25  1  0  0  0  0
 26 27  2  0  0  0  0
 26 28  1  0  0  0  0
 28 29  1  0  0  0  0
 28 30  1  0  0  0  0
 30 31  1  0  0  0  0
 30 32  1  0  0  0  0
 30 33  1  0  0  0  0
M  END
$$$$

  -OEChem-04042216043D

 33 33  0     1  0  0  0  0  0999 V2000
   -3.7056   -4.2018    1.2726 H   0  0  0  0  0  0  0  0  0  0  0  0
   -3.7403   -3.2450    0.7442 C   0  0  0  0  0  0  0  0  0  0  0  0
   -4.5167   -2.6219    1.1946 H   0  0  0  0  0  0  0  0  0  0  0  0
   -3.9920   -3.4297   -0.3029 H   0  0  0  0  0  0  0  0  0  0  0  0
   -2.3967   -2.5471    0.8375 C   0  0  0  0  0  0  0  0  0  0  0  0
   -1.4719   -3.0772    1.4330 O   0  0  0  0  0  0  0  0  0  0  0  0
   -2.2218   -1.3136    0.2466 N   0  0  0  0  0  0  0  0  0  0  0  0
   -3.0438   -0.8610   -0.1522 H   0  0  0  0  0  0  0  0  0  0  0  0
   -1.0114   -0.4878    0.3825 C   0  0  1  0  0  0  0  0  0  0  0  0
   -0.4469   -0.7924    1.2699 H   0  0  0  0  0  0  0  0  0  0  0  0
   -0.1047   -0.7658   -0.8502 C   0  0  0  0  0  0  0  0  0  0  0  0
    0.4678   -1.6677   -0.6089 H   0  0  0  0  0  0  0  0  0  0  0  0
   -0.7664   -1.0312   -1.6814 H   0  0  0  0  0  0  0  0  0  0  0  0
    0.8485    0.2770   -1.4379 C   0  0  0  0  0  0  0  0  0  0  0  0
    0.6765    1.6780   -1.4286 C   0  0  0  0  0  0  0  0  0  0  0  0
   -0.2246    2.1567   -1.0716 H   0  0  0  0  0  0  0  0  0  0  0  0
    1.6550    2.5302   -1.9543 C   0  0  0  0  0  0  0  0  0  0  0  0
    1.4862    3.6013   -1.9410 H   0  0  0  0  0  0  0  0  0  0  0  0
    2.8255    2.0099   -2.5020 C   0  0  0  0  0  0  0  0  0  0  0  0
    3.7815    2.8356   -3.0188 O   0  0  0  0  0  0  0  0  0  0  0  0
    3.4875    3.7578   -2.9637 H   0  0  0  0  0  0  0  0  0  0  0  0
    3.0117    0.6329   -2.5275 C   0  0  0  0  0  0  0  0  0  0  0  0
    3.9224    0.2299   -2.9586 H   0  0  0  0  0  0  0  0  0  0  0  0
    2.0368   -0.2218   -2.0040 C   0  0  0  0  0  0  0  0  0  0  0  0
    2.2183   -1.2923   -2.0371 H   0  0  0  0  0  0  0  0  0  0  0  0
   -1.4591    0.9583    0.6567 C   0  0  0  0  0  0  0  0  0  0  0  0
   -2.4296    1.4261    0.0689 O   0  0  0  0  0  0  0  0  0  0  0  0
   -0.8434    1.7072    1.6432 N   0  0  0  0  0  0  0  0  0  0  0  0
   -0.0508    1.2899    2.1239 H   0  0  0  0  0  0  0  0  0  0  0  0
   -1.2505    3.0617    1.9960 C   0  0  0  0  0  0  0  0  0  0  0  0
   -2.2933    3.0739    2.3301 H   0  0  0  0  0  0  0  0  0  0  0  0
   -0.6235    3.4459    2.8064 H   0  0  0  0  0  0  0  0  0  0  0  0
   -1.1485    3.7290    1.1339 H   0  0  0  0  0  0  0  0  0  0  0  0
  1  2  1  0  0  0  0
  2  3  1  0  0  0  0
  2  4  1  0  0  0  0
  2  5  1  0  0  0  0
  5  6  2  0  0  0  0
  5  7  1  0  0  0  0
  7  8  1  0  0  0  0
  7  9  1  0  0  0  0
  9 10  1  0  0  0  0
  9 11  1  0  0  0  0
  9 26  1  0  0  0  0
 11 12  1  0  0  0  0
 11 13  1  0  0  0  0
 11 14  1  0  0  0  0
 14 15  2  0  0  0  0
 14 24  1  0  0  0  0
 15 16  1  0  0  0  0
 15 17  1  0  0  0  0
 17 18  1  0  0  0  0
 17 19  2  0  0  0  0
 19 20  1  0  0  0  0
 19 22  1  0  0  0  0
 20 21  1  0  0  0  0
 22 23  1  0  0  0  0
 22 24  2  0  0  0  0
 24 25  1  0  0  0  0
 26 27  2  0  0  0  0
 26 28  1  0  0  0  0
 28 29  1  0  0  0  0
 28 30  1  0  0  0  0
 30 31  1  0  0  0  0
 30 32  1  0  0  0  0
 30 33  1  0  0  0  0
M  END
$$$$

  -OEChem-04042216043D

 33 33  0     1  0  0  0  0  0999 V2000
   -3.7018   -4.2038    1.1795 H   0  0  0  0  0  0  0  0  0  0  0  0
   -3.7184   -3.2416    0.6600 C   0  0  0  0  0  0  0  0  0  0  0  0
   -4.5180   -2.6274    1.0812 H   0  0  0  0  0  0  0  0  0  0  0  0
   -3.9217   -3.4167   -0.3993 H   0  0  0  0  0  0  0  0  0  0  0  0
   -2.3847   -2.5370    0.8209 C   0  0  0  0  0  0  0  0  0  0  0  0
   -1.4855   -3.0655    1.4554 O   0  0  0  0  0  0  0  0  0  0  0  0
   -2.1912   -1.2972    0.2496 N   0  0  0  0  0  0  0  0  0  0  0  0
   -2.9950   -0.8478   -0.1883 H   0  0  0  0  0  0  0  0  0  0  0  0
   -0.9883   -0.4697    0.4352 C   0  0  1  0  0  0  0  0  0  0  0  0
   -0.4349   -0.7822    1.3265 H   0  0  0  0  0  0  0  0  0  0  0  0
   -0.0779   -0.7227   -0.8019 C   0  0  0  0  0  0  0  0  0  0  0  0
    0.4922   -1.6302   -0.5747 H   0  0  0  0  0  0  0  0  0  0  0  0
   -0.7414   -0.9711   -1.6373 H   0  0  0  0  0  0  0  0  0  0  0  0
    0.8934    0.3043   -1.3889 C   0  0  0  0  0  0  0  0  0  0  0  0
    0.9373    1.6935   -1.1408 C   0  0  0  0  0  0  0  0  0  0  0  0
    0.2268    2.2099   -0.5152 H   0  0  0  0  0  0  0  0  0  0  0  0
    1.9076    2.5047   -1.7422 C   0  0  0  0  0  0  0  0  0  0  0  0
    1.9082    3.5698   -1.5381 H   0  0  0  0  0  0  0  0  0  0  0  0
    2.8567    1.9557   -2.6016 C   0  0  0  0  0  0  0  0  0  0  0  0
    3.8022    2.7431   -3.1923 O   0  0  0  0  0  0  0  0  0  0  0  0
    3.6619    3.6703   -2.9461 H   0  0  0  0  0  0  0  0  0  0  0  0
    2.8300    0.5911   -2.8615 C   0  0  0  0  0  0  0  0  0  0  0  0
    3.5678    0.1655   -3.5336 H   0  0  0  0  0  0  0  0  0  0  0  0
    1.8613   -0.2216   -2.2650 C   0  0  0  0  0  0  0  0  0  0  0  0
    1.8674   -1.2844   -2.4901 H   0  0  0  0  0  0  0  0  0  0  0  0
   -1.4748    0.9648    0.7063 C   0  0  0  0  0  0  0  0  0  0  0  0
   -2.4017    1.4396    0.0585 O   0  0  0  0  0  0  0  0  0  0  0  0
   -0.9104    1.7121    1.7253 N   0  0  0  0  0  0  0  0  0  0  0  0
   -0.1792    1.2740    2.2791 H   0  0  0  0  0  0  0  0  0  0  0  0
   -1.3654    3.0490    2.0870 C   0  0  0  0  0  0  0  0  0  0  0  0
   -2.4137    3.0248    2.4032 H   0  0  0  0  0  0  0  0  0  0  0  0
   -0.7639    3.4425    2.9123 H   0  0  0  0  0  0  0  0  0  0  0  0
   -1.2700    3.7302    1.2349 H   0  0  0  0  0  0  0  0  0  0  0  0
  1  2  1  0  0  0  0
  2  3  1  0  0  0  0
  2  4  1  0  0  0  0
  2  5  1  0  0  0  0
  5  6  2  0  0  0  0
  5  7  1  0  0  0  0
  7  8  1  0  0  0  0
  7  9  1  0  0  0  0
  9 10  1  0  0  0  0
  9 11  1  0  0  0  0
  9 26  1  0  0  0  0
 11 12  1  0  0  0  0
 11 13  1  0  0  0  0
 11 14  1  0  0  0  0
 14 15  2  0  0  0  0
 14 24  1  0  0  0  0
 15 16  1  0  0  0  0
 15 17  1  0  0  0  0
 17 18  1  0  0  0  0
 17 19  2  0  0  0  0
 19 20  1  0  0  0  0
 19 22  1  0  0  0  0
 20 21  1  0  0  0  0
 22 23  1  0  0  0  0
 22 24  2  0  0  0  0
 24 25  1  0  0  0  0
 26 27  2  0  0  0  0
 26 28  1  0  0  0  0
 28 29  1  0  0  0  0
 28 30  1  0  0  0  0
 30 31  1  0  0  0  0
 30 32  1  0  0  0  0
 30 33  1  0  0  0  0
M  END
$$$$

  -OEChem-04042216043D

 33 33  0     1  0  0  0  0  0999 V2000
   -3.7708   -4.1424    1.1487 H   0  0  0  0  0  0  0  0  0  0  0  0
   -3.7398   -3.1971    0.5998 C   0  0  0  0  0  0  0  0  0  0  0  0
   -4.5485   -2.5552    0.9576 H   0  0  0  0  0  0  0  0  0  0  0  0
   -3.8902   -3.4020   -0.4629 H   0  0  0  0  0  0  0  0  0  0  0  0
   -2.4025   -2.5125    0.8110 C   0  0  0  0  0  0  0  0  0  0  0  0
   -1.5445   -3.0421    1.4994 O   0  0  0  0  0  0  0  0  0  0  0  0
   -2.1611   -1.2853    0.2311 N   0  0  0  0  0  0  0  0  0  0  0  0
   -2.9360   -0.8289   -0.2501 H   0  0  0  0  0  0  0  0  0  0  0  0
   -0.9553   -0.4732    0.4653 C   0  0  1  0  0  0  0  0  0  0  0  0
   -0.4293   -0.7807    1.3749 H   0  0  0  0  0  0  0  0  0  0  0  0
   -0.0331   -0.7413   -0.7614 C   0  0  0  0  0  0  0  0  0  0  0  0
    0.5212   -1.6579   -0.5331 H   0  0  0  0  0  0  0  0  0  0  0  0
   -0.6906   -0.9741   -1.6065 H   0  0  0  0  0  0  0  0  0  0  0  0
    0.9671    0.2646   -1.3291 C   0  0  0  0  0  0  0  0  0  0  0  0
    1.2293    1.5688   -0.8633 C   0  0  0  0  0  0  0  0  0  0  0  0
    0.7381    1.9946   -0.0052 H   0  0  0  0  0  0  0  0  0  0  0  0
    2.1685    2.3894   -1.5011 C   0  0  0  0  0  0  0  0  0  0  0  0
    2.3446    3.3897   -1.1210 H   0  0  0  0  0  0  0  0  0  0  0  0
    2.8707    1.9286   -2.6130 C   0  0  0  0  0  0  0  0  0  0  0  0
    3.7863    2.7232   -3.2407 O   0  0  0  0  0  0  0  0  0  0  0  0
    3.8136    3.5957   -2.8191 H   0  0  0  0  0  0  0  0  0  0  0  0
    2.6322    0.6426   -3.0832 C   0  0  0  0  0  0  0  0  0  0  0  0
    3.1809    0.2843   -3.9480 H   0  0  0  0  0  0  0  0  0  0  0  0
    1.6929   -0.1771   -2.4503 C   0  0  0  0  0  0  0  0  0  0  0  0
    1.5250   -1.1756   -2.8439 H   0  0  0  0  0  0  0  0  0  0  0  0
   -1.4616    0.9673    0.6867 C   0  0  0  0  0  0  0  0  0  0  0  0
   -2.3509    1.4286   -0.0211 O   0  0  0  0  0  0  0  0  0  0  0  0
   -0.9600    1.7364    1.7234 N   0  0  0  0  0  0  0  0  0  0  0  0
   -0.2908    1.2978    2.3504 H   0  0  0  0  0  0  0  0  0  0  0  0
   -1.4604    3.0673    2.0458 C   0  0  0  0  0  0  0  0  0  0  0  0
   -2.5236    3.0240    2.3043 H   0  0  0  0  0  0  0  0  0  0  0  0
   -0.9136    3.4811    2.8984 H   0  0  0  0  0  0  0  0  0  0  0  0
   -1.3318    3.7417    1.1926 H   0  0  0  0  0  0  0  0  0  0  0  0
  1  2  1  0  0  0  0
  2  3  1  0  0  0  0
  2  4  1  0  0  0  0
  2  5  1  0  0  0  0
  5  6  2  0  0  0  0
  5  7  1  0  0  0  0
  7  8  1  0  0  0  0
  7  9  1  0  0  0  0
  9 10  1  0  0  0  0
  9 11  1  0  0  0  0
  9 26  1  0  0  0  0
 11 12  1  0  0  0  0
 11 13  1  0  0  0  0
 11 14  1  0  0  0  0
 14 15  2  0  0  0  0
 14 24  1  0  0  0  0
 15 16  1  0  0  0  0
 15 17  1  0  0  0  0
 17 18  1  0  0  0  0
 17 19  2  0  0  0  0
 19 20  1  0  0  0  0
 19 22  1  0  0  0  0
 20 21  1  0  0  0  0
 22 23  1  0  0  0  0
 22 24  2  0  0  0  0
 24 25  1  0  0  0  0
 26 27  2  0  0  0  0
 26 28  1  0  0  0  0
 28 29  1  0  0  0  0
 28 30  1  0  0  0  0
 30 31  1  0  0  0  0
 30 32  1  0  0  0  0
 30 33  1  0  0  0  0
M  END
$$$$

  -OEChem-04042216043D

 33 33  0     1  0  0  0  0  0999 V2000
   -3.8865   -4.0701    1.1886 H   0  0  0  0  0  0  0  0  0  0  0  0
   -3.8196   -3.1323    0.6301 C   0  0  0  0  0  0  0  0  0  0  0  0
   -4.5977   -2.4532    0.9871 H   0  0  0  0  0  0  0  0  0  0  0  0
   -3.9853   -3.3408   -0.4297 H   0  0  0  0  0  0  0  0  0  0  0  0
   -2.4531   -2.5032    0.8261 C   0  0  0  0  0  0  0  0  0  0  0  0
   -1.6163   -3.0600    1.5194 O   0  0  0  0  0  0  0  0  0  0  0  0
   -2.1599   -1.2962    0.2278 N   0  0  0  0  0  0  0  0  0  0  0  0
   -2.9163   -0.8088   -0.2527 H   0  0  0  0  0  0  0  0  0  0  0  0
   -0.9173   -0.5378    0.4485 C   0  0  1  0  0  0  0  0  0  0  0  0
   -0.3844   -0.8612    1.3483 H   0  0  0  0  0  0  0  0  0  0  0  0
   -0.0408   -0.8155   -0.8076 C   0  0  0  0  0  0  0  0  0  0  0  0
    0.4932   -1.7534   -0.6242 H   0  0  0  0  0  0  0  0  0  0  0  0
   -0.7267   -1.0018   -1.6418 H   0  0  0  0  0  0  0  0  0  0  0  0
    0.9716    0.1929   -1.3399 C   0  0  0  0  0  0  0  0  0  0  0  0
    1.4609    1.3131   -0.6431 C   0  0  0  0  0  0  0  0  0  0  0  0
    1.2011    1.4992    0.3871 H   0  0  0  0  0  0  0  0  0  0  0  0
    2.3573    2.2039   -1.2460 C   0  0  0  0  0  0  0  0  0  0  0  0
    2.7197    3.0567   -0.6828 H   0  0  0  0  0  0  0  0  0  0  0  0
    2.7879    1.9926   -2.5551 C   0  0  0  0  0  0  0  0  0  0  0  0
    3.6610    2.8560   -3.1513 O   0  0  0  0  0  0  0  0  0  0  0  0
    3.8599    3.5927   -2.5534 H   0  0  0  0  0  0  0  0  0  0  0  0
    2.3246    0.8838   -3.2549 C   0  0  0  0  0  0  0  0  0  0  0  0
    2.6647    0.7198   -4.2721 H   0  0  0  0  0  0  0  0  0  0  0  0
    1.4266   -0.0051   -2.6555 C   0  0  0  0  0  0  0  0  0  0  0  0
    1.0753   -0.8580   -3.2290 H   0  0  0  0  0  0  0  0  0  0  0  0
   -1.3759    0.9258    0.6499 C   0  0  0  0  0  0  0  0  0  0  0  0
   -2.2517    1.4014   -0.0658 O   0  0  0  0  0  0  0  0  0  0  0  0
   -0.8555    1.7017    1.6719 N   0  0  0  0  0  0  0  0  0  0  0  0
   -0.2198    1.2513    2.3243 H   0  0  0  0  0  0  0  0  0  0  0  0
   -1.2975    3.0635    1.9469 C   0  0  0  0  0  0  0  0  0  0  0  0
   -2.3601    3.0757    2.2108 H   0  0  0  0  0  0  0  0  0  0  0  0
   -0.7283    3.4845    2.7811 H   0  0  0  0  0  0  0  0  0  0  0  0
   -1.1445    3.7004    1.0692 H   0  0  0  0  0  0  0  0  0  0  0  0
  1  2  1  0  0  0  0
  2  3  1  0  0  0  0
  2  4  1  0  0  0  0
  2  5  1  0  0  0  0
  5  6  2  0  0  0  0
  5  7  1  0  0  0  0
  7  8  1  0  0  0  0
  7  9  1  0  0  0  0
  9 10  1  0  0  0  0
  9 11  1  0  0  0  0
  9 26  1  0  0  0  0
 11 12  1  0  0  0  0
 11 13  1  0  0  0  0
 11 14  1  0  0  0  0
 14 15  2  0  0  0  0
 14 24  1  0  0  0  0
 15 16  1  0  0  0  0
 15 17  1  0  0  0  0
 17 18  1  0  0  0  0
 17 19  2  0  0  0  0
 19 20  1  0  0  0  0
 19 22  1  0  0  0  0
 20 21  1  0  0  0  0
 22 23  1  0  0  0  0
 22 24  2  0  0  0  0
 24 25  1  0  0  0  0
 26 27  2  0  0  0  0
 26 28  1  0  0  0  0
 28 29  1  0  0  0  0
 28 30  1  0  0  0  0
 30 31  1  0  0  0  0
 30 32  1  0  0  0  0
 30 33  1  0  0  0  0
M  END
$$$$

  -OEChem-04042216043D

 33 33  0     1  0  0  0  0  0999 V2000
   -3.9430   -4.0208    1.3202 H   0  0  0  0  0  0  0  0  0  0  0  0
   -3.8642   -3.1030    0.7308 C   0  0  0  0  0  0  0  0  0  0  0  0
   -4.6164   -2.3924    1.0824 H   0  0  0  0  0  0  0  0  0  0  0  0
   -4.0587   -3.3397   -0.3182 H   0  0  0  0  0  0  0  0  0  0  0  0
   -2.4778   -2.5048    0.8769 C   0  0  0  0  0  0  0  0  0  0  0  0
   -1.6426   -3.0549    1.5774 O   0  0  0  0  0  0  0  0  0  0  0  0
   -2.1660   -1.3312    0.2249 N   0  0  0  0  0  0  0  0  0  0  0  0
   -2.9209   -0.8431   -0.2574 H   0  0  0  0  0  0  0  0  0  0  0  0
   -0.9047   -0.5928    0.3969 C   0  0  1  0  0  0  0  0  0  0  0  0
   -0.3648   -0.8969    1.2994 H   0  0  0  0  0  0  0  0  0  0  0  0
   -0.0473   -0.9043   -0.8596 C   0  0  0  0  0  0  0  0  0  0  0  0
    0.4956   -1.8356   -0.6702 H   0  0  0  0  0  0  0  0  0  0  0  0
   -0.7363   -1.1035   -1.6878 H   0  0  0  0  0  0  0  0  0  0  0  0
    0.9498    0.1292   -1.3629 C   0  0  0  0  0  0  0  0  0  0  0  0
    1.6128    1.0445   -0.5263 C   0  0  0  0  0  0  0  0  0  0  0  0
    1.4914    1.0013    0.5486 H   0  0  0  0  0  0  0  0  0  0  0  0
    2.4848    2.0029   -1.0565 C   0  0  0  0  0  0  0  0  0  0  0  0
    2.9859    2.6955   -0.3896 H   0  0  0  0  0  0  0  0  0  0  0  0
    2.7130    2.0610   -2.4315 C   0  0  0  0  0  0  0  0  0  0  0  0
    3.5612    2.9909   -2.9598 O   0  0  0  0  0  0  0  0  0  0  0  0
    3.9091    3.5608   -2.2572 H   0  0  0  0  0  0  0  0  0  0  0  0
    2.0710    1.1555   -3.2711 C   0  0  0  0  0  0  0  0  0  0  0  0
    2.2521    1.2042   -4.3398 H   0  0  0  0  0  0  0  0  0  0  0  0
    1.1976    0.1982   -2.7442 C   0  0  0  0  0  0  0  0  0  0  0  0
    0.7034   -0.4911   -3.4229 H   0  0  0  0  0  0  0  0  0  0  0  0
   -1.3127    0.8930    0.5440 C   0  0  0  0  0  0  0  0  0  0  0  0
   -2.1964    1.3598   -0.1684 O   0  0  0  0  0  0  0  0  0  0  0  0
   -0.7520    1.6947    1.5234 N   0  0  0  0  0  0  0  0  0  0  0  0
   -0.1130    1.2560    2.1796 H   0  0  0  0  0  0  0  0  0  0  0  0
   -1.1442    3.0814    1.7426 C   0  0  0  0  0  0  0  0  0  0  0  0
   -2.2037    3.1427    2.0122 H   0  0  0  0  0  0  0  0  0  0  0  0
   -0.5544    3.5176    2.5545 H   0  0  0  0  0  0  0  0  0  0  0  0
   -0.9758    3.6737    0.8369 H   0  0  0  0  0  0  0  0  0  0  0  0
  1  2  1  0  0  0  0
  2  3  1  0  0  0  0
  2  4  1  0  0  0  0
  2  5  1  0  0  0  0
  5  6  2  0  0  0  0
  5  7  1  0  0  0  0
  7  8  1  0  0  0  0
  7  9  1  0  0  0  0
  9 10  1  0  0  0  0
  9 11  1  0  0  0  0
  9 26  1  0  0  0  0
 11 12  1  0  0  0  0
 11 13  1  0  0  0  0
 11 14  1  0  0  0  0
 14 15  2  0  0  0  0
 14 24  1  0  0  0  0
 15 16  1  0  0  0  0
 15 17  1  0  0  0  0
 17 18  1  0  0  0  0
 17 19  2  0  0  0  0
 19 20  1  0  0  0  0
 19 22  1  0  0  0  0
 20 21  1  0  0  0  0
 22 23  1  0  0  0  0
 22 24  2  0  0  0  0
 24 25  1  0  0  0  0
 26 27  2  0  0  0  0
 26 28  1  0  0  0  0
 28 29  1  0  0  0  0
 28 30  1  0  0  0  0
 30 31  1  0  0  0  0
 30 32  1  0  0  0  0
 30 33  1  0  0  0  0
M  END
$$$$

  -OEChem-04042216043D

 33 33  0     1  0  0  0  0  0999 V2000
   -3.9575   -3.9935    1.4660 H   0  0  0  0  0  0  0  0  0  0  0  0
   -3.8857   -3.0990    0.8411 C   0  0  0  0  0  0  0  0  0  0  0  0
   -4.6102   -2.3624    1.1967 H   0  0  0  0  0  0  0  0  0  0  0  0
   -4.1266   -3.3686   -0.1899 H   0  0  0  0  0  0  0  0  0  0  0  0
   -2.4842   -2.5225    0.9112 C   0  0  0  0  0  0  0  0  0  0  0  0
   -1.6305   -3.0692    1.5921 O   0  0  0  0  0  0  0  0  0  0  0  0
   -2.1805   -1.3703    0.2176 N   0  0  0  0  0  0  0  0  0  0  0  0
   -2.9472   -0.8818   -0.2449 H   0  0  0  0  0  0  0  0  0  0  0  0
   -0.9091   -0.6397    0.3360 C   0  0  1  0  0  0  0  0  0  0  0  0
   -0.3561   -0.9287    1.2354 H   0  0  0  0  0  0  0  0  0  0  0  0
   -0.0654   -0.9691   -0.9207 C   0  0  0  0  0  0  0  0  0  0  0  0
    0.4954   -1.8891   -0.7278 H   0  0  0  0  0  0  0  0  0  0  0  0
   -0.7531   -1.1839   -1.7456 H   0  0  0  0  0  0  0  0  0  0  0  0
    0.9018    0.1011   -1.3946 C   0  0  0  0  0  0  0  0  0  0  0  0
    1.7368    0.7918   -0.4995 C   0  0  0  0  0  0  0  0  0  0  0  0
    1.7366    0.5369    0.5550 H   0  0  0  0  0  0  0  0  0  0  0  0
    2.5977    1.7974   -0.9548 C   0  0  0  0  0  0  0  0  0  0  0  0
    3.2369    2.3149   -0.2482 H   0  0  0  0  0  0  0  0  0  0  0  0
    2.6353    2.1278   -2.3103 C   0  0  0  0  0  0  0  0  0  0  0  0
    3.4711    3.1061   -2.7663 O   0  0  0  0  0  0  0  0  0  0  0  0
    3.9703    3.4883   -2.0286 H   0  0  0  0  0  0  0  0  0  0  0  0
    1.8123    1.4498   -3.2060 C   0  0  0  0  0  0  0  0  0  0  0  0
    1.8448    1.7136   -4.2580 H   0  0  0  0  0  0  0  0  0  0  0  0
    0.9502    0.4442   -2.7552 C   0  0  0  0  0  0  0  0  0  0  0  0
    0.3117   -0.0631   -3.4726 H   0  0  0  0  0  0  0  0  0  0  0  0
   -1.2750    0.8594    0.4533 C   0  0  0  0  0  0  0  0  0  0  0  0
   -2.1828    1.3227   -0.2308 O   0  0  0  0  0  0  0  0  0  0  0  0
   -0.6645    1.6705    1.3939 N   0  0  0  0  0  0  0  0  0  0  0  0
    0.0366    1.2505    1.9957 H   0  0  0  0  0  0  0  0  0  0  0  0
   -0.9767    3.0852    1.5542 C   0  0  0  0  0  0  0  0  0  0  0  0
   -2.0354    3.2197    1.7996 H   0  0  0  0  0  0  0  0  0  0  0  0
   -0.3777    3.5154    2.3624 H   0  0  0  0  0  0  0  0  0  0  0  0
   -0.7558    3.6320    0.6313 H   0  0  0  0  0  0  0  0  0  0  0  0
  1  2  1  0  0  0  0
  2  3  1  0  0  0  0
  2  4  1  0  0  0  0
  2  5  1  0  0  0  0
  5  6  2  0  0  0  0
  5  7  1  0  0  0  0
  7  8  1  0  0  0  0
  7  9  1  0  0  0  0
  9 10  1  0  0  0  0
  9 11  1  0  0  0  0
  9 26  1  0  0  0  0
 11 12  1  0  0  0  0
 11 13  1  0  0  0  0
 11 14  1  0  0  0  0
 14 15  2  0  0  0  0
 14 24  1  0  0  0  0
 15 16  1  0  0  0  0
 15 17  1  0  0  0  0
 17 18  1  0  0  0  0
 17 19  2  0  0  0  0
 19 20  1  0  0  0  0
 19 22  1  0  0  0  0
 20 21  1  0  0  0  0
 22 23  1  0  0  0  0
 22 24  2  0  0  0  0
 24 25  1  0  0  0  0
 26 27  2  0  0  0  0
 26 28  1  0  0  0  0
 28 29  1  0  0  0  0
 28 30  1  0  0  0  0
 30 31  1  0  0  0  0
 30 32  1  0  0  0  0
 30 33  1  0  0  0  0
M  END
$$$$

  -OEChem-04042216043D

 33 33  0     1  0  0  0  0  0999 V2000
   -3.9501   -3.9872    1.5451 H   0  0  0  0  0  0  0  0  0  0  0  0
   -3.8883   -3.1061    0.9001 C   0  0  0  0  0  0  0  0  0  0  0  0
   -4.6053   -2.3604    1.2521 H   0  0  0  0  0  0  0  0  0  0  0  0
   -4.1476   -3.3973   -0.1206 H   0  0  0  0  0  0  0  0  0  0  0  0
   -2.4849   -2.5313    0.9330 C   0  0  0  0  0  0  0  0  0  0  0  0
   -1.6173   -3.0731    1.5999 O   0  0  0  0  0  0  0  0  0  0  0  0
   -2.1930   -1.3921    0.2134 N   0  0  0  0  0  0  0  0  0  0  0  0
   -2.9696   -0.9044   -0.2328 H   0  0  0  0  0  0  0  0  0  0  0  0
   -0.9169   -0.6656    0.2926 C   0  0  1  0  0  0  0  0  0  0  0  0
   -0.3551   -0.9437    1.1898 H   0  0  0  0  0  0  0  0  0  0  0  0
   -0.0805   -1.0131   -0.9599 C   0  0  0  0  0  0  0  0  0  0  0  0
    0.4940   -1.9232   -0.7598 H   0  0  0  0  0  0  0  0  0  0  0  0
   -0.7622   -1.2426   -1.7857 H   0  0  0  0  0  0  0  0  0  0  0  0
    0.8603    0.0845   -1.4117 C   0  0  0  0  0  0  0  0  0  0  0  0
    1.8703    0.5537   -0.5562 C   0  0  0  0  0  0  0  0  0  0  0  0
    2.0073    0.1007    0.4208 H   0  0  0  0  0  0  0  0  0  0  0  0
    2.7165    1.5941   -0.9572 C   0  0  0  0  0  0  0  0  0  0  0  0
    3.4943    1.9401   -0.2853 H   0  0  0  0  0  0  0  0  0  0  0  0
    2.5600    2.1790   -2.2156 C   0  0  0  0  0  0  0  0  0  0  0  0
    3.3803    3.1924   -2.6196 O   0  0  0  0  0  0  0  0  0  0  0  0
    4.0366    3.3845   -1.9328 H   0  0  0  0  0  0  0  0  0  0  0  0
    1.5563    1.7227   -3.0675 C   0  0  0  0  0  0  0  0  0  0  0  0
    1.4372    2.1867   -4.0411 H   0  0  0  0  0  0  0  0  0  0  0  0
    0.7075    0.6834   -2.6714 C   0  0  0  0  0  0  0  0  0  0  0  0
   -0.0777    0.3534   -3.3456 H   0  0  0  0  0  0  0  0  0  0  0  0
   -1.2497    0.8415    0.3934 C   0  0  0  0  0  0  0  0  0  0  0  0
   -2.1723    1.3073   -0.2690 O   0  0  0  0  0  0  0  0  0  0  0  0
   -0.5990    1.6518    1.3066 N   0  0  0  0  0  0  0  0  0  0  0  0
    0.1685    1.2449    1.8313 H   0  0  0  0  0  0  0  0  0  0  0  0
   -0.8452    3.0839    1.4161 C   0  0  0  0  0  0  0  0  0  0  0  0
   -1.9003    3.2766    1.6375 H   0  0  0  0  0  0  0  0  0  0  0  0
   -0.2411    3.5110    2.2221 H   0  0  0  0  0  0  0  0  0  0  0  0
   -0.5829    3.5882    0.4800 H   0  0  0  0  0  0  0  0  0  0  0  0
  1  2  1  0  0  0  0
  2  3  1  0  0  0  0
  2  4  1  0  0  0  0
  2  5  1  0  0  0  0
  5  6  2  0  0  0  0
  5  7  1  0  0  0  0
  7  8  1  0  0  0  0
  7  9  1  0  0  0  0
  9 10  1  0  0  0  0
  9 11  1  0  0  0  0
  9 26  1  0  0  0  0
 11 12  1  0  0  0  0
 11 13  1  0  0  0  0
 11 14  1  0  0  0  0
 14 15  2  0  0  0  0
 14 24  1  0  0  0  0
 15 16  1  0  0  0  0
 15 17  1  0  0  0  0
 17 18  1  0  0  0  0
 17 19  2  0  0  0  0
 19 20  1  0  0  0  0
 19 22  1  0  0  0  0
 20 21  1  0  0  0  0
 22 23  1  0  0  0  0
 22 24  2  0  0  0  0
 24 25  1  0  0  0  0
 26 27  2  0  0  0  0
 26 28  1  0  0  0  0
 28 29  1  0  0  0  0
 28 30  1  0  0  0  0
 30 31  1  0  0  0  0
 30 32  1  0  0  0  0
 30 33  1  0  0  0  0
M  END
$$$$

  -OEChem-04042216043D

 33 33  0     1  0  0  0  0  0999 V2000
   -3.9390   -3.9885    1.5742 H   0  0  0  0  0  0  0  0  0  0  0  0
   -3.8848   -3.1100    0.9255 C   0  0  0  0  0  0  0  0  0  0  0  0
   -4.5953   -2.3620    1.2857 H   0  0  0  0  0  0  0  0  0  0  0  0
   -4.1594   -3.4039   -0.0904 H   0  0  0  0  0  0  0  0  0  0  0  0
   -2.4798   -2.5383    0.9356 C   0  0  0  0  0  0  0  0  0  0  0  0
   -1.6020   -3.0820    1.5877 O   0  0  0  0  0  0  0  0  0  0  0  0
   -2.1981   -1.4014    0.2086 N   0  0  0  0  0  0  0  0  0  0  0  0
   -2.9821   -0.9124   -0.2224 H   0  0  0  0  0  0  0  0  0  0  0  0
   -0.9222   -0.6738    0.2687 C   0  0  1  0  0  0  0  0  0  0  0  0
   -0.3538   -0.9474    1.1633 H   0  0  0  0  0  0  0  0  0  0  0  0
   -0.0879   -1.0256   -0.9821 C   0  0  0  0  0  0  0  0  0  0  0  0
    0.4916   -1.9326   -0.7821 H   0  0  0  0  0  0  0  0  0  0  0  0
   -0.7655   -1.2577   -1.8107 H   0  0  0  0  0  0  0  0  0  0  0  0
    0.8367    0.0872   -1.4233 C   0  0  0  0  0  0  0  0  0  0  0  0
    2.0131    0.3486   -0.7041 C   0  0  0  0  0  0  0  0  0  0  0  0
    2.2774   -0.2715    0.1479 H   0  0  0  0  0  0  0  0  0  0  0  0
    2.8580    1.3982   -1.0839 C   0  0  0  0  0  0  0  0  0  0  0  0
    3.7673    1.5822   -0.5221 H   0  0  0  0  0  0  0  0  0  0  0  0
    2.5310    2.2002   -2.1797 C   0  0  0  0  0  0  0  0  0  0  0  0
    3.3478    3.2255   -2.5603 O   0  0  0  0  0  0  0  0  0  0  0  0
    4.1376    3.2489   -1.9989 H   0  0  0  0  0  0  0  0  0  0  0  0
    1.3583    1.9520   -2.8904 C   0  0  0  0  0  0  0  0  0  0  0  0
    1.1065    2.5850   -3.7350 H   0  0  0  0  0  0  0  0  0  0  0  0
    0.5113    0.9031   -2.5171 C   0  0  0  0  0  0  0  0  0  0  0  0
   -0.4079    0.7361   -3.0718 H   0  0  0  0  0  0  0  0  0  0  0  0
   -1.2455    0.8348    0.3689 C   0  0  0  0  0  0  0  0  0  0  0  0
   -2.1815    1.3005   -0.2750 O   0  0  0  0  0  0  0  0  0  0  0  0
   -0.5768    1.6426    1.2704 N   0  0  0  0  0  0  0  0  0  0  0  0
    0.2223    1.2412    1.7509 H   0  0  0  0  0  0  0  0  0  0  0  0
   -0.8042    3.0787    1.3664 C   0  0  0  0  0  0  0  0  0  0  0  0
   -1.8557    3.2871    1.5906 H   0  0  0  0  0  0  0  0  0  0  0  0
   -0.1909    3.5060    2.1652 H   0  0  0  0  0  0  0  0  0  0  0  0
   -0.5400    3.5699    0.4239 H   0  0  0  0  0  0  0  0  0  0  0  0
  1  2  1  0  0  0  0
  2  3  1  0  0  0  0
  2  4  1  0  0  0  0
  2  5  1  0  0  0  0
  5  6  2  0  0  0  0
  5  7  1  0  0  0  0
  7  8  1  0  0  0  0
  7  9  1  0  0  0  0
  9 10  1  0  0  0  0
  9 11  1  0  0  0  0
  9 26  1  0  0  0  0
 11 12  1  0  0  0  0
 11 13  1  0  0  0  0
 11 14  1  0  0  0  0
 14 15  2  0  0  0  0
 14 24  1  0  0  0  0
 15 16  1  0  0  0  0
 15 17  1  0  0  0  0
 17 18  1  0  0  0  0
 17 19  2  0  0  0  0
 19 20  1  0  0  0  0
 19 22  1  0  0  0  0
 20 21  1  0  0  0  0
 22 23  1  0  0  0  0
 22 24  2  0  0  0  0
 24 25  1  0  0  0  0
 26 27  2  0  0  0  0
 26 28  1  0  0  0  0
 28 29  1  0  0  0  0
 28 30  1  0  0  0  0
 30 31  1  0  0  0  0
 30 32  1  0  0  0  0
 30 33  1  0  0  0  0
M  END
$$$$

  -OEChem-04042216043D

 33 33  0     1  0  0  0  0  0999 V2000
   -3.9241   -4.0135    1.5546 H   0  0  0  0  0  0  0  0  0  0  0  0
   -3.8781   -3.1298    0.9122 C   0  0  0  0  0  0  0  0  0  0  0  0
   -4.5958   -2.3913    1.2778 H   0  0  0  0  0  0  0  0  0  0  0  0
   -4.1500   -3.4194   -0.1056 H   0  0  0  0  0  0  0  0  0  0  0  0
   -2.4785   -2.5446    0.9259 C   0  0  0  0  0  0  0  0  0  0  0  0
   -1.5921   -3.0904    1.5647 O   0  0  0  0  0  0  0  0  0  0  0  0
   -2.2106   -1.3961    0.2118 N   0  0  0  0  0  0  0  0  0  0  0  0
   -3.0017   -0.9093   -0.2088 H   0  0  0  0  0  0  0  0  0  0  0  0
   -0.9400   -0.6590    0.2711 C   0  0  1  0  0  0  0  0  0  0  0  0
   -0.3701   -0.9374    1.1634 H   0  0  0  0  0  0  0  0  0  0  0  0
   -0.0982   -1.0040   -0.9771 C   0  0  0  0  0  0  0  0  0  0  0  0
    0.4821   -1.9107   -0.7774 H   0  0  0  0  0  0  0  0  0  0  0  0
   -0.7720   -1.2357   -1.8091 H   0  0  0  0  0  0  0  0  0  0  0  0
    0.8195    0.1139   -1.4209 C   0  0  0  0  0  0  0  0  0  0  0  0
    2.1242    0.1929   -0.9118 C   0  0  0  0  0  0  0  0  0  0  0  0
    2.4785   -0.5534   -0.2065 H   0  0  0  0  0  0  0  0  0  0  0  0
    2.9792    1.2276   -1.3094 C   0  0  0  0  0  0  0  0  0  0  0  0
    3.9862    1.2719   -0.9093 H   0  0  0  0  0  0  0  0  0  0  0  0
    2.5378    2.1933   -2.2165 C   0  0  0  0  0  0  0  0  0  0  0  0
    3.3634    3.2064   -2.6105 O   0  0  0  0  0  0  0  0  0  0  0  0
    4.2371    3.1015   -2.2039 H   0  0  0  0  0  0  0  0  0  0  0  0
    1.2421    2.1209   -2.7244 C   0  0  0  0  0  0  0  0  0  0  0  0
    0.9033    2.8774   -3.4247 H   0  0  0  0  0  0  0  0  0  0  0  0
    0.3848    1.0868   -2.3344 C   0  0  0  0  0  0  0  0  0  0  0  0
   -0.6266    1.0520   -2.7308 H   0  0  0  0  0  0  0  0  0  0  0  0
   -1.2640    0.8469    0.3932 C   0  0  0  0  0  0  0  0  0  0  0  0
   -2.2049    1.3197   -0.2386 O   0  0  0  0  0  0  0  0  0  0  0  0
   -0.5873    1.6421    1.2995 N   0  0  0  0  0  0  0  0  0  0  0  0
    0.2240    1.2364    1.7559 H   0  0  0  0  0  0  0  0  0  0  0  0
   -0.8073    3.0783    1.4109 C   0  0  0  0  0  0  0  0  0  0  0  0
   -1.8592    3.2901    1.6301 H   0  0  0  0  0  0  0  0  0  0  0  0
   -0.1979    3.4926    2.2195 H   0  0  0  0  0  0  0  0  0  0  0  0
   -0.5333    3.5795    0.4766 H   0  0  0  0  0  0  0  0  0  0  0  0
  1  2  1  0  0  0  0
  2  3  1  0  0  0  0
  2  4  1  0  0  0  0
  2  5  1  0  0  0  0
  5  6  2  0  0  0  0
  5  7  1  0  0  0  0
  7  8  1  0  0  0  0
  7  9  1  0  0  0  0
  9 10  1  0  0  0  0
  9 11  1  0  0  0  0
  9 26  1  0  0  0  0
 11 12  1  0  0  0  0
 11 13  1  0  0  0  0
 11 14  1  0  0  0  0
 14 15  2  0  0  0  0
 14 24  1  0  0  0  0
 15 16  1  0  0  0  0
 15 17  1  0  0  0  0
 17 18  1  0  0  0  0
 17 19  2  0  0  0  0
 19 20  1  0  0  0  0
 19 22  1  0  0  0  0
 20 21  1  0  0  0  0
 22 23  1  0  0  0  0
 22 24  2  0  0  0  0
 24 25  1  0  0  0  0
 26 27  2  0  0  0  0
 26 28  1  0  0  0  0
 28 29  1  0  0  0  0
 28 30  1  0  0  0  0
 30 31  1  0  0  0  0
 30 32  1  0  0  0  0
 30 33  1  0  0  0  0
M  END
$$$$

  -OEChem-04042216043D

 33 33  0     1  0  0  0  0  0999 V2000
   -3.8996   -4.0422    1.5138 H   0  0  0  0  0  0  0  0  0  0  0  0
   -3.8687   -3.1438    0.8910 C   0  0  0  0  0  0  0  0  0  0  0  0
   -4.5853   -2.4185    1.2842 H   0  0  0  0  0  0  0  0  0  0  0  0
   -4.1541   -3.4116   -0.1292 H   0  0  0  0  0  0  0  0  0  0  0  0
   -2.4728   -2.5493    0.8982 C   0  0  0  0  0  0  0  0  0  0  0  0
   -1.5753   -3.1024    1.5147 O   0  0  0  0  0  0  0  0  0  0  0  0
   -2.2225   -1.3805    0.2109 N   0  0  0  0  0  0  0  0  0  0  0  0
   -3.0221   -0.8922   -0.1914 H   0  0  0  0  0  0  0  0  0  0  0  0
   -0.9606   -0.6291    0.2834 C   0  0  1  0  0  0  0  0  0  0  0  0
   -0.3947   -0.9172    1.1752 H   0  0  0  0  0  0  0  0  0  0  0  0
   -0.1000   -0.9628   -0.9572 C   0  0  0  0  0  0  0  0  0  0  0  0
    0.4753   -1.8712   -0.7514 H   0  0  0  0  0  0  0  0  0  0  0  0
   -0.7663   -1.1954   -1.7947 H   0  0  0  0  0  0  0  0  0  0  0  0
    0.8201    0.1515   -1.4130 C   0  0  0  0  0  0  0  0  0  0  0  0
    2.1968    0.0685   -1.1547 C   0  0  0  0  0  0  0  0  0  0  0  0
    2.5972   -0.7800   -0.6070 H   0  0  0  0  0  0  0  0  0  0  0  0
    3.0653    1.0758   -1.5921 C   0  0  0  0  0  0  0  0  0  0  0  0
    4.1249    0.9976   -1.3749 H   0  0  0  0  0  0  0  0  0  0  0  0
    2.5698    2.1692   -2.3054 C   0  0  0  0  0  0  0  0  0  0  0  0
    3.4075    3.1579   -2.7341 O   0  0  0  0  0  0  0  0  0  0  0  0
    4.3218    2.9493   -2.4887 H   0  0  0  0  0  0  0  0  0  0  0  0
    1.2077    2.2471   -2.5876 C   0  0  0  0  0  0  0  0  0  0  0  0
    0.8287    3.0951   -3.1490 H   0  0  0  0  0  0  0  0  0  0  0  0
    0.3364    1.2417   -2.1554 C   0  0  0  0  0  0  0  0  0  0  0  0
   -0.7220    1.3176   -2.3921 H   0  0  0  0  0  0  0  0  0  0  0  0
   -1.2956    0.8698    0.4434 C   0  0  0  0  0  0  0  0  0  0  0  0
   -2.2532    1.3481   -0.1586 O   0  0  0  0  0  0  0  0  0  0  0  0
   -0.6197    1.6464    1.3664 N   0  0  0  0  0  0  0  0  0  0  0  0
    0.2005    1.2372    1.8041 H   0  0  0  0  0  0  0  0  0  0  0  0
   -0.8627    3.0738    1.5313 C   0  0  0  0  0  0  0  0  0  0  0  0
   -1.9136    3.2590    1.7771 H   0  0  0  0  0  0  0  0  0  0  0  0
   -0.2449    3.4710    2.3423 H   0  0  0  0  0  0  0  0  0  0  0  0
   -0.6155    3.6115    0.6100 H   0  0  0  0  0  0  0  0  0  0  0  0
  1  2  1  0  0  0  0
  2  3  1  0  0  0  0
  2  4  1  0  0  0  0
  2  5  1  0  0  0  0
  5  6  2  0  0  0  0
  5  7  1  0  0  0  0
  7  8  1  0  0  0  0
  7  9  1  0  0  0  0
  9 10  1  0  0  0  0
  9 11  1  0  0  0  0
  9 26  1  0  0  0  0
 11 12  1  0  0  0  0
 11 13  1  0  0  0  0
 11 14  1  0  0  0  0
 14 15  2  0  0  0  0
 14 24  1  0  0  0  0
 15 16  1  0  0  0  0
 15 17  1  0  0  0  0
 17 18  1  0  0  0  0
 17 19  2  0  0  0  0
 19 20  1  0  0  0  0
 19 22  1  0  0  0  0
 20 21  1  0  0  0  0
 22 23  1  0  0  0  0
 22 24  2  0  0  0  0
 24 25  1  0  0  0  0
 26 27  2  0  0  0  0
 26 28  1  0  0  0  0
 28 29  1  0  0  0  0
 28 30  1  0  0  0  0
 30 31  1  0  0  0  0
 30 32  1  0  0  0  0
 30 33  1  0  0  0  0
M  END
$$$$

  -OEChem-04042216043D

 33 33  0     1  0  0  0  0  0999 V2000
   -3.8658   -4.0762    1.4528 H   0  0  0  0  0  0  0  0  0  0  0  0
   -3.8489   -3.1648    0.8487 C   0  0  0  0  0  0  0  0  0  0  0  0
   -4.5744   -2.4577    1.2583 H   0  0  0  0  0  0  0  0  0  0  0  0
   -4.1333   -3.4151   -0.1761 H   0  0  0  0  0  0  0  0  0  0  0  0
   -2.4612   -2.5518    0.8651 C   0  0  0  0  0  0  0  0  0  0  0  0
   -1.5513   -3.1128    1.4559 O   0  0  0  0  0  0  0  0  0  0  0  0
   -2.2323   -1.3575    0.2151 N   0  0  0  0  0  0  0  0  0  0  0  0
   -3.0416   -0.8690   -0.1671 H   0  0  0  0  0  0  0  0  0  0  0  0
   -0.9828   -0.5873    0.3091 C   0  0  1  0  0  0  0  0  0  0  0  0
   -0.4252   -0.8890    1.2018 H   0  0  0  0  0  0  0  0  0  0  0  0
   -0.0961   -0.9073   -0.9201 C   0  0  0  0  0  0  0  0  0  0  0  0
    0.4766   -1.8139   -0.7001 H   0  0  0  0  0  0  0  0  0  0  0  0
   -0.7510   -1.1477   -1.7643 H   0  0  0  0  0  0  0  0  0  0  0  0
    0.8316    0.1966   -1.3957 C   0  0  0  0  0  0  0  0  0  0  0  0
    2.2178   -0.0299   -1.4098 C   0  0  0  0  0  0  0  0  0  0  0  0
    2.6211   -0.9617   -1.0235 H   0  0  0  0  0  0  0  0  0  0  0  0
    3.0985    0.9395   -1.9044 C   0  0  0  0  0  0  0  0  0  0  0  0
    4.1659    0.7488   -1.8861 H   0  0  0  0  0  0  0  0  0  0  0  0
    2.6040    2.1370   -2.4229 C   0  0  0  0  0  0  0  0  0  0  0  0
    3.4531    3.0900   -2.9061 O   0  0  0  0  0  0  0  0  0  0  0  0
    4.3707    2.7861   -2.8318 H   0  0  0  0  0  0  0  0  0  0  0  0
    1.2290    2.3512   -2.4635 C   0  0  0  0  0  0  0  0  0  0  0  0
    0.8483    3.2731   -2.8908 H   0  0  0  0  0  0  0  0  0  0  0  0
    0.3461    1.3835   -1.9736 C   0  0  0  0  0  0  0  0  0  0  0  0
   -0.7221    1.5632   -2.0574 H   0  0  0  0  0  0  0  0  0  0  0  0
   -1.3333    0.9009    0.5176 C   0  0  0  0  0  0  0  0  0  0  0  0
   -2.3099    1.3827   -0.0497 O   0  0  0  0  0  0  0  0  0  0  0  0
   -0.6625    1.6549    1.4629 N   0  0  0  0  0  0  0  0  0  0  0  0
    0.1665    1.2434    1.8819 H   0  0  0  0  0  0  0  0  0  0  0  0
   -0.9352    3.0681    1.6931 C   0  0  0  0  0  0  0  0  0  0  0  0
   -1.9878    3.2197    1.9541 H   0  0  0  0  0  0  0  0  0  0  0  0
   -0.3203    3.4422    2.5171 H   0  0  0  0  0  0  0  0  0  0  0  0
   -0.7063    3.6518    0.7954 H   0  0  0  0  0  0  0  0  0  0  0  0
  1  2  1  0  0  0  0
  2  3  1  0  0  0  0
  2  4  1  0  0  0  0
  2  5  1  0  0  0  0
  5  6  2  0  0  0  0
  5  7  1  0  0  0  0
  7  8  1  0  0  0  0
  7  9  1  0  0  0  0
  9 10  1  0  0  0  0
  9 11  1  0  0  0  0
  9 26  1  0  0  0  0
 11 12  1  0  0  0  0
 11 13  1  0  0  0  0
 11 14  1  0  0  0  0
 14 15  2  0  0  0  0
 14 24  1  0  0  0  0
 15 16  1  0  0  0  0
 15 17  1  0  0  0  0
 17 18  1  0  0  0  0
 17 19  2  0  0  0  0
 19 20  1  0  0  0  0
 19 22  1  0  0  0  0
 20 21  1  0  0  0  0
 22 23  1  0  0  0  0
 22 24  2  0  0  0  0
 24 25  1  0  0  0  0
 26 27  2  0  0  0  0
 26 28  1  0  0  0  0
 28 29  1  0  0  0  0
 28 30  1  0  0  0  0
 30 31  1  0  0  0  0
 30 32  1  0  0  0  0
 30 33  1  0  0  0  0
M  END
$$$$

  -OEChem-04042216043D

 33 33  0     1  0  0  0  0  0999 V2000
   -3.8139   -4.1188    1.3677 H   0  0  0  0  0  0  0  0  0  0  0  0
   -3.8141   -3.1888    0.7924 C   0  0  0  0  0  0  0  0  0  0  0  0
   -4.5531   -2.5087    1.2229 H   0  0  0  0  0  0  0  0  0  0  0  0
   -4.0924   -3.4122   -0.2404 H   0  0  0  0  0  0  0  0  0  0  0  0
   -2.4387   -2.5501    0.8305 C   0  0  0  0  0  0  0  0  0  0  0  0
   -1.5178   -3.1134    1.4018 O   0  0  0  0  0  0  0  0  0  0  0  0
   -2.2326   -1.3306    0.2209 N   0  0  0  0  0  0  0  0  0  0  0  0
   -3.0516   -0.8450   -0.1440 H   0  0  0  0  0  0  0  0  0  0  0  0
   -0.9986   -0.5392    0.3411 C   0  0  1  0  0  0  0  0  0  0  0  0
   -0.4478   -0.8531    1.2337 H   0  0  0  0  0  0  0  0  0  0  0  0
   -0.0866   -0.8417   -0.8776 C   0  0  0  0  0  0  0  0  0  0  0  0
    0.4835   -1.7464   -0.6425 H   0  0  0  0  0  0  0  0  0  0  0  0
   -0.7332   -1.0925   -1.7251 H   0  0  0  0  0  0  0  0  0  0  0  0
    0.8547    0.2437   -1.3826 C   0  0  0  0  0  0  0  0  0  0  0  0
    2.1813   -0.1143   -1.6811 C   0  0  0  0  0  0  0  0  0  0  0  0
    2.5342   -1.1188   -1.4657 H   0  0  0  0  0  0  0  0  0  0  0  0
    3.0763    0.8094   -2.2339 C   0  0  0  0  0  0  0  0  0  0  0  0
    4.1015    0.5110   -2.4245 H   0  0  0  0  0  0  0  0  0  0  0  0
    2.6478    2.0989   -2.5458 C   0  0  0  0  0  0  0  0  0  0  0  0
    3.5092    3.0101   -3.0850 O   0  0  0  0  0  0  0  0  0  0  0  0
    4.3875    2.6142   -3.1930 H   0  0  0  0  0  0  0  0  0  0  0  0
    1.3186    2.4474   -2.3288 C   0  0  0  0  0  0  0  0  0  0  0  0
    0.9776    3.4380   -2.6115 H   0  0  0  0  0  0  0  0  0  0  0  0
    0.4227    1.5253   -1.7775 C   0  0  0  0  0  0  0  0  0  0  0  0
   -0.6165    1.8246   -1.6971 H   0  0  0  0  0  0  0  0  0  0  0  0
   -1.3774    0.9329    0.5981 C   0  0  0  0  0  0  0  0  0  0  0  0
   -2.3696    1.4117    0.0561 O   0  0  0  0  0  0  0  0  0  0  0  0
   -0.7208    1.6675    1.5684 N   0  0  0  0  0  0  0  0  0  0  0  0
    0.1083    1.2539    1.9855 H   0  0  0  0  0  0  0  0  0  0  0  0
   -1.0398    3.0572    1.8712 C   0  0  0  0  0  0  0  0  0  0  0  0
   -2.0944    3.1584    2.1488 H   0  0  0  0  0  0  0  0  0  0  0  0
   -0.4291    3.4116    2.7072 H   0  0  0  0  0  0  0  0  0  0  0  0
   -0.8410    3.6925    1.0017 H   0  0  0  0  0  0  0  0  0  0  0  0
  1  2  1  0  0  0  0
  2  3  1  0  0  0  0
  2  4  1  0  0  0  0
  2  5  1  0  0  0  0
  5  6  2  0  0  0  0
  5  7  1  0  0  0  0
  7  8  1  0  0  0  0
  7  9  1  0  0  0  0
  9 10  1  0  0  0  0
  9 11  1  0  0  0  0
  9 26  1  0  0  0  0
 11 12  1  0  0  0  0
 11 13  1  0  0  0  0
 11 14  1  0  0  0  0
 14 15  2  0  0  0  0
 14 24  1  0  0  0  0
 15 16  1  0  0  0  0
 15 17  1  0  0  0  0
 17 18  1  0  0  0  0
 17 19  2  0  0  0  0
 19 20  1  0  0  0  0
 19 22  1  0  0  0  0
 20 21  1  0  0  0  0
 22 23  1  0  0  0  0
 22 24  2  0  0  0  0
 24 25  1  0  0  0  0
 26 27  2  0  0  0  0
 26 28  1  0  0  0  0
 28 29  1  0  0  0  0
 28 30  1  0  0  0  0
 30 31  1  0  0  0  0
 30 32  1  0  0  0  0
 30 33  1  0  0  0  0
M  END
$$$$

  -OEChem-04042216043D

 33 33  0     1  0  0  0  0  0999 V2000
   -3.7448   -4.1800    1.2567 H   0  0  0  0  0  0  0  0  0  0  0  0
   -3.7632   -3.2249    0.7243 C   0  0  0  0  0  0  0  0  0  0  0  0
   -4.5264   -2.5853    1.1744 H   0  0  0  0  0  0  0  0  0  0  0  0
   -4.0218   -3.4088   -0.3212 H   0  0  0  0  0  0  0  0  0  0  0  0
   -2.4064   -2.5517    0.8109 C   0  0  0  0  0  0  0  0  0  0  0  0
   -1.4834   -3.1066    1.3865 O   0  0  0  0  0  0  0  0  0  0  0  0
   -2.2184   -1.3130    0.2351 N   0  0  0  0  0  0  0  0  0  0  0  0
   -3.0398   -0.8404   -0.1415 H   0  0  0  0  0  0  0  0  0  0  0  0
   -1.0013   -0.4997    0.3845 C   0  0  1  0  0  0  0  0  0  0  0  0
   -0.4484   -0.8211    1.2733 H   0  0  0  0  0  0  0  0  0  0  0  0
   -0.0812   -0.7676   -0.8394 C   0  0  0  0  0  0  0  0  0  0  0  0
    0.4903   -1.6718   -0.6047 H   0  0  0  0  0  0  0  0  0  0  0  0
   -0.7314   -1.0198   -1.6839 H   0  0  0  0  0  0  0  0  0  0  0  0
    0.8748    0.2941   -1.3829 C   0  0  0  0  0  0  0  0  0  0  0  0
    2.0570   -0.1769   -1.9845 C   0  0  0  0  0  0  0  0  0  0  0  0
    2.2836   -1.2394   -1.9740 H   0  0  0  0  0  0  0  0  0  0  0  0
    2.9719    0.6944   -2.5858 C   0  0  0  0  0  0  0  0  0  0  0  0
    3.8849    0.2965   -3.0150 H   0  0  0  0  0  0  0  0  0  0  0  0
    2.7050    2.0606   -2.6383 C   0  0  0  0  0  0  0  0  0  0  0  0
    3.5866    2.9231   -3.2233 O   0  0  0  0  0  0  0  0  0  0  0  0
    4.3482    2.4344   -3.5713 H   0  0  0  0  0  0  0  0  0  0  0  0
    1.5111    2.5412   -2.1123 C   0  0  0  0  0  0  0  0  0  0  0  0
    1.2880    3.6002   -2.1922 H   0  0  0  0  0  0  0  0  0  0  0  0
    0.5931    1.6711   -1.5138 C   0  0  0  0  0  0  0  0  0  0  0  0
   -0.3439    2.1124   -1.2023 H   0  0  0  0  0  0  0  0  0  0  0  0
   -1.4288    0.9505    0.6746 C   0  0  0  0  0  0  0  0  0  0  0  0
   -2.4114    1.4241    0.1116 O   0  0  0  0  0  0  0  0  0  0  0  0
   -0.8058    1.6815    1.6695 N   0  0  0  0  0  0  0  0  0  0  0  0
    0.0149    1.2722    2.1077 H   0  0  0  0  0  0  0  0  0  0  0  0
   -1.1784    3.0488    2.0109 C   0  0  0  0  0  0  0  0  0  0  0  0
   -2.2317    3.0977    2.3069 H   0  0  0  0  0  0  0  0  0  0  0  0
   -0.5697    3.4098    2.8454 H   0  0  0  0  0  0  0  0  0  0  0  0
   -1.0214    3.7127    1.1544 H   0  0  0  0  0  0  0  0  0  0  0  0
  1  2  1  0  0  0  0
  2  3  1  0  0  0  0
  2  4  1  0  0  0  0
  2  5  1  0  0  0  0
  5  6  2  0  0  0  0
  5  7  1  0  0  0  0
  7  8  1  0  0  0  0
  7  9  1  0  0  0  0
  9 10  1  0  0  0  0
  9 11  1  0  0  0  0
  9 26  1  0  0  0  0
 11 12  1  0  0  0  0
 11 13  1  0  0  0  0
 11 14  1  0  0  0  0
 14 15  2  0  0  0  0
 14 24  1  0  0  0  0
 15 16  1  0  0  0  0
 15 17  1  0  0  0  0
 17 18  1  0  0  0  0
 17 19  2  0  0  0  0
 19 20  1  0  0  0  0
 19 22  1  0  0  0  0
 20 21  1  0  0  0  0
 22 23  1  0  0  0  0
 22 24  2  0  0  0  0
 24 25  1  0  0  0  0
 26 27  2  0  0  0  0
 26 28  1  0  0  0  0
 28 29  1  0  0  0  0
 28 30  1  0  0  0  0
 30 31  1  0  0  0  0
 30 32  1  0  0  0  0
 30 33  1  0  0  0  0
M  END
$$$$

  -OEChem-04042216043D

 33 33  0     1  0  0  0  0  0999 V2000
   -3.6894   -4.2072    1.1767 H   0  0  0  0  0  0  0  0  0  0  0  0
   -3.7136   -3.2412    0.6648 C   0  0  0  0  0  0  0  0  0  0  0  0
   -4.5028   -2.6279    1.1064 H   0  0  0  0  0  0  0  0  0  0  0  0
   -3.9389   -3.4075   -0.3913 H   0  0  0  0  0  0  0  0  0  0  0  0
   -2.3747   -2.5419    0.8041 C   0  0  0  0  0  0  0  0  0  0  0  0
   -1.4615   -3.0824    1.4082 O   0  0  0  0  0  0  0  0  0  0  0  0
   -2.1898   -1.2961    0.2429 N   0  0  0  0  0  0  0  0  0  0  0  0
   -3.0040   -0.8366   -0.1646 H   0  0  0  0  0  0  0  0  0  0  0  0
   -0.9843   -0.4706    0.4229 C   0  0  1  0  0  0  0  0  0  0  0  0
   -0.4237   -0.7919    1.3066 H   0  0  0  0  0  0  0  0  0  0  0  0
   -0.0809   -0.7088   -0.8215 C   0  0  0  0  0  0  0  0  0  0  0  0
    0.4919   -1.6175   -0.6085 H   0  0  0  0  0  0  0  0  0  0  0  0
   -0.7497   -0.9484   -1.6554 H   0  0  0  0  0  0  0  0  0  0  0  0
    0.8841    0.3292   -1.3996 C   0  0  0  0  0  0  0  0  0  0  0  0
    1.8381   -0.1786   -2.3016 C   0  0  0  0  0  0  0  0  0  0  0  0
    1.8654   -1.2440   -2.5130 H   0  0  0  0  0  0  0  0  0  0  0  0
    2.7702    0.6513   -2.9334 C   0  0  0  0  0  0  0  0  0  0  0  0
    3.4973    0.2179   -3.6114 H   0  0  0  0  0  0  0  0  0  0  0  0
    2.7584    2.0226   -2.6929 C   0  0  0  0  0  0  0  0  0  0  0  0
    3.6600    2.8463   -3.3024 O   0  0  0  0  0  0  0  0  0  0  0  0
    4.2321    2.3327   -3.8931 H   0  0  0  0  0  0  0  0  0  0  0  0
    1.8045    2.5544   -1.8329 C   0  0  0  0  0  0  0  0  0  0  0  0
    1.7855    3.6266   -1.6669 H   0  0  0  0  0  0  0  0  0  0  0  0
    0.8686    1.7273   -1.2010 C   0  0  0  0  0  0  0  0  0  0  0  0
    0.1428    2.2383   -0.5880 H   0  0  0  0  0  0  0  0  0  0  0  0
   -1.4656    0.9616    0.7154 C   0  0  0  0  0  0  0  0  0  0  0  0
   -2.4125    1.4344    0.0951 O   0  0  0  0  0  0  0  0  0  0  0  0
   -0.8890    1.7000    1.7342 N   0  0  0  0  0  0  0  0  0  0  0  0
   -0.1217    1.2752    2.2480 H   0  0  0  0  0  0  0  0  0  0  0  0
   -1.3264    3.0416    2.1002 C   0  0  0  0  0  0  0  0  0  0  0  0
   -2.3764    3.0308    2.4109 H   0  0  0  0  0  0  0  0  0  0  0  0
   -0.7243    3.4219    2.9309 H   0  0  0  0  0  0  0  0  0  0  0  0
   -1.2163    3.7256    1.2522 H   0  0  0  0  0  0  0  0  0  0  0  0
  1  2  1  0  0  0  0
  2  3  1  0  0  0  0
  2  4  1  0  0  0  0
  2  5  1  0  0  0  0
  5  6  2  0  0  0  0
  5  7  1  0  0  0  0
  7  8  1  0  0  0  0
  7  9  1  0  0  0  0
  9 10  1  0  0  0  0
  9 11  1  0  0  0  0
  9 26  1  0  0  0  0
 11 12  1  0  0  0  0
 11 13  1  0  0  0  0
 11 14  1  0  0  0  0
 14 15  2  0  0  0  0
 14 24  1  0  0  0  0
 15 16  1  0  0  0  0
 15 17  1  0  0  0  0
 17 18  1  0  0  0  0
 17 19  2  0  0  0  0
 19 20  1  0  0  0  0
 19 22  1  0  0  0  0
 20 21  1  0  0  0  0
 22 23  1  0  0  0  0
 22 24  2  0  0  0  0
 24 25  1  0  0  0  0
 26 27  2  0  0  0  0
 26 28  1  0  0  0  0
 28 29  1  0  0  0  0
 28 30  1  0  0  0  0
 30 31  1  0  0  0  0
 30 32  1  0  0  0  0
 30 33  1  0  0  0  0
M  END
$$$$

  -OEChem-04042216043D

 33 33  0     1  0  0  0  0  0999 V2000
   -3.7999   -4.1015    1.2383 H   0  0  0  0  0  0  0  0  0  0  0  0
   -3.7553   -3.1717    0.6643 C   0  0  0  0  0  0  0  0  0  0  0  0
   -4.5512   -2.5067    1.0084 H   0  0  0  0  0  0  0  0  0  0  0  0
   -3.9135   -3.4018   -0.3921 H   0  0  0  0  0  0  0  0  0  0  0  0
   -2.4057   -2.5047    0.8522 C   0  0  0  0  0  0  0  0  0  0  0  0
   -1.5610   -3.0213    1.5664 O   0  0  0  0  0  0  0  0  0  0  0  0
   -2.1393   -1.3070    0.2238 N   0  0  0  0  0  0  0  0  0  0  0  0
   -2.9066   -0.8519   -0.2708 H   0  0  0  0  0  0  0  0  0  0  0  0
   -0.9246   -0.5048    0.4410 C   0  0  1  0  0  0  0  0  0  0  0  0
   -0.3799   -0.7972    1.3443 H   0  0  0  0  0  0  0  0  0  0  0  0
   -0.0554   -0.7587   -0.8175 C   0  0  0  0  0  0  0  0  0  0  0  0
    0.3084   -1.7895   -0.7510 H   0  0  0  0  0  0  0  0  0  0  0  0
   -0.7202   -0.7070   -1.6871 H   0  0  0  0  0  0  0  0  0  0  0  0
    1.1366    0.1274   -1.1539 C   0  0  0  0  0  0  0  0  0  0  0  0
    1.8476   -0.1948   -2.3231 C   0  0  0  0  0  0  0  0  0  0  0  0
    1.4941   -0.9991   -2.9621 H   0  0  0  0  0  0  0  0  0  0  0  0
    2.9974    0.5107   -2.6957 C   0  0  0  0  0  0  0  0  0  0  0  0
    3.5098    0.2493   -3.6151 H   0  0  0  0  0  0  0  0  0  0  0  0
    3.4802    1.5366   -1.8851 C   0  0  0  0  0  0  0  0  0  0  0  0
    4.5998    2.2351   -2.2343 O   0  0  0  0  0  0  0  0  0  0  0  0
    4.9274    1.9288   -3.0939 H   0  0  0  0  0  0  0  0  0  0  0  0
    2.8210    1.8346   -0.6969 C   0  0  0  0  0  0  0  0  0  0  0  0
    3.2189    2.6154   -0.0572 H   0  0  0  0  0  0  0  0  0  0  0  0
    1.6722    1.1283   -0.3227 C   0  0  0  0  0  0  0  0  0  0  0  0
    1.2430    1.3683    0.6365 H   0  0  0  0  0  0  0  0  0  0  0  0
   -1.4265    0.9514    0.5937 C   0  0  0  0  0  0  0  0  0  0  0  0
   -2.2975    1.3775   -0.1589 O   0  0  0  0  0  0  0  0  0  0  0  0
   -0.9516    1.7795    1.5960 N   0  0  0  0  0  0  0  0  0  0  0  0
   -0.3104    1.3765    2.2735 H   0  0  0  0  0  0  0  0  0  0  0  0
   -1.4295    3.1412    1.8037 C   0  0  0  0  0  0  0  0  0  0  0  0
   -2.5063    3.1438    2.0031 H   0  0  0  0  0  0  0  0  0  0  0  0
   -0.9183    3.5950    2.6581 H   0  0  0  0  0  0  0  0  0  0  0  0
   -1.2330    3.7546    0.9179 H   0  0  0  0  0  0  0  0  0  0  0  0
  1  2  1  0  0  0  0
  2  3  1  0  0  0  0
  2  4  1  0  0  0  0
  2  5  1  0  0  0  0
  5  6  2  0  0  0  0
  5  7  1  0  0  0  0
  7  8  1  0  0  0  0
  7  9  1  0  0  0  0
  9 10  1  0  0  0  0
  9 11  1  0  0  0  0
  9 26  1  0  0  0  0
 11 12  1  0  0  0  0
 11 13  1  0  0  0  0
 11 14  1  0  0  0  0
 14 15  2  0  0  0  0
 14 24  1  0  0  0  0
 15 16  1  0  0  0  0
 15 17  1  0  0  0  0
 17 18  1  0  0  0  0
 17 19  2  0  0  0  0
 19 20  1  0  0  0  0
 19 22  1  0  0  0  0
 20 21  1  0  0  0  0
 22 23  1  0  0  0  0
 22 24  2  0  0  0  0
 24 25  1  0  0  0  0
 26 27  2  0  0  0  0
 26 28  1  0  0  0  0
 28 29  1  0  0  0  0
 28 30  1  0  0  0  0
 30 31  1  0  0  0  0
 30 32  1  0  0  0  0
 30 33  1  0  0  0  0
M  END
$$$$

  -OEChem-04042216043D

 33 33  0     1  0  0  0  0  0999 V2000
   -3.8581   -4.0754    1.3585 H   0  0  0  0  0  0  0  0  0  0  0  0
   -3.8081   -3.1639    0.7564 C   0  0  0  0  0  0  0  0  0  0  0  0
   -4.5832   -2.4735    1.0976 H   0  0  0  0  0  0  0  0  0  0  0  0
   -3.9943   -3.4211   -0.2891 H   0  0  0  0  0  0  0  0  0  0  0  0
   -2.4418   -2.5188    0.8951 C   0  0  0  0  0  0  0  0  0  0  0  0
   -1.5914   -3.0307    1.6061 O   0  0  0  0  0  0  0  0  0  0  0  0
   -2.1675   -1.3450    0.2263 N   0  0  0  0  0  0  0  0  0  0  0  0
   -2.9379   -0.8898   -0.2629 H   0  0  0  0  0  0  0  0  0  0  0  0
   -0.9352   -0.5594    0.3941 C   0  0  1  0  0  0  0  0  0  0  0  0
   -0.3813   -0.8451    1.2940 H   0  0  0  0  0  0  0  0  0  0  0  0
   -0.0815   -0.8214   -0.8687 C   0  0  0  0  0  0  0  0  0  0  0  0
    0.2998   -1.8461   -0.8097 H   0  0  0  0  0  0  0  0  0  0  0  0
   -0.7470   -0.7722   -1.7379 H   0  0  0  0  0  0  0  0  0  0  0  0
    1.0913    0.1025   -1.1511 C   0  0  0  0  0  0  0  0  0  0  0  0
    1.6558    0.0768   -2.4370 C   0  0  0  0  0  0  0  0  0  0  0  0
    1.1973   -0.5274   -3.2145 H   0  0  0  0  0  0  0  0  0  0  0  0
    2.7904    0.8367   -2.7445 C   0  0  0  0  0  0  0  0  0  0  0  0
    3.1874    0.8179   -3.7535 H   0  0  0  0  0  0  0  0  0  0  0  0
    3.4069    1.6044   -1.7568 C   0  0  0  0  0  0  0  0  0  0  0  0
    4.5137    2.3504   -2.0423 O   0  0  0  0  0  0  0  0  0  0  0  0
    4.7333    2.2700   -2.9832 H   0  0  0  0  0  0  0  0  0  0  0  0
    2.8992    1.5882   -0.4610 C   0  0  0  0  0  0  0  0  0  0  0  0
    3.4046    2.1603    0.3100 H   0  0  0  0  0  0  0  0  0  0  0  0
    1.7657    0.8285   -0.1525 C   0  0  0  0  0  0  0  0  0  0  0  0
    1.4450    0.7951    0.8803 H   0  0  0  0  0  0  0  0  0  0  0  0
   -1.3791    0.9186    0.5167 C   0  0  0  0  0  0  0  0  0  0  0  0
   -2.2631    1.3486   -0.2182 O   0  0  0  0  0  0  0  0  0  0  0  0
   -0.8493    1.7570    1.4821 N   0  0  0  0  0  0  0  0  0  0  0  0
   -0.1712    1.3650    2.1281 H   0  0  0  0  0  0  0  0  0  0  0  0
   -1.2451    3.1512    1.6383 C   0  0  0  0  0  0  0  0  0  0  0  0
   -2.3215    3.2264    1.8247 H   0  0  0  0  0  0  0  0  0  0  0  0
   -0.7162    3.6023    2.4833 H   0  0  0  0  0  0  0  0  0  0  0  0
   -1.0021    3.7201    0.7346 H   0  0  0  0  0  0  0  0  0  0  0  0
  1  2  1  0  0  0  0
  2  3  1  0  0  0  0
  2  4  1  0  0  0  0
  2  5  1  0  0  0  0
  5  6  2  0  0  0  0
  5  7  1  0  0  0  0
  7  8  1  0  0  0  0
  7  9  1  0  0  0  0
  9 10  1  0  0  0  0
  9 11  1  0  0  0  0
  9 26  1  0  0  0  0
 11 12  1  0  0  0  0
 11 13  1  0  0  0  0
 11 14  1  0  0  0  0
 14 15  2  0  0  0  0
 14 24  1  0  0  0  0
 15 16  1  0  0  0  0
 15 17  1  0  0  0  0
 17 18  1  0  0  0  0
 17 19  2  0  0  0  0
 19 20  1  0  0  0  0
 19 22  1  0  0  0  0
 20 21  1  0  0  0  0
 22 23  1  0  0  0  0
 22 24  2  0  0  0  0
 24 25  1  0  0  0  0
 26 27  2  0  0  0  0
 26 28  1  0  0  0  0
 28 29  1  0  0  0  0
 28 30  1  0  0  0  0
 30 31  1  0  0  0  0
 30 32  1  0  0  0  0
 30 33  1  0  0  0  0
M  END
$$$$

  -OEChem-04042216043D

 33 33  0     1  0  0  0  0  0999 V2000
   -3.8989   -4.0562    1.4413 H   0  0  0  0  0  0  0  0  0  0  0  0
   -3.8477   -3.1559    0.8227 C   0  0  0  0  0  0  0  0  0  0  0  0
   -4.6008   -2.4453    1.1719 H   0  0  0  0  0  0  0  0  0  0  0  0
   -4.0654   -3.4272   -0.2131 H   0  0  0  0  0  0  0  0  0  0  0  0
   -2.4670   -2.5337    0.9163 C   0  0  0  0  0  0  0  0  0  0  0  0
   -1.6068   -3.0534    1.6096 O   0  0  0  0  0  0  0  0  0  0  0  0
   -2.1907   -1.3738    0.2242 N   0  0  0  0  0  0  0  0  0  0  0  0
   -2.9672   -0.9115   -0.2481 H   0  0  0  0  0  0  0  0  0  0  0  0
   -0.9456   -0.6026    0.3554 C   0  0  1  0  0  0  0  0  0  0  0  0
   -0.3905   -0.8872    1.2547 H   0  0  0  0  0  0  0  0  0  0  0  0
   -0.0949   -0.8814   -0.9018 C   0  0  0  0  0  0  0  0  0  0  0  0
    0.2962   -1.9019   -0.8374 H   0  0  0  0  0  0  0  0  0  0  0  0
   -0.7550   -0.8400   -1.7750 H   0  0  0  0  0  0  0  0  0  0  0  0
    1.0648    0.0674   -1.1423 C   0  0  0  0  0  0  0  0  0  0  0  0
    1.4742    0.3283   -2.4596 C   0  0  0  0  0  0  0  0  0  0  0  0
    0.9171   -0.0893   -3.2935 H   0  0  0  0  0  0  0  0  0  0  0  0
    2.5850    1.1401   -2.7186 C   0  0  0  0  0  0  0  0  0  0  0  0
    2.8667    1.3453   -3.7455 H   0  0  0  0  0  0  0  0  0  0  0  0
    3.3243    1.6741   -1.6626 C   0  0  0  0  0  0  0  0  0  0  0  0
    4.4083    2.4680   -1.9018 O   0  0  0  0  0  0  0  0  0  0  0  0
    4.5266    2.5892   -2.8566 H   0  0  0  0  0  0  0  0  0  0  0  0
    2.9619    1.3770   -0.3514 C   0  0  0  0  0  0  0  0  0  0  0  0
    3.5594    1.7732    0.4630 H   0  0  0  0  0  0  0  0  0  0  0  0
    1.8529    0.5658   -0.0894 C   0  0  0  0  0  0  0  0  0  0  0  0
    1.6261    0.3166    0.9411 H   0  0  0  0  0  0  0  0  0  0  0  0
   -1.3370    0.8896    0.4662 C   0  0  0  0  0  0  0  0  0  0  0  0
   -2.2364    1.3339   -0.2410 O   0  0  0  0  0  0  0  0  0  0  0  0
   -0.7537    1.7180    1.4086 N   0  0  0  0  0  0  0  0  0  0  0  0
   -0.0156    1.3290    1.9868 H   0  0  0  0  0  0  0  0  0  0  0  0
   -1.0673    3.1364    1.5301 C   0  0  0  0  0  0  0  0  0  0  0  0
   -2.1365    3.2795    1.7197 H   0  0  0  0  0  0  0  0  0  0  0  0
   -0.5081    3.5777    2.3610 H   0  0  0  0  0  0  0  0  0  0  0  0
   -0.7978    3.6664    0.6104 H   0  0  0  0  0  0  0  0  0  0  0  0
  1  2  1  0  0  0  0
  2  3  1  0  0  0  0
  2  4  1  0  0  0  0
  2  5  1  0  0  0  0
  5  6  2  0  0  0  0
  5  7  1  0  0  0  0
  7  8  1  0  0  0  0
  7  9  1  0  0  0  0
  9 10  1  0  0  0  0
  9 11  1  0  0  0  0
  9 26  1  0  0  0  0
 11 12  1  0  0  0  0
 11 13  1  0  0  0  0
 11 14  1  0  0  0  0
 14 15  2  0  0  0  0
 14 24  1  0  0  0  0
 15 16  1  0  0  0  0
 15 17  1  0  0  0  0
 17 18  1  0  0  0  0
 17 19  2  0  0  0  0
 19 20  1  0  0  0  0
 19 22  1  0  0  0  0
 20 21  1  0  0  0  0
 22 23  1  0  0  0  0
 22 24  2  0  0  0  0
 24 25  1  0  0  0  0
 26 27  2  0  0  0  0
 26 28  1  0  0  0  0
 28 29  1  0  0  0  0
 28 30  1  0  0  0  0
 30 31  1  0  0  0  0
 30 32  1  0  0  0  0
 30 33  1  0  0  0  0
M  END
$$$$

  -OEChem-04042216043D

 33 33  0     1  0  0  0  0  0999 V2000
   -3.9209   -4.0359    1.5138 H   0  0  0  0  0  0  0  0  0  0  0  0
   -3.8715   -3.1481    0.8773 C   0  0  0  0  0  0  0  0  0  0  0  0
   -4.6074   -2.4213    1.2295 H   0  0  0  0  0  0  0  0  0  0  0  0
   -4.1151   -3.4356   -0.1484 H   0  0  0  0  0  0  0  0  0  0  0  0
   -2.4808   -2.5438    0.9294 C   0  0  0  0  0  0  0  0  0  0  0  0
   -1.6101   -3.0708    1.6041 O   0  0  0  0  0  0  0  0  0  0  0  0
   -2.2057   -1.3943    0.2192 N   0  0  0  0  0  0  0  0  0  0  0  0
   -2.9881   -0.9241   -0.2348 H   0  0  0  0  0  0  0  0  0  0  0  0
   -0.9497   -0.6369    0.3206 C   0  0  1  0  0  0  0  0  0  0  0  0
   -0.3918   -0.9202    1.2183 H   0  0  0  0  0  0  0  0  0  0  0  0
   -0.1033   -0.9313   -0.9331 C   0  0  0  0  0  0  0  0  0  0  0  0
    0.2930   -1.9494   -0.8637 H   0  0  0  0  0  0  0  0  0  0  0  0
   -0.7582   -0.8953   -1.8102 H   0  0  0  0  0  0  0  0  0  0  0  0
    1.0452    0.0354   -1.1400 C   0  0  0  0  0  0  0  0  0  0  0  0
    1.2921    0.5744   -2.4120 C   0  0  0  0  0  0  0  0  0  0  0  0
    0.6283    0.3420   -3.2400 H   0  0  0  0  0  0  0  0  0  0  0  0
    2.3796    1.4302   -2.6245 C   0  0  0  0  0  0  0  0  0  0  0  0
    2.5402    1.8513   -3.6109 H   0  0  0  0  0  0  0  0  0  0  0  0
    3.2490    1.7347   -1.5756 C   0  0  0  0  0  0  0  0  0  0  0  0
    4.3121    2.5678   -1.7711 O   0  0  0  0  0  0  0  0  0  0  0  0
    4.3298    2.8728   -2.6914 H   0  0  0  0  0  0  0  0  0  0  0  0
    3.0368    1.1704   -0.3199 C   0  0  0  0  0  0  0  0  0  0  0  0
    3.7321    1.3946    0.4826 H   0  0  0  0  0  0  0  0  0  0  0  0
    1.9510    0.3158   -0.1023 C   0  0  0  0  0  0  0  0  0  0  0  0
    1.8267   -0.1379    0.8761 H   0  0  0  0  0  0  0  0  0  0  0  0
   -1.2997    0.8649    0.4234 C   0  0  0  0  0  0  0  0  0  0  0  0
   -2.2069    1.3243   -0.2641 O   0  0  0  0  0  0  0  0  0  0  0  0
   -0.6727    1.6805    1.3481 N   0  0  0  0  0  0  0  0  0  0  0  0
    0.1101    1.2875    1.8615 H   0  0  0  0  0  0  0  0  0  0  0  0
   -0.9200    3.1137    1.4405 C   0  0  0  0  0  0  0  0  0  0  0  0
   -1.9814    3.3093    1.6250 H   0  0  0  0  0  0  0  0  0  0  0  0
   -0.3426    3.5445    2.2639 H   0  0  0  0  0  0  0  0  0  0  0  0
   -0.6250    3.6127    0.5115 H   0  0  0  0  0  0  0  0  0  0  0  0
  1  2  1  0  0  0  0
  2  3  1  0  0  0  0
  2  4  1  0  0  0  0
  2  5  1  0  0  0  0
  5  6  2  0  0  0  0
  5  7  1  0  0  0  0
  7  8  1  0  0  0  0
  7  9  1  0  0  0  0
  9 10  1  0  0  0  0
  9 11  1  0  0  0  0
  9 26  1  0  0  0  0
 11 12  1  0  0  0  0
 11 13  1  0  0  0  0
 11 14  1  0  0  0  0
 14 15  2  0  0  0  0
 14 24  1  0  0  0  0
 15 16  1  0  0  0  0
 15 17  1  0  0  0  0
 17 18  1  0  0  0  0
 17 19  2  0  0  0  0
 19 20  1  0  0  0  0
 19 22  1  0  0  0  0
 20 21  1  0  0  0  0
 22 23  1  0  0  0  0
 22 24  2  0  0  0  0
 24 25  1  0  0  0  0
 26 27  2  0  0  0  0
 26 28  1  0  0  0  0
 28 29  1  0  0  0  0
 28 30  1  0  0  0  0
 30 31  1  0  0  0  0
 30 32  1  0  0  0  0
 30 33  1  0  0  0  0
M  END
$$$$

  -OEChem-04042216043D

 33 33  0     1  0  0  0  0  0999 V2000
   -3.9306   -4.0235    1.5463 H   0  0  0  0  0  0  0  0  0  0  0  0
   -3.8800   -3.1431    0.8994 C   0  0  0  0  0  0  0  0  0  0  0  0
   -4.6104   -2.4084    1.2467 H   0  0  0  0  0  0  0  0  0  0  0  0
   -4.1300   -3.4413   -0.1217 H   0  0  0  0  0  0  0  0  0  0  0  0
   -2.4859   -2.5455    0.9373 C   0  0  0  0  0  0  0  0  0  0  0  0
   -1.6109   -3.0779    1.6021 O   0  0  0  0  0  0  0  0  0  0  0  0
   -2.2102   -1.4019    0.2177 N   0  0  0  0  0  0  0  0  0  0  0  0
   -2.9938   -0.9286   -0.2306 H   0  0  0  0  0  0  0  0  0  0  0  0
   -0.9454   -0.6569    0.2963 C   0  0  1  0  0  0  0  0  0  0  0  0
   -0.3815   -0.9405    1.1904 H   0  0  0  0  0  0  0  0  0  0  0  0
   -0.1083   -0.9702   -0.9567 C   0  0  0  0  0  0  0  0  0  0  0  0
    0.2876   -1.9880   -0.8808 H   0  0  0  0  0  0  0  0  0  0  0  0
   -0.7597   -0.9383   -1.8366 H   0  0  0  0  0  0  0  0  0  0  0  0
    1.0336    0.0036   -1.1465 C   0  0  0  0  0  0  0  0  0  0  0  0
    1.1196    0.7917   -2.3041 C   0  0  0  0  0  0  0  0  0  0  0  0
    0.3469    0.7296   -3.0655 H   0  0  0  0  0  0  0  0  0  0  0  0
    2.1881    1.6794   -2.4788 C   0  0  0  0  0  0  0  0  0  0  0  0
    2.2303    2.2911   -3.3734 H   0  0  0  0  0  0  0  0  0  0  0  0
    3.1874    1.7753   -1.5082 C   0  0  0  0  0  0  0  0  0  0  0  0
    4.2341    2.6358   -1.6694 O   0  0  0  0  0  0  0  0  0  0  0  0
    4.1592    3.0933   -2.5211 H   0  0  0  0  0  0  0  0  0  0  0  0
    3.1205    0.9774   -0.3678 C   0  0  0  0  0  0  0  0  0  0  0  0
    3.9100    1.0485    0.3733 H   0  0  0  0  0  0  0  0  0  0  0  0
    2.0555    0.0890   -0.1877 C   0  0  0  0  0  0  0  0  0  0  0  0
    2.0308   -0.5404    0.6973 H   0  0  0  0  0  0  0  0  0  0  0  0
   -1.2643    0.8515    0.3982 C   0  0  0  0  0  0  0  0  0  0  0  0
   -2.1739    1.3255   -0.2762 O   0  0  0  0  0  0  0  0  0  0  0  0
   -0.6047    1.6564    1.3094 N   0  0  0  0  0  0  0  0  0  0  0  0
    0.2001    1.2555    1.7818 H   0  0  0  0  0  0  0  0  0  0  0  0
   -0.8126    3.0965    1.3905 C   0  0  0  0  0  0  0  0  0  0  0  0
   -1.8682    3.3233    1.5738 H   0  0  0  0  0  0  0  0  0  0  0  0
   -0.2237    3.5174    2.2110 H   0  0  0  0  0  0  0  0  0  0  0  0
   -0.5041    3.5795    0.4574 H   0  0  0  0  0  0  0  0  0  0  0  0
  1  2  1  0  0  0  0
  2  3  1  0  0  0  0
  2  4  1  0  0  0  0
  2  5  1  0  0  0  0
  5  6  2  0  0  0  0
  5  7  1  0  0  0  0
  7  8  1  0  0  0  0
  7  9  1  0  0  0  0
  9 10  1  0  0  0  0
  9 11  1  0  0  0  0
  9 26  1  0  0  0  0
 11 12  1  0  0  0  0
 11 13  1  0  0  0  0
 11 14  1  0  0  0  0
 14 15  2  0  0  0  0
 14 24  1  0  0  0  0
 15 16  1  0  0  0  0
 15 17  1  0  0  0  0
 17 18  1  0  0  0  0
 17 19  2  0  0  0  0
 19 20  1  0  0  0  0
 19 22  1  0  0  0  0
 20 21  1  0  0  0  0
 22 23  1  0  0  0  0
 22 24  2  0  0  0  0
 24 25  1  0  0  0  0
 26 27  2  0  0  0  0
 26 28  1  0  0  0  0
 28 29  1  0  0  0  0
 28 30  1  0  0  0  0
 30 31  1  0  0  0  0
 30 32  1  0  0  0  0
 30 33  1  0  0  0  0
M  END
$$$$

  -OEChem-04042216043D

 33 33  0     1  0  0  0  0  0999 V2000
   -3.9428   -4.0115    1.5467 H   0  0  0  0  0  0  0  0  0  0  0  0
   -3.8881   -3.1310    0.9003 C   0  0  0  0  0  0  0  0  0  0  0  0
   -4.6092   -2.3894    1.2528 H   0  0  0  0  0  0  0  0  0  0  0  0
   -4.1474   -3.4254   -0.1195 H   0  0  0  0  0  0  0  0  0  0  0  0
   -2.4883   -2.5466    0.9296 C   0  0  0  0  0  0  0  0  0  0  0  0
   -1.6135   -3.0867    1.5885 O   0  0  0  0  0  0  0  0  0  0  0  0
   -2.2085   -1.4040    0.2103 N   0  0  0  0  0  0  0  0  0  0  0  0
   -2.9911   -0.9270   -0.2357 H   0  0  0  0  0  0  0  0  0  0  0  0
   -0.9397   -0.6656    0.2828 C   0  0  1  0  0  0  0  0  0  0  0  0
   -0.3744   -0.9511    1.1757 H   0  0  0  0  0  0  0  0  0  0  0  0
   -0.1042   -0.9932   -0.9668 C   0  0  0  0  0  0  0  0  0  0  0  0
    0.2852   -2.0131   -0.8849 H   0  0  0  0  0  0  0  0  0  0  0  0
   -0.7503   -0.9627   -1.8506 H   0  0  0  0  0  0  0  0  0  0  0  0
    1.0377   -0.0212   -1.1536 C   0  0  0  0  0  0  0  0  0  0  0  0
    0.9778    0.9747   -2.1397 C   0  0  0  0  0  0  0  0  0  0  0  0
    0.1008    1.0588   -2.7758 H   0  0  0  0  0  0  0  0  0  0  0  0
    2.0346    1.8786   -2.2974 C   0  0  0  0  0  0  0  0  0  0  0  0
    1.9670    2.6472   -3.0595 H   0  0  0  0  0  0  0  0  0  0  0  0
    3.1610    1.7919   -1.4765 C   0  0  0  0  0  0  0  0  0  0  0  0
    4.1964    2.6690   -1.6219 O   0  0  0  0  0  0  0  0  0  0  0  0
    4.0179    3.2730   -2.3593 H   0  0  0  0  0  0  0  0  0  0  0  0
    3.2289    0.7992   -0.5006 C   0  0  0  0  0  0  0  0  0  0  0  0
    4.1112    0.7364    0.1280 H   0  0  0  0  0  0  0  0  0  0  0  0
    2.1758   -0.1074   -0.3384 C   0  0  0  0  0  0  0  0  0  0  0  0
    2.2467   -0.8808    0.4214 H   0  0  0  0  0  0  0  0  0  0  0  0
   -1.2428    0.8448    0.3873 C   0  0  0  0  0  0  0  0  0  0  0  0
   -2.1439    1.3315   -0.2893 O   0  0  0  0  0  0  0  0  0  0  0  0
   -0.5684    1.6392    1.2963 N   0  0  0  0  0  0  0  0  0  0  0  0
    0.2301    1.2247    1.7684 H   0  0  0  0  0  0  0  0  0  0  0  0
   -0.7591    3.0811    1.3850 C   0  0  0  0  0  0  0  0  0  0  0  0
   -1.8104    3.3188    1.5793 H   0  0  0  0  0  0  0  0  0  0  0  0
   -0.1577    3.4917    2.2018 H   0  0  0  0  0  0  0  0  0  0  0  0
   -0.4538    3.5644    0.4510 H   0  0  0  0  0  0  0  0  0  0  0  0
  1  2  1  0  0  0  0
  2  3  1  0  0  0  0
  2  4  1  0  0  0  0
  2  5  1  0  0  0  0
  5  6  2  0  0  0  0
  5  7  1  0  0  0  0
  7  8  1  0  0  0  0
  7  9  1  0  0  0  0
  9 10  1  0  0  0  0
  9 11  1  0  0  0  0
  9 26  1  0  0  0  0
 11 12  1  0  0  0  0
 11 13  1  0  0  0  0
 11 14  1  0  0  0  0
 14 15  2  0  0  0  0
 14 24  1  0  0  0  0
 15 16  1  0  0  0  0
 15 17  1  0  0  0  0
 17 18  1  0  0  0  0
 17 19  2  0  0  0  0
 19 20  1  0  0  0  0
 19 22  1  0  0  0  0
 20 21  1  0  0  0  0
 22 23  1  0  0  0  0
 22 24  2  0  0  0  0
 24 25  1  0  0  0  0
 26 27  2  0  0  0  0
 26 28  1  0  0  0  0
 28 29  1  0  0  0  0
 28 30  1  0  0  0  0
 30 31  1  0  0  0  0
 30 32  1  0  0  0  0
 30 33  1  0  0  0  0
M  END
$$$$

  -OEChem-04042216043D

 33 33  0     1  0  0  0  0  0999 V2000
   -3.9401   -4.0156    1.5269 H   0  0  0  0  0  0  0  0  0  0  0  0
   -3.8872   -3.1305    0.8870 C   0  0  0  0  0  0  0  0  0  0  0  0
   -4.6095   -2.3930    1.2455 H   0  0  0  0  0  0  0  0  0  0  0  0
   -4.1468   -3.4181   -0.1347 H   0  0  0  0  0  0  0  0  0  0  0  0
   -2.4882   -2.5445    0.9200 C   0  0  0  0  0  0  0  0  0  0  0  0
   -1.6119   -3.0893    1.5728 O   0  0  0  0  0  0  0  0  0  0  0  0
   -2.2109   -1.3961    0.2090 N   0  0  0  0  0  0  0  0  0  0  0  0
   -2.9939   -0.9191   -0.2363 H   0  0  0  0  0  0  0  0  0  0  0  0
   -0.9425   -0.6569    0.2836 C   0  0  1  0  0  0  0  0  0  0  0  0
   -0.3786   -0.9452    1.1768 H   0  0  0  0  0  0  0  0  0  0  0  0
   -0.1013   -0.9944   -0.9613 C   0  0  0  0  0  0  0  0  0  0  0  0
    0.2782   -2.0178   -0.8726 H   0  0  0  0  0  0  0  0  0  0  0  0
   -0.7434   -0.9643   -1.8480 H   0  0  0  0  0  0  0  0  0  0  0  0
    1.0467   -0.0316   -1.1637 C   0  0  0  0  0  0  0  0  0  0  0  0
    0.8828    1.1320   -1.9319 C   0  0  0  0  0  0  0  0  0  0  0  0
   -0.0763    1.3445   -2.3978 H   0  0  0  0  0  0  0  0  0  0  0  0
    1.9419    2.0330   -2.0879 C   0  0  0  0  0  0  0  0  0  0  0  0
    1.7939    2.9291   -2.6805 H   0  0  0  0  0  0  0  0  0  0  0  0
    3.1736    1.7800   -1.4807 C   0  0  0  0  0  0  0  0  0  0  0  0
    4.2120    2.6537   -1.6252 O   0  0  0  0  0  0  0  0  0  0  0  0
    3.9518    3.3842   -2.2076 H   0  0  0  0  0  0  0  0  0  0  0  0
    3.3428    0.6251   -0.7185 C   0  0  0  0  0  0  0  0  0  0  0  0
    4.3045    0.4359   -0.2524 H   0  0  0  0  0  0  0  0  0  0  0  0
    2.2870   -0.2791   -0.5582 C   0  0  0  0  0  0  0  0  0  0  0  0
    2.4347   -1.1745    0.0393 H   0  0  0  0  0  0  0  0  0  0  0  0
   -1.2465    0.8516    0.4004 C   0  0  0  0  0  0  0  0  0  0  0  0
   -2.1436    1.3453   -0.2765 O   0  0  0  0  0  0  0  0  0  0  0  0
   -0.5701    1.6392    1.3137 N   0  0  0  0  0  0  0  0  0  0  0  0
    0.2244    1.2184    1.7873 H   0  0  0  0  0  0  0  0  0  0  0  0
   -0.7614    3.0801    1.4165 C   0  0  0  0  0  0  0  0  0  0  0  0
   -1.8124    3.3153    1.6150 H   0  0  0  0  0  0  0  0  0  0  0  0
   -0.1586    3.4833    2.2359 H   0  0  0  0  0  0  0  0  0  0  0  0
   -0.4587    3.5729    0.4866 H   0  0  0  0  0  0  0  0  0  0  0  0
  1  2  1  0  0  0  0
  2  3  1  0  0  0  0
  2  4  1  0  0  0  0
  2  5  1  0  0  0  0
  5  6  2  0  0  0  0
  5  7  1  0  0  0  0
  7  8  1  0  0  0  0
  7  9  1  0  0  0  0
  9 10  1  0  0  0  0
  9 11  1  0  0  0  0
  9 26  1  0  0  0  0
 11 12  1  0  0  0  0
 11 13  1  0  0  0  0
 11 14  1  0  0  0  0
 14 15  2  0  0  0  0
 14 24  1  0  0  0  0
 15 16  1  0  0  0  0
 15 17  1  0  0  0  0
 17 18  1  0  0  0  0
 17 19  2  0  0  0  0
 19 20  1  0  0  0  0
 19 22  1  0  0  0  0
 20 21  1  0  0  0  0
 22 23  1  0  0  0  0
 22 24  2  0  0  0  0
 24 25  1  0  0  0  0
 26 27  2  0  0  0  0
 26 28  1  0  0  0  0
 28 29  1  0  0  0  0
 28 30  1  0  0  0  0
 30 31  1  0  0  0  0
 30 32  1  0  0  0  0
 30 33  1  0  0  0  0
M  END
$$$$

  -OEChem-04042216043D

 33 33  0     1  0  0  0  0  0999 V2000
   -3.9096   -4.0406    1.4871 H   0  0  0  0  0  0  0  0  0  0  0  0
   -3.8700   -3.1421    0.8649 C   0  0  0  0  0  0  0  0  0  0  0  0
   -4.5971   -2.4195    1.2434 H   0  0  0  0  0  0  0  0  0  0  0  0
   -4.1337   -3.4115   -0.1607 H   0  0  0  0  0  0  0  0  0  0  0  0
   -2.4772   -2.5417    0.9005 C   0  0  0  0  0  0  0  0  0  0  0  0
   -1.5915   -3.0874    1.5399 O   0  0  0  0  0  0  0  0  0  0  0  0
   -2.2168   -1.3777    0.2086 N   0  0  0  0  0  0  0  0  0  0  0  0
   -3.0082   -0.9017   -0.2227 H   0  0  0  0  0  0  0  0  0  0  0  0
   -0.9573   -0.6241    0.2915 C   0  0  1  0  0  0  0  0  0  0  0  0
   -0.3981   -0.9126    1.1875 H   0  0  0  0  0  0  0  0  0  0  0  0
   -0.0980   -0.9725   -0.9420 C   0  0  0  0  0  0  0  0  0  0  0  0
    0.2714   -1.9977   -0.8351 H   0  0  0  0  0  0  0  0  0  0  0  0
   -0.7364   -0.9541   -1.8318 H   0  0  0  0  0  0  0  0  0  0  0  0
    1.0597   -0.0265   -1.1867 C   0  0  0  0  0  0  0  0  0  0  0  0
    0.8610    1.2582   -1.7208 C   0  0  0  0  0  0  0  0  0  0  0  0
   -0.1361    1.5812   -2.0108 H   0  0  0  0  0  0  0  0  0  0  0  0
    1.9397    2.1329   -1.8921 C   0  0  0  0  0  0  0  0  0  0  0  0
    1.7625    3.1187   -2.3077 H   0  0  0  0  0  0  0  0  0  0  0  0
    3.2284    1.7371   -1.5303 C   0  0  0  0  0  0  0  0  0  0  0  0
    4.2869    2.5831   -1.6925 O   0  0  0  0  0  0  0  0  0  0  0  0
    3.9905    3.4117   -2.0997 H   0  0  0  0  0  0  0  0  0  0  0  0
    3.4343    0.4663   -0.9975 C   0  0  0  0  0  0  0  0  0  0  0  0
    4.4394    0.1667   -0.7185 H   0  0  0  0  0  0  0  0  0  0  0  0
    2.3589   -0.4119   -0.8235 C   0  0  0  0  0  0  0  0  0  0  0  0
    2.5398   -1.3957   -0.3995 H   0  0  0  0  0  0  0  0  0  0  0  0
   -1.2798    0.8768    0.4356 C   0  0  0  0  0  0  0  0  0  0  0  0
   -2.1899    1.3715   -0.2228 O   0  0  0  0  0  0  0  0  0  0  0  0
   -0.6088    1.6553    1.3607 N   0  0  0  0  0  0  0  0  0  0  0  0
    0.1864    1.2327    1.8322 H   0  0  0  0  0  0  0  0  0  0  0  0
   -0.8326    3.0874    1.5113 C   0  0  0  0  0  0  0  0  0  0  0  0
   -1.8852    3.2909    1.7346 H   0  0  0  0  0  0  0  0  0  0  0  0
   -0.2252    3.4805    2.3324 H   0  0  0  0  0  0  0  0  0  0  0  0
   -0.5582    3.6151    0.5920 H   0  0  0  0  0  0  0  0  0  0  0  0
  1  2  1  0  0  0  0
  2  3  1  0  0  0  0
  2  4  1  0  0  0  0
  2  5  1  0  0  0  0
  5  6  2  0  0  0  0
  5  7  1  0  0  0  0
  7  8  1  0  0  0  0
  7  9  1  0  0  0  0
  9 10  1  0  0  0  0
  9 11  1  0  0  0  0
  9 26  1  0  0  0  0
 11 12  1  0  0  0  0
 11 13  1  0  0  0  0
 11 14  1  0  0  0  0
 14 15  2  0  0  0  0
 14 24  1  0  0  0  0
 15 16  1  0  0  0  0
 15 17  1  0  0  0  0
 17 18  1  0  0  0  0
 17 19  2  0  0  0  0
 19 20  1  0  0  0  0
 19 22  1  0  0  0  0
 20 21  1  0  0  0  0
 22 23  1  0  0  0  0
 22 24  2  0  0  0  0
 24 25  1  0  0  0  0
 26 27  2  0  0  0  0
 26 28  1  0  0  0  0
 28 29  1  0  0  0  0
 28 30  1  0  0  0  0
 30 31  1  0  0  0  0
 30 32  1  0  0  0  0
 30 33  1  0  0  0  0
M  END
$$$$

  -OEChem-04042216043D

 33 33  0     1  0  0  0  0  0999 V2000
   -3.8560   -4.0774    1.4394 H   0  0  0  0  0  0  0  0  0  0  0  0
   -3.8343   -3.1656    0.8360 C   0  0  0  0  0  0  0  0  0  0  0  0
   -4.5762   -2.4661    1.2290 H   0  0  0  0  0  0  0  0  0  0  0  0
   -4.0923   -3.4184   -0.1952 H   0  0  0  0  0  0  0  0  0  0  0  0
   -2.4538   -2.5385    0.8845 C   0  0  0  0  0  0  0  0  0  0  0  0
   -1.5591   -3.0766    1.5176 O   0  0  0  0  0  0  0  0  0  0  0  0
   -2.2157   -1.3561    0.2163 N   0  0  0  0  0  0  0  0  0  0  0  0
   -3.0148   -0.8898   -0.2118 H   0  0  0  0  0  0  0  0  0  0  0  0
   -0.9714   -0.5789    0.3165 C   0  0  1  0  0  0  0  0  0  0  0  0
   -0.4154   -0.8665    1.2147 H   0  0  0  0  0  0  0  0  0  0  0  0
   -0.0932   -0.9242   -0.9099 C   0  0  0  0  0  0  0  0  0  0  0  0
    0.2678   -1.9509   -0.7892 H   0  0  0  0  0  0  0  0  0  0  0  0
   -0.7333   -0.9164   -1.7982 H   0  0  0  0  0  0  0  0  0  0  0  0
    1.0759    0.0016   -1.2070 C   0  0  0  0  0  0  0  0  0  0  0  0
    0.9179    1.3710   -1.4907 C   0  0  0  0  0  0  0  0  0  0  0  0
   -0.0713    1.8082   -1.5902 H   0  0  0  0  0  0  0  0  0  0  0  0
    2.0304    2.1948   -1.6953 C   0  0  0  0  0  0  0  0  0  0  0  0
    1.8786    3.2445   -1.9219 H   0  0  0  0  0  0  0  0  0  0  0  0
    3.3191    1.6669   -1.6157 C   0  0  0  0  0  0  0  0  0  0  0  0
    4.4106    2.4617   -1.8134 O   0  0  0  0  0  0  0  0  0  0  0  0
    4.1298    3.3642   -2.0295 H   0  0  0  0  0  0  0  0  0  0  0  0
    3.4905    0.3143   -1.3342 C   0  0  0  0  0  0  0  0  0  0  0  0
    4.4958   -0.0903   -1.2742 H   0  0  0  0  0  0  0  0  0  0  0  0
    2.3809   -0.5129   -1.1292 C   0  0  0  0  0  0  0  0  0  0  0  0
    2.5435   -1.5626   -0.9009 H   0  0  0  0  0  0  0  0  0  0  0  0
   -1.3360    0.9079    0.4890 C   0  0  0  0  0  0  0  0  0  0  0  0
   -2.2578    1.3921   -0.1605 O   0  0  0  0  0  0  0  0  0  0  0  0
   -0.6890    1.6854    1.4318 N   0  0  0  0  0  0  0  0  0  0  0  0
    0.0983    1.2673    1.9206 H   0  0  0  0  0  0  0  0  0  0  0  0
   -0.9761    3.0990    1.6389 C   0  0  0  0  0  0  0  0  0  0  0  0
   -2.0346    3.2450    1.8787 H   0  0  0  0  0  0  0  0  0  0  0  0
   -0.3787    3.4879    2.4690 H   0  0  0  0  0  0  0  0  0  0  0  0
   -0.7356    3.6735    0.7384 H   0  0  0  0  0  0  0  0  0  0  0  0
  1  2  1  0  0  0  0
  2  3  1  0  0  0  0
  2  4  1  0  0  0  0
  2  5  1  0  0  0  0
  5  6  2  0  0  0  0
  5  7  1  0  0  0  0
  7  8  1  0  0  0  0
  7  9  1  0  0  0  0
  9 10  1  0  0  0  0
  9 11  1  0  0  0  0
  9 26  1  0  0  0  0
 11 12  1  0  0  0  0
 11 13  1  0  0  0  0
 11 14  1  0  0  0  0
 14 15  2  0  0  0  0
 14 24  1  0  0  0  0
 15 16  1  0  0  0  0
 15 17  1  0  0  0  0
 17 18  1  0  0  0  0
 17 19  2  0  0  0  0
 19 20  1  0  0  0  0
 19 22  1  0  0  0  0
 20 21  1  0  0  0  0
 22 23  1  0  0  0  0
 22 24  2  0  0  0  0
 24 25  1  0  0  0  0
 26 27  2  0  0  0  0
 26 28  1  0  0  0  0
 28 29  1  0  0  0  0
 28 30  1  0  0  0  0
 30 31  1  0  0  0  0
 30 32  1  0  0  0  0
 30 33  1  0  0  0  0
M  END
$$$$

  -OEChem-04042216043D

 33 33  0     1  0  0  0  0  0999 V2000
   -3.7946   -4.1311    1.3576 H   0  0  0  0  0  0  0  0  0  0  0  0
   -3.7870   -3.2034    0.7785 C   0  0  0  0  0  0  0  0  0  0  0  0
   -4.5574   -2.5357    1.1719 H   0  0  0  0  0  0  0  0  0  0  0  0
   -4.0148   -3.4370   -0.2642 H   0  0  0  0  0  0  0  0  0  0  0  0
   -2.4271   -2.5378    0.8745 C   0  0  0  0  0  0  0  0  0  0  0  0
   -1.5323   -3.0619    1.5190 O   0  0  0  0  0  0  0  0  0  0  0  0
   -2.2065   -1.3378    0.2319 N   0  0  0  0  0  0  0  0  0  0  0  0
   -3.0069   -0.8881   -0.2110 H   0  0  0  0  0  0  0  0  0  0  0  0
   -0.9825   -0.5325    0.3616 C   0  0  1  0  0  0  0  0  0  0  0  0
   -0.4311   -0.8188    1.2631 H   0  0  0  0  0  0  0  0  0  0  0  0
   -0.0867   -0.8600   -0.8602 C   0  0  0  0  0  0  0  0  0  0  0  0
    0.2739   -1.8855   -0.7275 H   0  0  0  0  0  0  0  0  0  0  0  0
   -0.7285   -0.8644   -1.7474 H   0  0  0  0  0  0  0  0  0  0  0  0
    1.0912    0.0485   -1.2018 C   0  0  0  0  0  0  0  0  0  0  0  0
    1.0420    1.4569   -1.2291 C   0  0  0  0  0  0  0  0  0  0  0  0
    0.1115    1.9986   -1.1086 H   0  0  0  0  0  0  0  0  0  0  0  0
    2.1907    2.2147   -1.4865 C   0  0  0  0  0  0  0  0  0  0  0  0
    2.1173    3.2963   -1.5151 H   0  0  0  0  0  0  0  0  0  0  0  0
    3.4129    1.5852   -1.7167 C   0  0  0  0  0  0  0  0  0  0  0  0
    4.5381    2.3153   -1.9697 O   0  0  0  0  0  0  0  0  0  0  0  0
    4.3229    3.2604   -1.9925 H   0  0  0  0  0  0  0  0  0  0  0  0
    3.4803    0.1962   -1.6940 C   0  0  0  0  0  0  0  0  0  0  0  0
    4.4335   -0.2898   -1.8741 H   0  0  0  0  0  0  0  0  0  0  0  0
    2.3346   -0.5646   -1.4395 C   0  0  0  0  0  0  0  0  0  0  0  0
    2.4247   -1.6470   -1.4200 H   0  0  0  0  0  0  0  0  0  0  0  0
   -1.3990    0.9366    0.5548 C   0  0  0  0  0  0  0  0  0  0  0  0
   -2.3147    1.4095   -0.1106 O   0  0  0  0  0  0  0  0  0  0  0  0
   -0.7910    1.7179    1.5207 N   0  0  0  0  0  0  0  0  0  0  0  0
   -0.0195    1.3060    2.0391 H   0  0  0  0  0  0  0  0  0  0  0  0
   -1.1387    3.1127    1.7616 C   0  0  0  0  0  0  0  0  0  0  0  0
   -2.2016    3.2066    2.0082 H   0  0  0  0  0  0  0  0  0  0  0  0
   -0.5548    3.5086    2.5980 H   0  0  0  0  0  0  0  0  0  0  0  0
   -0.9277    3.7179    0.8739 H   0  0  0  0  0  0  0  0  0  0  0  0
  1  2  1  0  0  0  0
  2  3  1  0  0  0  0
  2  4  1  0  0  0  0
  2  5  1  0  0  0  0
  5  6  2  0  0  0  0
  5  7  1  0  0  0  0
  7  8  1  0  0  0  0
  7  9  1  0  0  0  0
  9 10  1  0  0  0  0
  9 11  1  0  0  0  0
  9 26  1  0  0  0  0
 11 12  1  0  0  0  0
 11 13  1  0  0  0  0
 11 14  1  0  0  0  0
 14 15  2  0  0  0  0
 14 24  1  0  0  0  0
 15 16  1  0  0  0  0
 15 17  1  0  0  0  0
 17 18  1  0  0  0  0
 17 19  2  0  0  0  0
 19 20  1  0  0  0  0
 19 22  1  0  0  0  0
 20 21  1  0  0  0  0
 22 23  1  0  0  0  0
 22 24  2  0  0  0  0
 24 25  1  0  0  0  0
 26 27  2  0  0  0  0
 26 28  1  0  0  0  0
 28 29  1  0  0  0  0
 28 30  1  0  0  0  0
 30 31  1  0  0  0  0
 30 32  1  0  0  0  0
 30 33  1  0  0  0  0
M  END
$$$$

  -OEChem-04042216043D

 33 33  0     1  0  0  0  0  0999 V2000
   -3.7502   -4.1516    1.2730 H   0  0  0  0  0  0  0  0  0  0  0  0
   -3.7420   -3.2157    0.7074 C   0  0  0  0  0  0  0  0  0  0  0  0
   -4.5404   -2.5707    1.0825 H   0  0  0  0  0  0  0  0  0  0  0  0
   -3.9274   -3.4388   -0.3461 H   0  0  0  0  0  0  0  0  0  0  0  0
   -2.4010   -2.5233    0.8620 C   0  0  0  0  0  0  0  0  0  0  0  0
   -1.5252   -3.0312    1.5442 O   0  0  0  0  0  0  0  0  0  0  0  0
   -2.1771   -1.3144    0.2373 N   0  0  0  0  0  0  0  0  0  0  0  0
   -2.9646   -0.8776   -0.2408 H   0  0  0  0  0  0  0  0  0  0  0  0
   -0.9715   -0.4906    0.4193 C   0  0  1  0  0  0  0  0  0  0  0  0
   -0.4346   -0.7735    1.3308 H   0  0  0  0  0  0  0  0  0  0  0  0
   -0.0571   -0.7967   -0.7965 C   0  0  0  0  0  0  0  0  0  0  0  0
    0.3016   -1.8223   -0.6594 H   0  0  0  0  0  0  0  0  0  0  0  0
   -0.6950   -0.7999   -1.6869 H   0  0  0  0  0  0  0  0  0  0  0  0
    1.1351    0.0877   -1.1614 C   0  0  0  0  0  0  0  0  0  0  0  0
    1.2490    1.4752   -0.9353 C   0  0  0  0  0  0  0  0  0  0  0  0
    0.4371    2.0712   -0.5460 H   0  0  0  0  0  0  0  0  0  0  0  0
    2.4175    2.1692   -1.2737 C   0  0  0  0  0  0  0  0  0  0  0  0
    2.4689    3.2384   -1.0999 H   0  0  0  0  0  0  0  0  0  0  0  0
    3.4988    1.4983   -1.8414 C   0  0  0  0  0  0  0  0  0  0  0  0
    4.6404    2.1681   -2.1749 O   0  0  0  0  0  0  0  0  0  0  0  0
    4.5406    3.1125   -1.9801 H   0  0  0  0  0  0  0  0  0  0  0  0
    3.4048    0.1316   -2.0761 C   0  0  0  0  0  0  0  0  0  0  0  0
    4.2468   -0.3883   -2.5213 H   0  0  0  0  0  0  0  0  0  0  0  0
    2.2388   -0.5642   -1.7420 C   0  0  0  0  0  0  0  0  0  0  0  0
    2.2013   -1.6324   -1.9358 H   0  0  0  0  0  0  0  0  0  0  0  0
   -1.4443    0.9622    0.6068 C   0  0  0  0  0  0  0  0  0  0  0  0
   -2.3349    1.4195   -0.1015 O   0  0  0  0  0  0  0  0  0  0  0  0
   -0.9004    1.7517    1.6047 N   0  0  0  0  0  0  0  0  0  0  0  0
   -0.1905    1.3330    2.2000 H   0  0  0  0  0  0  0  0  0  0  0  0
   -1.3405    3.1138    1.8799 C   0  0  0  0  0  0  0  0  0  0  0  0
   -2.4122    3.1331    2.1046 H   0  0  0  0  0  0  0  0  0  0  0  0
   -0.8008    3.5187    2.7412 H   0  0  0  0  0  0  0  0  0  0  0  0
   -1.1499    3.7592    1.0161 H   0  0  0  0  0  0  0  0  0  0  0  0
  1  2  1  0  0  0  0
  2  3  1  0  0  0  0
  2  4  1  0  0  0  0
  2  5  1  0  0  0  0
  5  6  2  0  0  0  0
  5  7  1  0  0  0  0
  7  8  1  0  0  0  0
  7  9  1  0  0  0  0
  9 10  1  0  0  0  0
  9 11  1  0  0  0  0
  9 26  1  0  0  0  0
 11 12  1  0  0  0  0
 11 13  1  0  0  0  0
 11 14  1  0  0  0  0
 14 15  2  0  0  0  0
 14 24  1  0  0  0  0
 15 16  1  0  0  0  0
 15 17  1  0  0  0  0
 17 18  1  0  0  0  0
 17 19  2  0  0  0  0
 19 20  1  0  0  0  0
 19 22  1  0  0  0  0
 20 21  1  0  0  0  0
 22 23  1  0  0  0  0
 22 24  2  0  0  0  0
 24 25  1  0  0  0  0
 26 27  2  0  0  0  0
 26 28  1  0  0  0  0
 28 29  1  0  0  0  0
 28 30  1  0  0  0  0
 30 31  1  0  0  0  0
 30 32  1  0  0  0  0
 30 33  1  0  0  0  0
M  END
$$$$

  -OEChem-04042216043D

 33 33  0     1  0  0  0  0  0999 V2000
   -3.7619   -4.1392    1.1910 H   0  0  0  0  0  0  0  0  0  0  0  0
   -3.7290   -3.2003    0.6312 C   0  0  0  0  0  0  0  0  0  0  0  0
   -4.5447   -2.5580    0.9720 H   0  0  0  0  0  0  0  0  0  0  0  0
   -3.8656   -3.4183   -0.4308 H   0  0  0  0  0  0  0  0  0  0  0  0
   -2.3976   -2.5069    0.8506 C   0  0  0  0  0  0  0  0  0  0  0  0
   -1.5563   -3.0118    1.5772 O   0  0  0  0  0  0  0  0  0  0  0  0
   -2.1443   -1.2988    0.2365 N   0  0  0  0  0  0  0  0  0  0  0  0
   -2.9084   -0.8609   -0.2774 H   0  0  0  0  0  0  0  0  0  0  0  0
   -0.9470   -0.4768    0.4740 C   0  0  1  0  0  0  0  0  0  0  0  0
   -0.4323   -0.7616    1.3973 H   0  0  0  0  0  0  0  0  0  0  0  0
   -0.0206   -0.7753   -0.7361 C   0  0  0  0  0  0  0  0  0  0  0  0
    0.3320   -1.8040   -0.6039 H   0  0  0  0  0  0  0  0  0  0  0  0
   -0.6519   -0.7660   -1.6314 H   0  0  0  0  0  0  0  0  0  0  0  0
    1.1897    0.0823   -1.0978 C   0  0  0  0  0  0  0  0  0  0  0  0
    1.4831    1.3765   -0.6251 C   0  0  0  0  0  0  0  0  0  0  0  0
    0.8358    1.9130    0.0474 H   0  0  0  0  0  0  0  0  0  0  0  0
    2.6409    2.0504   -1.0340 C   0  0  0  0  0  0  0  0  0  0  0  0
    2.8346    3.0487   -0.6570 H   0  0  0  0  0  0  0  0  0  0  0  0
    3.5329    1.4491   -1.9201 C   0  0  0  0  0  0  0  0  0  0  0  0
    4.6633    2.0992   -2.3238 O   0  0  0  0  0  0  0  0  0  0  0  0
    4.6976    2.9840   -1.9291 H   0  0  0  0  0  0  0  0  0  0  0  0
    3.2607    0.1726   -2.3985 C   0  0  0  0  0  0  0  0  0  0  0  0
    3.9552   -0.2936   -3.0897 H   0  0  0  0  0  0  0  0  0  0  0  0
    2.1037   -0.5005   -1.9944 C   0  0  0  0  0  0  0  0  0  0  0  0
    1.9175   -1.4964   -2.3865 H   0  0  0  0  0  0  0  0  0  0  0  0
   -1.4519    0.9718    0.6363 C   0  0  0  0  0  0  0  0  0  0  0  0
   -2.3104    1.4149   -0.1193 O   0  0  0  0  0  0  0  0  0  0  0  0
   -0.9747    1.7748    1.6582 N   0  0  0  0  0  0  0  0  0  0  0  0
   -0.3301    1.3542    2.3223 H   0  0  0  0  0  0  0  0  0  0  0  0
   -1.4644    3.1246    1.9093 C   0  0  0  0  0  0  0  0  0  0  0  0
   -2.5360    3.1079    2.1339 H   0  0  0  0  0  0  0  0  0  0  0  0
   -0.9387    3.5650    2.7619 H   0  0  0  0  0  0  0  0  0  0  0  0
   -1.2972    3.7613    1.0342 H   0  0  0  0  0  0  0  0  0  0  0  0
  1  2  1  0  0  0  0
  2  3  1  0  0  0  0
  2  4  1  0  0  0  0
  2  5  1  0  0  0  0
  5  6  2  0  0  0  0
  5  7  1  0  0  0  0
  7  8  1  0  0  0  0
  7  9  1  0  0  0  0
  9 10  1  0  0  0  0
  9 11  1  0  0  0  0
  9 26  1  0  0  0  0
 11 12  1  0  0  0  0
 11 13  1  0  0  0  0
 11 14  1  0  0  0  0
 14 15  2  0  0  0  0
 14 24  1  0  0  0  0
 15 16  1  0  0  0  0
 15 17  1  0  0  0  0
 17 18  1  0  0  0  0
 17 19  2  0  0  0  0
 19 20  1  0  0  0  0
 19 22  1  0  0  0  0
 20 21  1  0  0  0  0
 22 23  1  0  0  0  0
 22 24  2  0  0  0  0
 24 25  1  0  0  0  0
 26 27  2  0  0  0  0
 26 28  1  0  0  0  0
 28 29  1  0  0  0  0
 28 30  1  0  0  0  0
 30 31  1  0  0  0  0
 30 32  1  0  0  0  0
 30 33  1  0  0  0  0
M  END
$$$$

  -OEChem-04042216043D

 33 33  0     1  0  0  0  0  0999 V2000
   -3.8781   -4.0778    1.1584 H   0  0  0  0  0  0  0  0  0  0  0  0
   -3.7959   -3.1479    0.5888 C   0  0  0  0  0  0  0  0  0  0  0  0
   -4.6012   -2.4755    0.8943 H   0  0  0  0  0  0  0  0  0  0  0  0
   -3.9039   -3.3755   -0.4743 H   0  0  0  0  0  0  0  0  0  0  0  0
   -2.4505   -2.4949    0.8439 C   0  0  0  0  0  0  0  0  0  0  0  0
   -1.6490   -3.0196    1.6007 O   0  0  0  0  0  0  0  0  0  0  0  0
   -2.1388   -1.3015    0.2277 N   0  0  0  0  0  0  0  0  0  0  0  0
   -2.8725   -0.8395   -0.3096 H   0  0  0  0  0  0  0  0  0  0  0  0
   -0.9149   -0.5257    0.4859 C   0  0  1  0  0  0  0  0  0  0  0  0
   -0.4084   -0.8298    1.4074 H   0  0  0  0  0  0  0  0  0  0  0  0
   -0.0100   -0.8144   -0.7412 C   0  0  0  0  0  0  0  0  0  0  0  0
    0.3200   -1.8550   -0.6541 H   0  0  0  0  0  0  0  0  0  0  0  0
   -0.6475   -0.7529   -1.6306 H   0  0  0  0  0  0  0  0  0  0  0  0
    1.2198    0.0265   -1.0620 C   0  0  0  0  0  0  0  0  0  0  0  0
    1.6893    1.1288   -0.3243 C   0  0  0  0  0  0  0  0  0  0  0  0
    1.2275    1.4382    0.5985 H   0  0  0  0  0  0  0  0  0  0  0  0
    2.8150    1.8498   -0.7418 C   0  0  0  0  0  0  0  0  0  0  0  0
    3.1569    2.6919   -0.1504 H   0  0  0  0  0  0  0  0  0  0  0  0
    3.4947    1.4863   -1.9036 C   0  0  0  0  0  0  0  0  0  0  0  0
    4.5922    2.1838   -2.3185 O   0  0  0  0  0  0  0  0  0  0  0  0
    4.7634    2.9235   -1.7158 H   0  0  0  0  0  0  0  0  0  0  0  0
    3.0467    0.3974   -2.6433 C   0  0  0  0  0  0  0  0  0  0  0  0
    3.5777    0.1168   -3.5470 H   0  0  0  0  0  0  0  0  0  0  0  0
    1.9223   -0.3232   -2.2282 C   0  0  0  0  0  0  0  0  0  0  0  0
    1.5891   -1.1654   -2.8279 H   0  0  0  0  0  0  0  0  0  0  0  0
   -1.3892    0.9398    0.6268 C   0  0  0  0  0  0  0  0  0  0  0  0
   -2.2178    1.3924   -0.1568 O   0  0  0  0  0  0  0  0  0  0  0  0
   -0.9262    1.7516    1.6481 N   0  0  0  0  0  0  0  0  0  0  0  0
   -0.3374    1.3212    2.3557 H   0  0  0  0  0  0  0  0  0  0  0  0
   -1.3914    3.1176    1.8569 C   0  0  0  0  0  0  0  0  0  0  0  0
   -2.4701    3.1311    2.0454 H   0  0  0  0  0  0  0  0  0  0  0  0
   -0.8837    3.5625    2.7180 H   0  0  0  0  0  0  0  0  0  0  0  0
   -1.1793    3.7329    0.9761 H   0  0  0  0  0  0  0  0  0  0  0  0
  1  2  1  0  0  0  0
  2  3  1  0  0  0  0
  2  4  1  0  0  0  0
  2  5  1  0  0  0  0
  5  6  2  0  0  0  0
  5  7  1  0  0  0  0
  7  8  1  0  0  0  0
  7  9  1  0  0  0  0
  9 10  1  0  0  0  0
  9 11  1  0  0  0  0
  9 26  1  0  0  0  0
 11 12  1  0  0  0  0
 11 13  1  0  0  0  0
 11 14  1  0  0  0  0
 14 15  2  0  0  0  0
 14 24  1  0  0  0  0
 15 16  1  0  0  0  0
 15 17  1  0  0  0  0
 17 18  1  0  0  0  0
 17 19  2  0  0  0  0
 19 20  1  0  0  0  0
 19 22  1  0  0  0  0
 20 21  1  0  0  0  0
 22 23  1  0  0  0  0
 22 24  2  0  0  0  0
 24 25  1  0  0  0  0
 26 27  2  0  0  0  0
 26 28  1  0  0  0  0
 28 29  1  0  0  0  0
 28 30  1  0  0  0  0
 30 31  1  0  0  0  0
 30 32  1  0  0  0  0
 30 33  1  0  0  0  0
M  END
$$$$

  -OEChem-04042216043D

 33 33  0     1  0  0  0  0  0999 V2000
   -3.9525   -4.0284    1.2748 H   0  0  0  0  0  0  0  0  0  0  0  0
   -3.8562   -3.1184    0.6763 C   0  0  0  0  0  0  0  0  0  0  0  0
   -4.6323   -2.4121    0.9811 H   0  0  0  0  0  0  0  0  0  0  0  0
   -3.9978   -3.3729   -0.3768 H   0  0  0  0  0  0  0  0  0  0  0  0
   -2.4852   -2.5018    0.8800 C   0  0  0  0  0  0  0  0  0  0  0  0
   -1.6807   -3.0325    1.6295 O   0  0  0  0  0  0  0  0  0  0  0  0
   -2.1533   -1.3348    0.2253 N   0  0  0  0  0  0  0  0  0  0  0  0
   -2.8872   -0.8637   -0.3036 H   0  0  0  0  0  0  0  0  0  0  0  0
   -0.9060   -0.5849    0.4410 C   0  0  1  0  0  0  0  0  0  0  0  0
   -0.3902   -0.8843    1.3590 H   0  0  0  0  0  0  0  0  0  0  0  0
   -0.0246   -0.8886   -0.7950 C   0  0  0  0  0  0  0  0  0  0  0  0
    0.3097   -1.9282   -0.7153 H   0  0  0  0  0  0  0  0  0  0  0  0
   -0.6685   -0.8238   -1.6795 H   0  0  0  0  0  0  0  0  0  0  0  0
    1.1985   -0.0305   -1.0820 C   0  0  0  0  0  0  0  0  0  0  0  0
    1.7948    0.8461   -0.1578 C   0  0  0  0  0  0  0  0  0  0  0  0
    1.4484    0.9007    0.8648 H   0  0  0  0  0  0  0  0  0  0  0  0
    2.8938    1.6350   -0.5201 C   0  0  0  0  0  0  0  0  0  0  0  0
    3.3402    2.2981    0.2127 H   0  0  0  0  0  0  0  0  0  0  0  0
    3.4165    1.5623   -1.8113 C   0  0  0  0  0  0  0  0  0  0  0  0
    4.4875    2.3263   -2.1751 O   0  0  0  0  0  0  0  0  0  0  0  0
    4.7647    2.8854   -1.4334 H   0  0  0  0  0  0  0  0  0  0  0  0
    2.8408    0.6953   -2.7347 C   0  0  0  0  0  0  0  0  0  0  0  0
    3.2514    0.6412   -3.7377 H   0  0  0  0  0  0  0  0  0  0  0  0
    1.7428   -0.0932   -2.3753 C   0  0  0  0  0  0  0  0  0  0  0  0
    1.3062   -0.7564   -3.1167 H   0  0  0  0  0  0  0  0  0  0  0  0
   -1.3245    0.9015    0.5503 C   0  0  0  0  0  0  0  0  0  0  0  0
   -2.1623    1.3564   -0.2226 O   0  0  0  0  0  0  0  0  0  0  0  0
   -0.8147    1.7262    1.5382 N   0  0  0  0  0  0  0  0  0  0  0  0
   -0.2142    1.3029    2.2393 H   0  0  0  0  0  0  0  0  0  0  0  0
   -1.2095    3.1204    1.6992 C   0  0  0  0  0  0  0  0  0  0  0  0
   -2.2910    3.1988    1.8531 H   0  0  0  0  0  0  0  0  0  0  0  0
   -0.7047    3.5586    2.5654 H   0  0  0  0  0  0  0  0  0  0  0  0
   -0.9369    3.6990    0.8102 H   0  0  0  0  0  0  0  0  0  0  0  0
  1  2  1  0  0  0  0
  2  3  1  0  0  0  0
  2  4  1  0  0  0  0
  2  5  1  0  0  0  0
  5  6  2  0  0  0  0
  5  7  1  0  0  0  0
  7  8  1  0  0  0  0
  7  9  1  0  0  0  0
  9 10  1  0  0  0  0
  9 11  1  0  0  0  0
  9 26  1  0  0  0  0
 11 12  1  0  0  0  0
 11 13  1  0  0  0  0
 11 14  1  0  0  0  0
 14 15  2  0  0  0  0
 14 24  1  0  0  0  0
 15 16  1  0  0  0  0
 15 17  1  0  0  0  0
 17 18  1  0  0  0  0
 17 19  2  0  0  0  0
 19 20  1  0  0  0  0
 19 22  1  0  0  0  0
 20 21  1  0  0  0  0
 22 23  1  0  0  0  0
 22 24  2  0  0  0  0
 24 25  1  0  0  0  0
 26 27  2  0  0  0  0
 26 28  1  0  0  0  0
 28 29  1  0  0  0  0
 28 30  1  0  0  0  0
 30 31  1  0  0  0  0
 30 32  1  0  0  0  0
 30 33  1  0  0  0  0
M  END
$$$$

  -OEChem-04042216043D

 33 33  0     1  0  0  0  0  0999 V2000
   -3.9763   -4.0030    1.4080 H   0  0  0  0  0  0  0  0  0  0  0  0
   -3.8892   -3.1080    0.7856 C   0  0  0  0  0  0  0  0  0  0  0  0
   -4.6350   -2.3786    1.1107 H   0  0  0  0  0  0  0  0  0  0  0  0
   -4.0859   -3.3811   -0.2539 H   0  0  0  0  0  0  0  0  0  0  0  0
   -2.4977   -2.5171    0.9109 C   0  0  0  0  0  0  0  0  0  0  0  0
   -1.6684   -3.0507    1.6311 O   0  0  0  0  0  0  0  0  0  0  0  0
   -2.1756   -1.3685    0.2196 N   0  0  0  0  0  0  0  0  0  0  0  0
   -2.9269   -0.8903   -0.2773 H   0  0  0  0  0  0  0  0  0  0  0  0
   -0.9122   -0.6321    0.3755 C   0  0  1  0  0  0  0  0  0  0  0  0
   -0.3797   -0.9261    1.2852 H   0  0  0  0  0  0  0  0  0  0  0  0
   -0.0526   -0.9457   -0.8693 C   0  0  0  0  0  0  0  0  0  0  0  0
    0.2983   -1.9797   -0.7914 H   0  0  0  0  0  0  0  0  0  0  0  0
   -0.7042   -0.8903   -1.7484 H   0  0  0  0  0  0  0  0  0  0  0  0
    1.1502   -0.0535   -1.1262 C   0  0  0  0  0  0  0  0  0  0  0  0
    1.8722    0.5723   -0.0942 C   0  0  0  0  0  0  0  0  0  0  0  0
    1.6205    0.3910    0.9444 H   0  0  0  0  0  0  0  0  0  0  0  0
    2.9572    1.4085   -0.3836 C   0  0  0  0  0  0  0  0  0  0  0  0
    3.5062    1.8732    0.4280 H   0  0  0  0  0  0  0  0  0  0  0  0
    3.3355    1.6350   -1.7077 C   0  0  0  0  0  0  0  0  0  0  0  0
    4.3929    2.4467   -2.0022 O   0  0  0  0  0  0  0  0  0  0  0  0
    4.7829    2.7954   -1.1861 H   0  0  0  0  0  0  0  0  0  0  0  0
    2.6288    1.0203   -2.7379 C   0  0  0  0  0  0  0  0  0  0  0  0
    2.9278    1.2001   -3.7655 H   0  0  0  0  0  0  0  0  0  0  0  0
    1.5454    0.1826   -2.4525 C   0  0  0  0  0  0  0  0  0  0  0  0
    1.0073   -0.2816   -3.2739 H   0  0  0  0  0  0  0  0  0  0  0  0
   -1.2779    0.8678    0.4708 C   0  0  0  0  0  0  0  0  0  0  0  0
   -2.1471    1.3289   -0.2627 O   0  0  0  0  0  0  0  0  0  0  0  0
   -0.7015    1.6895    1.4232 N   0  0  0  0  0  0  0  0  0  0  0  0
   -0.0350    1.2730    2.0653 H   0  0  0  0  0  0  0  0  0  0  0  0
   -1.0196    3.1056    1.5566 C   0  0  0  0  0  0  0  0  0  0  0  0
   -2.0887    3.2437    1.7494 H   0  0  0  0  0  0  0  0  0  0  0  0
   -0.4599    3.5419    2.3893 H   0  0  0  0  0  0  0  0  0  0  0  0
   -0.7536    3.6442    0.6410 H   0  0  0  0  0  0  0  0  0  0  0  0
  1  2  1  0  0  0  0
  2  3  1  0  0  0  0
  2  4  1  0  0  0  0
  2  5  1  0  0  0  0
  5  6  2  0  0  0  0
  5  7  1  0  0  0  0
  7  8  1  0  0  0  0
  7  9  1  0  0  0  0
  9 10  1  0  0  0  0
  9 11  1  0  0  0  0
  9 26  1  0  0  0  0
 11 12  1  0  0  0  0
 11 13  1  0  0  0  0
 11 14  1  0  0  0  0
 14 15  2  0  0  0  0
 14 24  1  0  0  0  0
 15 16  1  0  0  0  0
 15 17  1  0  0  0  0
 17 18  1  0  0  0  0
 17 19  2  0  0  0  0
 19 20  1  0  0  0  0
 19 22  1  0  0  0  0
 20 21  1  0  0  0  0
 22 23  1  0  0  0  0
 22 24  2  0  0  0  0
 24 25  1  0  0  0  0
 26 27  2  0  0  0  0
 26 28  1  0  0  0  0
 28 29  1  0  0  0  0
 28 30  1  0  0  0  0
 30 31  1  0  0  0  0
 30 32  1  0  0  0  0
 30 33  1  0  0  0  0
M  END
$$$$

  -OEChem-04042216043D

 33 33  0     1  0  0  0  0  0999 V2000
   -3.9775   -3.9937    1.5046 H   0  0  0  0  0  0  0  0  0  0  0  0
   -3.9007   -3.1109    0.8638 C   0  0  0  0  0  0  0  0  0  0  0  0
   -4.6296   -2.3684    1.1979 H   0  0  0  0  0  0  0  0  0  0  0  0
   -4.1312   -3.4008   -0.1642 H   0  0  0  0  0  0  0  0  0  0  0  0
   -2.5005   -2.5315    0.9364 C   0  0  0  0  0  0  0  0  0  0  0  0
   -1.6517   -3.0678    1.6315 O   0  0  0  0  0  0  0  0  0  0  0  0
   -2.1914   -1.3945    0.2205 N   0  0  0  0  0  0  0  0  0  0  0  0
   -2.9557   -0.9140   -0.2536 H   0  0  0  0  0  0  0  0  0  0  0  0
   -0.9180   -0.6672    0.3246 C   0  0  1  0  0  0  0  0  0  0  0  0
   -0.3692   -0.9574    1.2257 H   0  0  0  0  0  0  0  0  0  0  0  0
   -0.0796   -0.9938   -0.9274 C   0  0  0  0  0  0  0  0  0  0  0  0
    0.2856   -2.0225   -0.8482 H   0  0  0  0  0  0  0  0  0  0  0  0
   -0.7364   -0.9491   -1.8028 H   0  0  0  0  0  0  0  0  0  0  0  0
    1.1015   -0.0711   -1.1594 C   0  0  0  0  0  0  0  0  0  0  0  0
    1.9636    0.2941   -0.1107 C   0  0  0  0  0  0  0  0  0  0  0  0
    1.8251   -0.1218    0.8820 H   0  0  0  0  0  0  0  0  0  0  0  0
    3.0282    1.1747   -0.3358 C   0  0  0  0  0  0  0  0  0  0  0  0
    3.6868    1.4386    0.4843 H   0  0  0  0  0  0  0  0  0  0  0  0
    3.2436    1.7031   -1.6096 C   0  0  0  0  0  0  0  0  0  0  0  0
    4.2801    2.5602   -1.8424 O   0  0  0  0  0  0  0  0  0  0  0  0
    4.7921    2.6938   -1.0302 H   0  0  0  0  0  0  0  0  0  0  0  0
    2.3939    1.3481   -2.6544 C   0  0  0  0  0  0  0  0  0  0  0  0
    2.5667    1.7647   -3.6413 H   0  0  0  0  0  0  0  0  0  0  0  0
    1.3286    0.4683   -2.4348 C   0  0  0  0  0  0  0  0  0  0  0  0
    0.6735    0.2137   -3.2628 H   0  0  0  0  0  0  0  0  0  0  0  0
   -1.2404    0.8418    0.4138 C   0  0  0  0  0  0  0  0  0  0  0  0
   -2.1353    1.3117   -0.2822 O   0  0  0  0  0  0  0  0  0  0  0  0
   -0.6067    1.6560    1.3354 N   0  0  0  0  0  0  0  0  0  0  0  0
    0.1480    1.2500    1.8790 H   0  0  0  0  0  0  0  0  0  0  0  0
   -0.8422    3.0916    1.4227 C   0  0  0  0  0  0  0  0  0  0  0  0
   -1.9013    3.2969    1.6115 H   0  0  0  0  0  0  0  0  0  0  0  0
   -0.2572    3.5214    2.2413 H   0  0  0  0  0  0  0  0  0  0  0  0
   -0.5483    3.5835    0.4894 H   0  0  0  0  0  0  0  0  0  0  0  0
  1  2  1  0  0  0  0
  2  3  1  0  0  0  0
  2  4  1  0  0  0  0
  2  5  1  0  0  0  0
  5  6  2  0  0  0  0
  5  7  1  0  0  0  0
  7  8  1  0  0  0  0
  7  9  1  0  0  0  0
  9 10  1  0  0  0  0
  9 11  1  0  0  0  0
  9 26  1  0  0  0  0
 11 12  1  0  0  0  0
 11 13  1  0  0  0  0
 11 14  1  0  0  0  0
 14 15  2  0  0  0  0
 14 24  1  0  0  0  0
 15 16  1  0  0  0  0
 15 17  1  0  0  0  0
 17 18  1  0  0  0  0
 17 19  2  0  0  0  0
 19 20  1  0  0  0  0
 19 22  1  0  0  0  0
 20 21  1  0  0  0  0
 22 23  1  0  0  0  0
 22 24  2  0  0  0  0
 24 25  1  0  0  0  0
 26 27  2  0  0  0  0
 26 28  1  0  0  0  0
 28 29  1  0  0  0  0
 28 30  1  0  0  0  0
 30 31  1  0  0  0  0
 30 32  1  0  0  0  0
 30 33  1  0  0  0  0
M  END
$$$$

  -OEChem-04042216043D

 33 33  0     1  0  0  0  0  0999 V2000
   -3.9580   -3.9834    1.5711 H   0  0  0  0  0  0  0  0  0  0  0  0
   -3.8953   -3.1074    0.9194 C   0  0  0  0  0  0  0  0  0  0  0  0
   -4.6080   -2.3564    1.2687 H   0  0  0  0  0  0  0  0  0  0  0  0
   -4.1598   -3.4051   -0.0982 H   0  0  0  0  0  0  0  0  0  0  0  0
   -2.4893   -2.5381    0.9434 C   0  0  0  0  0  0  0  0  0  0  0  0
   -1.6221   -3.0774    1.6132 O   0  0  0  0  0  0  0  0  0  0  0  0
   -2.1956   -1.4070    0.2118 N   0  0  0  0  0  0  0  0  0  0  0  0
   -2.9724   -0.9233   -0.2378 H   0  0  0  0  0  0  0  0  0  0  0  0
   -0.9182   -0.6829    0.2797 C   0  0  1  0  0  0  0  0  0  0  0  0
   -0.3546   -0.9657    1.1740 H   0  0  0  0  0  0  0  0  0  0  0  0
   -0.0932   -1.0213   -0.9754 C   0  0  0  0  0  0  0  0  0  0  0  0
    0.2831   -2.0460   -0.8917 H   0  0  0  0  0  0  0  0  0  0  0  0
   -0.7496   -0.9873   -1.8513 H   0  0  0  0  0  0  0  0  0  0  0  0
    1.0688   -0.0756   -1.1899 C   0  0  0  0  0  0  0  0  0  0  0  0
    2.0760    0.0440   -0.2185 C   0  0  0  0  0  0  0  0  0  0  0  0
    2.0493   -0.5778    0.6719 H   0  0  0  0  0  0  0  0  0  0  0  0
    3.1316    0.9460   -0.3967 C   0  0  0  0  0  0  0  0  0  0  0  0
    3.9064    1.0188    0.3589 H   0  0  0  0  0  0  0  0  0  0  0  0
    3.1870    1.7424   -1.5425 C   0  0  0  0  0  0  0  0  0  0  0  0
    4.2124    2.6239   -1.7291 O   0  0  0  0  0  0  0  0  0  0  0  0
    4.8531    2.5497   -1.0054 H   0  0  0  0  0  0  0  0  0  0  0  0
    2.1856    1.6354   -2.5056 C   0  0  0  0  0  0  0  0  0  0  0  0
    2.2329    2.2620   -3.3903 H   0  0  0  0  0  0  0  0  0  0  0  0
    1.1294    0.7341   -2.3339 C   0  0  0  0  0  0  0  0  0  0  0  0
    0.3515    0.6755   -3.0902 H   0  0  0  0  0  0  0  0  0  0  0  0
   -1.2200    0.8298    0.3665 C   0  0  0  0  0  0  0  0  0  0  0  0
   -2.1339    1.3050   -0.3010 O   0  0  0  0  0  0  0  0  0  0  0  0
   -0.5494    1.6360    1.2681 N   0  0  0  0  0  0  0  0  0  0  0  0
    0.2470    1.2300    1.7495 H   0  0  0  0  0  0  0  0  0  0  0  0
   -0.7559    3.0764    1.3488 C   0  0  0  0  0  0  0  0  0  0  0  0
   -1.8065    3.3027    1.5597 H   0  0  0  0  0  0  0  0  0  0  0  0
   -0.1451    3.5017    2.1507 H   0  0  0  0  0  0  0  0  0  0  0  0
   -0.4740    3.5555    0.4052 H   0  0  0  0  0  0  0  0  0  0  0  0
  1  2  1  0  0  0  0
  2  3  1  0  0  0  0
  2  4  1  0  0  0  0
  2  5  1  0  0  0  0
  5  6  2  0  0  0  0
  5  7  1  0  0  0  0
  7  8  1  0  0  0  0
  7  9  1  0  0  0  0
  9 10  1  0  0  0  0
  9 11  1  0  0  0  0
  9 26  1  0  0  0  0
 11 12  1  0  0  0  0
 11 13  1  0  0  0  0
 11 14  1  0  0  0  0
 14 15  2  0  0  0  0
 14 24  1  0  0  0  0
 15 16  1  0  0  0  0
 15 17  1  0  0  0  0
 17 18  1  0  0  0  0
 17 19  2  0  0  0  0
 19 20  1  0  0  0  0
 19 22  1  0  0  0  0
 20 21  1  0  0  0  0
 22 23  1  0  0  0  0
 22 24  2  0  0  0  0
 24 25  1  0  0  0  0
 26 27  2  0  0  0  0
 26 28  1  0  0  0  0
 28 29  1  0  0  0  0
 28 30  1  0  0  0  0
 30 31  1  0  0  0  0
 30 32  1  0  0  0  0
 30 33  1  0  0  0  0
M  END
$$$$

  -OEChem-04042216043D

 33 33  0     1  0  0  0  0  0999 V2000
   -3.9428   -3.9836    1.5974 H   0  0  0  0  0  0  0  0  0  0  0  0
   -3.8892   -3.1077    0.9450 C   0  0  0  0  0  0  0  0  0  0  0  0
   -4.5881   -2.3521    1.3116 H   0  0  0  0  0  0  0  0  0  0  0  0
   -4.1796   -3.4024   -0.0662 H   0  0  0  0  0  0  0  0  0  0  0  0
   -2.4796   -2.5474    0.9364 C   0  0  0  0  0  0  0  0  0  0  0  0
   -1.5996   -3.0933    1.5839 O   0  0  0  0  0  0  0  0  0  0  0  0
   -2.1986   -1.4140    0.2034 N   0  0  0  0  0  0  0  0  0  0  0  0
   -2.9837   -0.9277   -0.2285 H   0  0  0  0  0  0  0  0  0  0  0  0
   -0.9215   -0.6882    0.2549 C   0  0  1  0  0  0  0  0  0  0  0  0
   -0.3486   -0.9706    1.1438 H   0  0  0  0  0  0  0  0  0  0  0  0
   -0.1016   -1.0268   -1.0025 C   0  0  0  0  0  0  0  0  0  0  0  0
    0.2793   -2.0499   -0.9206 H   0  0  0  0  0  0  0  0  0  0  0  0
   -0.7566   -0.9934   -1.8796 H   0  0  0  0  0  0  0  0  0  0  0  0
    1.0484   -0.0671   -1.2077 C   0  0  0  0  0  0  0  0  0  0  0  0
    2.1937   -0.1632   -0.4033 C   0  0  0  0  0  0  0  0  0  0  0  0
    2.2689   -0.9516    0.3407 H   0  0  0  0  0  0  0  0  0  0  0  0
    3.2476    0.7450   -0.5589 C   0  0  0  0  0  0  0  0  0  0  0  0
    4.1291    0.6519    0.0662 H   0  0  0  0  0  0  0  0  0  0  0  0
    3.1626    1.7610   -1.5135 C   0  0  0  0  0  0  0  0  0  0  0  0
    4.1837    2.6525   -1.6734 O   0  0  0  0  0  0  0  0  0  0  0  0
    4.9241    2.4199   -1.0925 H   0  0  0  0  0  0  0  0  0  0  0  0
    2.0233    1.8662   -2.3093 C   0  0  0  0  0  0  0  0  0  0  0  0
    1.9622    2.6622   -3.0444 H   0  0  0  0  0  0  0  0  0  0  0  0
    0.9682    0.9593   -2.1607 C   0  0  0  0  0  0  0  0  0  0  0  0
    0.0805    1.0648   -2.7786 H   0  0  0  0  0  0  0  0  0  0  0  0
   -1.2185    0.8244    0.3502 C   0  0  0  0  0  0  0  0  0  0  0  0
   -2.1367    1.3043   -0.3084 O   0  0  0  0  0  0  0  0  0  0  0  0
   -0.5320    1.6255    1.2442 N   0  0  0  0  0  0  0  0  0  0  0  0
    0.2785    1.2175    1.7004 H   0  0  0  0  0  0  0  0  0  0  0  0
   -0.7218    3.0683    1.3191 C   0  0  0  0  0  0  0  0  0  0  0  0
   -1.7666    3.3072    1.5436 H   0  0  0  0  0  0  0  0  0  0  0  0
   -0.0950    3.4915    2.1096 H   0  0  0  0  0  0  0  0  0  0  0  0
   -0.4482    3.5390    0.3689 H   0  0  0  0  0  0  0  0  0  0  0  0
  1  2  1  0  0  0  0
  2  3  1  0  0  0  0
  2  4  1  0  0  0  0
  2  5  1  0  0  0  0
  5  6  2  0  0  0  0
  5  7  1  0  0  0  0
  7  8  1  0  0  0  0
  7  9  1  0  0  0  0
  9 10  1  0  0  0  0
  9 11  1  0  0  0  0
  9 26  1  0  0  0  0
 11 12  1  0  0  0  0
 11 13  1  0  0  0  0
 11 14  1  0  0  0  0
 14 15  2  0  0  0  0
 14 24  1  0  0  0  0
 15 16  1  0  0  0  0
 15 17  1  0  0  0  0
 17 18  1  0  0  0  0
 17 19  2  0  0  0  0
 19 20  1  0  0  0  0
 19 22  1  0  0  0  0
 20 21  1  0  0  0  0
 22 23  1  0  0  0  0
 22 24  2  0  0  0  0
 24 25  1  0  0  0  0
 26 27  2  0  0  0  0
 26 28  1  0  0  0  0
 28 29  1  0  0  0  0
 28 30  1  0  0  0  0
 30 31  1  0  0  0  0
 30 32  1  0  0  0  0
 30 33  1  0  0  0  0
M  END
$$$$

  -OEChem-04042216043D

 33 33  0     1  0  0  0  0  0999 V2000
   -3.9258   -4.0147    1.5515 H   0  0  0  0  0  0  0  0  0  0  0  0
   -3.8774   -3.1311    0.9091 C   0  0  0  0  0  0  0  0  0  0  0  0
   -4.5949   -2.3915    1.2728 H   0  0  0  0  0  0  0  0  0  0  0  0
   -4.1473   -3.4204   -0.1094 H   0  0  0  0  0  0  0  0  0  0  0  0
   -2.4774   -2.5469    0.9266 C   0  0  0  0  0  0  0  0  0  0  0  0
   -1.5948   -3.0907    1.5721 O   0  0  0  0  0  0  0  0  0  0  0  0
   -2.2061   -1.4006    0.2102 N   0  0  0  0  0  0  0  0  0  0  0  0
   -2.9935   -0.9217   -0.2255 H   0  0  0  0  0  0  0  0  0  0  0  0
   -0.9365   -0.6627    0.2714 C   0  0  1  0  0  0  0  0  0  0  0  0
   -0.3643   -0.9485    1.1599 H   0  0  0  0  0  0  0  0  0  0  0  0
   -0.1074   -1.0002   -0.9814 C   0  0  0  0  0  0  0  0  0  0  0  0
    0.2712   -2.0240   -0.8967 H   0  0  0  0  0  0  0  0  0  0  0  0
   -0.7580   -0.9687   -1.8619 H   0  0  0  0  0  0  0  0  0  0  0  0
    1.0399   -0.0391   -1.1960 C   0  0  0  0  0  0  0  0  0  0  0  0
    2.2932   -0.3056   -0.6256 C   0  0  0  0  0  0  0  0  0  0  0  0
    2.4413   -1.2064   -0.0360 H   0  0  0  0  0  0  0  0  0  0  0  0
    3.3597    0.5819   -0.8116 C   0  0  0  0  0  0  0  0  0  0  0  0
    4.3223    0.3595   -0.3643 H   0  0  0  0  0  0  0  0  0  0  0  0
    3.1838    1.7417   -1.5695 C   0  0  0  0  0  0  0  0  0  0  0  0
    4.2168    2.6139   -1.7564 O   0  0  0  0  0  0  0  0  0  0  0  0
    5.0228    2.2696   -1.3419 H   0  0  0  0  0  0  0  0  0  0  0  0
    1.9420    2.0094   -2.1425 C   0  0  0  0  0  0  0  0  0  0  0  0
    1.8126    2.9123   -2.7303 H   0  0  0  0  0  0  0  0  0  0  0  0
    0.8736    1.1246   -1.9634 C   0  0  0  0  0  0  0  0  0  0  0  0
   -0.0905    1.3517   -2.4119 H   0  0  0  0  0  0  0  0  0  0  0  0
   -1.2441    0.8452    0.3875 C   0  0  0  0  0  0  0  0  0  0  0  0
   -2.1577    1.3311   -0.2727 O   0  0  0  0  0  0  0  0  0  0  0  0
   -0.5620    1.6371    1.2927 N   0  0  0  0  0  0  0  0  0  0  0  0
    0.2462    1.2241    1.7490 H   0  0  0  0  0  0  0  0  0  0  0  0
   -0.7538    3.0787    1.3849 C   0  0  0  0  0  0  0  0  0  0  0  0
   -1.8035    3.3148    1.5891 H   0  0  0  0  0  0  0  0  0  0  0  0
   -0.1453    3.4895    2.1961 H   0  0  0  0  0  0  0  0  0  0  0  0
   -0.4584    3.5634    0.4484 H   0  0  0  0  0  0  0  0  0  0  0  0
  1  2  1  0  0  0  0
  2  3  1  0  0  0  0
  2  4  1  0  0  0  0
  2  5  1  0  0  0  0
  5  6  2  0  0  0  0
  5  7  1  0  0  0  0
  7  8  1  0  0  0  0
  7  9  1  0  0  0  0
  9 10  1  0  0  0  0
  9 11  1  0  0  0  0
  9 26  1  0  0  0  0
 11 12  1  0  0  0  0
 11 13  1  0  0  0  0
 11 14  1  0  0  0  0
 14 15  2  0  0  0  0
 14 24  1  0  0  0  0
 15 16  1  0  0  0  0
 15 17  1  0  0  0  0
 17 18  1  0  0  0  0
 17 19  2  0  0  0  0
 19 20  1  0  0  0  0
 19 22  1  0  0  0  0
 20 21  1  0  0  0  0
 22 23  1  0  0  0  0
 22 24  2  0  0  0  0
 24 25  1  0  0  0  0
 26 27  2  0  0  0  0
 26 28  1  0  0  0  0
 28 29  1  0  0  0  0
 28 30  1  0  0  0  0
 30 31  1  0  0  0  0
 30 32  1  0  0  0  0
 30 33  1  0  0  0  0
M  END
$$$$

  -OEChem-04042216043D

 33 33  0     1  0  0  0  0  0999 V2000
   -3.9096   -4.0432    1.4986 H   0  0  0  0  0  0  0  0  0  0  0  0
   -3.8664   -3.1500    0.8691 C   0  0  0  0  0  0  0  0  0  0  0  0
   -4.5963   -2.4246    1.2363 H   0  0  0  0  0  0  0  0  0  0  0  0
   -4.1238   -3.4281   -0.1557 H   0  0  0  0  0  0  0  0  0  0  0  0
   -2.4738   -2.5489    0.9069 C   0  0  0  0  0  0  0  0  0  0  0  0
   -1.5873   -3.0963    1.5439 O   0  0  0  0  0  0  0  0  0  0  0  0
   -2.2128   -1.3847    0.2159 N   0  0  0  0  0  0  0  0  0  0  0  0
   -3.0038   -0.9076   -0.2155 H   0  0  0  0  0  0  0  0  0  0  0  0
   -0.9526   -0.6322    0.2976 C   0  0  1  0  0  0  0  0  0  0  0  0
   -0.3875   -0.9242    1.1887 H   0  0  0  0  0  0  0  0  0  0  0  0
   -0.1028   -0.9632   -0.9461 C   0  0  0  0  0  0  0  0  0  0  0  0
    0.2701   -1.9889   -0.8568 H   0  0  0  0  0  0  0  0  0  0  0  0
   -0.7468   -0.9326   -1.8315 H   0  0  0  0  0  0  0  0  0  0  0  0
    1.0491   -0.0066   -1.1749 C   0  0  0  0  0  0  0  0  0  0  0  0
    2.3595   -0.4098   -0.8766 C   0  0  0  0  0  0  0  0  0  0  0  0
    2.5425   -1.3943   -0.4548 H   0  0  0  0  0  0  0  0  0  0  0  0
    3.4398    0.4498   -1.1090 C   0  0  0  0  0  0  0  0  0  0  0  0
    4.4440    0.1224   -0.8628 H   0  0  0  0  0  0  0  0  0  0  0  0
    3.2243    1.7157   -1.6569 C   0  0  0  0  0  0  0  0  0  0  0  0
    4.2701    2.5629   -1.8841 O   0  0  0  0  0  0  0  0  0  0  0  0
    5.1059    2.1307   -1.6506 H   0  0  0  0  0  0  0  0  0  0  0  0
    1.9295    2.1134   -1.9827 C   0  0  0  0  0  0  0  0  0  0  0  0
    1.7692    3.0938   -2.4195 H   0  0  0  0  0  0  0  0  0  0  0  0
    0.8474    1.2564   -1.7568 C   0  0  0  0  0  0  0  0  0  0  0  0
   -0.1526    1.5807   -2.0340 H   0  0  0  0  0  0  0  0  0  0  0  0
   -1.2806    0.8679    0.4431 C   0  0  0  0  0  0  0  0  0  0  0  0
   -2.1965    1.3557   -0.2122 O   0  0  0  0  0  0  0  0  0  0  0  0
   -0.6134    1.6509    1.3670 N   0  0  0  0  0  0  0  0  0  0  0  0
    0.1927    1.2369    1.8268 H   0  0  0  0  0  0  0  0  0  0  0  0
   -0.8263    3.0875    1.4905 C   0  0  0  0  0  0  0  0  0  0  0  0
   -1.8817    3.3056    1.6850 H   0  0  0  0  0  0  0  0  0  0  0  0
   -0.2355    3.4873    2.3202 H   0  0  0  0  0  0  0  0  0  0  0  0
   -0.5243    3.5983    0.5702 H   0  0  0  0  0  0  0  0  0  0  0  0
  1  2  1  0  0  0  0
  2  3  1  0  0  0  0
  2  4  1  0  0  0  0
  2  5  1  0  0  0  0
  5  6  2  0  0  0  0
  5  7  1  0  0  0  0
  7  8  1  0  0  0  0
  7  9  1  0  0  0  0
  9 10  1  0  0  0  0
  9 11  1  0  0  0  0
  9 26  1  0  0  0  0
 11 12  1  0  0  0  0
 11 13  1  0  0  0  0
 11 14  1  0  0  0  0
 14 15  2  0  0  0  0
 14 24  1  0  0  0  0
 15 16  1  0  0  0  0
 15 17  1  0  0  0  0
 17 18  1  0  0  0  0
 17 19  2  0  0  0  0
 19 20  1  0  0  0  0
 19 22  1  0  0  0  0
 20 21  1  0  0  0  0
 22 23  1  0  0  0  0
 22 24  2  0  0  0  0
 24 25  1  0  0  0  0
 26 27  2  0  0  0  0
 26 28  1  0  0  0  0
 28 29  1  0  0  0  0
 28 30  1  0  0  0  0
 30 31  1  0  0  0  0
 30 32  1  0  0  0  0
 30 33  1  0  0  0  0
M  END
$$$$

  -OEChem-04042216043D

 33 33  0     1  0  0  0  0  0999 V2000
   -3.8785   -4.0741    1.4343 H   0  0  0  0  0  0  0  0  0  0  0  0
   -3.8464   -3.1685    0.8222 C   0  0  0  0  0  0  0  0  0  0  0  0
   -4.5870   -2.4606    1.2020 H   0  0  0  0  0  0  0  0  0  0  0  0
   -4.0976   -3.4304   -0.2084 H   0  0  0  0  0  0  0  0  0  0  0  0
   -2.4626   -2.5491    0.8763 C   0  0  0  0  0  0  0  0  0  0  0  0
   -1.5706   -3.0982    1.5041 O   0  0  0  0  0  0  0  0  0  0  0  0
   -2.2166   -1.3642    0.2152 N   0  0  0  0  0  0  0  0  0  0  0  0
   -3.0131   -0.8887   -0.2078 H   0  0  0  0  0  0  0  0  0  0  0  0
   -0.9703   -0.5920    0.3280 C   0  0  1  0  0  0  0  0  0  0  0  0
   -0.4199   -0.8890    1.2265 H   0  0  0  0  0  0  0  0  0  0  0  0
   -0.0864   -0.9157   -0.8978 C   0  0  0  0  0  0  0  0  0  0  0  0
    0.2819   -1.9414   -0.7914 H   0  0  0  0  0  0  0  0  0  0  0  0
   -0.7170   -0.8956   -1.7930 H   0  0  0  0  0  0  0  0  0  0  0  0
    1.0754    0.0306   -1.1472 C   0  0  0  0  0  0  0  0  0  0  0  0
    2.3846   -0.4785   -1.1354 C   0  0  0  0  0  0  0  0  0  0  0  0
    2.5604   -1.5211   -0.8852 H   0  0  0  0  0  0  0  0  0  0  0  0
    3.4792    0.3443   -1.4262 C   0  0  0  0  0  0  0  0  0  0  0  0
    4.4812   -0.0690   -1.3884 H   0  0  0  0  0  0  0  0  0  0  0  0
    3.2792    1.6822   -1.7683 C   0  0  0  0  0  0  0  0  0  0  0  0
    4.3376    2.4947   -2.0555 O   0  0  0  0  0  0  0  0  0  0  0  0
    5.1651    1.9914   -2.0123 H   0  0  0  0  0  0  0  0  0  0  0  0
    1.9833    2.1861   -1.8367 C   0  0  0  0  0  0  0  0  0  0  0  0
    1.8325    3.2197   -2.1309 H   0  0  0  0  0  0  0  0  0  0  0  0
    0.8871    1.3660   -1.5491 C   0  0  0  0  0  0  0  0  0  0  0  0
   -0.1106    1.7805   -1.6600 H   0  0  0  0  0  0  0  0  0  0  0  0
   -1.3277    0.8966    0.5055 C   0  0  0  0  0  0  0  0  0  0  0  0
   -2.2502    1.3837   -0.1409 O   0  0  0  0  0  0  0  0  0  0  0  0
   -0.6829    1.6666    1.4558 N   0  0  0  0  0  0  0  0  0  0  0  0
    0.1204    1.2526    1.9208 H   0  0  0  0  0  0  0  0  0  0  0  0
   -0.9398    3.0898    1.6369 C   0  0  0  0  0  0  0  0  0  0  0  0
   -2.0028    3.2675    1.8311 H   0  0  0  0  0  0  0  0  0  0  0  0
   -0.3672    3.4715    2.4875 H   0  0  0  0  0  0  0  0  0  0  0  0
   -0.6462    3.6476    0.7416 H   0  0  0  0  0  0  0  0  0  0  0  0
  1  2  1  0  0  0  0
  2  3  1  0  0  0  0
  2  4  1  0  0  0  0
  2  5  1  0  0  0  0
  5  6  2  0  0  0  0
  5  7  1  0  0  0  0
  7  8  1  0  0  0  0
  7  9  1  0  0  0  0
  9 10  1  0  0  0  0
  9 11  1  0  0  0  0
  9 26  1  0  0  0  0
 11 12  1  0  0  0  0
 11 13  1  0  0  0  0
 11 14  1  0  0  0  0
 14 15  2  0  0  0  0
 14 24  1  0  0  0  0
 15 16  1  0  0  0  0
 15 17  1  0  0  0  0
 17 18  1  0  0  0  0
 17 19  2  0  0  0  0
 19 20  1  0  0  0  0
 19 22  1  0  0  0  0
 20 21  1  0  0  0  0
 22 23  1  0  0  0  0
 22 24  2  0  0  0  0
 24 25  1  0  0  0  0
 26 27  2  0  0  0  0
 26 28  1  0  0  0  0
 28 29  1  0  0  0  0
 28 30  1  0  0  0  0
 30 31  1  0  0  0  0
 30 32  1  0  0  0  0
 30 33  1  0  0  0  0
M  END
$$$$

  -OEChem-04042216043D

 33 33  0     1  0  0  0  0  0999 V2000
   -3.8351   -4.1156    1.3389 H   0  0  0  0  0  0  0  0  0  0  0  0
   -3.8116   -3.1903    0.7564 C   0  0  0  0  0  0  0  0  0  0  0  0
   -4.5744   -2.5107    1.1440 H   0  0  0  0  0  0  0  0  0  0  0  0
   -4.0381   -3.4242   -0.2867 H   0  0  0  0  0  0  0  0  0  0  0  0
   -2.4430   -2.5437    0.8570 C   0  0  0  0  0  0  0  0  0  0  0  0
   -1.5558   -3.0850    1.4980 O   0  0  0  0  0  0  0  0  0  0  0  0
   -2.2061   -1.3414    0.2248 N   0  0  0  0  0  0  0  0  0  0  0  0
   -3.0001   -0.8768   -0.2148 H   0  0  0  0  0  0  0  0  0  0  0  0
   -0.9757   -0.5497    0.3725 C   0  0  1  0  0  0  0  0  0  0  0  0
   -0.4370   -0.8497    1.2772 H   0  0  0  0  0  0  0  0  0  0  0  0
   -0.0656   -0.8640   -0.8407 C   0  0  0  0  0  0  0  0  0  0  0  0
    0.2972   -1.8902   -0.7202 H   0  0  0  0  0  0  0  0  0  0  0  0
   -0.6900   -0.8514   -1.7402 H   0  0  0  0  0  0  0  0  0  0  0  0
    1.1109    0.0622   -1.1231 C   0  0  0  0  0  0  0  0  0  0  0  0
    2.3551   -0.5229   -1.4192 C   0  0  0  0  0  0  0  0  0  0  0  0
    2.4765   -1.6009   -1.3594 H   0  0  0  0  0  0  0  0  0  0  0  0
    3.4616    0.2595   -1.7699 C   0  0  0  0  0  0  0  0  0  0  0  0
    4.4148   -0.2204   -1.9628 H   0  0  0  0  0  0  0  0  0  0  0  0
    3.3340    1.6433   -1.8788 C   0  0  0  0  0  0  0  0  0  0  0  0
    4.4040    2.4183   -2.2212 O   0  0  0  0  0  0  0  0  0  0  0  0
    5.1853    1.8625   -2.3649 H   0  0  0  0  0  0  0  0  0  0  0  0
    2.0929    2.2333   -1.6630 C   0  0  0  0  0  0  0  0  0  0  0  0
    1.9878    3.3060   -1.7893 H   0  0  0  0  0  0  0  0  0  0  0  0
    0.9858    1.4533   -1.3135 C   0  0  0  0  0  0  0  0  0  0  0  0
    0.0308    1.9598   -1.2332 H   0  0  0  0  0  0  0  0  0  0  0  0
   -1.3733    0.9241    0.5735 C   0  0  0  0  0  0  0  0  0  0  0  0
   -2.2879    1.4072   -0.0867 O   0  0  0  0  0  0  0  0  0  0  0  0
   -0.7635    1.6898    1.5503 N   0  0  0  0  0  0  0  0  0  0  0  0
    0.0177    1.2738    2.0502 H   0  0  0  0  0  0  0  0  0  0  0  0
   -1.0771    3.0945    1.7797 C   0  0  0  0  0  0  0  0  0  0  0  0
   -2.1465    3.2227    1.9775 H   0  0  0  0  0  0  0  0  0  0  0  0
   -0.5206    3.4693    2.6440 H   0  0  0  0  0  0  0  0  0  0  0  0
   -0.8052    3.6941    0.9048 H   0  0  0  0  0  0  0  0  0  0  0  0
  1  2  1  0  0  0  0
  2  3  1  0  0  0  0
  2  4  1  0  0  0  0
  2  5  1  0  0  0  0
  5  6  2  0  0  0  0
  5  7  1  0  0  0  0
  7  8  1  0  0  0  0
  7  9  1  0  0  0  0
  9 10  1  0  0  0  0
  9 11  1  0  0  0  0
  9 26  1  0  0  0  0
 11 12  1  0  0  0  0
 11 13  1  0  0  0  0
 11 14  1  0  0  0  0
 14 15  2  0  0  0  0
 14 24  1  0  0  0  0
 15 16  1  0  0  0  0
 15 17  1  0  0  0  0
 17 18  1  0  0  0  0
 17 19  2  0  0  0  0
 19 20  1  0  0  0  0
 19 22  1  0  0  0  0
 20 21  1  0  0  0  0
 22 23  1  0  0  0  0
 22 24  2  0  0  0  0
 24 25  1  0  0  0  0
 26 27  2  0  0  0  0
 26 28  1  0  0  0  0
 28 29  1  0  0  0  0
 28 30  1  0  0  0  0
 30 31  1  0  0  0  0
 30 32  1  0  0  0  0
 30 33  1  0  0  0  0
M  END
$$$$

  -OEChem-04042216043D

 33 33  0     1  0  0  0  0  0999 V2000
   -3.7804   -4.1465    1.2537 H   0  0  0  0  0  0  0  0  0  0  0  0
   -3.7604   -3.2104    0.6885 C   0  0  0  0  0  0  0  0  0  0  0  0
   -4.5491   -2.5543    1.0651 H   0  0  0  0  0  0  0  0  0  0  0  0
   -3.9506   -3.4300   -0.3649 H   0  0  0  0  0  0  0  0  0  0  0  0
   -2.4102   -2.5359    0.8408 C   0  0  0  0  0  0  0  0  0  0  0  0
   -1.5312   -3.0668    1.5013 O   0  0  0  0  0  0  0  0  0  0  0  0
   -2.1803   -1.3207    0.2314 N   0  0  0  0  0  0  0  0  0  0  0  0
   -2.9701   -0.8678   -0.2278 H   0  0  0  0  0  0  0  0  0  0  0  0
   -0.9688   -0.5078    0.4202 C   0  0  1  0  0  0  0  0  0  0  0  0
   -0.4385   -0.8066    1.3302 H   0  0  0  0  0  0  0  0  0  0  0  0
   -0.0442   -0.8034   -0.7895 C   0  0  0  0  0  0  0  0  0  0  0  0
    0.3160   -1.8300   -0.6638 H   0  0  0  0  0  0  0  0  0  0  0  0
   -0.6716   -0.7948   -1.6870 H   0  0  0  0  0  0  0  0  0  0  0  0
    1.1473    0.0957   -1.1143 C   0  0  0  0  0  0  0  0  0  0  0  0
    2.2524   -0.5228   -1.7283 C   0  0  0  0  0  0  0  0  0  0  0  0
    2.2545   -1.5983   -1.8817 H   0  0  0  0  0  0  0  0  0  0  0  0
    3.3732    0.2115   -2.1318 C   0  0  0  0  0  0  0  0  0  0  0  0
    4.2170   -0.3041   -2.5769 H   0  0  0  0  0  0  0  0  0  0  0  0
    3.3975    1.5947   -1.9692 C   0  0  0  0  0  0  0  0  0  0  0  0
    4.4819    2.3253   -2.3605 O   0  0  0  0  0  0  0  0  0  0  0  0
    5.1571    1.7409   -2.7382 H   0  0  0  0  0  0  0  0  0  0  0  0
    2.2897    2.2356   -1.4259 C   0  0  0  0  0  0  0  0  0  0  0  0
    2.2977    3.3171   -1.3385 H   0  0  0  0  0  0  0  0  0  0  0  0
    1.1675    1.5035   -1.0225 C   0  0  0  0  0  0  0  0  0  0  0  0
    0.3212    2.0831   -0.6823 H   0  0  0  0  0  0  0  0  0  0  0  0
   -1.4215    0.9481    0.6293 C   0  0  0  0  0  0  0  0  0  0  0  0
   -2.3166    1.4208   -0.0634 O   0  0  0  0  0  0  0  0  0  0  0  0
   -0.8635    1.7184    1.6341 N   0  0  0  0  0  0  0  0  0  0  0  0
   -0.1205    1.3011    2.1886 H   0  0  0  0  0  0  0  0  0  0  0  0
   -1.2497    3.0993    1.8966 C   0  0  0  0  0  0  0  0  0  0  0  0
   -2.3256    3.1672    2.0894 H   0  0  0  0  0  0  0  0  0  0  0  0
   -0.7182    3.4799    2.7743 H   0  0  0  0  0  0  0  0  0  0  0  0
   -1.0040    3.7350    1.0394 H   0  0  0  0  0  0  0  0  0  0  0  0
  1  2  1  0  0  0  0
  2  3  1  0  0  0  0
  2  4  1  0  0  0  0
  2  5  1  0  0  0  0
  5  6  2  0  0  0  0
  5  7  1  0  0  0  0
  7  8  1  0  0  0  0
  7  9  1  0  0  0  0
  9 10  1  0  0  0  0
  9 11  1  0  0  0  0
  9 26  1  0  0  0  0
 11 12  1  0  0  0  0
 11 13  1  0  0  0  0
 11 14  1  0  0  0  0
 14 15  2  0  0  0  0
 14 24  1  0  0  0  0
 15 16  1  0  0  0  0
 15 17  1  0  0  0  0
 17 18  1  0  0  0  0
 17 19  2  0  0  0  0
 19 20  1  0  0  0  0
 19 22  1  0  0  0  0
 20 21  1  0  0  0  0
 22 23  1  0  0  0  0
 22 24  2  0  0  0  0
 24 25  1  0  0  0  0
 26 27  2  0  0  0  0
 26 28  1  0  0  0  0
 28 29  1  0  0  0  0
 28 30  1  0  0  0  0
 30 31  1  0  0  0  0
 30 32  1  0  0  0  0
 30 33  1  0  0  0  0
M  END
$$$$

  -OEChem-04042216043D

 33 33  0     1  0  0  0  0  0999 V2000
   -3.7264   -4.1550    1.1878 H   0  0  0  0  0  0  0  0  0  0  0  0
   -3.7057   -3.2137    0.6316 C   0  0  0  0  0  0  0  0  0  0  0  0
   -4.5202   -2.5772    0.9856 H   0  0  0  0  0  0  0  0  0  0  0  0
   -3.8548   -3.4279   -0.4294 H   0  0  0  0  0  0  0  0  0  0  0  0
   -2.3752   -2.5146    0.8371 C   0  0  0  0  0  0  0  0  0  0  0  0
   -1.5153   -3.0282    1.5351 O   0  0  0  0  0  0  0  0  0  0  0  0
   -2.1394   -1.2973    0.2343 N   0  0  0  0  0  0  0  0  0  0  0  0
   -2.9168   -0.8540   -0.2547 H   0  0  0  0  0  0  0  0  0  0  0  0
   -0.9437   -0.4702    0.4644 C   0  0  1  0  0  0  0  0  0  0  0  0
   -0.4157   -0.7618    1.3780 H   0  0  0  0  0  0  0  0  0  0  0  0
   -0.0298   -0.7505   -0.7591 C   0  0  0  0  0  0  0  0  0  0  0  0
    0.3303   -1.7784   -0.6424 H   0  0  0  0  0  0  0  0  0  0  0  0
   -0.6719   -0.7345   -1.6466 H   0  0  0  0  0  0  0  0  0  0  0  0
    1.1704    0.1190   -1.1250 C   0  0  0  0  0  0  0  0  0  0  0  0
    2.0737   -0.4453   -2.0442 C   0  0  0  0  0  0  0  0  0  0  0  0
    1.8961   -1.4456   -2.4292 H   0  0  0  0  0  0  0  0  0  0  0  0
    3.2091    0.2476   -2.4767 C   0  0  0  0  0  0  0  0  0  0  0  0
    3.8867   -0.2251   -3.1792 H   0  0  0  0  0  0  0  0  0  0  0  0
    3.4614    1.5346   -2.0074 C   0  0  0  0  0  0  0  0  0  0  0  0
    4.5637    2.2251   -2.4208 O   0  0  0  0  0  0  0  0  0  0  0  0
    5.0683    1.6941   -3.0559 H   0  0  0  0  0  0  0  0  0  0  0  0
    2.5706    2.1210   -1.1149 C   0  0  0  0  0  0  0  0  0  0  0  0
    2.7648    3.1294   -0.7645 H   0  0  0  0  0  0  0  0  0  0  0  0
    1.4340    1.4295   -0.6805 C   0  0  0  0  0  0  0  0  0  0  0  0
    0.7831    1.9658   -0.0111 H   0  0  0  0  0  0  0  0  0  0  0  0
   -1.4538    0.9735    0.6526 C   0  0  0  0  0  0  0  0  0  0  0  0
   -2.3328    1.4166   -0.0792 O   0  0  0  0  0  0  0  0  0  0  0  0
   -0.9660    1.7673    1.6766 N   0  0  0  0  0  0  0  0  0  0  0  0
   -0.2827    1.3550    2.3064 H   0  0  0  0  0  0  0  0  0  0  0  0
   -1.4401    3.1211    1.9374 C   0  0  0  0  0  0  0  0  0  0  0  0
   -2.5130    3.1163    2.1573 H   0  0  0  0  0  0  0  0  0  0  0  0
   -0.9128    3.5475    2.7963 H   0  0  0  0  0  0  0  0  0  0  0  0
   -1.2610    3.7634    1.0687 H   0  0  0  0  0  0  0  0  0  0  0  0
  1  2  1  0  0  0  0
  2  3  1  0  0  0  0
  2  4  1  0  0  0  0
  2  5  1  0  0  0  0
  5  6  2  0  0  0  0
  5  7  1  0  0  0  0
  7  8  1  0  0  0  0
  7  9  1  0  0  0  0
  9 10  1  0  0  0  0
  9 11  1  0  0  0  0
  9 26  1  0  0  0  0
 11 12  1  0  0  0  0
 11 13  1  0  0  0  0
 11 14  1  0  0  0  0
 14 15  2  0  0  0  0
 14 24  1  0  0  0  0
 15 16  1  0  0  0  0
 15 17  1  0  0  0  0
 17 18  1  0  0  0  0
 17 19  2  0  0  0  0
 19 20  1  0  0  0  0
 19 22  1  0  0  0  0
 20 21  1  0  0  0  0
 22 23  1  0  0  0  0
 22 24  2  0  0  0  0
 24 25  1  0  0  0  0
 26 27  2  0  0  0  0
 26 28  1  0  0  0  0
 28 29  1  0  0  0  0
 28 30  1  0  0  0  0
 30 31  1  0  0  0  0
 30 32  1  0  0  0  0
 30 33  1  0  0  0  0
M  END
$$$$
