default_name
  -OEChem-02102213163D

 33 33  0     1  0  0  0  0  0999 V2000
   -4.0702   -3.8485    1.4554 H   0  0  0  0  0  0  0  0  0  0  0  0
   -4.0012   -2.9605    0.8284 C   0  0  0  0  0  0  0  0  0  0  0  0
   -4.7652   -2.2435    1.1234 H   0  0  0  0  0  0  0  0  0  0  0  0
   -4.1352   -3.2385   -0.2156 H   0  0  0  0  0  0  0  0  0  0  0  0
   -2.6362   -2.3395    1.0094 C   0  0  0  0  0  0  0  0  0  0  0  0
   -1.8292   -2.8395    1.7814 O   0  0  0  0  0  0  0  0  0  0  0  0
   -2.3832   -1.2445    0.2964 N   0  0  0  0  0  0  0  0  0  0  0  0
   -3.1102   -0.8685   -0.2946 H   0  0  0  0  0  0  0  0  0  0  0  0
   -1.1292   -0.4875    0.3524 C   0  0  1  0  0  0  0  0  0  0  0  0
   -0.5898   -0.7762    1.2552 H   0  0  0  0  0  0  0  0  0  0  0  0
   -0.2608   -0.8470   -0.8656 C   0  0  0  0  0  0  0  0  0  0  0  0
   -0.0589   -1.9188   -0.8528 H   0  0  0  0  0  0  0  0  0  0  0  0
   -0.8223   -0.6310   -1.7760 H   0  0  0  0  0  0  0  0  0  0  0  0
    1.0682   -0.1181   -0.9106 C   0  0  0  0  0  0  0  0  0  0  0  0
    1.9696   -0.3469   -1.9696 C   0  0  0  0  0  0  0  0  0  0  0  0
    1.7264   -1.0650   -2.7418 H   0  0  0  0  0  0  0  0  0  0  0  0
    3.1850    0.3624   -2.0284 C   0  0  0  0  0  0  0  0  0  0  0  0
    3.8735    0.1835   -2.8399 H   0  0  0  0  0  0  0  0  0  0  0  0
    3.4979    1.3068   -1.0264 C   0  0  0  0  0  0  0  0  0  0  0  0
    4.6661    1.9982   -1.0758 O   0  0  0  0  0  0  0  0  0  0  0  0
    5.2356    1.6947   -1.7839 H   0  0  0  0  0  0  0  0  0  0  0  0
    2.5925    1.5381    0.0299 C   0  0  0  0  0  0  0  0  0  0  0  0
    2.8451    2.2594    0.7924 H   0  0  0  0  0  0  0  0  0  0  0  0
    1.3806    0.8241    0.0884 C   0  0  0  0  0  0  0  0  0  0  0  0
    0.6897    0.9956    0.9052 H   0  0  0  0  0  0  0  0  0  0  0  0
   -1.4018    1.0238    0.4329 C   0  0  0  0  0  0  0  0  0  0  0  0
   -2.2416    1.5423   -0.3033 O   0  0  0  0  0  0  0  0  0  0  0  0
   -0.6927    1.7304    1.3223 N   0  0  0  0  0  0  0  0  0  0  0  0
    0.0178    1.2410    1.8469 H   0  0  0  0  0  0  0  0  0  0  0  0
   -0.8259    3.1712    1.5254 C   0  0  0  0  0  0  0  0  0  0  0  0
   -1.8769    3.4302    1.6645 H   0  0  0  0  0  0  0  0  0  0  0  0
   -0.2598    3.4806    2.4054 H   0  0  0  0  0  0  0  0  0  0  0  0
   -0.4486    3.7020    0.6489 H   0  0  0  0  0  0  0  0  0  0  0  0
  5  6  2  0  0  0  0
  5  7  1  0  0  0  0
  2  3  1  0  0  0  0
  2  4  1  0  0  0  0
  2  5  1  0  0  0  0
  1  2  1  0  0  0  0
 26 27  2  0  0  0  0
 26 28  1  0  0  0  0
 24 25  1  0  0  0  0
 22 23  1  0  0  0  0
 22 24  2  0  0  0  0
 20 21  1  0  0  0  0
 19 20  1  0  0  0  0
 19 22  1  0  0  0  0
 17 18  1  0  0  0  0
 17 19  2  0  0  0  0
 15 16  1  0  0  0  0
 15 17  1  0  0  0  0
 14 15  2  0  0  0  0
 14 24  1  0  0  0  0
 11 12  1  0  0  0  0
 11 13  1  0  0  0  0
 11 14  1  0  0  0  0
  9 10  1  0  0  0  0
  9 11  1  0  0  0  0
  9 26  1  0  0  0  0
  7  8  1  0  0  0  0
  7  9  1  0  0  0  0
 30 31  1  0  0  0  0
 30 32  1  0  0  0  0
 30 33  1  0  0  0  0
 28 29  1  0  0  0  0
 28 30  1  0  0  0  0
M  END
$$$$
default_name
  -OEChem-02102213163D

 33 33  0     1  0  0  0  0  0999 V2000
   -4.0702   -3.8485    1.4554 H   0  0  0  0  0  0  0  0  0  0  0  0
   -4.0012   -2.9605    0.8284 C   0  0  0  0  0  0  0  0  0  0  0  0
   -4.7652   -2.2435    1.1234 H   0  0  0  0  0  0  0  0  0  0  0  0
   -4.1352   -3.2385   -0.2156 H   0  0  0  0  0  0  0  0  0  0  0  0
   -2.6362   -2.3395    1.0094 C   0  0  0  0  0  0  0  0  0  0  0  0
   -1.8292   -2.8395    1.7814 O   0  0  0  0  0  0  0  0  0  0  0  0
   -2.3832   -1.2445    0.2964 N   0  0  0  0  0  0  0  0  0  0  0  0
   -3.1102   -0.8685   -0.2946 H   0  0  0  0  0  0  0  0  0  0  0  0
   -1.1292   -0.4875    0.3524 C   0  0  1  0  0  0  0  0  0  0  0  0
   -0.5898   -0.7762    1.2552 H   0  0  0  0  0  0  0  0  0  0  0  0
   -0.2608   -0.8470   -0.8656 C   0  0  0  0  0  0  0  0  0  0  0  0
   -0.0589   -1.9188   -0.8528 H   0  0  0  0  0  0  0  0  0  0  0  0
   -0.8223   -0.6310   -1.7760 H   0  0  0  0  0  0  0  0  0  0  0  0
    1.0682   -0.1181   -0.9106 C   0  0  0  0  0  0  0  0  0  0  0  0
    1.8266   -0.0942   -2.0982 C   0  0  0  0  0  0  0  0  0  0  0  0
    1.4741   -0.6195   -2.9762 H   0  0  0  0  0  0  0  0  0  0  0  0
    3.0408    0.6181   -2.1468 C   0  0  0  0  0  0  0  0  0  0  0  0
    3.6197    0.6329   -3.0574 H   0  0  0  0  0  0  0  0  0  0  0  0
    3.4958    1.3120   -1.0044 C   0  0  0  0  0  0  0  0  0  0  0  0
    4.6639    2.0042   -1.0419 O   0  0  0  0  0  0  0  0  0  0  0  0
    5.1348    1.8735   -1.8660 H   0  0  0  0  0  0  0  0  0  0  0  0
    2.7332    1.2911    0.1817 C   0  0  0  0  0  0  0  0  0  0  0  0
    3.0938    1.8219    1.0499 H   0  0  0  0  0  0  0  0  0  0  0  0
    1.5223    0.5744    0.2285 C   0  0  0  0  0  0  0  0  0  0  0  0
    0.9415    0.5511    1.1429 H   0  0  0  0  0  0  0  0  0  0  0  0
   -1.4018    1.0238    0.4329 C   0  0  0  0  0  0  0  0  0  0  0  0
   -2.2416    1.5423   -0.3033 O   0  0  0  0  0  0  0  0  0  0  0  0
   -0.6927    1.7304    1.3223 N   0  0  0  0  0  0  0  0  0  0  0  0
    0.0178    1.2410    1.8469 H   0  0  0  0  0  0  0  0  0  0  0  0
   -0.8259    3.1712    1.5254 C   0  0  0  0  0  0  0  0  0  0  0  0
   -1.8769    3.4302    1.6645 H   0  0  0  0  0  0  0  0  0  0  0  0
   -0.2598    3.4806    2.4054 H   0  0  0  0  0  0  0  0  0  0  0  0
   -0.4486    3.7020    0.6489 H   0  0  0  0  0  0  0  0  0  0  0  0
  5  6  2  0  0  0  0
  5  7  1  0  0  0  0
  2  3  1  0  0  0  0
  2  4  1  0  0  0  0
  2  5  1  0  0  0  0
  1  2  1  0  0  0  0
 26 27  2  0  0  0  0
 26 28  1  0  0  0  0
 24 25  1  0  0  0  0
 22 23  1  0  0  0  0
 22 24  2  0  0  0  0
 20 21  1  0  0  0  0
 19 20  1  0  0  0  0
 19 22  1  0  0  0  0
 17 18  1  0  0  0  0
 17 19  2  0  0  0  0
 15 16  1  0  0  0  0
 15 17  1  0  0  0  0
 14 15  2  0  0  0  0
 14 24  1  0  0  0  0
 11 12  1  0  0  0  0
 11 13  1  0  0  0  0
 11 14  1  0  0  0  0
  9 10  1  0  0  0  0
  9 11  1  0  0  0  0
  9 26  1  0  0  0  0
  7  8  1  0  0  0  0
  7  9  1  0  0  0  0
 30 31  1  0  0  0  0
 30 32  1  0  0  0  0
 30 33  1  0  0  0  0
 28 29  1  0  0  0  0
 28 30  1  0  0  0  0
M  END
$$$$
default_name
  -OEChem-02102213163D

 33 33  0     1  0  0  0  0  0999 V2000
   -4.0702   -3.8485    1.4554 H   0  0  0  0  0  0  0  0  0  0  0  0
   -4.0012   -2.9605    0.8284 C   0  0  0  0  0  0  0  0  0  0  0  0
   -4.7652   -2.2435    1.1234 H   0  0  0  0  0  0  0  0  0  0  0  0
   -4.1352   -3.2385   -0.2156 H   0  0  0  0  0  0  0  0  0  0  0  0
   -2.6362   -2.3395    1.0094 C   0  0  0  0  0  0  0  0  0  0  0  0
   -1.8292   -2.8395    1.7814 O   0  0  0  0  0  0  0  0  0  0  0  0
   -2.3832   -1.2445    0.2964 N   0  0  0  0  0  0  0  0  0  0  0  0
   -3.1102   -0.8685   -0.2946 H   0  0  0  0  0  0  0  0  0  0  0  0
   -1.1292   -0.4875    0.3524 C   0  0  1  0  0  0  0  0  0  0  0  0
   -0.5898   -0.7762    1.2552 H   0  0  0  0  0  0  0  0  0  0  0  0
   -0.2608   -0.8470   -0.8656 C   0  0  0  0  0  0  0  0  0  0  0  0
   -0.0589   -1.9188   -0.8528 H   0  0  0  0  0  0  0  0  0  0  0  0
   -0.8223   -0.6310   -1.7760 H   0  0  0  0  0  0  0  0  0  0  0  0
    1.0682   -0.1181   -0.9106 C   0  0  0  0  0  0  0  0  0  0  0  0
    1.6745    0.1802   -2.1474 C   0  0  0  0  0  0  0  0  0  0  0  0
    1.2047   -0.1341   -3.0703 H   0  0  0  0  0  0  0  0  0  0  0  0
    2.8887    0.8929   -2.1852 C   0  0  0  0  0  0  0  0  0  0  0  0
    3.3509    1.1182   -3.1340 H   0  0  0  0  0  0  0  0  0  0  0  0
    3.4965    1.3120   -0.9817 C   0  0  0  0  0  0  0  0  0  0  0  0
    4.6660    2.0025   -1.0076 O   0  0  0  0  0  0  0  0  0  0  0  0
    5.0285    2.0656   -1.8922 H   0  0  0  0  0  0  0  0  0  0  0  0
    2.8860    1.0169    0.2549 C   0  0  0  0  0  0  0  0  0  0  0  0
    3.3627    1.3389    1.1685 H   0  0  0  0  0  0  0  0  0  0  0  0
    1.6747    0.3003    0.2896 C   0  0  0  0  0  0  0  0  0  0  0  0
    1.2109    0.0660    1.2404 H   0  0  0  0  0  0  0  0  0  0  0  0
   -1.4018    1.0238    0.4329 C   0  0  0  0  0  0  0  0  0  0  0  0
   -2.2416    1.5423   -0.3033 O   0  0  0  0  0  0  0  0  0  0  0  0
   -0.6927    1.7304    1.3223 N   0  0  0  0  0  0  0  0  0  0  0  0
    0.0178    1.2410    1.8469 H   0  0  0  0  0  0  0  0  0  0  0  0
   -0.8259    3.1712    1.5254 C   0  0  0  0  0  0  0  0  0  0  0  0
   -1.8769    3.4302    1.6645 H   0  0  0  0  0  0  0  0  0  0  0  0
   -0.2598    3.4806    2.4054 H   0  0  0  0  0  0  0  0  0  0  0  0
   -0.4486    3.7020    0.6489 H   0  0  0  0  0  0  0  0  0  0  0  0
  5  6  2  0  0  0  0
  5  7  1  0  0  0  0
  2  3  1  0  0  0  0
  2  4  1  0  0  0  0
  2  5  1  0  0  0  0
  1  2  1  0  0  0  0
 26 27  2  0  0  0  0
 26 28  1  0  0  0  0
 24 25  1  0  0  0  0
 22 23  1  0  0  0  0
 22 24  2  0  0  0  0
 20 21  1  0  0  0  0
 19 20  1  0  0  0  0
 19 22  1  0  0  0  0
 17 18  1  0  0  0  0
 17 19  2  0  0  0  0
 15 16  1  0  0  0  0
 15 17  1  0  0  0  0
 14 15  2  0  0  0  0
 14 24  1  0  0  0  0
 11 12  1  0  0  0  0
 11 13  1  0  0  0  0
 11 14  1  0  0  0  0
  9 10  1  0  0  0  0
  9 11  1  0  0  0  0
  9 26  1  0  0  0  0
  7  8  1  0  0  0  0
  7  9  1  0  0  0  0
 30 31  1  0  0  0  0
 30 32  1  0  0  0  0
 30 33  1  0  0  0  0
 28 29  1  0  0  0  0
 28 30  1  0  0  0  0
M  END
$$$$
default_name
  -OEChem-02102213163D

 33 33  0     1  0  0  0  0  0999 V2000
   -4.0702   -3.8485    1.4554 H   0  0  0  0  0  0  0  0  0  0  0  0
   -4.0012   -2.9605    0.8284 C   0  0  0  0  0  0  0  0  0  0  0  0
   -4.7652   -2.2435    1.1234 H   0  0  0  0  0  0  0  0  0  0  0  0
   -4.1352   -3.2385   -0.2156 H   0  0  0  0  0  0  0  0  0  0  0  0
   -2.6362   -2.3395    1.0094 C   0  0  0  0  0  0  0  0  0  0  0  0
   -1.8292   -2.8395    1.7814 O   0  0  0  0  0  0  0  0  0  0  0  0
   -2.3832   -1.2445    0.2964 N   0  0  0  0  0  0  0  0  0  0  0  0
   -3.1102   -0.8685   -0.2946 H   0  0  0  0  0  0  0  0  0  0  0  0
   -1.1292   -0.4875    0.3524 C   0  0  1  0  0  0  0  0  0  0  0  0
   -0.5898   -0.7762    1.2552 H   0  0  0  0  0  0  0  0  0  0  0  0
   -0.2608   -0.8470   -0.8656 C   0  0  0  0  0  0  0  0  0  0  0  0
   -0.0589   -1.9188   -0.8528 H   0  0  0  0  0  0  0  0  0  0  0  0
   -0.8223   -0.6310   -1.7760 H   0  0  0  0  0  0  0  0  0  0  0  0
    1.0682   -0.1181   -0.9106 C   0  0  0  0  0  0  0  0  0  0  0  0
    1.5235    0.4576   -2.1138 C   0  0  0  0  0  0  0  0  0  0  0  0
    0.9365    0.3582   -3.0175 H   0  0  0  0  0  0  0  0  0  0  0  0
    2.7392    1.1683   -2.1411 C   0  0  0  0  0  0  0  0  0  0  0  0
    3.0855    1.6065   -3.0645 H   0  0  0  0  0  0  0  0  0  0  0  0
    3.5001    1.3069   -0.9598 C   0  0  0  0  0  0  0  0  0  0  0  0
    4.6723    1.9929   -0.9750 O   0  0  0  0  0  0  0  0  0  0  0  0
    4.9241    2.2580   -1.8607 H   0  0  0  0  0  0  0  0  0  0  0  0
    3.0406    0.7344    0.2444 C   0  0  0  0  0  0  0  0  0  0  0  0
    3.6335    0.8434    1.1400 H   0  0  0  0  0  0  0  0  0  0  0  0
    1.8273    0.0206    0.2674 C   0  0  0  0  0  0  0  0  0  0  0  0
    1.4795   -0.4269    1.1909 H   0  0  0  0  0  0  0  0  0  0  0  0
   -1.4018    1.0238    0.4329 C   0  0  0  0  0  0  0  0  0  0  0  0
   -2.2416    1.5423   -0.3033 O   0  0  0  0  0  0  0  0  0  0  0  0
   -0.6927    1.7304    1.3223 N   0  0  0  0  0  0  0  0  0  0  0  0
    0.0178    1.2410    1.8469 H   0  0  0  0  0  0  0  0  0  0  0  0
   -0.8259    3.1712    1.5254 C   0  0  0  0  0  0  0  0  0  0  0  0
   -1.8769    3.4302    1.6645 H   0  0  0  0  0  0  0  0  0  0  0  0
   -0.2598    3.4806    2.4054 H   0  0  0  0  0  0  0  0  0  0  0  0
   -0.4486    3.7020    0.6489 H   0  0  0  0  0  0  0  0  0  0  0  0
  5  6  2  0  0  0  0
  5  7  1  0  0  0  0
  2  3  1  0  0  0  0
  2  4  1  0  0  0  0
  2  5  1  0  0  0  0
  1  2  1  0  0  0  0
 26 27  2  0  0  0  0
 26 28  1  0  0  0  0
 24 25  1  0  0  0  0
 22 23  1  0  0  0  0
 22 24  2  0  0  0  0
 20 21  1  0  0  0  0
 19 20  1  0  0  0  0
 19 22  1  0  0  0  0
 17 18  1  0  0  0  0
 17 19  2  0  0  0  0
 15 16  1  0  0  0  0
 15 17  1  0  0  0  0
 14 15  2  0  0  0  0
 14 24  1  0  0  0  0
 11 12  1  0  0  0  0
 11 13  1  0  0  0  0
 11 14  1  0  0  0  0
  9 10  1  0  0  0  0
  9 11  1  0  0  0  0
  9 26  1  0  0  0  0
  7  8  1  0  0  0  0
  7  9  1  0  0  0  0
 30 31  1  0  0  0  0
 30 32  1  0  0  0  0
 30 33  1  0  0  0  0
 28 29  1  0  0  0  0
 28 30  1  0  0  0  0
M  END
$$$$
default_name
  -OEChem-02102213163D

 33 33  0     1  0  0  0  0  0999 V2000
   -4.0702   -3.8485    1.4554 H   0  0  0  0  0  0  0  0  0  0  0  0
   -4.0012   -2.9605    0.8284 C   0  0  0  0  0  0  0  0  0  0  0  0
   -4.7652   -2.2435    1.1234 H   0  0  0  0  0  0  0  0  0  0  0  0
   -4.1352   -3.2385   -0.2156 H   0  0  0  0  0  0  0  0  0  0  0  0
   -2.6362   -2.3395    1.0094 C   0  0  0  0  0  0  0  0  0  0  0  0
   -1.8292   -2.8395    1.7814 O   0  0  0  0  0  0  0  0  0  0  0  0
   -2.3832   -1.2445    0.2964 N   0  0  0  0  0  0  0  0  0  0  0  0
   -3.1102   -0.8685   -0.2946 H   0  0  0  0  0  0  0  0  0  0  0  0
   -1.1292   -0.4875    0.3524 C   0  0  1  0  0  0  0  0  0  0  0  0
   -0.5898   -0.7762    1.2552 H   0  0  0  0  0  0  0  0  0  0  0  0
   -0.2608   -0.8470   -0.8656 C   0  0  0  0  0  0  0  0  0  0  0  0
   -0.0589   -1.9188   -0.8528 H   0  0  0  0  0  0  0  0  0  0  0  0
   -0.8223   -0.6310   -1.7760 H   0  0  0  0  0  0  0  0  0  0  0  0
    1.0682   -0.1181   -0.9106 C   0  0  0  0  0  0  0  0  0  0  0  0
    1.3840    0.7190   -1.9995 C   0  0  0  0  0  0  0  0  0  0  0  0
    0.6878    0.8237   -2.8214 H   0  0  0  0  0  0  0  0  0  0  0  0
    2.6023    1.4255   -2.0174 C   0  0  0  0  0  0  0  0  0  0  0  0
    2.8415    2.0644   -2.8535 H   0  0  0  0  0  0  0  0  0  0  0  0
    3.5062    1.2969   -0.9403 C   0  0  0  0  0  0  0  0  0  0  0  0
    4.6824    1.9763   -0.9466 O   0  0  0  0  0  0  0  0  0  0  0  0
    4.8287    2.4374   -1.7736 H   0  0  0  0  0  0  0  0  0  0  0  0
    3.1864    0.4627    0.1509 C   0  0  0  0  0  0  0  0  0  0  0  0
    3.8877    0.3692    0.9664 H   0  0  0  0  0  0  0  0  0  0  0  0
    1.9699   -0.2457    0.1636 C   0  0  0  0  0  0  0  0  0  0  0  0
    1.7290   -0.8937    0.9979 H   0  0  0  0  0  0  0  0  0  0  0  0
   -1.4018    1.0238    0.4329 C   0  0  0  0  0  0  0  0  0  0  0  0
   -2.2416    1.5423   -0.3033 O   0  0  0  0  0  0  0  0  0  0  0  0
   -0.6927    1.7304    1.3223 N   0  0  0  0  0  0  0  0  0  0  0  0
    0.0178    1.2410    1.8469 H   0  0  0  0  0  0  0  0  0  0  0  0
   -0.8259    3.1712    1.5254 C   0  0  0  0  0  0  0  0  0  0  0  0
   -1.8769    3.4302    1.6645 H   0  0  0  0  0  0  0  0  0  0  0  0
   -0.2598    3.4806    2.4054 H   0  0  0  0  0  0  0  0  0  0  0  0
   -0.4486    3.7020    0.6489 H   0  0  0  0  0  0  0  0  0  0  0  0
  5  6  2  0  0  0  0
  5  7  1  0  0  0  0
  2  3  1  0  0  0  0
  2  4  1  0  0  0  0
  2  5  1  0  0  0  0
  1  2  1  0  0  0  0
 26 27  2  0  0  0  0
 26 28  1  0  0  0  0
 24 25  1  0  0  0  0
 22 23  1  0  0  0  0
 22 24  2  0  0  0  0
 20 21  1  0  0  0  0
 19 20  1  0  0  0  0
 19 22  1  0  0  0  0
 17 18  1  0  0  0  0
 17 19  2  0  0  0  0
 15 16  1  0  0  0  0
 15 17  1  0  0  0  0
 14 15  2  0  0  0  0
 14 24  1  0  0  0  0
 11 12  1  0  0  0  0
 11 13  1  0  0  0  0
 11 14  1  0  0  0  0
  9 10  1  0  0  0  0
  9 11  1  0  0  0  0
  9 26  1  0  0  0  0
  7  8  1  0  0  0  0
  7  9  1  0  0  0  0
 30 31  1  0  0  0  0
 30 32  1  0  0  0  0
 30 33  1  0  0  0  0
 28 29  1  0  0  0  0
 28 30  1  0  0  0  0
M  END
$$$$
default_name
  -OEChem-02102213163D

 33 33  0     1  0  0  0  0  0999 V2000
   -4.0702   -3.8485    1.4554 H   0  0  0  0  0  0  0  0  0  0  0  0
   -4.0012   -2.9605    0.8284 C   0  0  0  0  0  0  0  0  0  0  0  0
   -4.7652   -2.2435    1.1234 H   0  0  0  0  0  0  0  0  0  0  0  0
   -4.1352   -3.2385   -0.2156 H   0  0  0  0  0  0  0  0  0  0  0  0
   -2.6362   -2.3395    1.0094 C   0  0  0  0  0  0  0  0  0  0  0  0
   -1.8292   -2.8395    1.7814 O   0  0  0  0  0  0  0  0  0  0  0  0
   -2.3832   -1.2445    0.2964 N   0  0  0  0  0  0  0  0  0  0  0  0
   -3.1102   -0.8685   -0.2946 H   0  0  0  0  0  0  0  0  0  0  0  0
   -1.1292   -0.4875    0.3524 C   0  0  1  0  0  0  0  0  0  0  0  0
   -0.5898   -0.7762    1.2552 H   0  0  0  0  0  0  0  0  0  0  0  0
   -0.2608   -0.8470   -0.8656 C   0  0  0  0  0  0  0  0  0  0  0  0
   -0.0589   -1.9188   -0.8528 H   0  0  0  0  0  0  0  0  0  0  0  0
   -0.8223   -0.6310   -1.7760 H   0  0  0  0  0  0  0  0  0  0  0  0
    1.0682   -0.1181   -0.9106 C   0  0  0  0  0  0  0  0  0  0  0  0
    1.2654    0.9467   -1.8126 C   0  0  0  0  0  0  0  0  0  0  0  0
    0.4756    1.2309   -2.4955 H   0  0  0  0  0  0  0  0  0  0  0  0
    2.4875    1.6469   -1.8225 C   0  0  0  0  0  0  0  0  0  0  0  0
    2.6356    2.4607   -2.5156 H   0  0  0  0  0  0  0  0  0  0  0  0
    3.5144    1.2829   -0.9244 C   0  0  0  0  0  0  0  0  0  0  0  0
    4.6956    1.9537   -0.9241 O   0  0  0  0  0  0  0  0  0  0  0  0
    4.7487    2.5917   -1.6370 H   0  0  0  0  0  0  0  0  0  0  0  0
    3.3136    0.2203   -0.0192 C   0  0  0  0  0  0  0  0  0  0  0  0
    4.1080   -0.0515    0.6596 H   0  0  0  0  0  0  0  0  0  0  0  0
    2.0926   -0.4806   -0.0148 C   0  0  0  0  0  0  0  0  0  0  0  0
    1.9425   -1.3028    0.6746 H   0  0  0  0  0  0  0  0  0  0  0  0
   -1.4018    1.0238    0.4329 C   0  0  0  0  0  0  0  0  0  0  0  0
   -2.2416    1.5423   -0.3033 O   0  0  0  0  0  0  0  0  0  0  0  0
   -0.6927    1.7304    1.3223 N   0  0  0  0  0  0  0  0  0  0  0  0
    0.0178    1.2410    1.8469 H   0  0  0  0  0  0  0  0  0  0  0  0
   -0.8259    3.1712    1.5254 C   0  0  0  0  0  0  0  0  0  0  0  0
   -1.8769    3.4302    1.6645 H   0  0  0  0  0  0  0  0  0  0  0  0
   -0.2598    3.4806    2.4054 H   0  0  0  0  0  0  0  0  0  0  0  0
   -0.4486    3.7020    0.6489 H   0  0  0  0  0  0  0  0  0  0  0  0
  5  6  2  0  0  0  0
  5  7  1  0  0  0  0
  2  3  1  0  0  0  0
  2  4  1  0  0  0  0
  2  5  1  0  0  0  0
  1  2  1  0  0  0  0
 26 27  2  0  0  0  0
 26 28  1  0  0  0  0
 24 25  1  0  0  0  0
 22 23  1  0  0  0  0
 22 24  2  0  0  0  0
 20 21  1  0  0  0  0
 19 20  1  0  0  0  0
 19 22  1  0  0  0  0
 17 18  1  0  0  0  0
 17 19  2  0  0  0  0
 15 16  1  0  0  0  0
 15 17  1  0  0  0  0
 14 15  2  0  0  0  0
 14 24  1  0  0  0  0
 11 12  1  0  0  0  0
 11 13  1  0  0  0  0
 11 14  1  0  0  0  0
  9 10  1  0  0  0  0
  9 11  1  0  0  0  0
  9 26  1  0  0  0  0
  7  8  1  0  0  0  0
  7  9  1  0  0  0  0
 30 31  1  0  0  0  0
 30 32  1  0  0  0  0
 30 33  1  0  0  0  0
 28 29  1  0  0  0  0
 28 30  1  0  0  0  0
M  END
$$$$
default_name
  -OEChem-02102213163D

 33 33  0     1  0  0  0  0  0999 V2000
   -4.0702   -3.8485    1.4554 H   0  0  0  0  0  0  0  0  0  0  0  0
   -4.0012   -2.9605    0.8284 C   0  0  0  0  0  0  0  0  0  0  0  0
   -4.7652   -2.2435    1.1234 H   0  0  0  0  0  0  0  0  0  0  0  0
   -4.1352   -3.2385   -0.2156 H   0  0  0  0  0  0  0  0  0  0  0  0
   -2.6362   -2.3395    1.0094 C   0  0  0  0  0  0  0  0  0  0  0  0
   -1.8292   -2.8395    1.7814 O   0  0  0  0  0  0  0  0  0  0  0  0
   -2.3832   -1.2445    0.2964 N   0  0  0  0  0  0  0  0  0  0  0  0
   -3.1102   -0.8685   -0.2946 H   0  0  0  0  0  0  0  0  0  0  0  0
   -1.1292   -0.4875    0.3524 C   0  0  1  0  0  0  0  0  0  0  0  0
   -0.5898   -0.7762    1.2552 H   0  0  0  0  0  0  0  0  0  0  0  0
   -0.2608   -0.8470   -0.8656 C   0  0  0  0  0  0  0  0  0  0  0  0
   -0.0589   -1.9188   -0.8528 H   0  0  0  0  0  0  0  0  0  0  0  0
   -0.8223   -0.6310   -1.7760 H   0  0  0  0  0  0  0  0  0  0  0  0
    1.0682   -0.1181   -0.9106 C   0  0  0  0  0  0  0  0  0  0  0  0
    1.1759    1.1252   -1.5655 C   0  0  0  0  0  0  0  0  0  0  0  0
    0.3142    1.5519   -2.0620 H   0  0  0  0  0  0  0  0  0  0  0  0
    2.4026    1.8174   -1.5698 C   0  0  0  0  0  0  0  0  0  0  0  0
    2.4818    2.7684   -2.0736 H   0  0  0  0  0  0  0  0  0  0  0  0
    3.5243    1.2656   -0.9134 C   0  0  0  0  0  0  0  0  0  0  0  0
    4.7109    1.9267   -0.9092 O   0  0  0  0  0  0  0  0  0  0  0  0
    4.6896    2.7104   -1.4600 H   0  0  0  0  0  0  0  0  0  0  0  0
    3.4134    0.0237   -0.2543 C   0  0  0  0  0  0  0  0  0  0  0  0
    4.2794   -0.3899    0.2403 H   0  0  0  0  0  0  0  0  0  0  0  0
    2.1872   -0.6679   -0.2557 C   0  0  0  0  0  0  0  0  0  0  0  0
    2.1052   -1.6263    0.2429 H   0  0  0  0  0  0  0  0  0  0  0  0
   -1.4018    1.0238    0.4329 C   0  0  0  0  0  0  0  0  0  0  0  0
   -2.2416    1.5423   -0.3033 O   0  0  0  0  0  0  0  0  0  0  0  0
   -0.6927    1.7304    1.3223 N   0  0  0  0  0  0  0  0  0  0  0  0
    0.0178    1.2410    1.8469 H   0  0  0  0  0  0  0  0  0  0  0  0
   -0.8259    3.1712    1.5254 C   0  0  0  0  0  0  0  0  0  0  0  0
   -1.8769    3.4302    1.6645 H   0  0  0  0  0  0  0  0  0  0  0  0
   -0.2598    3.4806    2.4054 H   0  0  0  0  0  0  0  0  0  0  0  0
   -0.4486    3.7020    0.6489 H   0  0  0  0  0  0  0  0  0  0  0  0
  5  6  2  0  0  0  0
  5  7  1  0  0  0  0
  2  3  1  0  0  0  0
  2  4  1  0  0  0  0
  2  5  1  0  0  0  0
  1  2  1  0  0  0  0
 26 27  2  0  0  0  0
 26 28  1  0  0  0  0
 24 25  1  0  0  0  0
 22 23  1  0  0  0  0
 22 24  2  0  0  0  0
 20 21  1  0  0  0  0
 19 20  1  0  0  0  0
 19 22  1  0  0  0  0
 17 18  1  0  0  0  0
 17 19  2  0  0  0  0
 15 16  1  0  0  0  0
 15 17  1  0  0  0  0
 14 15  2  0  0  0  0
 14 24  1  0  0  0  0
 11 12  1  0  0  0  0
 11 13  1  0  0  0  0
 11 14  1  0  0  0  0
  9 10  1  0  0  0  0
  9 11  1  0  0  0  0
  9 26  1  0  0  0  0
  7  8  1  0  0  0  0
  7  9  1  0  0  0  0
 30 31  1  0  0  0  0
 30 32  1  0  0  0  0
 30 33  1  0  0  0  0
 28 29  1  0  0  0  0
 28 30  1  0  0  0  0
M  END
$$$$
default_name
  -OEChem-02102213163D

 33 33  0     1  0  0  0  0  0999 V2000
   -4.0702   -3.8485    1.4554 H   0  0  0  0  0  0  0  0  0  0  0  0
   -4.0012   -2.9605    0.8284 C   0  0  0  0  0  0  0  0  0  0  0  0
   -4.7652   -2.2435    1.1234 H   0  0  0  0  0  0  0  0  0  0  0  0
   -4.1352   -3.2385   -0.2156 H   0  0  0  0  0  0  0  0  0  0  0  0
   -2.6362   -2.3395    1.0094 C   0  0  0  0  0  0  0  0  0  0  0  0
   -1.8292   -2.8395    1.7814 O   0  0  0  0  0  0  0  0  0  0  0  0
   -2.3832   -1.2445    0.2964 N   0  0  0  0  0  0  0  0  0  0  0  0
   -3.1102   -0.8685   -0.2946 H   0  0  0  0  0  0  0  0  0  0  0  0
   -1.1292   -0.4875    0.3524 C   0  0  1  0  0  0  0  0  0  0  0  0
   -0.5898   -0.7762    1.2552 H   0  0  0  0  0  0  0  0  0  0  0  0
   -0.2608   -0.8470   -0.8656 C   0  0  0  0  0  0  0  0  0  0  0  0
   -0.0589   -1.9188   -0.8528 H   0  0  0  0  0  0  0  0  0  0  0  0
   -0.8223   -0.6310   -1.7760 H   0  0  0  0  0  0  0  0  0  0  0  0
    1.0682   -0.1181   -0.9106 C   0  0  0  0  0  0  0  0  0  0  0  0
    1.1216    1.2422   -1.2753 C   0  0  0  0  0  0  0  0  0  0  0  0
    0.2148    1.7648   -1.5503 H   0  0  0  0  0  0  0  0  0  0  0  0
    2.3533    1.9254   -1.2765 C   0  0  0  0  0  0  0  0  0  0  0  0
    2.3906    2.9666   -1.5578 H   0  0  0  0  0  0  0  0  0  0  0  0
    3.5350    1.2464   -0.9078 C   0  0  0  0  0  0  0  0  0  0  0  0
    4.7273    1.8971   -0.9028 O   0  0  0  0  0  0  0  0  0  0  0  0
    4.6554    2.7853   -1.2548 H   0  0  0  0  0  0  0  0  0  0  0  0
    3.4791   -0.1135   -0.5383 C   0  0  0  0  0  0  0  0  0  0  0  0
    4.3902   -0.6229   -0.2627 H   0  0  0  0  0  0  0  0  0  0  0  0
    2.2471   -0.7949   -0.5426 C   0  0  0  0  0  0  0  0  0  0  0  0
    2.2063   -1.8421   -0.2676 H   0  0  0  0  0  0  0  0  0  0  0  0
   -1.4018    1.0238    0.4329 C   0  0  0  0  0  0  0  0  0  0  0  0
   -2.2416    1.5423   -0.3033 O   0  0  0  0  0  0  0  0  0  0  0  0
   -0.6927    1.7304    1.3223 N   0  0  0  0  0  0  0  0  0  0  0  0
    0.0178    1.2410    1.8469 H   0  0  0  0  0  0  0  0  0  0  0  0
   -0.8259    3.1712    1.5254 C   0  0  0  0  0  0  0  0  0  0  0  0
   -1.8769    3.4302    1.6645 H   0  0  0  0  0  0  0  0  0  0  0  0
   -0.2598    3.4806    2.4054 H   0  0  0  0  0  0  0  0  0  0  0  0
   -0.4486    3.7020    0.6489 H   0  0  0  0  0  0  0  0  0  0  0  0
  5  6  2  0  0  0  0
  5  7  1  0  0  0  0
  2  3  1  0  0  0  0
  2  4  1  0  0  0  0
  2  5  1  0  0  0  0
  1  2  1  0  0  0  0
 26 27  2  0  0  0  0
 26 28  1  0  0  0  0
 24 25  1  0  0  0  0
 22 23  1  0  0  0  0
 22 24  2  0  0  0  0
 20 21  1  0  0  0  0
 19 20  1  0  0  0  0
 19 22  1  0  0  0  0
 17 18  1  0  0  0  0
 17 19  2  0  0  0  0
 15 16  1  0  0  0  0
 15 17  1  0  0  0  0
 14 15  2  0  0  0  0
 14 24  1  0  0  0  0
 11 12  1  0  0  0  0
 11 13  1  0  0  0  0
 11 14  1  0  0  0  0
  9 10  1  0  0  0  0
  9 11  1  0  0  0  0
  9 26  1  0  0  0  0
  7  8  1  0  0  0  0
  7  9  1  0  0  0  0
 30 31  1  0  0  0  0
 30 32  1  0  0  0  0
 30 33  1  0  0  0  0
 28 29  1  0  0  0  0
 28 30  1  0  0  0  0
M  END
$$$$
default_name
  -OEChem-02102213163D

 33 33  0     1  0  0  0  0  0999 V2000
   -4.0702   -3.8485    1.4554 H   0  0  0  0  0  0  0  0  0  0  0  0
   -4.0012   -2.9605    0.8284 C   0  0  0  0  0  0  0  0  0  0  0  0
   -4.7652   -2.2435    1.1234 H   0  0  0  0  0  0  0  0  0  0  0  0
   -4.1352   -3.2385   -0.2156 H   0  0  0  0  0  0  0  0  0  0  0  0
   -2.6362   -2.3395    1.0094 C   0  0  0  0  0  0  0  0  0  0  0  0
   -1.8292   -2.8395    1.7814 O   0  0  0  0  0  0  0  0  0  0  0  0
   -2.3832   -1.2445    0.2964 N   0  0  0  0  0  0  0  0  0  0  0  0
   -3.1102   -0.8685   -0.2946 H   0  0  0  0  0  0  0  0  0  0  0  0
   -1.1292   -0.4875    0.3524 C   0  0  1  0  0  0  0  0  0  0  0  0
   -0.5898   -0.7762    1.2552 H   0  0  0  0  0  0  0  0  0  0  0  0
   -0.2608   -0.8470   -0.8656 C   0  0  0  0  0  0  0  0  0  0  0  0
   -0.0589   -1.9188   -0.8528 H   0  0  0  0  0  0  0  0  0  0  0  0
   -0.8223   -0.6310   -1.7760 H   0  0  0  0  0  0  0  0  0  0  0  0
    1.0682   -0.1181   -0.9106 C   0  0  0  0  0  0  0  0  0  0  0  0
    1.1061    1.2898   -0.9617 C   0  0  0  0  0  0  0  0  0  0  0  0
    0.1840    1.8552   -0.9954 H   0  0  0  0  0  0  0  0  0  0  0  0
    2.3429    1.9636   -0.9625 C   0  0  0  0  0  0  0  0  0  0  0  0
    2.3682    3.0417   -1.0033 H   0  0  0  0  0  0  0  0  0  0  0  0
    3.5460    1.2264   -0.9081 C   0  0  0  0  0  0  0  0  0  0  0  0
    4.7438    1.8669   -0.9054 O   0  0  0  0  0  0  0  0  0  0  0  0
    4.6486    2.8114   -1.0354 H   0  0  0  0  0  0  0  0  0  0  0  0
    3.5061   -0.1822   -0.8520 C   0  0  0  0  0  0  0  0  0  0  0  0
    4.4328   -0.7348   -0.8152 H   0  0  0  0  0  0  0  0  0  0  0  0
    2.2683   -0.8529   -0.8561 C   0  0  0  0  0  0  0  0  0  0  0  0
    2.2387   -1.9355   -0.8223 H   0  0  0  0  0  0  0  0  0  0  0  0
   -1.4018    1.0238    0.4329 C   0  0  0  0  0  0  0  0  0  0  0  0
   -2.2416    1.5423   -0.3033 O   0  0  0  0  0  0  0  0  0  0  0  0
   -0.6927    1.7304    1.3223 N   0  0  0  0  0  0  0  0  0  0  0  0
    0.0178    1.2410    1.8469 H   0  0  0  0  0  0  0  0  0  0  0  0
   -0.8259    3.1712    1.5254 C   0  0  0  0  0  0  0  0  0  0  0  0
   -1.8769    3.4302    1.6645 H   0  0  0  0  0  0  0  0  0  0  0  0
   -0.2598    3.4806    2.4054 H   0  0  0  0  0  0  0  0  0  0  0  0
   -0.4486    3.7020    0.6489 H   0  0  0  0  0  0  0  0  0  0  0  0
  5  6  2  0  0  0  0
  5  7  1  0  0  0  0
  2  3  1  0  0  0  0
  2  4  1  0  0  0  0
  2  5  1  0  0  0  0
  1  2  1  0  0  0  0
 26 27  2  0  0  0  0
 26 28  1  0  0  0  0
 24 25  1  0  0  0  0
 22 23  1  0  0  0  0
 22 24  2  0  0  0  0
 20 21  1  0  0  0  0
 19 20  1  0  0  0  0
 19 22  1  0  0  0  0
 17 18  1  0  0  0  0
 17 19  2  0  0  0  0
 15 16  1  0  0  0  0
 15 17  1  0  0  0  0
 14 15  2  0  0  0  0
 14 24  1  0  0  0  0
 11 12  1  0  0  0  0
 11 13  1  0  0  0  0
 11 14  1  0  0  0  0
  9 10  1  0  0  0  0
  9 11  1  0  0  0  0
  9 26  1  0  0  0  0
  7  8  1  0  0  0  0
  7  9  1  0  0  0  0
 30 31  1  0  0  0  0
 30 32  1  0  0  0  0
 30 33  1  0  0  0  0
 28 29  1  0  0  0  0
 28 30  1  0  0  0  0
M  END
$$$$
default_name
  -OEChem-02102213163D

 33 33  0     1  0  0  0  0  0999 V2000
   -4.0702   -3.8485    1.4554 H   0  0  0  0  0  0  0  0  0  0  0  0
   -4.0012   -2.9605    0.8284 C   0  0  0  0  0  0  0  0  0  0  0  0
   -4.7652   -2.2435    1.1234 H   0  0  0  0  0  0  0  0  0  0  0  0
   -4.1352   -3.2385   -0.2156 H   0  0  0  0  0  0  0  0  0  0  0  0
   -2.6362   -2.3395    1.0094 C   0  0  0  0  0  0  0  0  0  0  0  0
   -1.8292   -2.8395    1.7814 O   0  0  0  0  0  0  0  0  0  0  0  0
   -2.3832   -1.2445    0.2964 N   0  0  0  0  0  0  0  0  0  0  0  0
   -3.1102   -0.8685   -0.2946 H   0  0  0  0  0  0  0  0  0  0  0  0
   -1.1292   -0.4875    0.3524 C   0  0  1  0  0  0  0  0  0  0  0  0
   -0.5898   -0.7762    1.2552 H   0  0  0  0  0  0  0  0  0  0  0  0
   -0.2608   -0.8470   -0.8656 C   0  0  0  0  0  0  0  0  0  0  0  0
   -0.0589   -1.9188   -0.8528 H   0  0  0  0  0  0  0  0  0  0  0  0
   -0.8223   -0.6310   -1.7760 H   0  0  0  0  0  0  0  0  0  0  0  0
    1.0682   -0.1181   -0.9106 C   0  0  0  0  0  0  0  0  0  0  0  0
    1.1305    1.2648   -0.6460 C   0  0  0  0  0  0  0  0  0  0  0  0
    0.2240    1.8169   -0.4351 H   0  0  0  0  0  0  0  0  0  0  0  0
    2.3723    1.9294   -0.6492 C   0  0  0  0  0  0  0  0  0  0  0  0
    2.4161    2.9887   -0.4478 H   0  0  0  0  0  0  0  0  0  0  0  0
    3.5563    1.2072   -0.9143 C   0  0  0  0  0  0  0  0  0  0  0  0
    4.7591    1.8383   -0.9168 O   0  0  0  0  0  0  0  0  0  0  0  0
    4.6694    2.7869   -0.8166 H   0  0  0  0  0  0  0  0  0  0  0  0
    3.4927   -0.1775   -1.1740 C   0  0  0  0  0  0  0  0  0  0  0  0
    4.4044   -0.7179   -1.3796 H   0  0  0  0  0  0  0  0  0  0  0  0
    2.2494   -0.8380   -1.1746 C   0  0  0  0  0  0  0  0  0  0  0  0
    2.2003   -1.9001   -1.3833 H   0  0  0  0  0  0  0  0  0  0  0  0
   -1.4018    1.0238    0.4329 C   0  0  0  0  0  0  0  0  0  0  0  0
   -2.2416    1.5423   -0.3033 O   0  0  0  0  0  0  0  0  0  0  0  0
   -0.6927    1.7304    1.3223 N   0  0  0  0  0  0  0  0  0  0  0  0
    0.0178    1.2410    1.8469 H   0  0  0  0  0  0  0  0  0  0  0  0
   -0.8259    3.1712    1.5254 C   0  0  0  0  0  0  0  0  0  0  0  0
   -1.8769    3.4302    1.6645 H   0  0  0  0  0  0  0  0  0  0  0  0
   -0.2598    3.4806    2.4054 H   0  0  0  0  0  0  0  0  0  0  0  0
   -0.4486    3.7020    0.6489 H   0  0  0  0  0  0  0  0  0  0  0  0
  5  6  2  0  0  0  0
  5  7  1  0  0  0  0
  2  3  1  0  0  0  0
  2  4  1  0  0  0  0
  2  5  1  0  0  0  0
  1  2  1  0  0  0  0
 26 27  2  0  0  0  0
 26 28  1  0  0  0  0
 24 25  1  0  0  0  0
 22 23  1  0  0  0  0
 22 24  2  0  0  0  0
 20 21  1  0  0  0  0
 19 20  1  0  0  0  0
 19 22  1  0  0  0  0
 17 18  1  0  0  0  0
 17 19  2  0  0  0  0
 15 16  1  0  0  0  0
 15 17  1  0  0  0  0
 14 15  2  0  0  0  0
 14 24  1  0  0  0  0
 11 12  1  0  0  0  0
 11 13  1  0  0  0  0
 11 14  1  0  0  0  0
  9 10  1  0  0  0  0
  9 11  1  0  0  0  0
  9 26  1  0  0  0  0
  7  8  1  0  0  0  0
  7  9  1  0  0  0  0
 30 31  1  0  0  0  0
 30 32  1  0  0  0  0
 30 33  1  0  0  0  0
 28 29  1  0  0  0  0
 28 30  1  0  0  0  0
M  END
$$$$
default_name
  -OEChem-02102213163D

 33 33  0     1  0  0  0  0  0999 V2000
   -4.0702   -3.8485    1.4554 H   0  0  0  0  0  0  0  0  0  0  0  0
   -4.0012   -2.9605    0.8284 C   0  0  0  0  0  0  0  0  0  0  0  0
   -4.7652   -2.2435    1.1234 H   0  0  0  0  0  0  0  0  0  0  0  0
   -4.1352   -3.2385   -0.2156 H   0  0  0  0  0  0  0  0  0  0  0  0
   -2.6362   -2.3395    1.0094 C   0  0  0  0  0  0  0  0  0  0  0  0
   -1.8292   -2.8395    1.7814 O   0  0  0  0  0  0  0  0  0  0  0  0
   -2.3832   -1.2445    0.2964 N   0  0  0  0  0  0  0  0  0  0  0  0
   -3.1102   -0.8685   -0.2946 H   0  0  0  0  0  0  0  0  0  0  0  0
   -1.1292   -0.4875    0.3524 C   0  0  1  0  0  0  0  0  0  0  0  0
   -0.5898   -0.7762    1.2552 H   0  0  0  0  0  0  0  0  0  0  0  0
   -0.2608   -0.8470   -0.8656 C   0  0  0  0  0  0  0  0  0  0  0  0
   -0.0589   -1.9188   -0.8528 H   0  0  0  0  0  0  0  0  0  0  0  0
   -0.8223   -0.6310   -1.7760 H   0  0  0  0  0  0  0  0  0  0  0  0
    1.0682   -0.1181   -0.9106 C   0  0  0  0  0  0  0  0  0  0  0  0
    1.1931    1.1689   -0.3498 C   0  0  0  0  0  0  0  0  0  0  0  0
    0.3320    1.6525    0.0924 H   0  0  0  0  0  0  0  0  0  0  0  0
    2.4394    1.8250   -0.3581 C   0  0  0  0  0  0  0  0  0  0  0  0
    2.5311    2.8110    0.0708 H   0  0  0  0  0  0  0  0  0  0  0  0
    3.5654    1.1899   -0.9259 C   0  0  0  0  0  0  0  0  0  0  0  0
    4.7723    1.8130   -0.9362 O   0  0  0  0  0  0  0  0  0  0  0  0
    4.7166    2.7134   -0.6135 H   0  0  0  0  0  0  0  0  0  0  0  0
    3.4397   -0.0999   -1.4822 C   0  0  0  0  0  0  0  0  0  0  0  0
    4.3069   -0.5733   -1.9174 H   0  0  0  0  0  0  0  0  0  0  0  0
    2.1916   -0.7513   -1.4766 C   0  0  0  0  0  0  0  0  0  0  0  0
    2.0937   -1.7384   -1.9124 H   0  0  0  0  0  0  0  0  0  0  0  0
   -1.4018    1.0238    0.4329 C   0  0  0  0  0  0  0  0  0  0  0  0
   -2.2416    1.5423   -0.3033 O   0  0  0  0  0  0  0  0  0  0  0  0
   -0.6927    1.7304    1.3223 N   0  0  0  0  0  0  0  0  0  0  0  0
    0.0178    1.2410    1.8469 H   0  0  0  0  0  0  0  0  0  0  0  0
   -0.8259    3.1712    1.5254 C   0  0  0  0  0  0  0  0  0  0  0  0
   -1.8769    3.4302    1.6645 H   0  0  0  0  0  0  0  0  0  0  0  0
   -0.2598    3.4806    2.4054 H   0  0  0  0  0  0  0  0  0  0  0  0
   -0.4486    3.7020    0.6489 H   0  0  0  0  0  0  0  0  0  0  0  0
  5  6  2  0  0  0  0
  5  7  1  0  0  0  0
  2  3  1  0  0  0  0
  2  4  1  0  0  0  0
  2  5  1  0  0  0  0
  1  2  1  0  0  0  0
 26 27  2  0  0  0  0
 26 28  1  0  0  0  0
 24 25  1  0  0  0  0
 22 23  1  0  0  0  0
 22 24  2  0  0  0  0
 20 21  1  0  0  0  0
 19 20  1  0  0  0  0
 19 22  1  0  0  0  0
 17 18  1  0  0  0  0
 17 19  2  0  0  0  0
 15 16  1  0  0  0  0
 15 17  1  0  0  0  0
 14 15  2  0  0  0  0
 14 24  1  0  0  0  0
 11 12  1  0  0  0  0
 11 13  1  0  0  0  0
 11 14  1  0  0  0  0
  9 10  1  0  0  0  0
  9 11  1  0  0  0  0
  9 26  1  0  0  0  0
  7  8  1  0  0  0  0
  7  9  1  0  0  0  0
 30 31  1  0  0  0  0
 30 32  1  0  0  0  0
 30 33  1  0  0  0  0
 28 29  1  0  0  0  0
 28 30  1  0  0  0  0
M  END
$$$$
default_name
  -OEChem-02102213163D

 33 33  0     1  0  0  0  0  0999 V2000
   -4.0702   -3.8485    1.4554 H   0  0  0  0  0  0  0  0  0  0  0  0
   -4.0012   -2.9605    0.8284 C   0  0  0  0  0  0  0  0  0  0  0  0
   -4.7652   -2.2435    1.1234 H   0  0  0  0  0  0  0  0  0  0  0  0
   -4.1352   -3.2385   -0.2156 H   0  0  0  0  0  0  0  0  0  0  0  0
   -2.6362   -2.3395    1.0094 C   0  0  0  0  0  0  0  0  0  0  0  0
   -1.8292   -2.8395    1.7814 O   0  0  0  0  0  0  0  0  0  0  0  0
   -2.3832   -1.2445    0.2964 N   0  0  0  0  0  0  0  0  0  0  0  0
   -3.1102   -0.8685   -0.2946 H   0  0  0  0  0  0  0  0  0  0  0  0
   -1.1292   -0.4875    0.3524 C   0  0  1  0  0  0  0  0  0  0  0  0
   -0.5898   -0.7762    1.2552 H   0  0  0  0  0  0  0  0  0  0  0  0
   -0.2608   -0.8470   -0.8656 C   0  0  0  0  0  0  0  0  0  0  0  0
   -0.0589   -1.9188   -0.8528 H   0  0  0  0  0  0  0  0  0  0  0  0
   -0.8223   -0.6310   -1.7760 H   0  0  0  0  0  0  0  0  0  0  0  0
    1.0682   -0.1181   -0.9106 C   0  0  0  0  0  0  0  0  0  0  0  0
    1.2898    1.0085   -0.0933 C   0  0  0  0  0  0  0  0  0  0  0  0
    0.5007    1.3732    0.5513 H   0  0  0  0  0  0  0  0  0  0  0  0
    2.5397    1.6576   -0.1089 C   0  0  0  0  0  0  0  0  0  0  0  0
    2.7053    2.5210    0.5171 H   0  0  0  0  0  0  0  0  0  0  0  0
    3.5726    1.1758   -0.9422 C   0  0  0  0  0  0  0  0  0  0  0  0
    4.7824    1.7930   -0.9623 O   0  0  0  0  0  0  0  0  0  0  0  0
    4.7868    2.5960   -0.4398 H   0  0  0  0  0  0  0  0  0  0  0  0
    3.3507    0.0453   -1.7558 C   0  0  0  0  0  0  0  0  0  0  0  0
    4.1469   -0.3109   -2.3919 H   0  0  0  0  0  0  0  0  0  0  0  0
    2.0988   -0.5985   -1.7414 C   0  0  0  0  0  0  0  0  0  0  0  0
    1.9261   -1.4614   -2.3736 H   0  0  0  0  0  0  0  0  0  0  0  0
   -1.4018    1.0238    0.4329 C   0  0  0  0  0  0  0  0  0  0  0  0
   -2.2416    1.5423   -0.3033 O   0  0  0  0  0  0  0  0  0  0  0  0
   -0.6927    1.7304    1.3223 N   0  0  0  0  0  0  0  0  0  0  0  0
    0.0178    1.2410    1.8469 H   0  0  0  0  0  0  0  0  0  0  0  0
   -0.8259    3.1712    1.5254 C   0  0  0  0  0  0  0  0  0  0  0  0
   -1.8769    3.4302    1.6645 H   0  0  0  0  0  0  0  0  0  0  0  0
   -0.2598    3.4806    2.4054 H   0  0  0  0  0  0  0  0  0  0  0  0
   -0.4486    3.7020    0.6489 H   0  0  0  0  0  0  0  0  0  0  0  0
  5  6  2  0  0  0  0
  5  7  1  0  0  0  0
  2  3  1  0  0  0  0
  2  4  1  0  0  0  0
  2  5  1  0  0  0  0
  1  2  1  0  0  0  0
 26 27  2  0  0  0  0
 26 28  1  0  0  0  0
 24 25  1  0  0  0  0
 22 23  1  0  0  0  0
 22 24  2  0  0  0  0
 20 21  1  0  0  0  0
 19 20  1  0  0  0  0
 19 22  1  0  0  0  0
 17 18  1  0  0  0  0
 17 19  2  0  0  0  0
 15 16  1  0  0  0  0
 15 17  1  0  0  0  0
 14 15  2  0  0  0  0
 14 24  1  0  0  0  0
 11 12  1  0  0  0  0
 11 13  1  0  0  0  0
 11 14  1  0  0  0  0
  9 10  1  0  0  0  0
  9 11  1  0  0  0  0
  9 26  1  0  0  0  0
  7  8  1  0  0  0  0
  7  9  1  0  0  0  0
 30 31  1  0  0  0  0
 30 32  1  0  0  0  0
 30 33  1  0  0  0  0
 28 29  1  0  0  0  0
 28 30  1  0  0  0  0
M  END
$$$$
default_name
  -OEChem-02102213163D

 33 33  0     1  0  0  0  0  0999 V2000
   -4.0702   -3.8485    1.4554 H   0  0  0  0  0  0  0  0  0  0  0  0
   -4.0012   -2.9605    0.8284 C   0  0  0  0  0  0  0  0  0  0  0  0
   -4.7652   -2.2435    1.1234 H   0  0  0  0  0  0  0  0  0  0  0  0
   -4.1352   -3.2385   -0.2156 H   0  0  0  0  0  0  0  0  0  0  0  0
   -2.6362   -2.3395    1.0094 C   0  0  0  0  0  0  0  0  0  0  0  0
   -1.8292   -2.8395    1.7814 O   0  0  0  0  0  0  0  0  0  0  0  0
   -2.3832   -1.2445    0.2964 N   0  0  0  0  0  0  0  0  0  0  0  0
   -3.1102   -0.8685   -0.2946 H   0  0  0  0  0  0  0  0  0  0  0  0
   -1.1292   -0.4875    0.3524 C   0  0  1  0  0  0  0  0  0  0  0  0
   -0.5898   -0.7762    1.2552 H   0  0  0  0  0  0  0  0  0  0  0  0
   -0.2608   -0.8470   -0.8656 C   0  0  0  0  0  0  0  0  0  0  0  0
   -0.0589   -1.9188   -0.8528 H   0  0  0  0  0  0  0  0  0  0  0  0
   -0.8223   -0.6310   -1.7760 H   0  0  0  0  0  0  0  0  0  0  0  0
    1.0682   -0.1181   -0.9106 C   0  0  0  0  0  0  0  0  0  0  0  0
    1.4138    0.7947    0.1061 C   0  0  0  0  0  0  0  0  0  0  0  0
    0.7187    0.9980    0.9102 H   0  0  0  0  0  0  0  0  0  0  0  0
    2.6662    1.4387    0.0814 C   0  0  0  0  0  0  0  0  0  0  0  0
    2.9269    2.1382    0.8607 H   0  0  0  0  0  0  0  0  0  0  0  0
    3.5774    1.1658   -0.9621 C   0  0  0  0  0  0  0  0  0  0  0  0
    4.7888    1.7794   -0.9934 O   0  0  0  0  0  0  0  0  0  0  0  0
    4.8754    2.4427   -0.3074 H   0  0  0  0  0  0  0  0  0  0  0  0
    3.2319    0.2484   -1.9760 C   0  0  0  0  0  0  0  0  0  0  0  0
    3.9354    0.0514   -2.7709 H   0  0  0  0  0  0  0  0  0  0  0  0
    1.9775   -0.3902   -1.9509 C   0  0  0  0  0  0  0  0  0  0  0  0
    1.7091   -1.0879   -2.7353 H   0  0  0  0  0  0  0  0  0  0  0  0
   -1.4018    1.0238    0.4329 C   0  0  0  0  0  0  0  0  0  0  0  0
   -2.2416    1.5423   -0.3033 O   0  0  0  0  0  0  0  0  0  0  0  0
   -0.6927    1.7304    1.3223 N   0  0  0  0  0  0  0  0  0  0  0  0
    0.0178    1.2410    1.8469 H   0  0  0  0  0  0  0  0  0  0  0  0
   -0.8259    3.1712    1.5254 C   0  0  0  0  0  0  0  0  0  0  0  0
   -1.8769    3.4302    1.6645 H   0  0  0  0  0  0  0  0  0  0  0  0
   -0.2598    3.4806    2.4054 H   0  0  0  0  0  0  0  0  0  0  0  0
   -0.4486    3.7020    0.6489 H   0  0  0  0  0  0  0  0  0  0  0  0
  5  6  2  0  0  0  0
  5  7  1  0  0  0  0
  2  3  1  0  0  0  0
  2  4  1  0  0  0  0
  2  5  1  0  0  0  0
  1  2  1  0  0  0  0
 26 27  2  0  0  0  0
 26 28  1  0  0  0  0
 24 25  1  0  0  0  0
 22 23  1  0  0  0  0
 22 24  2  0  0  0  0
 20 21  1  0  0  0  0
 19 20  1  0  0  0  0
 19 22  1  0  0  0  0
 17 18  1  0  0  0  0
 17 19  2  0  0  0  0
 15 16  1  0  0  0  0
 15 17  1  0  0  0  0
 14 15  2  0  0  0  0
 14 24  1  0  0  0  0
 11 12  1  0  0  0  0
 11 13  1  0  0  0  0
 11 14  1  0  0  0  0
  9 10  1  0  0  0  0
  9 11  1  0  0  0  0
  9 26  1  0  0  0  0
  7  8  1  0  0  0  0
  7  9  1  0  0  0  0
 30 31  1  0  0  0  0
 30 32  1  0  0  0  0
 30 33  1  0  0  0  0
 28 29  1  0  0  0  0
 28 30  1  0  0  0  0
M  END
$$$$
default_name
  -OEChem-02102213163D

 33 33  0     1  0  0  0  0  0999 V2000
   -4.0702   -3.8485    1.4554 H   0  0  0  0  0  0  0  0  0  0  0  0
   -4.0012   -2.9605    0.8284 C   0  0  0  0  0  0  0  0  0  0  0  0
   -4.7652   -2.2435    1.1234 H   0  0  0  0  0  0  0  0  0  0  0  0
   -4.1352   -3.2385   -0.2156 H   0  0  0  0  0  0  0  0  0  0  0  0
   -2.6362   -2.3395    1.0094 C   0  0  0  0  0  0  0  0  0  0  0  0
   -1.8292   -2.8395    1.7814 O   0  0  0  0  0  0  0  0  0  0  0  0
   -2.3832   -1.2445    0.2964 N   0  0  0  0  0  0  0  0  0  0  0  0
   -3.1102   -0.8685   -0.2946 H   0  0  0  0  0  0  0  0  0  0  0  0
   -1.1292   -0.4875    0.3524 C   0  0  1  0  0  0  0  0  0  0  0  0
   -0.5898   -0.7762    1.2552 H   0  0  0  0  0  0  0  0  0  0  0  0
   -0.2608   -0.8470   -0.8656 C   0  0  0  0  0  0  0  0  0  0  0  0
   -0.0589   -1.9188   -0.8528 H   0  0  0  0  0  0  0  0  0  0  0  0
   -0.8223   -0.6310   -1.7760 H   0  0  0  0  0  0  0  0  0  0  0  0
    1.0682   -0.1181   -0.9106 C   0  0  0  0  0  0  0  0  0  0  0  0
    1.5568    0.5419    0.2348 C   0  0  0  0  0  0  0  0  0  0  0  0
    0.9709    0.5526    1.1446 H   0  0  0  0  0  0  0  0  0  0  0  0
    2.8104    1.1831    0.1998 C   0  0  0  0  0  0  0  0  0  0  0  0
    3.1807    1.6888    1.0782 H   0  0  0  0  0  0  0  0  0  0  0  0
    3.5795    1.1606   -0.9841 C   0  0  0  0  0  0  0  0  0  0  0  0
    4.7910    1.7733   -1.0272 O   0  0  0  0  0  0  0  0  0  0  0  0
    4.9763    2.2639   -0.2253 H   0  0  0  0  0  0  0  0  0  0  0  0
    3.0913    0.4954   -2.1279 C   0  0  0  0  0  0  0  0  0  0  0  0
    3.6867    0.4889   -3.0284 H   0  0  0  0  0  0  0  0  0  0  0  0
    1.8358   -0.1405   -2.0911 C   0  0  0  0  0  0  0  0  0  0  0  0
    1.4572   -0.6434   -2.9730 H   0  0  0  0  0  0  0  0  0  0  0  0
   -1.4018    1.0238    0.4329 C   0  0  0  0  0  0  0  0  0  0  0  0
   -2.2416    1.5423   -0.3033 O   0  0  0  0  0  0  0  0  0  0  0  0
   -0.6927    1.7304    1.3223 N   0  0  0  0  0  0  0  0  0  0  0  0
    0.0178    1.2410    1.8469 H   0  0  0  0  0  0  0  0  0  0  0  0
   -0.8259    3.1712    1.5254 C   0  0  0  0  0  0  0  0  0  0  0  0
   -1.8769    3.4302    1.6645 H   0  0  0  0  0  0  0  0  0  0  0  0
   -0.2598    3.4806    2.4054 H   0  0  0  0  0  0  0  0  0  0  0  0
   -0.4486    3.7020    0.6489 H   0  0  0  0  0  0  0  0  0  0  0  0
  5  6  2  0  0  0  0
  5  7  1  0  0  0  0
  2  3  1  0  0  0  0
  2  4  1  0  0  0  0
  2  5  1  0  0  0  0
  1  2  1  0  0  0  0
 26 27  2  0  0  0  0
 26 28  1  0  0  0  0
 24 25  1  0  0  0  0
 22 23  1  0  0  0  0
 22 24  2  0  0  0  0
 20 21  1  0  0  0  0
 19 20  1  0  0  0  0
 19 22  1  0  0  0  0
 17 18  1  0  0  0  0
 17 19  2  0  0  0  0
 15 16  1  0  0  0  0
 15 17  1  0  0  0  0
 14 15  2  0  0  0  0
 14 24  1  0  0  0  0
 11 12  1  0  0  0  0
 11 13  1  0  0  0  0
 11 14  1  0  0  0  0
  9 10  1  0  0  0  0
  9 11  1  0  0  0  0
  9 26  1  0  0  0  0
  7  8  1  0  0  0  0
  7  9  1  0  0  0  0
 30 31  1  0  0  0  0
 30 32  1  0  0  0  0
 30 33  1  0  0  0  0
 28 29  1  0  0  0  0
 28 30  1  0  0  0  0
M  END
$$$$
default_name
  -OEChem-02102213163D

 33 33  0     1  0  0  0  0  0999 V2000
   -4.0702   -3.8485    1.4554 H   0  0  0  0  0  0  0  0  0  0  0  0
   -4.0012   -2.9605    0.8284 C   0  0  0  0  0  0  0  0  0  0  0  0
   -4.7652   -2.2435    1.1234 H   0  0  0  0  0  0  0  0  0  0  0  0
   -4.1352   -3.2385   -0.2156 H   0  0  0  0  0  0  0  0  0  0  0  0
   -2.6362   -2.3395    1.0094 C   0  0  0  0  0  0  0  0  0  0  0  0
   -1.8292   -2.8395    1.7814 O   0  0  0  0  0  0  0  0  0  0  0  0
   -2.3832   -1.2445    0.2964 N   0  0  0  0  0  0  0  0  0  0  0  0
   -3.1102   -0.8685   -0.2946 H   0  0  0  0  0  0  0  0  0  0  0  0
   -1.1292   -0.4875    0.3524 C   0  0  1  0  0  0  0  0  0  0  0  0
   -0.5898   -0.7762    1.2552 H   0  0  0  0  0  0  0  0  0  0  0  0
   -0.2608   -0.8470   -0.8656 C   0  0  0  0  0  0  0  0  0  0  0  0
   -0.0589   -1.9188   -0.8528 H   0  0  0  0  0  0  0  0  0  0  0  0
   -0.8223   -0.6310   -1.7760 H   0  0  0  0  0  0  0  0  0  0  0  0
    1.0682   -0.1181   -0.9106 C   0  0  0  0  0  0  0  0  0  0  0  0
    1.7089    0.2675    0.2840 C   0  0  0  0  0  0  0  0  0  0  0  0
    1.2403    0.0672    1.2386 H   0  0  0  0  0  0  0  0  0  0  0  0
    2.9625    0.9082    0.2382 C   0  0  0  0  0  0  0  0  0  0  0  0
    3.4495    1.2035    1.1548 H   0  0  0  0  0  0  0  0  0  0  0  0
    3.5788    1.1605   -1.0068 C   0  0  0  0  0  0  0  0  0  0  0  0
    4.7889    1.7751   -1.0616 O   0  0  0  0  0  0  0  0  0  0  0  0
    5.0825    2.0718   -0.1992 H   0  0  0  0  0  0  0  0  0  0  0  0
    2.9384    0.7695   -2.2010 C   0  0  0  0  0  0  0  0  0  0  0  0
    3.4178    0.9719   -3.1470 H   0  0  0  0  0  0  0  0  0  0  0  0
    1.6834    0.1335   -2.1521 C   0  0  0  0  0  0  0  0  0  0  0  0
    1.1878   -0.1582   -3.0704 H   0  0  0  0  0  0  0  0  0  0  0  0
   -1.4018    1.0238    0.4329 C   0  0  0  0  0  0  0  0  0  0  0  0
   -2.2416    1.5423   -0.3033 O   0  0  0  0  0  0  0  0  0  0  0  0
   -0.6927    1.7304    1.3223 N   0  0  0  0  0  0  0  0  0  0  0  0
    0.0178    1.2410    1.8469 H   0  0  0  0  0  0  0  0  0  0  0  0
   -0.8259    3.1712    1.5254 C   0  0  0  0  0  0  0  0  0  0  0  0
   -1.8769    3.4302    1.6645 H   0  0  0  0  0  0  0  0  0  0  0  0
   -0.2598    3.4806    2.4054 H   0  0  0  0  0  0  0  0  0  0  0  0
   -0.4486    3.7020    0.6489 H   0  0  0  0  0  0  0  0  0  0  0  0
  5  6  2  0  0  0  0
  5  7  1  0  0  0  0
  2  3  1  0  0  0  0
  2  4  1  0  0  0  0
  2  5  1  0  0  0  0
  1  2  1  0  0  0  0
 26 27  2  0  0  0  0
 26 28  1  0  0  0  0
 24 25  1  0  0  0  0
 22 23  1  0  0  0  0
 22 24  2  0  0  0  0
 20 21  1  0  0  0  0
 19 20  1  0  0  0  0
 19 22  1  0  0  0  0
 17 18  1  0  0  0  0
 17 19  2  0  0  0  0
 15 16  1  0  0  0  0
 15 17  1  0  0  0  0
 14 15  2  0  0  0  0
 14 24  1  0  0  0  0
 11 12  1  0  0  0  0
 11 13  1  0  0  0  0
 11 14  1  0  0  0  0
  9 10  1  0  0  0  0
  9 11  1  0  0  0  0
  9 26  1  0  0  0  0
  7  8  1  0  0  0  0
  7  9  1  0  0  0  0
 30 31  1  0  0  0  0
 30 32  1  0  0  0  0
 30 33  1  0  0  0  0
 28 29  1  0  0  0  0
 28 30  1  0  0  0  0
M  END
$$$$
default_name
  -OEChem-02102213163D

 33 33  0     1  0  0  0  0  0999 V2000
   -4.0702   -3.8485    1.4554 H   0  0  0  0  0  0  0  0  0  0  0  0
   -4.0012   -2.9605    0.8284 C   0  0  0  0  0  0  0  0  0  0  0  0
   -4.7652   -2.2435    1.1234 H   0  0  0  0  0  0  0  0  0  0  0  0
   -4.1352   -3.2385   -0.2156 H   0  0  0  0  0  0  0  0  0  0  0  0
   -2.6362   -2.3395    1.0094 C   0  0  0  0  0  0  0  0  0  0  0  0
   -1.8292   -2.8395    1.7814 O   0  0  0  0  0  0  0  0  0  0  0  0
   -2.3832   -1.2445    0.2964 N   0  0  0  0  0  0  0  0  0  0  0  0
   -3.1102   -0.8685   -0.2946 H   0  0  0  0  0  0  0  0  0  0  0  0
   -1.1292   -0.4875    0.3524 C   0  0  1  0  0  0  0  0  0  0  0  0
   -0.5898   -0.7762    1.2552 H   0  0  0  0  0  0  0  0  0  0  0  0
   -0.2608   -0.8470   -0.8656 C   0  0  0  0  0  0  0  0  0  0  0  0
   -0.0589   -1.9188   -0.8528 H   0  0  0  0  0  0  0  0  0  0  0  0
   -0.8223   -0.6310   -1.7760 H   0  0  0  0  0  0  0  0  0  0  0  0
    1.0682   -0.1181   -0.9106 C   0  0  0  0  0  0  0  0  0  0  0  0
    1.8599   -0.0098    0.2503 C   0  0  0  0  0  0  0  0  0  0  0  0
    1.5085   -0.4251    1.1858 H   0  0  0  0  0  0  0  0  0  0  0  0
    3.1120    0.6328    0.1940 C   0  0  0  0  0  0  0  0  0  0  0  0
    3.7149    0.7152    1.0853 H   0  0  0  0  0  0  0  0  0  0  0  0
    3.5752    1.1656   -1.0287 C   0  0  0  0  0  0  0  0  0  0  0  0
    4.7826    1.7846   -1.0941 O   0  0  0  0  0  0  0  0  0  0  0  0
    5.1869    1.8795   -0.2307 H   0  0  0  0  0  0  0  0  0  0  0  0
    2.7838    1.0521   -2.1905 C   0  0  0  0  0  0  0  0  0  0  0  0
    3.1470    1.4674   -3.1185 H   0  0  0  0  0  0  0  0  0  0  0  0
    1.5308    0.4132   -2.1300 C   0  0  0  0  0  0  0  0  0  0  0  0
    0.9192    0.3346   -3.0210 H   0  0  0  0  0  0  0  0  0  0  0  0
   -1.4018    1.0238    0.4329 C   0  0  0  0  0  0  0  0  0  0  0  0
   -2.2416    1.5423   -0.3033 O   0  0  0  0  0  0  0  0  0  0  0  0
   -0.6927    1.7304    1.3223 N   0  0  0  0  0  0  0  0  0  0  0  0
    0.0178    1.2410    1.8469 H   0  0  0  0  0  0  0  0  0  0  0  0
   -0.8259    3.1712    1.5254 C   0  0  0  0  0  0  0  0  0  0  0  0
   -1.8769    3.4302    1.6645 H   0  0  0  0  0  0  0  0  0  0  0  0
   -0.2598    3.4806    2.4054 H   0  0  0  0  0  0  0  0  0  0  0  0
   -0.4486    3.7020    0.6489 H   0  0  0  0  0  0  0  0  0  0  0  0
  5  6  2  0  0  0  0
  5  7  1  0  0  0  0
  2  3  1  0  0  0  0
  2  4  1  0  0  0  0
  2  5  1  0  0  0  0
  1  2  1  0  0  0  0
 26 27  2  0  0  0  0
 26 28  1  0  0  0  0
 24 25  1  0  0  0  0
 22 23  1  0  0  0  0
 22 24  2  0  0  0  0
 20 21  1  0  0  0  0
 19 20  1  0  0  0  0
 19 22  1  0  0  0  0
 17 18  1  0  0  0  0
 17 19  2  0  0  0  0
 15 16  1  0  0  0  0
 15 17  1  0  0  0  0
 14 15  2  0  0  0  0
 14 24  1  0  0  0  0
 11 12  1  0  0  0  0
 11 13  1  0  0  0  0
 11 14  1  0  0  0  0
  9 10  1  0  0  0  0
  9 11  1  0  0  0  0
  9 26  1  0  0  0  0
  7  8  1  0  0  0  0
  7  9  1  0  0  0  0
 30 31  1  0  0  0  0
 30 32  1  0  0  0  0
 30 33  1  0  0  0  0
 28 29  1  0  0  0  0
 28 30  1  0  0  0  0
M  END
$$$$
default_name
  -OEChem-02102213163D

 33 33  0     1  0  0  0  0  0999 V2000
   -4.0702   -3.8485    1.4554 H   0  0  0  0  0  0  0  0  0  0  0  0
   -4.0012   -2.9605    0.8284 C   0  0  0  0  0  0  0  0  0  0  0  0
   -4.7652   -2.2435    1.1234 H   0  0  0  0  0  0  0  0  0  0  0  0
   -4.1352   -3.2385   -0.2156 H   0  0  0  0  0  0  0  0  0  0  0  0
   -2.6362   -2.3395    1.0094 C   0  0  0  0  0  0  0  0  0  0  0  0
   -1.8292   -2.8395    1.7814 O   0  0  0  0  0  0  0  0  0  0  0  0
   -2.3832   -1.2445    0.2964 N   0  0  0  0  0  0  0  0  0  0  0  0
   -3.1102   -0.8685   -0.2946 H   0  0  0  0  0  0  0  0  0  0  0  0
   -1.1292   -0.4875    0.3524 C   0  0  1  0  0  0  0  0  0  0  0  0
   -0.5898   -0.7762    1.2552 H   0  0  0  0  0  0  0  0  0  0  0  0
   -0.2608   -0.8470   -0.8656 C   0  0  0  0  0  0  0  0  0  0  0  0
   -0.0589   -1.9188   -0.8528 H   0  0  0  0  0  0  0  0  0  0  0  0
   -0.8223   -0.6310   -1.7760 H   0  0  0  0  0  0  0  0  0  0  0  0
    1.0682   -0.1181   -0.9106 C   0  0  0  0  0  0  0  0  0  0  0  0
    1.9994   -0.2713    0.1361 C   0  0  0  0  0  0  0  0  0  0  0  0
    1.7572   -0.8907    0.9898 H   0  0  0  0  0  0  0  0  0  0  0  0
    3.2488    0.3756    0.0703 C   0  0  0  0  0  0  0  0  0  0  0  0
    3.9589    0.2573    0.8744 H   0  0  0  0  0  0  0  0  0  0  0  0
    3.5691    1.1756   -1.0482 C   0  0  0  0  0  0  0  0  0  0  0  0
    4.7725    1.8013   -1.1225 O   0  0  0  0  0  0  0  0  0  0  0  0
    5.2824    1.7000   -0.3177 H   0  0  0  0  0  0  0  0  0  0  0  0
    2.6380    1.3238   -2.0970 C   0  0  0  0  0  0  0  0  0  0  0  0
    2.8928    1.9416   -2.9449 H   0  0  0  0  0  0  0  0  0  0  0  0
    1.3882    0.6796   -2.0262 C   0  0  0  0  0  0  0  0  0  0  0  0
    0.6697    0.8014   -2.8280 H   0  0  0  0  0  0  0  0  0  0  0  0
   -1.4018    1.0238    0.4329 C   0  0  0  0  0  0  0  0  0  0  0  0
   -2.2416    1.5423   -0.3033 O   0  0  0  0  0  0  0  0  0  0  0  0
   -0.6927    1.7304    1.3223 N   0  0  0  0  0  0  0  0  0  0  0  0
    0.0178    1.2410    1.8469 H   0  0  0  0  0  0  0  0  0  0  0  0
   -0.8259    3.1712    1.5254 C   0  0  0  0  0  0  0  0  0  0  0  0
   -1.8769    3.4302    1.6645 H   0  0  0  0  0  0  0  0  0  0  0  0
   -0.2598    3.4806    2.4054 H   0  0  0  0  0  0  0  0  0  0  0  0
   -0.4486    3.7020    0.6489 H   0  0  0  0  0  0  0  0  0  0  0  0
  5  6  2  0  0  0  0
  5  7  1  0  0  0  0
  2  3  1  0  0  0  0
  2  4  1  0  0  0  0
  2  5  1  0  0  0  0
  1  2  1  0  0  0  0
 26 27  2  0  0  0  0
 26 28  1  0  0  0  0
 24 25  1  0  0  0  0
 22 23  1  0  0  0  0
 22 24  2  0  0  0  0
 20 21  1  0  0  0  0
 19 20  1  0  0  0  0
 19 22  1  0  0  0  0
 17 18  1  0  0  0  0
 17 19  2  0  0  0  0
 15 16  1  0  0  0  0
 15 17  1  0  0  0  0
 14 15  2  0  0  0  0
 14 24  1  0  0  0  0
 11 12  1  0  0  0  0
 11 13  1  0  0  0  0
 11 14  1  0  0  0  0
  9 10  1  0  0  0  0
  9 11  1  0  0  0  0
  9 26  1  0  0  0  0
  7  8  1  0  0  0  0
  7  9  1  0  0  0  0
 30 31  1  0  0  0  0
 30 32  1  0  0  0  0
 30 33  1  0  0  0  0
 28 29  1  0  0  0  0
 28 30  1  0  0  0  0
M  END
$$$$
default_name
  -OEChem-02102213163D

 33 33  0     1  0  0  0  0  0999 V2000
   -4.0702   -3.8485    1.4554 H   0  0  0  0  0  0  0  0  0  0  0  0
   -4.0012   -2.9605    0.8284 C   0  0  0  0  0  0  0  0  0  0  0  0
   -4.7652   -2.2435    1.1234 H   0  0  0  0  0  0  0  0  0  0  0  0
   -4.1352   -3.2385   -0.2156 H   0  0  0  0  0  0  0  0  0  0  0  0
   -2.6362   -2.3395    1.0094 C   0  0  0  0  0  0  0  0  0  0  0  0
   -1.8292   -2.8395    1.7814 O   0  0  0  0  0  0  0  0  0  0  0  0
   -2.3832   -1.2445    0.2964 N   0  0  0  0  0  0  0  0  0  0  0  0
   -3.1102   -0.8685   -0.2946 H   0  0  0  0  0  0  0  0  0  0  0  0
   -1.1292   -0.4875    0.3524 C   0  0  1  0  0  0  0  0  0  0  0  0
   -0.5898   -0.7762    1.2552 H   0  0  0  0  0  0  0  0  0  0  0  0
   -0.2608   -0.8470   -0.8656 C   0  0  0  0  0  0  0  0  0  0  0  0
   -0.0589   -1.9188   -0.8528 H   0  0  0  0  0  0  0  0  0  0  0  0
   -0.8223   -0.6310   -1.7760 H   0  0  0  0  0  0  0  0  0  0  0  0
    1.0682   -0.1181   -0.9106 C   0  0  0  0  0  0  0  0  0  0  0  0
    2.1180   -0.4990   -0.0509 C   0  0  0  0  0  0  0  0  0  0  0  0
    1.9695   -1.2978    0.6639 H   0  0  0  0  0  0  0  0  0  0  0  0
    3.3636    0.1543   -0.1245 C   0  0  0  0  0  0  0  0  0  0  0  0
    4.1648   -0.1390    0.5364 H   0  0  0  0  0  0  0  0  0  0  0  0
    3.5609    1.1896   -1.0641 C   0  0  0  0  0  0  0  0  0  0  0  0
    4.7593    1.8238   -1.1450 O   0  0  0  0  0  0  0  0  0  0  0  0
    5.3624    1.5457   -0.4544 H   0  0  0  0  0  0  0  0  0  0  0  0
    2.5108    1.5662   -1.9269 C   0  0  0  0  0  0  0  0  0  0  0  0
    2.6725    2.3623   -2.6381 H   0  0  0  0  0  0  0  0  0  0  0  0
    1.2655    0.9144   -1.8477 C   0  0  0  0  0  0  0  0  0  0  0  0
    0.4563    1.2106   -2.5047 H   0  0  0  0  0  0  0  0  0  0  0  0
   -1.4018    1.0238    0.4329 C   0  0  0  0  0  0  0  0  0  0  0  0
   -2.2416    1.5423   -0.3033 O   0  0  0  0  0  0  0  0  0  0  0  0
   -0.6927    1.7304    1.3223 N   0  0  0  0  0  0  0  0  0  0  0  0
    0.0178    1.2410    1.8469 H   0  0  0  0  0  0  0  0  0  0  0  0
   -0.8259    3.1712    1.5254 C   0  0  0  0  0  0  0  0  0  0  0  0
   -1.8769    3.4302    1.6645 H   0  0  0  0  0  0  0  0  0  0  0  0
   -0.2598    3.4806    2.4054 H   0  0  0  0  0  0  0  0  0  0  0  0
   -0.4486    3.7020    0.6489 H   0  0  0  0  0  0  0  0  0  0  0  0
  5  6  2  0  0  0  0
  5  7  1  0  0  0  0
  2  3  1  0  0  0  0
  2  4  1  0  0  0  0
  2  5  1  0  0  0  0
  1  2  1  0  0  0  0
 26 27  2  0  0  0  0
 26 28  1  0  0  0  0
 24 25  1  0  0  0  0
 22 23  1  0  0  0  0
 22 24  2  0  0  0  0
 20 21  1  0  0  0  0
 19 20  1  0  0  0  0
 19 22  1  0  0  0  0
 17 18  1  0  0  0  0
 17 19  2  0  0  0  0
 15 16  1  0  0  0  0
 15 17  1  0  0  0  0
 14 15  2  0  0  0  0
 14 24  1  0  0  0  0
 11 12  1  0  0  0  0
 11 13  1  0  0  0  0
 11 14  1  0  0  0  0
  9 10  1  0  0  0  0
  9 11  1  0  0  0  0
  9 26  1  0  0  0  0
  7  8  1  0  0  0  0
  7  9  1  0  0  0  0
 30 31  1  0  0  0  0
 30 32  1  0  0  0  0
 30 33  1  0  0  0  0
 28 29  1  0  0  0  0
 28 30  1  0  0  0  0
M  END
$$$$
default_name
  -OEChem-02102213163D

 33 33  0     1  0  0  0  0  0999 V2000
   -4.0702   -3.8485    1.4554 H   0  0  0  0  0  0  0  0  0  0  0  0
   -4.0012   -2.9605    0.8284 C   0  0  0  0  0  0  0  0  0  0  0  0
   -4.7652   -2.2435    1.1234 H   0  0  0  0  0  0  0  0  0  0  0  0
   -4.1352   -3.2385   -0.2156 H   0  0  0  0  0  0  0  0  0  0  0  0
   -2.6362   -2.3395    1.0094 C   0  0  0  0  0  0  0  0  0  0  0  0
   -1.8292   -2.8395    1.7814 O   0  0  0  0  0  0  0  0  0  0  0  0
   -2.3832   -1.2445    0.2964 N   0  0  0  0  0  0  0  0  0  0  0  0
   -3.1102   -0.8685   -0.2946 H   0  0  0  0  0  0  0  0  0  0  0  0
   -1.1292   -0.4875    0.3524 C   0  0  1  0  0  0  0  0  0  0  0  0
   -0.5898   -0.7762    1.2552 H   0  0  0  0  0  0  0  0  0  0  0  0
   -0.2608   -0.8470   -0.8656 C   0  0  0  0  0  0  0  0  0  0  0  0
   -0.0589   -1.9188   -0.8528 H   0  0  0  0  0  0  0  0  0  0  0  0
   -0.8223   -0.6310   -1.7760 H   0  0  0  0  0  0  0  0  0  0  0  0
    1.0682   -0.1181   -0.9106 C   0  0  0  0  0  0  0  0  0  0  0  0
    2.2075   -0.6775   -0.2979 C   0  0  0  0  0  0  0  0  0  0  0  0
    2.1308   -1.6188    0.2304 H   0  0  0  0  0  0  0  0  0  0  0  0
    3.4486   -0.0162   -0.3772 C   0  0  0  0  0  0  0  0  0  0  0  0
    4.3186   -0.4467    0.0945 H   0  0  0  0  0  0  0  0  0  0  0  0
    3.5510    1.2069   -1.0751 C   0  0  0  0  0  0  0  0  0  0  0  0
    4.7440    1.8509   -1.1599 O   0  0  0  0  0  0  0  0  0  0  0  0
    5.4215    1.4271   -0.6313 H   0  0  0  0  0  0  0  0  0  0  0  0
    2.4110    1.7627   -1.6918 C   0  0  0  0  0  0  0  0  0  0  0  0
    2.5011    2.7007   -2.2188 H   0  0  0  0  0  0  0  0  0  0  0  0
    1.1709    1.1017   -1.6068 C   0  0  0  0  0  0  0  0  0  0  0  0
    0.2935    1.5340   -2.0730 H   0  0  0  0  0  0  0  0  0  0  0  0
   -1.4018    1.0238    0.4329 C   0  0  0  0  0  0  0  0  0  0  0  0
   -2.2416    1.5423   -0.3033 O   0  0  0  0  0  0  0  0  0  0  0  0
   -0.6927    1.7304    1.3223 N   0  0  0  0  0  0  0  0  0  0  0  0
    0.0178    1.2410    1.8469 H   0  0  0  0  0  0  0  0  0  0  0  0
   -0.8259    3.1712    1.5254 C   0  0  0  0  0  0  0  0  0  0  0  0
   -1.8769    3.4302    1.6645 H   0  0  0  0  0  0  0  0  0  0  0  0
   -0.2598    3.4806    2.4054 H   0  0  0  0  0  0  0  0  0  0  0  0
   -0.4486    3.7020    0.6489 H   0  0  0  0  0  0  0  0  0  0  0  0
  5  6  2  0  0  0  0
  5  7  1  0  0  0  0
  2  3  1  0  0  0  0
  2  4  1  0  0  0  0
  2  5  1  0  0  0  0
  1  2  1  0  0  0  0
 26 27  2  0  0  0  0
 26 28  1  0  0  0  0
 24 25  1  0  0  0  0
 22 23  1  0  0  0  0
 22 24  2  0  0  0  0
 20 21  1  0  0  0  0
 19 20  1  0  0  0  0
 19 22  1  0  0  0  0
 17 18  1  0  0  0  0
 17 19  2  0  0  0  0
 15 16  1  0  0  0  0
 15 17  1  0  0  0  0
 14 15  2  0  0  0  0
 14 24  1  0  0  0  0
 11 12  1  0  0  0  0
 11 13  1  0  0  0  0
 11 14  1  0  0  0  0
  9 10  1  0  0  0  0
  9 11  1  0  0  0  0
  9 26  1  0  0  0  0
  7  8  1  0  0  0  0
  7  9  1  0  0  0  0
 30 31  1  0  0  0  0
 30 32  1  0  0  0  0
 30 33  1  0  0  0  0
 28 29  1  0  0  0  0
 28 30  1  0  0  0  0
M  END
$$$$
default_name
  -OEChem-02102213163D

 33 33  0     1  0  0  0  0  0999 V2000
   -4.0702   -3.8485    1.4554 H   0  0  0  0  0  0  0  0  0  0  0  0
   -4.0012   -2.9605    0.8284 C   0  0  0  0  0  0  0  0  0  0  0  0
   -4.7652   -2.2435    1.1234 H   0  0  0  0  0  0  0  0  0  0  0  0
   -4.1352   -3.2385   -0.2156 H   0  0  0  0  0  0  0  0  0  0  0  0
   -2.6362   -2.3395    1.0094 C   0  0  0  0  0  0  0  0  0  0  0  0
   -1.8292   -2.8395    1.7814 O   0  0  0  0  0  0  0  0  0  0  0  0
   -2.3832   -1.2445    0.2964 N   0  0  0  0  0  0  0  0  0  0  0  0
   -3.1102   -0.8685   -0.2946 H   0  0  0  0  0  0  0  0  0  0  0  0
   -1.1292   -0.4875    0.3524 C   0  0  1  0  0  0  0  0  0  0  0  0
   -0.5898   -0.7762    1.2552 H   0  0  0  0  0  0  0  0  0  0  0  0
   -0.2608   -0.8470   -0.8656 C   0  0  0  0  0  0  0  0  0  0  0  0
   -0.0589   -1.9188   -0.8528 H   0  0  0  0  0  0  0  0  0  0  0  0
   -0.8223   -0.6310   -1.7760 H   0  0  0  0  0  0  0  0  0  0  0  0
    1.0682   -0.1181   -0.9106 C   0  0  0  0  0  0  0  0  0  0  0  0
    2.2618   -0.7945   -0.5881 C   0  0  0  0  0  0  0  0  0  0  0  0
    2.2303   -1.8318   -0.2813 H   0  0  0  0  0  0  0  0  0  0  0  0
    3.4979   -0.1243   -0.6706 C   0  0  0  0  0  0  0  0  0  0  0  0
    4.4098   -0.6449   -0.4214 H   0  0  0  0  0  0  0  0  0  0  0  0
    3.5403    1.2261   -1.0807 C   0  0  0  0  0  0  0  0  0  0  0  0
    4.7276    1.8805   -1.1663 O   0  0  0  0  0  0  0  0  0  0  0  0
    5.4556    1.3521   -0.8365 H   0  0  0  0  0  0  0  0  0  0  0  0
    2.3453    1.9000   -1.4078 C   0  0  0  0  0  0  0  0  0  0  0  0
    2.3903    2.9337   -1.7158 H   0  0  0  0  0  0  0  0  0  0  0  0
    1.1110    1.2287   -1.3199 C   0  0  0  0  0  0  0  0  0  0  0  0
    0.1925    1.7498   -1.5624 H   0  0  0  0  0  0  0  0  0  0  0  0
   -1.4018    1.0238    0.4329 C   0  0  0  0  0  0  0  0  0  0  0  0
   -2.2416    1.5423   -0.3033 O   0  0  0  0  0  0  0  0  0  0  0  0
   -0.6927    1.7304    1.3223 N   0  0  0  0  0  0  0  0  0  0  0  0
    0.0178    1.2410    1.8469 H   0  0  0  0  0  0  0  0  0  0  0  0
   -0.8259    3.1712    1.5254 C   0  0  0  0  0  0  0  0  0  0  0  0
   -1.8769    3.4302    1.6645 H   0  0  0  0  0  0  0  0  0  0  0  0
   -0.2598    3.4806    2.4054 H   0  0  0  0  0  0  0  0  0  0  0  0
   -0.4486    3.7020    0.6489 H   0  0  0  0  0  0  0  0  0  0  0  0
  5  6  2  0  0  0  0
  5  7  1  0  0  0  0
  2  3  1  0  0  0  0
  2  4  1  0  0  0  0
  2  5  1  0  0  0  0
  1  2  1  0  0  0  0
 26 27  2  0  0  0  0
 26 28  1  0  0  0  0
 24 25  1  0  0  0  0
 22 23  1  0  0  0  0
 22 24  2  0  0  0  0
 20 21  1  0  0  0  0
 19 20  1  0  0  0  0
 19 22  1  0  0  0  0
 17 18  1  0  0  0  0
 17 19  2  0  0  0  0
 15 16  1  0  0  0  0
 15 17  1  0  0  0  0
 14 15  2  0  0  0  0
 14 24  1  0  0  0  0
 11 12  1  0  0  0  0
 11 13  1  0  0  0  0
 11 14  1  0  0  0  0
  9 10  1  0  0  0  0
  9 11  1  0  0  0  0
  9 26  1  0  0  0  0
  7  8  1  0  0  0  0
  7  9  1  0  0  0  0
 30 31  1  0  0  0  0
 30 32  1  0  0  0  0
 30 33  1  0  0  0  0
 28 29  1  0  0  0  0
 28 30  1  0  0  0  0
M  END
$$$$
default_name
  -OEChem-02102213163D

 33 33  0     1  0  0  0  0  0999 V2000
   -4.0702   -3.8485    1.4554 H   0  0  0  0  0  0  0  0  0  0  0  0
   -4.0012   -2.9605    0.8284 C   0  0  0  0  0  0  0  0  0  0  0  0
   -4.7652   -2.2435    1.1234 H   0  0  0  0  0  0  0  0  0  0  0  0
   -4.1352   -3.2385   -0.2156 H   0  0  0  0  0  0  0  0  0  0  0  0
   -2.6362   -2.3395    1.0094 C   0  0  0  0  0  0  0  0  0  0  0  0
   -1.8292   -2.8395    1.7814 O   0  0  0  0  0  0  0  0  0  0  0  0
   -2.3832   -1.2445    0.2964 N   0  0  0  0  0  0  0  0  0  0  0  0
   -3.1102   -0.8685   -0.2946 H   0  0  0  0  0  0  0  0  0  0  0  0
   -1.1292   -0.4875    0.3524 C   0  0  1  0  0  0  0  0  0  0  0  0
   -0.5898   -0.7762    1.2552 H   0  0  0  0  0  0  0  0  0  0  0  0
   -0.2608   -0.8470   -0.8656 C   0  0  0  0  0  0  0  0  0  0  0  0
   -0.0589   -1.9188   -0.8528 H   0  0  0  0  0  0  0  0  0  0  0  0
   -0.8223   -0.6310   -1.7760 H   0  0  0  0  0  0  0  0  0  0  0  0
    1.0682   -0.1181   -0.9106 C   0  0  0  0  0  0  0  0  0  0  0  0
    2.2773   -0.8421   -0.9017 C   0  0  0  0  0  0  0  0  0  0  0  0
    2.2611   -1.9222   -0.8362 H   0  0  0  0  0  0  0  0  0  0  0  0
    3.5082   -0.1625   -0.9846 C   0  0  0  0  0  0  0  0  0  0  0  0
    4.4322   -0.7200   -0.9759 H   0  0  0  0  0  0  0  0  0  0  0  0
    3.5294    1.2461   -1.0804 C   0  0  0  0  0  0  0  0  0  0  0  0
    4.7111    1.9106   -1.1637 O   0  0  0  0  0  0  0  0  0  0  0  0
    5.4625    1.3260   -1.0559 H   0  0  0  0  0  0  0  0  0  0  0  0
    2.3183    1.9686   -1.0941 C   0  0  0  0  0  0  0  0  0  0  0  0
    2.3476    3.0456   -1.1633 H   0  0  0  0  0  0  0  0  0  0  0  0
    1.0898    1.2867   -1.0065 C   0  0  0  0  0  0  0  0  0  0  0  0
    0.1601    1.8432   -1.0077 H   0  0  0  0  0  0  0  0  0  0  0  0
   -1.4018    1.0238    0.4329 C   0  0  0  0  0  0  0  0  0  0  0  0
   -2.2416    1.5423   -0.3033 O   0  0  0  0  0  0  0  0  0  0  0  0
   -0.6927    1.7304    1.3223 N   0  0  0  0  0  0  0  0  0  0  0  0
    0.0178    1.2410    1.8469 H   0  0  0  0  0  0  0  0  0  0  0  0
   -0.8259    3.1712    1.5254 C   0  0  0  0  0  0  0  0  0  0  0  0
   -1.8769    3.4302    1.6645 H   0  0  0  0  0  0  0  0  0  0  0  0
   -0.2598    3.4806    2.4054 H   0  0  0  0  0  0  0  0  0  0  0  0
   -0.4486    3.7020    0.6489 H   0  0  0  0  0  0  0  0  0  0  0  0
  5  6  2  0  0  0  0
  5  7  1  0  0  0  0
  2  3  1  0  0  0  0
  2  4  1  0  0  0  0
  2  5  1  0  0  0  0
  1  2  1  0  0  0  0
 26 27  2  0  0  0  0
 26 28  1  0  0  0  0
 24 25  1  0  0  0  0
 22 23  1  0  0  0  0
 22 24  2  0  0  0  0
 20 21  1  0  0  0  0
 19 20  1  0  0  0  0
 19 22  1  0  0  0  0
 17 18  1  0  0  0  0
 17 19  2  0  0  0  0
 15 16  1  0  0  0  0
 15 17  1  0  0  0  0
 14 15  2  0  0  0  0
 14 24  1  0  0  0  0
 11 12  1  0  0  0  0
 11 13  1  0  0  0  0
 11 14  1  0  0  0  0
  9 10  1  0  0  0  0
  9 11  1  0  0  0  0
  9 26  1  0  0  0  0
  7  8  1  0  0  0  0
  7  9  1  0  0  0  0
 30 31  1  0  0  0  0
 30 32  1  0  0  0  0
 30 33  1  0  0  0  0
 28 29  1  0  0  0  0
 28 30  1  0  0  0  0
M  END
$$$$
default_name
  -OEChem-02102213163D

 33 33  0     1  0  0  0  0  0999 V2000
   -4.0702   -3.8485    1.4554 H   0  0  0  0  0  0  0  0  0  0  0  0
   -4.0012   -2.9605    0.8284 C   0  0  0  0  0  0  0  0  0  0  0  0
   -4.7652   -2.2435    1.1234 H   0  0  0  0  0  0  0  0  0  0  0  0
   -4.1352   -3.2385   -0.2156 H   0  0  0  0  0  0  0  0  0  0  0  0
   -2.6362   -2.3395    1.0094 C   0  0  0  0  0  0  0  0  0  0  0  0
   -1.8292   -2.8395    1.7814 O   0  0  0  0  0  0  0  0  0  0  0  0
   -2.3832   -1.2445    0.2964 N   0  0  0  0  0  0  0  0  0  0  0  0
   -3.1102   -0.8685   -0.2946 H   0  0  0  0  0  0  0  0  0  0  0  0
   -1.1292   -0.4875    0.3524 C   0  0  1  0  0  0  0  0  0  0  0  0
   -0.5898   -0.7762    1.2552 H   0  0  0  0  0  0  0  0  0  0  0  0
   -0.2608   -0.8470   -0.8656 C   0  0  0  0  0  0  0  0  0  0  0  0
   -0.0589   -1.9188   -0.8528 H   0  0  0  0  0  0  0  0  0  0  0  0
   -0.8223   -0.6310   -1.7760 H   0  0  0  0  0  0  0  0  0  0  0  0
    1.0682   -0.1181   -0.9106 C   0  0  0  0  0  0  0  0  0  0  0  0
    2.2529   -0.8171   -1.2174 C   0  0  0  0  0  0  0  0  0  0  0  0
    2.2211   -1.8838   -1.3965 H   0  0  0  0  0  0  0  0  0  0  0  0
    3.4788   -0.1282   -1.2978 C   0  0  0  0  0  0  0  0  0  0  0  0
    4.3843   -0.6669   -1.5314 H   0  0  0  0  0  0  0  0  0  0  0  0
    3.5190    1.2653   -1.0742 C   0  0  0  0  0  0  0  0  0  0  0  0
    4.6958    1.9393   -1.1523 O   0  0  0  0  0  0  0  0  0  0  0  0
    5.4416    1.3505   -1.2747 H   0  0  0  0  0  0  0  0  0  0  0  0
    2.3318    1.9640   -0.7721 C   0  0  0  0  0  0  0  0  0  0  0  0
    2.3760    3.0287   -0.5989 H   0  0  0  0  0  0  0  0  0  0  0  0
    1.1087    1.2719   -0.6880 C   0  0  0  0  0  0  0  0  0  0  0  0
    0.1985    1.8078   -0.4467 H   0  0  0  0  0  0  0  0  0  0  0  0
   -1.4018    1.0238    0.4329 C   0  0  0  0  0  0  0  0  0  0  0  0
   -2.2416    1.5423   -0.3033 O   0  0  0  0  0  0  0  0  0  0  0  0
   -0.6927    1.7304    1.3223 N   0  0  0  0  0  0  0  0  0  0  0  0
    0.0178    1.2410    1.8469 H   0  0  0  0  0  0  0  0  0  0  0  0
   -0.8259    3.1712    1.5254 C   0  0  0  0  0  0  0  0  0  0  0  0
   -1.8769    3.4302    1.6645 H   0  0  0  0  0  0  0  0  0  0  0  0
   -0.2598    3.4806    2.4054 H   0  0  0  0  0  0  0  0  0  0  0  0
   -0.4486    3.7020    0.6489 H   0  0  0  0  0  0  0  0  0  0  0  0
  5  6  2  0  0  0  0
  5  7  1  0  0  0  0
  2  3  1  0  0  0  0
  2  4  1  0  0  0  0
  2  5  1  0  0  0  0
  1  2  1  0  0  0  0
 26 27  2  0  0  0  0
 26 28  1  0  0  0  0
 24 25  1  0  0  0  0
 22 23  1  0  0  0  0
 22 24  2  0  0  0  0
 20 21  1  0  0  0  0
 19 20  1  0  0  0  0
 19 22  1  0  0  0  0
 17 18  1  0  0  0  0
 17 19  2  0  0  0  0
 15 16  1  0  0  0  0
 15 17  1  0  0  0  0
 14 15  2  0  0  0  0
 14 24  1  0  0  0  0
 11 12  1  0  0  0  0
 11 13  1  0  0  0  0
 11 14  1  0  0  0  0
  9 10  1  0  0  0  0
  9 11  1  0  0  0  0
  9 26  1  0  0  0  0
  7  8  1  0  0  0  0
  7  9  1  0  0  0  0
 30 31  1  0  0  0  0
 30 32  1  0  0  0  0
 30 33  1  0  0  0  0
 28 29  1  0  0  0  0
 28 30  1  0  0  0  0
M  END
$$$$
default_name
  -OEChem-02102213163D

 33 33  0     1  0  0  0  0  0999 V2000
   -4.0702   -3.8485    1.4554 H   0  0  0  0  0  0  0  0  0  0  0  0
   -4.0012   -2.9605    0.8284 C   0  0  0  0  0  0  0  0  0  0  0  0
   -4.7652   -2.2435    1.1234 H   0  0  0  0  0  0  0  0  0  0  0  0
   -4.1352   -3.2385   -0.2156 H   0  0  0  0  0  0  0  0  0  0  0  0
   -2.6362   -2.3395    1.0094 C   0  0  0  0  0  0  0  0  0  0  0  0
   -1.8292   -2.8395    1.7814 O   0  0  0  0  0  0  0  0  0  0  0  0
   -2.3832   -1.2445    0.2964 N   0  0  0  0  0  0  0  0  0  0  0  0
   -3.1102   -0.8685   -0.2946 H   0  0  0  0  0  0  0  0  0  0  0  0
   -1.1292   -0.4875    0.3524 C   0  0  1  0  0  0  0  0  0  0  0  0
   -0.5898   -0.7762    1.2552 H   0  0  0  0  0  0  0  0  0  0  0  0
   -0.2608   -0.8470   -0.8656 C   0  0  0  0  0  0  0  0  0  0  0  0
   -0.0589   -1.9188   -0.8528 H   0  0  0  0  0  0  0  0  0  0  0  0
   -0.8223   -0.6310   -1.7760 H   0  0  0  0  0  0  0  0  0  0  0  0
    1.0682   -0.1181   -0.9106 C   0  0  0  0  0  0  0  0  0  0  0  0
    2.1903   -0.7211   -1.5136 C   0  0  0  0  0  0  0  0  0  0  0  0
    2.1130   -1.7194   -1.9241 H   0  0  0  0  0  0  0  0  0  0  0  0
    3.4117   -0.0239   -1.5889 C   0  0  0  0  0  0  0  0  0  0  0  0
    4.2693   -0.4893   -2.0500 H   0  0  0  0  0  0  0  0  0  0  0  0
    3.5099    1.2826   -1.0626 C   0  0  0  0  0  0  0  0  0  0  0  0
    4.6826    1.9645   -1.1329 O   0  0  0  0  0  0  0  0  0  0  0  0
    5.3945    1.4240   -1.4778 H   0  0  0  0  0  0  0  0  0  0  0  0
    2.3848    1.8864   -0.4639 C   0  0  0  0  0  0  0  0  0  0  0  0
    2.4736    2.8841   -0.0611 H   0  0  0  0  0  0  0  0  0  0  0  0
    1.1665    1.1851   -0.3860 C   0  0  0  0  0  0  0  0  0  0  0  0
    0.3051    1.6461    0.0824 H   0  0  0  0  0  0  0  0  0  0  0  0
   -1.4018    1.0238    0.4329 C   0  0  0  0  0  0  0  0  0  0  0  0
   -2.2416    1.5423   -0.3033 O   0  0  0  0  0  0  0  0  0  0  0  0
   -0.6927    1.7304    1.3223 N   0  0  0  0  0  0  0  0  0  0  0  0
    0.0178    1.2410    1.8469 H   0  0  0  0  0  0  0  0  0  0  0  0
   -0.8259    3.1712    1.5254 C   0  0  0  0  0  0  0  0  0  0  0  0
   -1.8769    3.4302    1.6645 H   0  0  0  0  0  0  0  0  0  0  0  0
   -0.2598    3.4806    2.4054 H   0  0  0  0  0  0  0  0  0  0  0  0
   -0.4486    3.7020    0.6489 H   0  0  0  0  0  0  0  0  0  0  0  0
  5  6  2  0  0  0  0
  5  7  1  0  0  0  0
  2  3  1  0  0  0  0
  2  4  1  0  0  0  0
  2  5  1  0  0  0  0
  1  2  1  0  0  0  0
 26 27  2  0  0  0  0
 26 28  1  0  0  0  0
 24 25  1  0  0  0  0
 22 23  1  0  0  0  0
 22 24  2  0  0  0  0
 20 21  1  0  0  0  0
 19 20  1  0  0  0  0
 19 22  1  0  0  0  0
 17 18  1  0  0  0  0
 17 19  2  0  0  0  0
 15 16  1  0  0  0  0
 15 17  1  0  0  0  0
 14 15  2  0  0  0  0
 14 24  1  0  0  0  0
 11 12  1  0  0  0  0
 11 13  1  0  0  0  0
 11 14  1  0  0  0  0
  9 10  1  0  0  0  0
  9 11  1  0  0  0  0
  9 26  1  0  0  0  0
  7  8  1  0  0  0  0
  7  9  1  0  0  0  0
 30 31  1  0  0  0  0
 30 32  1  0  0  0  0
 30 33  1  0  0  0  0
 28 29  1  0  0  0  0
 28 30  1  0  0  0  0
M  END
$$$$
default_name
  -OEChem-02102213163D

 33 33  0     1  0  0  0  0  0999 V2000
   -4.0702   -3.8485    1.4554 H   0  0  0  0  0  0  0  0  0  0  0  0
   -4.0012   -2.9605    0.8284 C   0  0  0  0  0  0  0  0  0  0  0  0
   -4.7652   -2.2435    1.1234 H   0  0  0  0  0  0  0  0  0  0  0  0
   -4.1352   -3.2385   -0.2156 H   0  0  0  0  0  0  0  0  0  0  0  0
   -2.6362   -2.3395    1.0094 C   0  0  0  0  0  0  0  0  0  0  0  0
   -1.8292   -2.8395    1.7814 O   0  0  0  0  0  0  0  0  0  0  0  0
   -2.3832   -1.2445    0.2964 N   0  0  0  0  0  0  0  0  0  0  0  0
   -3.1102   -0.8685   -0.2946 H   0  0  0  0  0  0  0  0  0  0  0  0
   -1.1292   -0.4875    0.3524 C   0  0  1  0  0  0  0  0  0  0  0  0
   -0.5898   -0.7762    1.2552 H   0  0  0  0  0  0  0  0  0  0  0  0
   -0.2608   -0.8470   -0.8656 C   0  0  0  0  0  0  0  0  0  0  0  0
   -0.0589   -1.9188   -0.8528 H   0  0  0  0  0  0  0  0  0  0  0  0
   -0.8223   -0.6310   -1.7760 H   0  0  0  0  0  0  0  0  0  0  0  0
    1.0682   -0.1181   -0.9106 C   0  0  0  0  0  0  0  0  0  0  0  0
    2.0936   -0.5608   -1.7701 C   0  0  0  0  0  0  0  0  0  0  0  0
    1.9443   -1.4401   -2.3829 H   0  0  0  0  0  0  0  0  0  0  0  0
    3.3115    0.1435   -1.8381 C   0  0  0  0  0  0  0  0  0  0  0  0
    4.0951   -0.1992   -2.4963 H   0  0  0  0  0  0  0  0  0  0  0  0
    3.5027    1.2967   -1.0463 C   0  0  0  0  0  0  0  0  0  0  0  0
    4.6724    1.9846   -1.1068 O   0  0  0  0  0  0  0  0  0  0  0  0
    5.3242    1.5414   -1.6515 H   0  0  0  0  0  0  0  0  0  0  0  0
    2.4737    1.7411   -0.1903 C   0  0  0  0  0  0  0  0  0  0  0  0
    2.6335    2.6217    0.4134 H   0  0  0  0  0  0  0  0  0  0  0  0
    1.2593    1.0324   -0.1212 C   0  0  0  0  0  0  0  0  0  0  0  0
    0.4726    1.3691    0.5435 H   0  0  0  0  0  0  0  0  0  0  0  0
   -1.4018    1.0238    0.4329 C   0  0  0  0  0  0  0  0  0  0  0  0
   -2.2416    1.5423   -0.3033 O   0  0  0  0  0  0  0  0  0  0  0  0
   -0.6927    1.7304    1.3223 N   0  0  0  0  0  0  0  0  0  0  0  0
    0.0178    1.2410    1.8469 H   0  0  0  0  0  0  0  0  0  0  0  0
   -0.8259    3.1712    1.5254 C   0  0  0  0  0  0  0  0  0  0  0  0
   -1.8769    3.4302    1.6645 H   0  0  0  0  0  0  0  0  0  0  0  0
   -0.2598    3.4806    2.4054 H   0  0  0  0  0  0  0  0  0  0  0  0
   -0.4486    3.7020    0.6489 H   0  0  0  0  0  0  0  0  0  0  0  0
  5  6  2  0  0  0  0
  5  7  1  0  0  0  0
  2  3  1  0  0  0  0
  2  4  1  0  0  0  0
  2  5  1  0  0  0  0
  1  2  1  0  0  0  0
 26 27  2  0  0  0  0
 26 28  1  0  0  0  0
 24 25  1  0  0  0  0
 22 23  1  0  0  0  0
 22 24  2  0  0  0  0
 20 21  1  0  0  0  0
 19 20  1  0  0  0  0
 19 22  1  0  0  0  0
 17 18  1  0  0  0  0
 17 19  2  0  0  0  0
 15 16  1  0  0  0  0
 15 17  1  0  0  0  0
 14 15  2  0  0  0  0
 14 24  1  0  0  0  0
 11 12  1  0  0  0  0
 11 13  1  0  0  0  0
 11 14  1  0  0  0  0
  9 10  1  0  0  0  0
  9 11  1  0  0  0  0
  9 26  1  0  0  0  0
  7  8  1  0  0  0  0
  7  9  1  0  0  0  0
 30 31  1  0  0  0  0
 30 32  1  0  0  0  0
 30 33  1  0  0  0  0
 28 29  1  0  0  0  0
 28 30  1  0  0  0  0
M  END
$$$$
default_name
  -OEChem-02102213163D

 33 33  0     1  0  0  0  0  0999 V2000
   -4.0702   -3.8485    1.4554 H   0  0  0  0  0  0  0  0  0  0  0  0
   -4.0012   -2.9605    0.8284 C   0  0  0  0  0  0  0  0  0  0  0  0
   -4.7652   -2.2435    1.1234 H   0  0  0  0  0  0  0  0  0  0  0  0
   -4.1352   -3.2385   -0.2156 H   0  0  0  0  0  0  0  0  0  0  0  0
   -2.6362   -2.3395    1.0094 C   0  0  0  0  0  0  0  0  0  0  0  0
   -1.8292   -2.8395    1.7814 O   0  0  0  0  0  0  0  0  0  0  0  0
   -2.3832   -1.2445    0.2964 N   0  0  0  0  0  0  0  0  0  0  0  0
   -3.1102   -0.8685   -0.2946 H   0  0  0  0  0  0  0  0  0  0  0  0
   -1.1292   -0.4875    0.3524 C   0  0  1  0  0  0  0  0  0  0  0  0
   -0.5898   -0.7762    1.2552 H   0  0  0  0  0  0  0  0  0  0  0  0
   -0.2608   -0.8470   -0.8656 C   0  0  0  0  0  0  0  0  0  0  0  0
   -0.2794   -1.9284   -1.0072 H   0  0  0  0  0  0  0  0  0  0  0  0
   -0.6971   -0.3931   -1.7570 H   0  0  0  0  0  0  0  0  0  0  0  0
    1.1869   -0.4136   -0.7388 C   0  0  0  0  0  0  0  0  0  0  0  0
    2.1016   -0.6758   -1.7784 C   0  0  0  0  0  0  0  0  0  0  0  0
    1.7786   -1.2118   -2.6612 H   0  0  0  0  0  0  0  0  0  0  0  0
    3.4354   -0.2355   -1.6733 C   0  0  0  0  0  0  0  0  0  0  0  0
    4.1335   -0.4394   -2.4706 H   0  0  0  0  0  0  0  0  0  0  0  0
    3.8544    0.4728   -0.5260 C   0  0  0  0  0  0  0  0  0  0  0  0
    5.1378    0.9042   -0.4165 O   0  0  0  0  0  0  0  0  0  0  0  0
    5.6869    0.5903   -1.1361 H   0  0  0  0  0  0  0  0  0  0  0  0
    2.9365    0.7386    0.5111 C   0  0  0  0  0  0  0  0  0  0  0  0
    3.2700    1.2772    1.3853 H   0  0  0  0  0  0  0  0  0  0  0  0
    1.6052    0.2932    0.4052 C   0  0  0  0  0  0  0  0  0  0  0  0
    0.9028    0.4897    1.2066 H   0  0  0  0  0  0  0  0  0  0  0  0
   -1.4018    1.0238    0.4329 C   0  0  0  0  0  0  0  0  0  0  0  0
   -2.2416    1.5423   -0.3033 O   0  0  0  0  0  0  0  0  0  0  0  0
   -0.6927    1.7304    1.3223 N   0  0  0  0  0  0  0  0  0  0  0  0
    0.0178    1.2410    1.8469 H   0  0  0  0  0  0  0  0  0  0  0  0
   -0.8259    3.1712    1.5254 C   0  0  0  0  0  0  0  0  0  0  0  0
   -1.8769    3.4302    1.6645 H   0  0  0  0  0  0  0  0  0  0  0  0
   -0.2598    3.4806    2.4054 H   0  0  0  0  0  0  0  0  0  0  0  0
   -0.4486    3.7020    0.6489 H   0  0  0  0  0  0  0  0  0  0  0  0
  5  6  2  0  0  0  0
  5  7  1  0  0  0  0
  2  3  1  0  0  0  0
  2  4  1  0  0  0  0
  2  5  1  0  0  0  0
  1  2  1  0  0  0  0
 26 27  2  0  0  0  0
 26 28  1  0  0  0  0
 24 25  1  0  0  0  0
 22 23  1  0  0  0  0
 22 24  2  0  0  0  0
 20 21  1  0  0  0  0
 19 20  1  0  0  0  0
 19 22  1  0  0  0  0
 17 18  1  0  0  0  0
 17 19  2  0  0  0  0
 15 16  1  0  0  0  0
 15 17  1  0  0  0  0
 14 15  2  0  0  0  0
 14 24  1  0  0  0  0
 11 12  1  0  0  0  0
 11 13  1  0  0  0  0
 11 14  1  0  0  0  0
  9 10  1  0  0  0  0
  9 11  1  0  0  0  0
  9 26  1  0  0  0  0
  7  8  1  0  0  0  0
  7  9  1  0  0  0  0
 30 31  1  0  0  0  0
 30 32  1  0  0  0  0
 30 33  1  0  0  0  0
 28 29  1  0  0  0  0
 28 30  1  0  0  0  0
M  END
$$$$
default_name
  -OEChem-02102213163D

 33 33  0     1  0  0  0  0  0999 V2000
   -4.0702   -3.8485    1.4554 H   0  0  0  0  0  0  0  0  0  0  0  0
   -4.0012   -2.9605    0.8284 C   0  0  0  0  0  0  0  0  0  0  0  0
   -4.7652   -2.2435    1.1234 H   0  0  0  0  0  0  0  0  0  0  0  0
   -4.1352   -3.2385   -0.2156 H   0  0  0  0  0  0  0  0  0  0  0  0
   -2.6362   -2.3395    1.0094 C   0  0  0  0  0  0  0  0  0  0  0  0
   -1.8292   -2.8395    1.7814 O   0  0  0  0  0  0  0  0  0  0  0  0
   -2.3832   -1.2445    0.2964 N   0  0  0  0  0  0  0  0  0  0  0  0
   -3.1102   -0.8685   -0.2946 H   0  0  0  0  0  0  0  0  0  0  0  0
   -1.1292   -0.4875    0.3524 C   0  0  1  0  0  0  0  0  0  0  0  0
   -0.5898   -0.7762    1.2552 H   0  0  0  0  0  0  0  0  0  0  0  0
   -0.2608   -0.8470   -0.8656 C   0  0  0  0  0  0  0  0  0  0  0  0
   -0.2794   -1.9284   -1.0072 H   0  0  0  0  0  0  0  0  0  0  0  0
   -0.6971   -0.3931   -1.7570 H   0  0  0  0  0  0  0  0  0  0  0  0
    1.1869   -0.4136   -0.7388 C   0  0  0  0  0  0  0  0  0  0  0  0
    2.0224   -0.3833   -1.8734 C   0  0  0  0  0  0  0  0  0  0  0  0
    1.6392   -0.6951   -2.8362 H   0  0  0  0  0  0  0  0  0  0  0  0
    3.3547    0.0586   -1.7578 C   0  0  0  0  0  0  0  0  0  0  0  0
    3.9921    0.0791   -2.6284 H   0  0  0  0  0  0  0  0  0  0  0  0
    3.8517    0.4752   -0.5036 C   0  0  0  0  0  0  0  0  0  0  0  0
    5.1343    0.9058   -0.3822 O   0  0  0  0  0  0  0  0  0  0  0  0
    5.6305    0.7959   -1.1945 H   0  0  0  0  0  0  0  0  0  0  0  0
    3.0128    0.4488    0.6298 C   0  0  0  0  0  0  0  0  0  0  0  0
    3.4057    0.7657    1.5841 H   0  0  0  0  0  0  0  0  0  0  0  0
    1.6829    0.0023    0.5119 C   0  0  0  0  0  0  0  0  0  0  0  0
    1.0417   -0.0264    1.3849 H   0  0  0  0  0  0  0  0  0  0  0  0
   -1.4018    1.0238    0.4329 C   0  0  0  0  0  0  0  0  0  0  0  0
   -2.2416    1.5423   -0.3033 O   0  0  0  0  0  0  0  0  0  0  0  0
   -0.6927    1.7304    1.3223 N   0  0  0  0  0  0  0  0  0  0  0  0
    0.0178    1.2410    1.8469 H   0  0  0  0  0  0  0  0  0  0  0  0
   -0.8259    3.1712    1.5254 C   0  0  0  0  0  0  0  0  0  0  0  0
   -1.8769    3.4302    1.6645 H   0  0  0  0  0  0  0  0  0  0  0  0
   -0.2598    3.4806    2.4054 H   0  0  0  0  0  0  0  0  0  0  0  0
   -0.4486    3.7020    0.6489 H   0  0  0  0  0  0  0  0  0  0  0  0
  5  6  2  0  0  0  0
  5  7  1  0  0  0  0
  2  3  1  0  0  0  0
  2  4  1  0  0  0  0
  2  5  1  0  0  0  0
  1  2  1  0  0  0  0
 26 27  2  0  0  0  0
 26 28  1  0  0  0  0
 24 25  1  0  0  0  0
 22 23  1  0  0  0  0
 22 24  2  0  0  0  0
 20 21  1  0  0  0  0
 19 20  1  0  0  0  0
 19 22  1  0  0  0  0
 17 18  1  0  0  0  0
 17 19  2  0  0  0  0
 15 16  1  0  0  0  0
 15 17  1  0  0  0  0
 14 15  2  0  0  0  0
 14 24  1  0  0  0  0
 11 12  1  0  0  0  0
 11 13  1  0  0  0  0
 11 14  1  0  0  0  0
  9 10  1  0  0  0  0
  9 11  1  0  0  0  0
  9 26  1  0  0  0  0
  7  8  1  0  0  0  0
  7  9  1  0  0  0  0
 30 31  1  0  0  0  0
 30 32  1  0  0  0  0
 30 33  1  0  0  0  0
 28 29  1  0  0  0  0
 28 30  1  0  0  0  0
M  END
$$$$
default_name
  -OEChem-02102213163D

 33 33  0     1  0  0  0  0  0999 V2000
   -4.0702   -3.8485    1.4554 H   0  0  0  0  0  0  0  0  0  0  0  0
   -4.0012   -2.9605    0.8284 C   0  0  0  0  0  0  0  0  0  0  0  0
   -4.7652   -2.2435    1.1234 H   0  0  0  0  0  0  0  0  0  0  0  0
   -4.1352   -3.2385   -0.2156 H   0  0  0  0  0  0  0  0  0  0  0  0
   -2.6362   -2.3395    1.0094 C   0  0  0  0  0  0  0  0  0  0  0  0
   -1.8292   -2.8395    1.7814 O   0  0  0  0  0  0  0  0  0  0  0  0
   -2.3832   -1.2445    0.2964 N   0  0  0  0  0  0  0  0  0  0  0  0
   -3.1102   -0.8685   -0.2946 H   0  0  0  0  0  0  0  0  0  0  0  0
   -1.1292   -0.4875    0.3524 C   0  0  1  0  0  0  0  0  0  0  0  0
   -0.5898   -0.7762    1.2552 H   0  0  0  0  0  0  0  0  0  0  0  0
   -0.2608   -0.8470   -0.8656 C   0  0  0  0  0  0  0  0  0  0  0  0
   -0.2794   -1.9284   -1.0072 H   0  0  0  0  0  0  0  0  0  0  0  0
   -0.6971   -0.3931   -1.7570 H   0  0  0  0  0  0  0  0  0  0  0  0
    1.1869   -0.4136   -0.7388 C   0  0  0  0  0  0  0  0  0  0  0  0
    1.9324   -0.0790   -1.8870 C   0  0  0  0  0  0  0  0  0  0  0  0
    1.4805   -0.1557   -2.8672 H   0  0  0  0  0  0  0  0  0  0  0  0
    3.2642    0.3619   -1.7607 C   0  0  0  0  0  0  0  0  0  0  0  0
    3.8327    0.6158   -2.6422 H   0  0  0  0  0  0  0  0  0  0  0  0
    3.8508    0.4719   -0.4811 C   0  0  0  0  0  0  0  0  0  0  0  0
    5.1334    0.8989   -0.3485 O   0  0  0  0  0  0  0  0  0  0  0  0
    5.5672    1.0078   -1.1958 H   0  0  0  0  0  0  0  0  0  0  0  0
    3.1016    0.1413    0.6671 C   0  0  0  0  0  0  0  0  0  0  0  0
    3.5626    0.2254    1.6397 H   0  0  0  0  0  0  0  0  0  0  0  0
    1.7722   -0.3034    0.5373 C   0  0  0  0  0  0  0  0  0  0  0  0
    1.2003   -0.5660    1.4193 H   0  0  0  0  0  0  0  0  0  0  0  0
   -1.4018    1.0238    0.4329 C   0  0  0  0  0  0  0  0  0  0  0  0
   -2.2416    1.5423   -0.3033 O   0  0  0  0  0  0  0  0  0  0  0  0
   -0.6927    1.7304    1.3223 N   0  0  0  0  0  0  0  0  0  0  0  0
    0.0178    1.2410    1.8469 H   0  0  0  0  0  0  0  0  0  0  0  0
   -0.8259    3.1712    1.5254 C   0  0  0  0  0  0  0  0  0  0  0  0
   -1.8769    3.4302    1.6645 H   0  0  0  0  0  0  0  0  0  0  0  0
   -0.2598    3.4806    2.4054 H   0  0  0  0  0  0  0  0  0  0  0  0
   -0.4486    3.7020    0.6489 H   0  0  0  0  0  0  0  0  0  0  0  0
  5  6  2  0  0  0  0
  5  7  1  0  0  0  0
  2  3  1  0  0  0  0
  2  4  1  0  0  0  0
  2  5  1  0  0  0  0
  1  2  1  0  0  0  0
 26 27  2  0  0  0  0
 26 28  1  0  0  0  0
 24 25  1  0  0  0  0
 22 23  1  0  0  0  0
 22 24  2  0  0  0  0
 20 21  1  0  0  0  0
 19 20  1  0  0  0  0
 19 22  1  0  0  0  0
 17 18  1  0  0  0  0
 17 19  2  0  0  0  0
 15 16  1  0  0  0  0
 15 17  1  0  0  0  0
 14 15  2  0  0  0  0
 14 24  1  0  0  0  0
 11 12  1  0  0  0  0
 11 13  1  0  0  0  0
 11 14  1  0  0  0  0
  9 10  1  0  0  0  0
  9 11  1  0  0  0  0
  9 26  1  0  0  0  0
  7  8  1  0  0  0  0
  7  9  1  0  0  0  0
 30 31  1  0  0  0  0
 30 32  1  0  0  0  0
 30 33  1  0  0  0  0
 28 29  1  0  0  0  0
 28 30  1  0  0  0  0
M  END
$$$$
default_name
  -OEChem-02102213163D

 33 33  0     1  0  0  0  0  0999 V2000
   -4.0702   -3.8485    1.4554 H   0  0  0  0  0  0  0  0  0  0  0  0
   -4.0012   -2.9605    0.8284 C   0  0  0  0  0  0  0  0  0  0  0  0
   -4.7652   -2.2435    1.1234 H   0  0  0  0  0  0  0  0  0  0  0  0
   -4.1352   -3.2385   -0.2156 H   0  0  0  0  0  0  0  0  0  0  0  0
   -2.6362   -2.3395    1.0094 C   0  0  0  0  0  0  0  0  0  0  0  0
   -1.8292   -2.8395    1.7814 O   0  0  0  0  0  0  0  0  0  0  0  0
   -2.3832   -1.2445    0.2964 N   0  0  0  0  0  0  0  0  0  0  0  0
   -3.1102   -0.8685   -0.2946 H   0  0  0  0  0  0  0  0  0  0  0  0
   -1.1292   -0.4875    0.3524 C   0  0  1  0  0  0  0  0  0  0  0  0
   -0.5898   -0.7762    1.2552 H   0  0  0  0  0  0  0  0  0  0  0  0
   -0.2608   -0.8470   -0.8656 C   0  0  0  0  0  0  0  0  0  0  0  0
   -0.2794   -1.9284   -1.0072 H   0  0  0  0  0  0  0  0  0  0  0  0
   -0.6971   -0.3931   -1.7570 H   0  0  0  0  0  0  0  0  0  0  0  0
    1.1869   -0.4136   -0.7388 C   0  0  0  0  0  0  0  0  0  0  0  0
    1.8380    0.2164   -1.8183 C   0  0  0  0  0  0  0  0  0  0  0  0
    1.3132    0.3694   -2.7522 H   0  0  0  0  0  0  0  0  0  0  0  0
    3.1700    0.6535   -1.6819 C   0  0  0  0  0  0  0  0  0  0  0  0
    3.6660    1.1341   -2.5112 H   0  0  0  0  0  0  0  0  0  0  0  0
    3.8516    0.4631   -0.4601 C   0  0  0  0  0  0  0  0  0  0  0  0
    5.1352    0.8838   -0.3176 O   0  0  0  0  0  0  0  0  0  0  0  0
    5.5013    1.2113   -1.1402 H   0  0  0  0  0  0  0  0  0  0  0  0
    3.1968   -0.1630    0.6207 C   0  0  0  0  0  0  0  0  0  0  0  0
    3.7300   -0.3069    1.5484 H   0  0  0  0  0  0  0  0  0  0  0  0
    1.8669   -0.6030    0.4797 C   0  0  0  0  0  0  0  0  0  0  0  0
    1.3676   -1.0923    1.3076 H   0  0  0  0  0  0  0  0  0  0  0  0
   -1.4018    1.0238    0.4329 C   0  0  0  0  0  0  0  0  0  0  0  0
   -2.2416    1.5423   -0.3033 O   0  0  0  0  0  0  0  0  0  0  0  0
   -0.6927    1.7304    1.3223 N   0  0  0  0  0  0  0  0  0  0  0  0
    0.0178    1.2410    1.8469 H   0  0  0  0  0  0  0  0  0  0  0  0
   -0.8259    3.1712    1.5254 C   0  0  0  0  0  0  0  0  0  0  0  0
   -1.8769    3.4302    1.6645 H   0  0  0  0  0  0  0  0  0  0  0  0
   -0.2598    3.4806    2.4054 H   0  0  0  0  0  0  0  0  0  0  0  0
   -0.4486    3.7020    0.6489 H   0  0  0  0  0  0  0  0  0  0  0  0
  5  6  2  0  0  0  0
  5  7  1  0  0  0  0
  2  3  1  0  0  0  0
  2  4  1  0  0  0  0
  2  5  1  0  0  0  0
  1  2  1  0  0  0  0
 26 27  2  0  0  0  0
 26 28  1  0  0  0  0
 24 25  1  0  0  0  0
 22 23  1  0  0  0  0
 22 24  2  0  0  0  0
 20 21  1  0  0  0  0
 19 20  1  0  0  0  0
 19 22  1  0  0  0  0
 17 18  1  0  0  0  0
 17 19  2  0  0  0  0
 15 16  1  0  0  0  0
 15 17  1  0  0  0  0
 14 15  2  0  0  0  0
 14 24  1  0  0  0  0
 11 12  1  0  0  0  0
 11 13  1  0  0  0  0
 11 14  1  0  0  0  0
  9 10  1  0  0  0  0
  9 11  1  0  0  0  0
  9 26  1  0  0  0  0
  7  8  1  0  0  0  0
  7  9  1  0  0  0  0
 30 31  1  0  0  0  0
 30 32  1  0  0  0  0
 30 33  1  0  0  0  0
 28 29  1  0  0  0  0
 28 30  1  0  0  0  0
M  END
$$$$
default_name
  -OEChem-02102213163D

 33 33  0     1  0  0  0  0  0999 V2000
   -4.0702   -3.8485    1.4554 H   0  0  0  0  0  0  0  0  0  0  0  0
   -4.0012   -2.9605    0.8284 C   0  0  0  0  0  0  0  0  0  0  0  0
   -4.7652   -2.2435    1.1234 H   0  0  0  0  0  0  0  0  0  0  0  0
   -4.1352   -3.2385   -0.2156 H   0  0  0  0  0  0  0  0  0  0  0  0
   -2.6362   -2.3395    1.0094 C   0  0  0  0  0  0  0  0  0  0  0  0
   -1.8292   -2.8395    1.7814 O   0  0  0  0  0  0  0  0  0  0  0  0
   -2.3832   -1.2445    0.2964 N   0  0  0  0  0  0  0  0  0  0  0  0
   -3.1102   -0.8685   -0.2946 H   0  0  0  0  0  0  0  0  0  0  0  0
   -1.1292   -0.4875    0.3524 C   0  0  1  0  0  0  0  0  0  0  0  0
   -0.5898   -0.7762    1.2552 H   0  0  0  0  0  0  0  0  0  0  0  0
   -0.2608   -0.8470   -0.8656 C   0  0  0  0  0  0  0  0  0  0  0  0
   -0.2794   -1.9284   -1.0072 H   0  0  0  0  0  0  0  0  0  0  0  0
   -0.6971   -0.3931   -1.7570 H   0  0  0  0  0  0  0  0  0  0  0  0
    1.1869   -0.4136   -0.7388 C   0  0  0  0  0  0  0  0  0  0  0  0
    1.7455    0.4827   -1.6720 C   0  0  0  0  0  0  0  0  0  0  0  0
    1.1487    0.8447   -2.4990 H   0  0  0  0  0  0  0  0  0  0  0  0
    3.0785    0.9138   -1.5268 C   0  0  0  0  0  0  0  0  0  0  0  0
    3.5035    1.5989   -2.2442 H   0  0  0  0  0  0  0  0  0  0  0  0
    3.8541    0.4495   -0.4421 C   0  0  0  0  0  0  0  0  0  0  0  0
    5.1396    0.8616   -0.2916 O   0  0  0  0  0  0  0  0  0  0  0  0
    5.4375    1.3928   -1.0312 H   0  0  0  0  0  0  0  0  0  0  0  0
    3.2919   -0.4435    0.4936 C   0  0  0  0  0  0  0  0  0  0  0  0
    3.8964   -0.7948    1.3162 H   0  0  0  0  0  0  0  0  0  0  0  0
    1.9607   -0.8761    0.3431 C   0  0  0  0  0  0  0  0  0  0  0  0
    1.5324   -1.5694    1.0572 H   0  0  0  0  0  0  0  0  0  0  0  0
   -1.4018    1.0238    0.4329 C   0  0  0  0  0  0  0  0  0  0  0  0
   -2.2416    1.5423   -0.3033 O   0  0  0  0  0  0  0  0  0  0  0  0
   -0.6927    1.7304    1.3223 N   0  0  0  0  0  0  0  0  0  0  0  0
    0.0178    1.2410    1.8469 H   0  0  0  0  0  0  0  0  0  0  0  0
   -0.8259    3.1712    1.5254 C   0  0  0  0  0  0  0  0  0  0  0  0
   -1.8769    3.4302    1.6645 H   0  0  0  0  0  0  0  0  0  0  0  0
   -0.2598    3.4806    2.4054 H   0  0  0  0  0  0  0  0  0  0  0  0
   -0.4486    3.7020    0.6489 H   0  0  0  0  0  0  0  0  0  0  0  0
  5  6  2  0  0  0  0
  5  7  1  0  0  0  0
  2  3  1  0  0  0  0
  2  4  1  0  0  0  0
  2  5  1  0  0  0  0
  1  2  1  0  0  0  0
 26 27  2  0  0  0  0
 26 28  1  0  0  0  0
 24 25  1  0  0  0  0
 22 23  1  0  0  0  0
 22 24  2  0  0  0  0
 20 21  1  0  0  0  0
 19 20  1  0  0  0  0
 19 22  1  0  0  0  0
 17 18  1  0  0  0  0
 17 19  2  0  0  0  0
 15 16  1  0  0  0  0
 15 17  1  0  0  0  0
 14 15  2  0  0  0  0
 14 24  1  0  0  0  0
 11 12  1  0  0  0  0
 11 13  1  0  0  0  0
 11 14  1  0  0  0  0
  9 10  1  0  0  0  0
  9 11  1  0  0  0  0
  9 26  1  0  0  0  0
  7  8  1  0  0  0  0
  7  9  1  0  0  0  0
 30 31  1  0  0  0  0
 30 32  1  0  0  0  0
 30 33  1  0  0  0  0
 28 29  1  0  0  0  0
 28 30  1  0  0  0  0
M  END
$$$$
default_name
  -OEChem-02102213163D

 33 33  0     1  0  0  0  0  0999 V2000
   -4.0702   -3.8485    1.4554 H   0  0  0  0  0  0  0  0  0  0  0  0
   -4.0012   -2.9605    0.8284 C   0  0  0  0  0  0  0  0  0  0  0  0
   -4.7652   -2.2435    1.1234 H   0  0  0  0  0  0  0  0  0  0  0  0
   -4.1352   -3.2385   -0.2156 H   0  0  0  0  0  0  0  0  0  0  0  0
   -2.6362   -2.3395    1.0094 C   0  0  0  0  0  0  0  0  0  0  0  0
   -1.8292   -2.8395    1.7814 O   0  0  0  0  0  0  0  0  0  0  0  0
   -2.3832   -1.2445    0.2964 N   0  0  0  0  0  0  0  0  0  0  0  0
   -3.1102   -0.8685   -0.2946 H   0  0  0  0  0  0  0  0  0  0  0  0
   -1.1292   -0.4875    0.3524 C   0  0  1  0  0  0  0  0  0  0  0  0
   -0.5898   -0.7762    1.2552 H   0  0  0  0  0  0  0  0  0  0  0  0
   -0.2608   -0.8470   -0.8656 C   0  0  0  0  0  0  0  0  0  0  0  0
   -0.2794   -1.9284   -1.0072 H   0  0  0  0  0  0  0  0  0  0  0  0
   -0.6971   -0.3931   -1.7570 H   0  0  0  0  0  0  0  0  0  0  0  0
    1.1869   -0.4136   -0.7388 C   0  0  0  0  0  0  0  0  0  0  0  0
    1.6611    0.7017   -1.4581 C   0  0  0  0  0  0  0  0  0  0  0  0
    0.9983    1.2376   -2.1248 H   0  0  0  0  0  0  0  0  0  0  0  0
    2.9959    1.1248   -1.3059 C   0  0  0  0  0  0  0  0  0  0  0  0
    3.3562    1.9783   -1.8594 H   0  0  0  0  0  0  0  0  0  0  0  0
    3.8581    0.4320   -0.4282 C   0  0  0  0  0  0  0  0  0  0  0  0
    5.1462    0.8338   -0.2722 O   0  0  0  0  0  0  0  0  0  0  0  0
    5.3799    1.5398   -0.8764 H   0  0  0  0  0  0  0  0  0  0  0  0
    3.3804   -0.6809    0.2945 C   0  0  0  0  0  0  0  0  0  0  0  0
    4.0505   -1.2051    0.9591 H   0  0  0  0  0  0  0  0  0  0  0  0
    2.0470   -1.1041    0.1367 C   0  0  0  0  0  0  0  0  0  0  0  0
    1.6833   -1.9648    0.6853 H   0  0  0  0  0  0  0  0  0  0  0  0
   -1.4018    1.0238    0.4329 C   0  0  0  0  0  0  0  0  0  0  0  0
   -2.2416    1.5423   -0.3033 O   0  0  0  0  0  0  0  0  0  0  0  0
   -0.6927    1.7304    1.3223 N   0  0  0  0  0  0  0  0  0  0  0  0
    0.0178    1.2410    1.8469 H   0  0  0  0  0  0  0  0  0  0  0  0
   -0.8259    3.1712    1.5254 C   0  0  0  0  0  0  0  0  0  0  0  0
   -1.8769    3.4302    1.6645 H   0  0  0  0  0  0  0  0  0  0  0  0
   -0.2598    3.4806    2.4054 H   0  0  0  0  0  0  0  0  0  0  0  0
   -0.4486    3.7020    0.6489 H   0  0  0  0  0  0  0  0  0  0  0  0
  5  6  2  0  0  0  0
  5  7  1  0  0  0  0
  2  3  1  0  0  0  0
  2  4  1  0  0  0  0
  2  5  1  0  0  0  0
  1  2  1  0  0  0  0
 26 27  2  0  0  0  0
 26 28  1  0  0  0  0
 24 25  1  0  0  0  0
 22 23  1  0  0  0  0
 22 24  2  0  0  0  0
 20 21  1  0  0  0  0
 19 20  1  0  0  0  0
 19 22  1  0  0  0  0
 17 18  1  0  0  0  0
 17 19  2  0  0  0  0
 15 16  1  0  0  0  0
 15 17  1  0  0  0  0
 14 15  2  0  0  0  0
 14 24  1  0  0  0  0
 11 12  1  0  0  0  0
 11 13  1  0  0  0  0
 11 14  1  0  0  0  0
  9 10  1  0  0  0  0
  9 11  1  0  0  0  0
  9 26  1  0  0  0  0
  7  8  1  0  0  0  0
  7  9  1  0  0  0  0
 30 31  1  0  0  0  0
 30 32  1  0  0  0  0
 30 33  1  0  0  0  0
 28 29  1  0  0  0  0
 28 30  1  0  0  0  0
M  END
$$$$
default_name
  -OEChem-02102213163D

 33 33  0     1  0  0  0  0  0999 V2000
   -4.0702   -3.8485    1.4554 H   0  0  0  0  0  0  0  0  0  0  0  0
   -4.0012   -2.9605    0.8284 C   0  0  0  0  0  0  0  0  0  0  0  0
   -4.7652   -2.2435    1.1234 H   0  0  0  0  0  0  0  0  0  0  0  0
   -4.1352   -3.2385   -0.2156 H   0  0  0  0  0  0  0  0  0  0  0  0
   -2.6362   -2.3395    1.0094 C   0  0  0  0  0  0  0  0  0  0  0  0
   -1.8292   -2.8395    1.7814 O   0  0  0  0  0  0  0  0  0  0  0  0
   -2.3832   -1.2445    0.2964 N   0  0  0  0  0  0  0  0  0  0  0  0
   -3.1102   -0.8685   -0.2946 H   0  0  0  0  0  0  0  0  0  0  0  0
   -1.1292   -0.4875    0.3524 C   0  0  1  0  0  0  0  0  0  0  0  0
   -0.5898   -0.7762    1.2552 H   0  0  0  0  0  0  0  0  0  0  0  0
   -0.2608   -0.8470   -0.8656 C   0  0  0  0  0  0  0  0  0  0  0  0
   -0.2794   -1.9284   -1.0072 H   0  0  0  0  0  0  0  0  0  0  0  0
   -0.6971   -0.3931   -1.7570 H   0  0  0  0  0  0  0  0  0  0  0  0
    1.1869   -0.4136   -0.7388 C   0  0  0  0  0  0  0  0  0  0  0  0
    1.5908    0.8587   -1.1911 C   0  0  0  0  0  0  0  0  0  0  0  0
    0.8722    1.5214   -1.6552 H   0  0  0  0  0  0  0  0  0  0  0  0
    2.9280    1.2723   -1.0342 C   0  0  0  0  0  0  0  0  0  0  0  0
    3.2342    2.2465   -1.3832 H   0  0  0  0  0  0  0  0  0  0  0  0
    3.8634    0.4117   -0.4195 C   0  0  0  0  0  0  0  0  0  0  0  0
    5.1546    0.8024   -0.2609 O   0  0  0  0  0  0  0  0  0  0  0  0
    5.3326    1.6423   -0.6863 H   0  0  0  0  0  0  0  0  0  0  0  0
    3.4563   -0.8591    0.0369 C   0  0  0  0  0  0  0  0  0  0  0  0
    4.1818   -1.5099    0.5014 H   0  0  0  0  0  0  0  0  0  0  0  0
    2.1201   -1.2715   -0.1254 C   0  0  0  0  0  0  0  0  0  0  0  0
    1.8102   -2.2516    0.2172 H   0  0  0  0  0  0  0  0  0  0  0  0
   -1.4018    1.0238    0.4329 C   0  0  0  0  0  0  0  0  0  0  0  0
   -2.2416    1.5423   -0.3033 O   0  0  0  0  0  0  0  0  0  0  0  0
   -0.6927    1.7304    1.3223 N   0  0  0  0  0  0  0  0  0  0  0  0
    0.0178    1.2410    1.8469 H   0  0  0  0  0  0  0  0  0  0  0  0
   -0.8259    3.1712    1.5254 C   0  0  0  0  0  0  0  0  0  0  0  0
   -1.8769    3.4302    1.6645 H   0  0  0  0  0  0  0  0  0  0  0  0
   -0.2598    3.4806    2.4054 H   0  0  0  0  0  0  0  0  0  0  0  0
   -0.4486    3.7020    0.6489 H   0  0  0  0  0  0  0  0  0  0  0  0
  5  6  2  0  0  0  0
  5  7  1  0  0  0  0
  2  3  1  0  0  0  0
  2  4  1  0  0  0  0
  2  5  1  0  0  0  0
  1  2  1  0  0  0  0
 26 27  2  0  0  0  0
 26 28  1  0  0  0  0
 24 25  1  0  0  0  0
 22 23  1  0  0  0  0
 22 24  2  0  0  0  0
 20 21  1  0  0  0  0
 19 20  1  0  0  0  0
 19 22  1  0  0  0  0
 17 18  1  0  0  0  0
 17 19  2  0  0  0  0
 15 16  1  0  0  0  0
 15 17  1  0  0  0  0
 14 15  2  0  0  0  0
 14 24  1  0  0  0  0
 11 12  1  0  0  0  0
 11 13  1  0  0  0  0
 11 14  1  0  0  0  0
  9 10  1  0  0  0  0
  9 11  1  0  0  0  0
  9 26  1  0  0  0  0
  7  8  1  0  0  0  0
  7  9  1  0  0  0  0
 30 31  1  0  0  0  0
 30 32  1  0  0  0  0
 30 33  1  0  0  0  0
 28 29  1  0  0  0  0
 28 30  1  0  0  0  0
M  END
$$$$
default_name
  -OEChem-02102213163D

 33 33  0     1  0  0  0  0  0999 V2000
   -4.0702   -3.8485    1.4554 H   0  0  0  0  0  0  0  0  0  0  0  0
   -4.0012   -2.9605    0.8284 C   0  0  0  0  0  0  0  0  0  0  0  0
   -4.7652   -2.2435    1.1234 H   0  0  0  0  0  0  0  0  0  0  0  0
   -4.1352   -3.2385   -0.2156 H   0  0  0  0  0  0  0  0  0  0  0  0
   -2.6362   -2.3395    1.0094 C   0  0  0  0  0  0  0  0  0  0  0  0
   -1.8292   -2.8395    1.7814 O   0  0  0  0  0  0  0  0  0  0  0  0
   -2.3832   -1.2445    0.2964 N   0  0  0  0  0  0  0  0  0  0  0  0
   -3.1102   -0.8685   -0.2946 H   0  0  0  0  0  0  0  0  0  0  0  0
   -1.1292   -0.4875    0.3524 C   0  0  1  0  0  0  0  0  0  0  0  0
   -0.5898   -0.7762    1.2552 H   0  0  0  0  0  0  0  0  0  0  0  0
   -0.2608   -0.8470   -0.8656 C   0  0  0  0  0  0  0  0  0  0  0  0
   -0.2794   -1.9284   -1.0072 H   0  0  0  0  0  0  0  0  0  0  0  0
   -0.6971   -0.3931   -1.7570 H   0  0  0  0  0  0  0  0  0  0  0  0
    1.1869   -0.4136   -0.7388 C   0  0  0  0  0  0  0  0  0  0  0  0
    1.5392    0.9427   -0.8892 C   0  0  0  0  0  0  0  0  0  0  0  0
    0.7790    1.6768   -1.1221 H   0  0  0  0  0  0  0  0  0  0  0  0
    2.8793    1.3462   -0.7304 C   0  0  0  0  0  0  0  0  0  0  0  0
    3.1457    2.3853   -0.8478 H   0  0  0  0  0  0  0  0  0  0  0  0
    3.8696    0.3900   -0.4164 C   0  0  0  0  0  0  0  0  0  0  0  0
    5.1643    0.7694   -0.2584 O   0  0  0  0  0  0  0  0  0  0  0  0
    5.2987    1.6933   -0.4738 H   0  0  0  0  0  0  0  0  0  0  0  0
    3.5145   -0.9660   -0.2615 C   0  0  0  0  0  0  0  0  0  0  0  0
    4.2814   -1.6883   -0.0257 H   0  0  0  0  0  0  0  0  0  0  0  0
    2.1749   -1.3668   -0.4253 C   0  0  0  0  0  0  0  0  0  0  0  0
    1.9043   -2.4102   -0.3152 H   0  0  0  0  0  0  0  0  0  0  0  0
   -1.4018    1.0238    0.4329 C   0  0  0  0  0  0  0  0  0  0  0  0
   -2.2416    1.5423   -0.3033 O   0  0  0  0  0  0  0  0  0  0  0  0
   -0.6927    1.7304    1.3223 N   0  0  0  0  0  0  0  0  0  0  0  0
    0.0178    1.2410    1.8469 H   0  0  0  0  0  0  0  0  0  0  0  0
   -0.8259    3.1712    1.5254 C   0  0  0  0  0  0  0  0  0  0  0  0
   -1.8769    3.4302    1.6645 H   0  0  0  0  0  0  0  0  0  0  0  0
   -0.2598    3.4806    2.4054 H   0  0  0  0  0  0  0  0  0  0  0  0
   -0.4486    3.7020    0.6489 H   0  0  0  0  0  0  0  0  0  0  0  0
  5  6  2  0  0  0  0
  5  7  1  0  0  0  0
  2  3  1  0  0  0  0
  2  4  1  0  0  0  0
  2  5  1  0  0  0  0
  1  2  1  0  0  0  0
 26 27  2  0  0  0  0
 26 28  1  0  0  0  0
 24 25  1  0  0  0  0
 22 23  1  0  0  0  0
 22 24  2  0  0  0  0
 20 21  1  0  0  0  0
 19 20  1  0  0  0  0
 19 22  1  0  0  0  0
 17 18  1  0  0  0  0
 17 19  2  0  0  0  0
 15 16  1  0  0  0  0
 15 17  1  0  0  0  0
 14 15  2  0  0  0  0
 14 24  1  0  0  0  0
 11 12  1  0  0  0  0
 11 13  1  0  0  0  0
 11 14  1  0  0  0  0
  9 10  1  0  0  0  0
  9 11  1  0  0  0  0
  9 26  1  0  0  0  0
  7  8  1  0  0  0  0
  7  9  1  0  0  0  0
 30 31  1  0  0  0  0
 30 32  1  0  0  0  0
 30 33  1  0  0  0  0
 28 29  1  0  0  0  0
 28 30  1  0  0  0  0
M  END
$$$$
default_name
  -OEChem-02102213163D

 33 33  0     1  0  0  0  0  0999 V2000
   -4.0702   -3.8485    1.4554 H   0  0  0  0  0  0  0  0  0  0  0  0
   -4.0012   -2.9605    0.8284 C   0  0  0  0  0  0  0  0  0  0  0  0
   -4.7652   -2.2435    1.1234 H   0  0  0  0  0  0  0  0  0  0  0  0
   -4.1352   -3.2385   -0.2156 H   0  0  0  0  0  0  0  0  0  0  0  0
   -2.6362   -2.3395    1.0094 C   0  0  0  0  0  0  0  0  0  0  0  0
   -1.8292   -2.8395    1.7814 O   0  0  0  0  0  0  0  0  0  0  0  0
   -2.3832   -1.2445    0.2964 N   0  0  0  0  0  0  0  0  0  0  0  0
   -3.1102   -0.8685   -0.2946 H   0  0  0  0  0  0  0  0  0  0  0  0
   -1.1292   -0.4875    0.3524 C   0  0  1  0  0  0  0  0  0  0  0  0
   -0.5898   -0.7762    1.2552 H   0  0  0  0  0  0  0  0  0  0  0  0
   -0.2608   -0.8470   -0.8656 C   0  0  0  0  0  0  0  0  0  0  0  0
   -0.2794   -1.9284   -1.0072 H   0  0  0  0  0  0  0  0  0  0  0  0
   -0.6971   -0.3931   -1.7570 H   0  0  0  0  0  0  0  0  0  0  0  0
    1.1869   -0.4136   -0.7388 C   0  0  0  0  0  0  0  0  0  0  0  0
    1.5098    0.9482   -0.5730 C   0  0  0  0  0  0  0  0  0  0  0  0
    0.7250    1.6932   -0.5618 H   0  0  0  0  0  0  0  0  0  0  0  0
    2.8531    1.3414   -0.4151 C   0  0  0  0  0  0  0  0  0  0  0  0
    3.0969    2.3852   -0.2899 H   0  0  0  0  0  0  0  0  0  0  0  0
    3.8763    0.3685   -0.4193 C   0  0  0  0  0  0  0  0  0  0  0  0
    5.1745    0.7371   -0.2648 O   0  0  0  0  0  0  0  0  0  0  0  0
    5.2806    1.6893   -0.2535 H   0  0  0  0  0  0  0  0  0  0  0  0
    3.5509   -0.9943   -0.5804 C   0  0  0  0  0  0  0  0  0  0  0  0
    4.3425   -1.7283   -0.5863 H   0  0  0  0  0  0  0  0  0  0  0  0
    2.2077   -1.3836   -0.7426 C   0  0  0  0  0  0  0  0  0  0  0  0
    1.9593   -2.4299   -0.8756 H   0  0  0  0  0  0  0  0  0  0  0  0
   -1.4018    1.0238    0.4329 C   0  0  0  0  0  0  0  0  0  0  0  0
   -2.2416    1.5423   -0.3033 O   0  0  0  0  0  0  0  0  0  0  0  0
   -0.6927    1.7304    1.3223 N   0  0  0  0  0  0  0  0  0  0  0  0
    0.0178    1.2410    1.8469 H   0  0  0  0  0  0  0  0  0  0  0  0
   -0.8259    3.1712    1.5254 C   0  0  0  0  0  0  0  0  0  0  0  0
   -1.8769    3.4302    1.6645 H   0  0  0  0  0  0  0  0  0  0  0  0
   -0.2598    3.4806    2.4054 H   0  0  0  0  0  0  0  0  0  0  0  0
   -0.4486    3.7020    0.6489 H   0  0  0  0  0  0  0  0  0  0  0  0
  5  6  2  0  0  0  0
  5  7  1  0  0  0  0
  2  3  1  0  0  0  0
  2  4  1  0  0  0  0
  2  5  1  0  0  0  0
  1  2  1  0  0  0  0
 26 27  2  0  0  0  0
 26 28  1  0  0  0  0
 24 25  1  0  0  0  0
 22 23  1  0  0  0  0
 22 24  2  0  0  0  0
 20 21  1  0  0  0  0
 19 20  1  0  0  0  0
 19 22  1  0  0  0  0
 17 18  1  0  0  0  0
 17 19  2  0  0  0  0
 15 16  1  0  0  0  0
 15 17  1  0  0  0  0
 14 15  2  0  0  0  0
 14 24  1  0  0  0  0
 11 12  1  0  0  0  0
 11 13  1  0  0  0  0
 11 14  1  0  0  0  0
  9 10  1  0  0  0  0
  9 11  1  0  0  0  0
  9 26  1  0  0  0  0
  7  8  1  0  0  0  0
  7  9  1  0  0  0  0
 30 31  1  0  0  0  0
 30 32  1  0  0  0  0
 30 33  1  0  0  0  0
 28 29  1  0  0  0  0
 28 30  1  0  0  0  0
M  END
$$$$
default_name
  -OEChem-02102213163D

 33 33  0     1  0  0  0  0  0999 V2000
   -4.0702   -3.8485    1.4554 H   0  0  0  0  0  0  0  0  0  0  0  0
   -4.0012   -2.9605    0.8284 C   0  0  0  0  0  0  0  0  0  0  0  0
   -4.7652   -2.2435    1.1234 H   0  0  0  0  0  0  0  0  0  0  0  0
   -4.1352   -3.2385   -0.2156 H   0  0  0  0  0  0  0  0  0  0  0  0
   -2.6362   -2.3395    1.0094 C   0  0  0  0  0  0  0  0  0  0  0  0
   -1.8292   -2.8395    1.7814 O   0  0  0  0  0  0  0  0  0  0  0  0
   -2.3832   -1.2445    0.2964 N   0  0  0  0  0  0  0  0  0  0  0  0
   -3.1102   -0.8685   -0.2946 H   0  0  0  0  0  0  0  0  0  0  0  0
   -1.1292   -0.4875    0.3524 C   0  0  1  0  0  0  0  0  0  0  0  0
   -0.5898   -0.7762    1.2552 H   0  0  0  0  0  0  0  0  0  0  0  0
   -0.2608   -0.8470   -0.8656 C   0  0  0  0  0  0  0  0  0  0  0  0
   -0.2794   -1.9284   -1.0072 H   0  0  0  0  0  0  0  0  0  0  0  0
   -0.6971   -0.3931   -1.7570 H   0  0  0  0  0  0  0  0  0  0  0  0
    1.1869   -0.4136   -0.7388 C   0  0  0  0  0  0  0  0  0  0  0  0
    1.5048    0.8748   -0.2640 C   0  0  0  0  0  0  0  0  0  0  0  0
    0.7140    1.5694   -0.0127 H   0  0  0  0  0  0  0  0  0  0  0  0
    2.8512    1.2583   -0.1097 C   0  0  0  0  0  0  0  0  0  0  0  0
    3.0910    2.2462    0.2526 H   0  0  0  0  0  0  0  0  0  0  0  0
    3.8830    0.3485   -0.4279 C   0  0  0  0  0  0  0  0  0  0  0  0
    5.1846    0.7078   -0.2797 O   0  0  0  0  0  0  0  0  0  0  0  0
    5.2795    1.6306   -0.0403 H   0  0  0  0  0  0  0  0  0  0  0  0
    3.5630   -0.9420   -0.8982 C   0  0  0  0  0  0  0  0  0  0  0  0
    4.3609   -1.6271   -1.1423 H   0  0  0  0  0  0  0  0  0  0  0  0
    2.2163   -1.3208   -1.0557 C   0  0  0  0  0  0  0  0  0  0  0  0
    1.9713   -2.3092   -1.4259 H   0  0  0  0  0  0  0  0  0  0  0  0
   -1.4018    1.0238    0.4329 C   0  0  0  0  0  0  0  0  0  0  0  0
   -2.2416    1.5423   -0.3033 O   0  0  0  0  0  0  0  0  0  0  0  0
   -0.6927    1.7304    1.3223 N   0  0  0  0  0  0  0  0  0  0  0  0
    0.0178    1.2410    1.8469 H   0  0  0  0  0  0  0  0  0  0  0  0
   -0.8259    3.1712    1.5254 C   0  0  0  0  0  0  0  0  0  0  0  0
   -1.8769    3.4302    1.6645 H   0  0  0  0  0  0  0  0  0  0  0  0
   -0.2598    3.4806    2.4054 H   0  0  0  0  0  0  0  0  0  0  0  0
   -0.4486    3.7020    0.6489 H   0  0  0  0  0  0  0  0  0  0  0  0
  5  6  2  0  0  0  0
  5  7  1  0  0  0  0
  2  3  1  0  0  0  0
  2  4  1  0  0  0  0
  2  5  1  0  0  0  0
  1  2  1  0  0  0  0
 26 27  2  0  0  0  0
 26 28  1  0  0  0  0
 24 25  1  0  0  0  0
 22 23  1  0  0  0  0
 22 24  2  0  0  0  0
 20 21  1  0  0  0  0
 19 20  1  0  0  0  0
 19 22  1  0  0  0  0
 17 18  1  0  0  0  0
 17 19  2  0  0  0  0
 15 16  1  0  0  0  0
 15 17  1  0  0  0  0
 14 15  2  0  0  0  0
 14 24  1  0  0  0  0
 11 12  1  0  0  0  0
 11 13  1  0  0  0  0
 11 14  1  0  0  0  0
  9 10  1  0  0  0  0
  9 11  1  0  0  0  0
  9 26  1  0  0  0  0
  7  8  1  0  0  0  0
  7  9  1  0  0  0  0
 30 31  1  0  0  0  0
 30 32  1  0  0  0  0
 30 33  1  0  0  0  0
 28 29  1  0  0  0  0
 28 30  1  0  0  0  0
M  END
$$$$
default_name
  -OEChem-02102213163D

 33 33  0     1  0  0  0  0  0999 V2000
   -4.0702   -3.8485    1.4554 H   0  0  0  0  0  0  0  0  0  0  0  0
   -4.0012   -2.9605    0.8284 C   0  0  0  0  0  0  0  0  0  0  0  0
   -4.7652   -2.2435    1.1234 H   0  0  0  0  0  0  0  0  0  0  0  0
   -4.1352   -3.2385   -0.2156 H   0  0  0  0  0  0  0  0  0  0  0  0
   -2.6362   -2.3395    1.0094 C   0  0  0  0  0  0  0  0  0  0  0  0
   -1.8292   -2.8395    1.7814 O   0  0  0  0  0  0  0  0  0  0  0  0
   -2.3832   -1.2445    0.2964 N   0  0  0  0  0  0  0  0  0  0  0  0
   -3.1102   -0.8685   -0.2946 H   0  0  0  0  0  0  0  0  0  0  0  0
   -1.1292   -0.4875    0.3524 C   0  0  1  0  0  0  0  0  0  0  0  0
   -0.5898   -0.7762    1.2552 H   0  0  0  0  0  0  0  0  0  0  0  0
   -0.2608   -0.8470   -0.8656 C   0  0  0  0  0  0  0  0  0  0  0  0
   -0.2794   -1.9284   -1.0072 H   0  0  0  0  0  0  0  0  0  0  0  0
   -0.6971   -0.3931   -1.7570 H   0  0  0  0  0  0  0  0  0  0  0  0
    1.1869   -0.4136   -0.7388 C   0  0  0  0  0  0  0  0  0  0  0  0
    1.5243    0.7274    0.0166 C   0  0  0  0  0  0  0  0  0  0  0  0
    0.7466    1.3139    0.4880 H   0  0  0  0  0  0  0  0  0  0  0  0
    2.8738    1.1026    0.1649 C   0  0  0  0  0  0  0  0  0  0  0  0
    3.1285    1.9777    0.7427 H   0  0  0  0  0  0  0  0  0  0  0  0
    3.8893    0.3315   -0.4416 C   0  0  0  0  0  0  0  0  0  0  0  0
    5.1939    0.6833   -0.3021 O   0  0  0  0  0  0  0  0  0  0  0  0
    5.2955    1.5213    0.1512 H   0  0  0  0  0  0  0  0  0  0  0  0
    3.5502   -0.8127   -1.1931 C   0  0  0  0  0  0  0  0  0  0  0  0
    4.3353   -1.3916   -1.6556 H   0  0  0  0  0  0  0  0  0  0  0  0
    2.2001   -1.1825   -1.3432 C   0  0  0  0  0  0  0  0  0  0  0  0
    1.9397   -2.0564   -1.9284 H   0  0  0  0  0  0  0  0  0  0  0  0
   -1.4018    1.0238    0.4329 C   0  0  0  0  0  0  0  0  0  0  0  0
   -2.2416    1.5423   -0.3033 O   0  0  0  0  0  0  0  0  0  0  0  0
   -0.6927    1.7304    1.3223 N   0  0  0  0  0  0  0  0  0  0  0  0
    0.0178    1.2410    1.8469 H   0  0  0  0  0  0  0  0  0  0  0  0
   -0.8259    3.1712    1.5254 C   0  0  0  0  0  0  0  0  0  0  0  0
   -1.8769    3.4302    1.6645 H   0  0  0  0  0  0  0  0  0  0  0  0
   -0.2598    3.4806    2.4054 H   0  0  0  0  0  0  0  0  0  0  0  0
   -0.4486    3.7020    0.6489 H   0  0  0  0  0  0  0  0  0  0  0  0
  5  6  2  0  0  0  0
  5  7  1  0  0  0  0
  2  3  1  0  0  0  0
  2  4  1  0  0  0  0
  2  5  1  0  0  0  0
  1  2  1  0  0  0  0
 26 27  2  0  0  0  0
 26 28  1  0  0  0  0
 24 25  1  0  0  0  0
 22 23  1  0  0  0  0
 22 24  2  0  0  0  0
 20 21  1  0  0  0  0
 19 20  1  0  0  0  0
 19 22  1  0  0  0  0
 17 18  1  0  0  0  0
 17 19  2  0  0  0  0
 15 16  1  0  0  0  0
 15 17  1  0  0  0  0
 14 15  2  0  0  0  0
 14 24  1  0  0  0  0
 11 12  1  0  0  0  0
 11 13  1  0  0  0  0
 11 14  1  0  0  0  0
  9 10  1  0  0  0  0
  9 11  1  0  0  0  0
  9 26  1  0  0  0  0
  7  8  1  0  0  0  0
  7  9  1  0  0  0  0
 30 31  1  0  0  0  0
 30 32  1  0  0  0  0
 30 33  1  0  0  0  0
 28 29  1  0  0  0  0
 28 30  1  0  0  0  0
M  END
$$$$
default_name
  -OEChem-02102213163D

 33 33  0     1  0  0  0  0  0999 V2000
   -4.0702   -3.8485    1.4554 H   0  0  0  0  0  0  0  0  0  0  0  0
   -4.0012   -2.9605    0.8284 C   0  0  0  0  0  0  0  0  0  0  0  0
   -4.7652   -2.2435    1.1234 H   0  0  0  0  0  0  0  0  0  0  0  0
   -4.1352   -3.2385   -0.2156 H   0  0  0  0  0  0  0  0  0  0  0  0
   -2.6362   -2.3395    1.0094 C   0  0  0  0  0  0  0  0  0  0  0  0
   -1.8292   -2.8395    1.7814 O   0  0  0  0  0  0  0  0  0  0  0  0
   -2.3832   -1.2445    0.2964 N   0  0  0  0  0  0  0  0  0  0  0  0
   -3.1102   -0.8685   -0.2946 H   0  0  0  0  0  0  0  0  0  0  0  0
   -1.1292   -0.4875    0.3524 C   0  0  1  0  0  0  0  0  0  0  0  0
   -0.5898   -0.7762    1.2552 H   0  0  0  0  0  0  0  0  0  0  0  0
   -0.2608   -0.8470   -0.8656 C   0  0  0  0  0  0  0  0  0  0  0  0
   -0.2794   -1.9284   -1.0072 H   0  0  0  0  0  0  0  0  0  0  0  0
   -0.6971   -0.3931   -1.7570 H   0  0  0  0  0  0  0  0  0  0  0  0
    1.1869   -0.4136   -0.7388 C   0  0  0  0  0  0  0  0  0  0  0  0
    1.5672    0.5161    0.2499 C   0  0  0  0  0  0  0  0  0  0  0  0
    0.8207    0.9441    0.9061 H   0  0  0  0  0  0  0  0  0  0  0  0
    2.9193    0.8848    0.3899 C   0  0  0  0  0  0  0  0  0  0  0  0
    3.2067    1.5981    1.1470 H   0  0  0  0  0  0  0  0  0  0  0  0
    3.8948    0.3186   -0.4595 C   0  0  0  0  0  0  0  0  0  0  0  0
    5.2017    0.6654   -0.3305 O   0  0  0  0  0  0  0  0  0  0  0  0
    5.3274    1.3687    0.3079 H   0  0  0  0  0  0  0  0  0  0  0  0
    3.5131   -0.6152   -1.4450 C   0  0  0  0  0  0  0  0  0  0  0  0
    4.2676   -1.0378   -2.0913 H   0  0  0  0  0  0  0  0  0  0  0  0
    2.1602   -0.9782   -1.5856 C   0  0  0  0  0  0  0  0  0  0  0  0
    1.8664   -1.6887   -2.3490 H   0  0  0  0  0  0  0  0  0  0  0  0
   -1.4018    1.0238    0.4329 C   0  0  0  0  0  0  0  0  0  0  0  0
   -2.2416    1.5423   -0.3033 O   0  0  0  0  0  0  0  0  0  0  0  0
   -0.6927    1.7304    1.3223 N   0  0  0  0  0  0  0  0  0  0  0  0
    0.0178    1.2410    1.8469 H   0  0  0  0  0  0  0  0  0  0  0  0
   -0.8259    3.1712    1.5254 C   0  0  0  0  0  0  0  0  0  0  0  0
   -1.8769    3.4302    1.6645 H   0  0  0  0  0  0  0  0  0  0  0  0
   -0.2598    3.4806    2.4054 H   0  0  0  0  0  0  0  0  0  0  0  0
   -0.4486    3.7020    0.6489 H   0  0  0  0  0  0  0  0  0  0  0  0
  5  6  2  0  0  0  0
  5  7  1  0  0  0  0
  2  3  1  0  0  0  0
  2  4  1  0  0  0  0
  2  5  1  0  0  0  0
  1  2  1  0  0  0  0
 26 27  2  0  0  0  0
 26 28  1  0  0  0  0
 24 25  1  0  0  0  0
 22 23  1  0  0  0  0
 22 24  2  0  0  0  0
 20 21  1  0  0  0  0
 19 20  1  0  0  0  0
 19 22  1  0  0  0  0
 17 18  1  0  0  0  0
 17 19  2  0  0  0  0
 15 16  1  0  0  0  0
 15 17  1  0  0  0  0
 14 15  2  0  0  0  0
 14 24  1  0  0  0  0
 11 12  1  0  0  0  0
 11 13  1  0  0  0  0
 11 14  1  0  0  0  0
  9 10  1  0  0  0  0
  9 11  1  0  0  0  0
  9 26  1  0  0  0  0
  7  8  1  0  0  0  0
  7  9  1  0  0  0  0
 30 31  1  0  0  0  0
 30 32  1  0  0  0  0
 30 33  1  0  0  0  0
 28 29  1  0  0  0  0
 28 30  1  0  0  0  0
M  END
$$$$
default_name
  -OEChem-02102213163D

 33 33  0     1  0  0  0  0  0999 V2000
   -4.0702   -3.8485    1.4554 H   0  0  0  0  0  0  0  0  0  0  0  0
   -4.0012   -2.9605    0.8284 C   0  0  0  0  0  0  0  0  0  0  0  0
   -4.7652   -2.2435    1.1234 H   0  0  0  0  0  0  0  0  0  0  0  0
   -4.1352   -3.2385   -0.2156 H   0  0  0  0  0  0  0  0  0  0  0  0
   -2.6362   -2.3395    1.0094 C   0  0  0  0  0  0  0  0  0  0  0  0
   -1.8292   -2.8395    1.7814 O   0  0  0  0  0  0  0  0  0  0  0  0
   -2.3832   -1.2445    0.2964 N   0  0  0  0  0  0  0  0  0  0  0  0
   -3.1102   -0.8685   -0.2946 H   0  0  0  0  0  0  0  0  0  0  0  0
   -1.1292   -0.4875    0.3524 C   0  0  1  0  0  0  0  0  0  0  0  0
   -0.5898   -0.7762    1.2552 H   0  0  0  0  0  0  0  0  0  0  0  0
   -0.2608   -0.8470   -0.8656 C   0  0  0  0  0  0  0  0  0  0  0  0
   -0.2794   -1.9284   -1.0072 H   0  0  0  0  0  0  0  0  0  0  0  0
   -0.6971   -0.3931   -1.7570 H   0  0  0  0  0  0  0  0  0  0  0  0
    1.1869   -0.4136   -0.7388 C   0  0  0  0  0  0  0  0  0  0  0  0
    1.6304    0.2553    0.4198 C   0  0  0  0  0  0  0  0  0  0  0  0
    0.9312    0.4853    1.2131 H   0  0  0  0  0  0  0  0  0  0  0  0
    2.9846    0.6198    0.5502 C   0  0  0  0  0  0  0  0  0  0  0  0
    3.3204    1.1332    1.4380 H   0  0  0  0  0  0  0  0  0  0  0  0
    3.8990    0.3107   -0.4804 C   0  0  0  0  0  0  0  0  0  0  0  0
    5.2076    0.6553   -0.3629 O   0  0  0  0  0  0  0  0  0  0  0  0
    5.3732    1.1832    0.4193 H   0  0  0  0  0  0  0  0  0  0  0  0
    3.4544   -0.3630   -1.6369 C   0  0  0  0  0  0  0  0  0  0  0  0
    4.1622   -0.5899   -2.4198 H   0  0  0  0  0  0  0  0  0  0  0  0
    2.0992   -0.7219   -1.7662 C   0  0  0  0  0  0  0  0  0  0  0  0
    1.7566   -1.2313   -2.6591 H   0  0  0  0  0  0  0  0  0  0  0  0
   -1.4018    1.0238    0.4329 C   0  0  0  0  0  0  0  0  0  0  0  0
   -2.2416    1.5423   -0.3033 O   0  0  0  0  0  0  0  0  0  0  0  0
   -0.6927    1.7304    1.3223 N   0  0  0  0  0  0  0  0  0  0  0  0
    0.0178    1.2410    1.8469 H   0  0  0  0  0  0  0  0  0  0  0  0
   -0.8259    3.1712    1.5254 C   0  0  0  0  0  0  0  0  0  0  0  0
   -1.8769    3.4302    1.6645 H   0  0  0  0  0  0  0  0  0  0  0  0
   -0.2598    3.4806    2.4054 H   0  0  0  0  0  0  0  0  0  0  0  0
   -0.4486    3.7020    0.6489 H   0  0  0  0  0  0  0  0  0  0  0  0
  5  6  2  0  0  0  0
  5  7  1  0  0  0  0
  2  3  1  0  0  0  0
  2  4  1  0  0  0  0
  2  5  1  0  0  0  0
  1  2  1  0  0  0  0
 26 27  2  0  0  0  0
 26 28  1  0  0  0  0
 24 25  1  0  0  0  0
 22 23  1  0  0  0  0
 22 24  2  0  0  0  0
 20 21  1  0  0  0  0
 19 20  1  0  0  0  0
 19 22  1  0  0  0  0
 17 18  1  0  0  0  0
 17 19  2  0  0  0  0
 15 16  1  0  0  0  0
 15 17  1  0  0  0  0
 14 15  2  0  0  0  0
 14 24  1  0  0  0  0
 11 12  1  0  0  0  0
 11 13  1  0  0  0  0
 11 14  1  0  0  0  0
  9 10  1  0  0  0  0
  9 11  1  0  0  0  0
  9 26  1  0  0  0  0
  7  8  1  0  0  0  0
  7  9  1  0  0  0  0
 30 31  1  0  0  0  0
 30 32  1  0  0  0  0
 30 33  1  0  0  0  0
 28 29  1  0  0  0  0
 28 30  1  0  0  0  0
M  END
$$$$
default_name
  -OEChem-02102213163D

 33 33  0     1  0  0  0  0  0999 V2000
   -4.0702   -3.8485    1.4554 H   0  0  0  0  0  0  0  0  0  0  0  0
   -4.0012   -2.9605    0.8284 C   0  0  0  0  0  0  0  0  0  0  0  0
   -4.7652   -2.2435    1.1234 H   0  0  0  0  0  0  0  0  0  0  0  0
   -4.1352   -3.2385   -0.2156 H   0  0  0  0  0  0  0  0  0  0  0  0
   -2.6362   -2.3395    1.0094 C   0  0  0  0  0  0  0  0  0  0  0  0
   -1.8292   -2.8395    1.7814 O   0  0  0  0  0  0  0  0  0  0  0  0
   -2.3832   -1.2445    0.2964 N   0  0  0  0  0  0  0  0  0  0  0  0
   -3.1102   -0.8685   -0.2946 H   0  0  0  0  0  0  0  0  0  0  0  0
   -1.1292   -0.4875    0.3524 C   0  0  1  0  0  0  0  0  0  0  0  0
   -0.5898   -0.7762    1.2552 H   0  0  0  0  0  0  0  0  0  0  0  0
   -0.2608   -0.8470   -0.8656 C   0  0  0  0  0  0  0  0  0  0  0  0
   -0.2794   -1.9284   -1.0072 H   0  0  0  0  0  0  0  0  0  0  0  0
   -0.6971   -0.3931   -1.7570 H   0  0  0  0  0  0  0  0  0  0  0  0
    1.1869   -0.4136   -0.7388 C   0  0  0  0  0  0  0  0  0  0  0  0
    1.7096   -0.0372    0.5148 C   0  0  0  0  0  0  0  0  0  0  0  0
    1.0706   -0.0314    1.3881 H   0  0  0  0  0  0  0  0  0  0  0  0
    3.0653    0.3256    0.6346 C   0  0  0  0  0  0  0  0  0  0  0  0
    3.4618    0.6148    1.5957 H   0  0  0  0  0  0  0  0  0  0  0  0
    3.9016    0.3083   -0.5028 C   0  0  0  0  0  0  0  0  0  0  0  0
    5.2111    0.6537   -0.3972 O   0  0  0  0  0  0  0  0  0  0  0  0
    5.4296    0.9776    0.4776 H   0  0  0  0  0  0  0  0  0  0  0  0
    3.3780   -0.0733   -1.7555 C   0  0  0  0  0  0  0  0  0  0  0  0
    4.0265   -0.0783   -2.6187 H   0  0  0  0  0  0  0  0  0  0  0  0
    2.0215   -0.4310   -1.8729 C   0  0  0  0  0  0  0  0  0  0  0  0
    1.6177   -0.7151   -2.8374 H   0  0  0  0  0  0  0  0  0  0  0  0
   -1.4018    1.0238    0.4329 C   0  0  0  0  0  0  0  0  0  0  0  0
   -2.2416    1.5423   -0.3033 O   0  0  0  0  0  0  0  0  0  0  0  0
   -0.6927    1.7304    1.3223 N   0  0  0  0  0  0  0  0  0  0  0  0
    0.0178    1.2410    1.8469 H   0  0  0  0  0  0  0  0  0  0  0  0
   -0.8259    3.1712    1.5254 C   0  0  0  0  0  0  0  0  0  0  0  0
   -1.8769    3.4302    1.6645 H   0  0  0  0  0  0  0  0  0  0  0  0
   -0.2598    3.4806    2.4054 H   0  0  0  0  0  0  0  0  0  0  0  0
   -0.4486    3.7020    0.6489 H   0  0  0  0  0  0  0  0  0  0  0  0
  5  6  2  0  0  0  0
  5  7  1  0  0  0  0
  2  3  1  0  0  0  0
  2  4  1  0  0  0  0
  2  5  1  0  0  0  0
  1  2  1  0  0  0  0
 26 27  2  0  0  0  0
 26 28  1  0  0  0  0
 24 25  1  0  0  0  0
 22 23  1  0  0  0  0
 22 24  2  0  0  0  0
 20 21  1  0  0  0  0
 19 20  1  0  0  0  0
 19 22  1  0  0  0  0
 17 18  1  0  0  0  0
 17 19  2  0  0  0  0
 15 16  1  0  0  0  0
 15 17  1  0  0  0  0
 14 15  2  0  0  0  0
 14 24  1  0  0  0  0
 11 12  1  0  0  0  0
 11 13  1  0  0  0  0
 11 14  1  0  0  0  0
  9 10  1  0  0  0  0
  9 11  1  0  0  0  0
  9 26  1  0  0  0  0
  7  8  1  0  0  0  0
  7  9  1  0  0  0  0
 30 31  1  0  0  0  0
 30 32  1  0  0  0  0
 30 33  1  0  0  0  0
 28 29  1  0  0  0  0
 28 30  1  0  0  0  0
M  END
$$$$
default_name
  -OEChem-02102213163D

 33 33  0     1  0  0  0  0  0999 V2000
   -4.0702   -3.8485    1.4554 H   0  0  0  0  0  0  0  0  0  0  0  0
   -4.0012   -2.9605    0.8284 C   0  0  0  0  0  0  0  0  0  0  0  0
   -4.7652   -2.2435    1.1234 H   0  0  0  0  0  0  0  0  0  0  0  0
   -4.1352   -3.2385   -0.2156 H   0  0  0  0  0  0  0  0  0  0  0  0
   -2.6362   -2.3395    1.0094 C   0  0  0  0  0  0  0  0  0  0  0  0
   -1.8292   -2.8395    1.7814 O   0  0  0  0  0  0  0  0  0  0  0  0
   -2.3832   -1.2445    0.2964 N   0  0  0  0  0  0  0  0  0  0  0  0
   -3.1102   -0.8685   -0.2946 H   0  0  0  0  0  0  0  0  0  0  0  0
   -1.1292   -0.4875    0.3524 C   0  0  1  0  0  0  0  0  0  0  0  0
   -0.5898   -0.7762    1.2552 H   0  0  0  0  0  0  0  0  0  0  0  0
   -0.2608   -0.8470   -0.8656 C   0  0  0  0  0  0  0  0  0  0  0  0
   -0.2794   -1.9284   -1.0072 H   0  0  0  0  0  0  0  0  0  0  0  0
   -0.6971   -0.3931   -1.7570 H   0  0  0  0  0  0  0  0  0  0  0  0
    1.1869   -0.4136   -0.7388 C   0  0  0  0  0  0  0  0  0  0  0  0
    1.7995   -0.3415    0.5284 C   0  0  0  0  0  0  0  0  0  0  0  0
    1.2294   -0.5708    1.4191 H   0  0  0  0  0  0  0  0  0  0  0  0
    3.1558    0.0224    0.6375 C   0  0  0  0  0  0  0  0  0  0  0  0
    3.6213    0.0781    1.6096 H   0  0  0  0  0  0  0  0  0  0  0  0
    3.9026    0.3116   -0.5253 C   0  0  0  0  0  0  0  0  0  0  0  0
    5.2120    0.6606   -0.4309 O   0  0  0  0  0  0  0  0  0  0  0  0
    5.4929    0.7657    0.4790 H   0  0  0  0  0  0  0  0  0  0  0  0
    3.2892    0.2342   -1.7929 C   0  0  0  0  0  0  0  0  0  0  0  0
    3.8696    0.4620   -2.6743 H   0  0  0  0  0  0  0  0  0  0  0  0
    1.9322   -0.1254   -1.8983 C   0  0  0  0  0  0  0  0  0  0  0  0
    1.4592   -0.1756   -2.8718 H   0  0  0  0  0  0  0  0  0  0  0  0
   -1.4018    1.0238    0.4329 C   0  0  0  0  0  0  0  0  0  0  0  0
   -2.2416    1.5423   -0.3033 O   0  0  0  0  0  0  0  0  0  0  0  0
   -0.6927    1.7304    1.3223 N   0  0  0  0  0  0  0  0  0  0  0  0
    0.0178    1.2410    1.8469 H   0  0  0  0  0  0  0  0  0  0  0  0
   -0.8259    3.1712    1.5254 C   0  0  0  0  0  0  0  0  0  0  0  0
   -1.8769    3.4302    1.6645 H   0  0  0  0  0  0  0  0  0  0  0  0
   -0.2598    3.4806    2.4054 H   0  0  0  0  0  0  0  0  0  0  0  0
   -0.4486    3.7020    0.6489 H   0  0  0  0  0  0  0  0  0  0  0  0
  5  6  2  0  0  0  0
  5  7  1  0  0  0  0
  2  3  1  0  0  0  0
  2  4  1  0  0  0  0
  2  5  1  0  0  0  0
  1  2  1  0  0  0  0
 26 27  2  0  0  0  0
 26 28  1  0  0  0  0
 24 25  1  0  0  0  0
 22 23  1  0  0  0  0
 22 24  2  0  0  0  0
 20 21  1  0  0  0  0
 19 20  1  0  0  0  0
 19 22  1  0  0  0  0
 17 18  1  0  0  0  0
 17 19  2  0  0  0  0
 15 16  1  0  0  0  0
 15 17  1  0  0  0  0
 14 15  2  0  0  0  0
 14 24  1  0  0  0  0
 11 12  1  0  0  0  0
 11 13  1  0  0  0  0
 11 14  1  0  0  0  0
  9 10  1  0  0  0  0
  9 11  1  0  0  0  0
  9 26  1  0  0  0  0
  7  8  1  0  0  0  0
  7  9  1  0  0  0  0
 30 31  1  0  0  0  0
 30 32  1  0  0  0  0
 30 33  1  0  0  0  0
 28 29  1  0  0  0  0
 28 30  1  0  0  0  0
M  END
$$$$
default_name
  -OEChem-02102213163D

 33 33  0     1  0  0  0  0  0999 V2000
   -4.0702   -3.8485    1.4554 H   0  0  0  0  0  0  0  0  0  0  0  0
   -4.0012   -2.9605    0.8284 C   0  0  0  0  0  0  0  0  0  0  0  0
   -4.7652   -2.2435    1.1234 H   0  0  0  0  0  0  0  0  0  0  0  0
   -4.1352   -3.2385   -0.2156 H   0  0  0  0  0  0  0  0  0  0  0  0
   -2.6362   -2.3395    1.0094 C   0  0  0  0  0  0  0  0  0  0  0  0
   -1.8292   -2.8395    1.7814 O   0  0  0  0  0  0  0  0  0  0  0  0
   -2.3832   -1.2445    0.2964 N   0  0  0  0  0  0  0  0  0  0  0  0
   -3.1102   -0.8685   -0.2946 H   0  0  0  0  0  0  0  0  0  0  0  0
   -1.1292   -0.4875    0.3524 C   0  0  1  0  0  0  0  0  0  0  0  0
   -0.5898   -0.7762    1.2552 H   0  0  0  0  0  0  0  0  0  0  0  0
   -0.2608   -0.8470   -0.8656 C   0  0  0  0  0  0  0  0  0  0  0  0
   -0.2794   -1.9284   -1.0072 H   0  0  0  0  0  0  0  0  0  0  0  0
   -0.6971   -0.3931   -1.7570 H   0  0  0  0  0  0  0  0  0  0  0  0
    1.1869   -0.4136   -0.7388 C   0  0  0  0  0  0  0  0  0  0  0  0
    1.8940   -0.6369    0.4597 C   0  0  0  0  0  0  0  0  0  0  0  0
    1.3967   -1.0959    1.3041 H   0  0  0  0  0  0  0  0  0  0  0  0
    3.2500   -0.2693    0.5587 C   0  0  0  0  0  0  0  0  0  0  0  0
    3.7880   -0.4403    1.4785 H   0  0  0  0  0  0  0  0  0  0  0  0
    3.9018    0.3203   -0.5463 C   0  0  0  0  0  0  0  0  0  0  0  0
    5.2102    0.6757   -0.4618 O   0  0  0  0  0  0  0  0  0  0  0  0
    5.5588    0.5621    0.4233 H   0  0  0  0  0  0  0  0  0  0  0  0
    3.1941    0.5386   -1.7464 C   0  0  0  0  0  0  0  0  0  0  0  0
    3.7023    0.9942   -2.5829 H   0  0  0  0  0  0  0  0  0  0  0  0
    1.8375    0.1742   -1.8408 C   0  0  0  0  0  0  0  0  0  0  0  0
    1.2918    0.3507   -2.7601 H   0  0  0  0  0  0  0  0  0  0  0  0
   -1.4018    1.0238    0.4329 C   0  0  0  0  0  0  0  0  0  0  0  0
   -2.2416    1.5423   -0.3033 O   0  0  0  0  0  0  0  0  0  0  0  0
   -0.6927    1.7304    1.3223 N   0  0  0  0  0  0  0  0  0  0  0  0
    0.0178    1.2410    1.8469 H   0  0  0  0  0  0  0  0  0  0  0  0
   -0.8259    3.1712    1.5254 C   0  0  0  0  0  0  0  0  0  0  0  0
   -1.8769    3.4302    1.6645 H   0  0  0  0  0  0  0  0  0  0  0  0
   -0.2598    3.4806    2.4054 H   0  0  0  0  0  0  0  0  0  0  0  0
   -0.4486    3.7020    0.6489 H   0  0  0  0  0  0  0  0  0  0  0  0
  5  6  2  0  0  0  0
  5  7  1  0  0  0  0
  2  3  1  0  0  0  0
  2  4  1  0  0  0  0
  2  5  1  0  0  0  0
  1  2  1  0  0  0  0
 26 27  2  0  0  0  0
 26 28  1  0  0  0  0
 24 25  1  0  0  0  0
 22 23  1  0  0  0  0
 22 24  2  0  0  0  0
 20 21  1  0  0  0  0
 19 20  1  0  0  0  0
 19 22  1  0  0  0  0
 17 18  1  0  0  0  0
 17 19  2  0  0  0  0
 15 16  1  0  0  0  0
 15 17  1  0  0  0  0
 14 15  2  0  0  0  0
 14 24  1  0  0  0  0
 11 12  1  0  0  0  0
 11 13  1  0  0  0  0
 11 14  1  0  0  0  0
  9 10  1  0  0  0  0
  9 11  1  0  0  0  0
  9 26  1  0  0  0  0
  7  8  1  0  0  0  0
  7  9  1  0  0  0  0
 30 31  1  0  0  0  0
 30 32  1  0  0  0  0
 30 33  1  0  0  0  0
 28 29  1  0  0  0  0
 28 30  1  0  0  0  0
M  END
$$$$
default_name
  -OEChem-02102213163D

 33 33  0     1  0  0  0  0  0999 V2000
   -4.0702   -3.8485    1.4554 H   0  0  0  0  0  0  0  0  0  0  0  0
   -4.0012   -2.9605    0.8284 C   0  0  0  0  0  0  0  0  0  0  0  0
   -4.7652   -2.2435    1.1234 H   0  0  0  0  0  0  0  0  0  0  0  0
   -4.1352   -3.2385   -0.2156 H   0  0  0  0  0  0  0  0  0  0  0  0
   -2.6362   -2.3395    1.0094 C   0  0  0  0  0  0  0  0  0  0  0  0
   -1.8292   -2.8395    1.7814 O   0  0  0  0  0  0  0  0  0  0  0  0
   -2.3832   -1.2445    0.2964 N   0  0  0  0  0  0  0  0  0  0  0  0
   -3.1102   -0.8685   -0.2946 H   0  0  0  0  0  0  0  0  0  0  0  0
   -1.1292   -0.4875    0.3524 C   0  0  1  0  0  0  0  0  0  0  0  0
   -0.5898   -0.7762    1.2552 H   0  0  0  0  0  0  0  0  0  0  0  0
   -0.2608   -0.8470   -0.8656 C   0  0  0  0  0  0  0  0  0  0  0  0
   -0.2794   -1.9284   -1.0072 H   0  0  0  0  0  0  0  0  0  0  0  0
   -0.6971   -0.3931   -1.7570 H   0  0  0  0  0  0  0  0  0  0  0  0
    1.1869   -0.4136   -0.7388 C   0  0  0  0  0  0  0  0  0  0  0  0
    1.9865   -0.9032    0.3134 C   0  0  0  0  0  0  0  0  0  0  0  0
    1.5611   -1.5712    1.0509 H   0  0  0  0  0  0  0  0  0  0  0  0
    3.3415   -0.5295    0.4036 C   0  0  0  0  0  0  0  0  0  0  0  0
    3.9505   -0.9051    1.2115 H   0  0  0  0  0  0  0  0  0  0  0  0
    3.8993    0.3340   -0.5643 C   0  0  0  0  0  0  0  0  0  0  0  0
    5.2058    0.6979   -0.4878 O   0  0  0  0  0  0  0  0  0  0  0  0
    5.6226    0.3807    0.3144 H   0  0  0  0  0  0  0  0  0  0  0  0
    3.0990    0.8190   -1.6193 C   0  0  0  0  0  0  0  0  0  0  0  0
    3.5358    1.4821   -2.3508 H   0  0  0  0  0  0  0  0  0  0  0  0
    1.7437    0.4474   -1.7041 C   0  0  0  0  0  0  0  0  0  0  0  0
    1.1271    0.8278   -2.5097 H   0  0  0  0  0  0  0  0  0  0  0  0
   -1.4018    1.0238    0.4329 C   0  0  0  0  0  0  0  0  0  0  0  0
   -2.2416    1.5423   -0.3033 O   0  0  0  0  0  0  0  0  0  0  0  0
   -0.6927    1.7304    1.3223 N   0  0  0  0  0  0  0  0  0  0  0  0
    0.0178    1.2410    1.8469 H   0  0  0  0  0  0  0  0  0  0  0  0
   -0.8259    3.1712    1.5254 C   0  0  0  0  0  0  0  0  0  0  0  0
   -1.8769    3.4302    1.6645 H   0  0  0  0  0  0  0  0  0  0  0  0
   -0.2598    3.4806    2.4054 H   0  0  0  0  0  0  0  0  0  0  0  0
   -0.4486    3.7020    0.6489 H   0  0  0  0  0  0  0  0  0  0  0  0
  5  6  2  0  0  0  0
  5  7  1  0  0  0  0
  2  3  1  0  0  0  0
  2  4  1  0  0  0  0
  2  5  1  0  0  0  0
  1  2  1  0  0  0  0
 26 27  2  0  0  0  0
 26 28  1  0  0  0  0
 24 25  1  0  0  0  0
 22 23  1  0  0  0  0
 22 24  2  0  0  0  0
 20 21  1  0  0  0  0
 19 20  1  0  0  0  0
 19 22  1  0  0  0  0
 17 18  1  0  0  0  0
 17 19  2  0  0  0  0
 15 16  1  0  0  0  0
 15 17  1  0  0  0  0
 14 15  2  0  0  0  0
 14 24  1  0  0  0  0
 11 12  1  0  0  0  0
 11 13  1  0  0  0  0
 11 14  1  0  0  0  0
  9 10  1  0  0  0  0
  9 11  1  0  0  0  0
  9 26  1  0  0  0  0
  7  8  1  0  0  0  0
  7  9  1  0  0  0  0
 30 31  1  0  0  0  0
 30 32  1  0  0  0  0
 30 33  1  0  0  0  0
 28 29  1  0  0  0  0
 28 30  1  0  0  0  0
M  END
$$$$
default_name
  -OEChem-02102213163D

 33 33  0     1  0  0  0  0  0999 V2000
   -4.0702   -3.8485    1.4554 H   0  0  0  0  0  0  0  0  0  0  0  0
   -4.0012   -2.9605    0.8284 C   0  0  0  0  0  0  0  0  0  0  0  0
   -4.7652   -2.2435    1.1234 H   0  0  0  0  0  0  0  0  0  0  0  0
   -4.1352   -3.2385   -0.2156 H   0  0  0  0  0  0  0  0  0  0  0  0
   -2.6362   -2.3395    1.0094 C   0  0  0  0  0  0  0  0  0  0  0  0
   -1.8292   -2.8395    1.7814 O   0  0  0  0  0  0  0  0  0  0  0  0
   -2.3832   -1.2445    0.2964 N   0  0  0  0  0  0  0  0  0  0  0  0
   -3.1102   -0.8685   -0.2946 H   0  0  0  0  0  0  0  0  0  0  0  0
   -1.1292   -0.4875    0.3524 C   0  0  1  0  0  0  0  0  0  0  0  0
   -0.5898   -0.7762    1.2552 H   0  0  0  0  0  0  0  0  0  0  0  0
   -0.2608   -0.8470   -0.8656 C   0  0  0  0  0  0  0  0  0  0  0  0
   -0.2794   -1.9284   -1.0072 H   0  0  0  0  0  0  0  0  0  0  0  0
   -0.6971   -0.3931   -1.7570 H   0  0  0  0  0  0  0  0  0  0  0  0
    1.1869   -0.4136   -0.7388 C   0  0  0  0  0  0  0  0  0  0  0  0
    2.0708   -1.1222    0.0995 C   0  0  0  0  0  0  0  0  0  0  0  0
    1.7115   -1.9641    0.6767 H   0  0  0  0  0  0  0  0  0  0  0  0
    3.4240   -0.7405    0.1827 C   0  0  0  0  0  0  0  0  0  0  0  0
    4.0978   -1.2845    0.8268 H   0  0  0  0  0  0  0  0  0  0  0  0
    3.8953    0.3515   -0.5782 C   0  0  0  0  0  0  0  0  0  0  0  0
    5.1992    0.7257   -0.5072 O   0  0  0  0  0  0  0  0  0  0  0  0
    5.6802    0.2337    0.1596 H   0  0  0  0  0  0  0  0  0  0  0  0
    3.0104    1.0565   -1.4202 C   0  0  0  0  0  0  0  0  0  0  0  0
    3.3817    1.8924   -1.9937 H   0  0  0  0  0  0  0  0  0  0  0  0
    1.6574    0.6754   -1.4977 C   0  0  0  0  0  0  0  0  0  0  0  0
    0.9761    1.2232   -2.1378 H   0  0  0  0  0  0  0  0  0  0  0  0
   -1.4018    1.0238    0.4329 C   0  0  0  0  0  0  0  0  0  0  0  0
   -2.2416    1.5423   -0.3033 O   0  0  0  0  0  0  0  0  0  0  0  0
   -0.6927    1.7304    1.3223 N   0  0  0  0  0  0  0  0  0  0  0  0
    0.0178    1.2410    1.8469 H   0  0  0  0  0  0  0  0  0  0  0  0
   -0.8259    3.1712    1.5254 C   0  0  0  0  0  0  0  0  0  0  0  0
   -1.8769    3.4302    1.6645 H   0  0  0  0  0  0  0  0  0  0  0  0
   -0.2598    3.4806    2.4054 H   0  0  0  0  0  0  0  0  0  0  0  0
   -0.4486    3.7020    0.6489 H   0  0  0  0  0  0  0  0  0  0  0  0
  5  6  2  0  0  0  0
  5  7  1  0  0  0  0
  2  3  1  0  0  0  0
  2  4  1  0  0  0  0
  2  5  1  0  0  0  0
  1  2  1  0  0  0  0
 26 27  2  0  0  0  0
 26 28  1  0  0  0  0
 24 25  1  0  0  0  0
 22 23  1  0  0  0  0
 22 24  2  0  0  0  0
 20 21  1  0  0  0  0
 19 20  1  0  0  0  0
 19 22  1  0  0  0  0
 17 18  1  0  0  0  0
 17 19  2  0  0  0  0
 15 16  1  0  0  0  0
 15 17  1  0  0  0  0
 14 15  2  0  0  0  0
 14 24  1  0  0  0  0
 11 12  1  0  0  0  0
 11 13  1  0  0  0  0
 11 14  1  0  0  0  0
  9 10  1  0  0  0  0
  9 11  1  0  0  0  0
  9 26  1  0  0  0  0
  7  8  1  0  0  0  0
  7  9  1  0  0  0  0
 30 31  1  0  0  0  0
 30 32  1  0  0  0  0
 30 33  1  0  0  0  0
 28 29  1  0  0  0  0
 28 30  1  0  0  0  0
M  END
$$$$
default_name
  -OEChem-02102213163D

 33 33  0     1  0  0  0  0  0999 V2000
   -4.0702   -3.8485    1.4554 H   0  0  0  0  0  0  0  0  0  0  0  0
   -4.0012   -2.9605    0.8284 C   0  0  0  0  0  0  0  0  0  0  0  0
   -4.7652   -2.2435    1.1234 H   0  0  0  0  0  0  0  0  0  0  0  0
   -4.1352   -3.2385   -0.2156 H   0  0  0  0  0  0  0  0  0  0  0  0
   -2.6362   -2.3395    1.0094 C   0  0  0  0  0  0  0  0  0  0  0  0
   -1.8292   -2.8395    1.7814 O   0  0  0  0  0  0  0  0  0  0  0  0
   -2.3832   -1.2445    0.2964 N   0  0  0  0  0  0  0  0  0  0  0  0
   -3.1102   -0.8685   -0.2946 H   0  0  0  0  0  0  0  0  0  0  0  0
   -1.1292   -0.4875    0.3524 C   0  0  1  0  0  0  0  0  0  0  0  0
   -0.5898   -0.7762    1.2552 H   0  0  0  0  0  0  0  0  0  0  0  0
   -0.2608   -0.8470   -0.8656 C   0  0  0  0  0  0  0  0  0  0  0  0
   -0.2794   -1.9284   -1.0072 H   0  0  0  0  0  0  0  0  0  0  0  0
   -0.6971   -0.3931   -1.7570 H   0  0  0  0  0  0  0  0  0  0  0  0
    1.1869   -0.4136   -0.7388 C   0  0  0  0  0  0  0  0  0  0  0  0
    2.1412   -1.2791   -0.1675 C   0  0  0  0  0  0  0  0  0  0  0  0
    1.8376   -2.2480    0.2071 H   0  0  0  0  0  0  0  0  0  0  0  0
    3.4920   -0.8880   -0.0889 C   0  0  0  0  0  0  0  0  0  0  0  0
    4.2198   -1.5527    0.3505 H   0  0  0  0  0  0  0  0  0  0  0  0
    3.8900    0.3718   -0.5869 C   0  0  0  0  0  0  0  0  0  0  0  0
    5.1908    0.7571   -0.5185 O   0  0  0  0  0  0  0  0  0  0  0  0
    5.7275    0.1312   -0.0305 H   0  0  0  0  0  0  0  0  0  0  0  0
    2.9345    1.2347   -1.1627 C   0  0  0  0  0  0  0  0  0  0  0  0
    3.2504    2.1972   -1.5360 H   0  0  0  0  0  0  0  0  0  0  0  0
    1.5843    0.8428   -1.2356 C   0  0  0  0  0  0  0  0  0  0  0  0
    0.8492    1.5100   -1.6697 H   0  0  0  0  0  0  0  0  0  0  0  0
   -1.4018    1.0238    0.4329 C   0  0  0  0  0  0  0  0  0  0  0  0
   -2.2416    1.5423   -0.3033 O   0  0  0  0  0  0  0  0  0  0  0  0
   -0.6927    1.7304    1.3223 N   0  0  0  0  0  0  0  0  0  0  0  0
    0.0178    1.2410    1.8469 H   0  0  0  0  0  0  0  0  0  0  0  0
   -0.8259    3.1712    1.5254 C   0  0  0  0  0  0  0  0  0  0  0  0
   -1.8769    3.4302    1.6645 H   0  0  0  0  0  0  0  0  0  0  0  0
   -0.2598    3.4806    2.4054 H   0  0  0  0  0  0  0  0  0  0  0  0
   -0.4486    3.7020    0.6489 H   0  0  0  0  0  0  0  0  0  0  0  0
  5  6  2  0  0  0  0
  5  7  1  0  0  0  0
  2  3  1  0  0  0  0
  2  4  1  0  0  0  0
  2  5  1  0  0  0  0
  1  2  1  0  0  0  0
 26 27  2  0  0  0  0
 26 28  1  0  0  0  0
 24 25  1  0  0  0  0
 22 23  1  0  0  0  0
 22 24  2  0  0  0  0
 20 21  1  0  0  0  0
 19 20  1  0  0  0  0
 19 22  1  0  0  0  0
 17 18  1  0  0  0  0
 17 19  2  0  0  0  0
 15 16  1  0  0  0  0
 15 17  1  0  0  0  0
 14 15  2  0  0  0  0
 14 24  1  0  0  0  0
 11 12  1  0  0  0  0
 11 13  1  0  0  0  0
 11 14  1  0  0  0  0
  9 10  1  0  0  0  0
  9 11  1  0  0  0  0
  9 26  1  0  0  0  0
  7  8  1  0  0  0  0
  7  9  1  0  0  0  0
 30 31  1  0  0  0  0
 30 32  1  0  0  0  0
 30 33  1  0  0  0  0
 28 29  1  0  0  0  0
 28 30  1  0  0  0  0
M  END
$$$$
default_name
  -OEChem-02102213163D

 33 33  0     1  0  0  0  0  0999 V2000
   -4.0702   -3.8485    1.4554 H   0  0  0  0  0  0  0  0  0  0  0  0
   -4.0012   -2.9605    0.8284 C   0  0  0  0  0  0  0  0  0  0  0  0
   -4.7652   -2.2435    1.1234 H   0  0  0  0  0  0  0  0  0  0  0  0
   -4.1352   -3.2385   -0.2156 H   0  0  0  0  0  0  0  0  0  0  0  0
   -2.6362   -2.3395    1.0094 C   0  0  0  0  0  0  0  0  0  0  0  0
   -1.8292   -2.8395    1.7814 O   0  0  0  0  0  0  0  0  0  0  0  0
   -2.3832   -1.2445    0.2964 N   0  0  0  0  0  0  0  0  0  0  0  0
   -3.1102   -0.8685   -0.2946 H   0  0  0  0  0  0  0  0  0  0  0  0
   -1.1292   -0.4875    0.3524 C   0  0  1  0  0  0  0  0  0  0  0  0
   -0.5898   -0.7762    1.2552 H   0  0  0  0  0  0  0  0  0  0  0  0
   -0.2608   -0.8470   -0.8656 C   0  0  0  0  0  0  0  0  0  0  0  0
   -0.2794   -1.9284   -1.0072 H   0  0  0  0  0  0  0  0  0  0  0  0
   -0.6971   -0.3931   -1.7570 H   0  0  0  0  0  0  0  0  0  0  0  0
    1.1869   -0.4136   -0.7388 C   0  0  0  0  0  0  0  0  0  0  0  0
    2.1928   -1.3632   -0.4694 C   0  0  0  0  0  0  0  0  0  0  0  0
    1.9308   -2.4033   -0.3260 H   0  0  0  0  0  0  0  0  0  0  0  0
    3.5407   -0.9619   -0.3928 C   0  0  0  0  0  0  0  0  0  0  0  0
    4.3082   -1.6915   -0.1848 H   0  0  0  0  0  0  0  0  0  0  0  0
    3.8838    0.3935   -0.5900 C   0  0  0  0  0  0  0  0  0  0  0  0
    5.1811    0.7901   -0.5210 O   0  0  0  0  0  0  0  0  0  0  0  0
    5.7614    0.0802   -0.2430 H   0  0  0  0  0  0  0  0  0  0  0  0
    2.8764    1.3416   -0.8643 C   0  0  0  0  0  0  0  0  0  0  0  0
    3.1508    2.3757   -1.0088 H   0  0  0  0  0  0  0  0  0  0  0  0
    1.5295    0.9381   -0.9357 C   0  0  0  0  0  0  0  0  0  0  0  0
    0.7551    1.6686   -1.1373 H   0  0  0  0  0  0  0  0  0  0  0  0
   -1.4018    1.0238    0.4329 C   0  0  0  0  0  0  0  0  0  0  0  0
   -2.2416    1.5423   -0.3033 O   0  0  0  0  0  0  0  0  0  0  0  0
   -0.6927    1.7304    1.3223 N   0  0  0  0  0  0  0  0  0  0  0  0
    0.0178    1.2410    1.8469 H   0  0  0  0  0  0  0  0  0  0  0  0
   -0.8259    3.1712    1.5254 C   0  0  0  0  0  0  0  0  0  0  0  0
   -1.8769    3.4302    1.6645 H   0  0  0  0  0  0  0  0  0  0  0  0
   -0.2598    3.4806    2.4054 H   0  0  0  0  0  0  0  0  0  0  0  0
   -0.4486    3.7020    0.6489 H   0  0  0  0  0  0  0  0  0  0  0  0
  5  6  2  0  0  0  0
  5  7  1  0  0  0  0
  2  3  1  0  0  0  0
  2  4  1  0  0  0  0
  2  5  1  0  0  0  0
  1  2  1  0  0  0  0
 26 27  2  0  0  0  0
 26 28  1  0  0  0  0
 24 25  1  0  0  0  0
 22 23  1  0  0  0  0
 22 24  2  0  0  0  0
 20 21  1  0  0  0  0
 19 20  1  0  0  0  0
 19 22  1  0  0  0  0
 17 18  1  0  0  0  0
 17 19  2  0  0  0  0
 15 16  1  0  0  0  0
 15 17  1  0  0  0  0
 14 15  2  0  0  0  0
 14 24  1  0  0  0  0
 11 12  1  0  0  0  0
 11 13  1  0  0  0  0
 11 14  1  0  0  0  0
  9 10  1  0  0  0  0
  9 11  1  0  0  0  0
  9 26  1  0  0  0  0
  7  8  1  0  0  0  0
  7  9  1  0  0  0  0
 30 31  1  0  0  0  0
 30 32  1  0  0  0  0
 30 33  1  0  0  0  0
 28 29  1  0  0  0  0
 28 30  1  0  0  0  0
M  END
$$$$
default_name
  -OEChem-02102213163D

 33 33  0     1  0  0  0  0  0999 V2000
   -4.0702   -3.8485    1.4554 H   0  0  0  0  0  0  0  0  0  0  0  0
   -4.0012   -2.9605    0.8284 C   0  0  0  0  0  0  0  0  0  0  0  0
   -4.7652   -2.2435    1.1234 H   0  0  0  0  0  0  0  0  0  0  0  0
   -4.1352   -3.2385   -0.2156 H   0  0  0  0  0  0  0  0  0  0  0  0
   -2.6362   -2.3395    1.0094 C   0  0  0  0  0  0  0  0  0  0  0  0
   -1.8292   -2.8395    1.7814 O   0  0  0  0  0  0  0  0  0  0  0  0
   -2.3832   -1.2445    0.2964 N   0  0  0  0  0  0  0  0  0  0  0  0
   -3.1102   -0.8685   -0.2946 H   0  0  0  0  0  0  0  0  0  0  0  0
   -1.1292   -0.4875    0.3524 C   0  0  1  0  0  0  0  0  0  0  0  0
   -0.5898   -0.7762    1.2552 H   0  0  0  0  0  0  0  0  0  0  0  0
   -0.2608   -0.8470   -0.8656 C   0  0  0  0  0  0  0  0  0  0  0  0
   -0.2794   -1.9284   -1.0072 H   0  0  0  0  0  0  0  0  0  0  0  0
   -0.6971   -0.3931   -1.7570 H   0  0  0  0  0  0  0  0  0  0  0  0
    1.1869   -0.4136   -0.7388 C   0  0  0  0  0  0  0  0  0  0  0  0
    2.2221   -1.3687   -0.7856 C   0  0  0  0  0  0  0  0  0  0  0  0
    1.9848   -2.4197   -0.8863 H   0  0  0  0  0  0  0  0  0  0  0  0
    3.5669   -0.9571   -0.7081 C   0  0  0  0  0  0  0  0  0  0  0  0
    4.3570   -1.6914   -0.7428 H   0  0  0  0  0  0  0  0  0  0  0  0
    3.8771    0.4150   -0.5871 C   0  0  0  0  0  0  0  0  0  0  0  0
    5.1709    0.8224   -0.5146 O   0  0  0  0  0  0  0  0  0  0  0  0
    5.7795    0.0842   -0.4633 H   0  0  0  0  0  0  0  0  0  0  0  0
    2.8400    1.3698   -0.5453 C   0  0  0  0  0  0  0  0  0  0  0  0
    3.0897    2.4157   -0.4482 H   0  0  0  0  0  0  0  0  0  0  0  0
    1.4967    0.9549   -0.6184 C   0  0  0  0  0  0  0  0  0  0  0  0
    0.7002    1.6883   -0.5769 H   0  0  0  0  0  0  0  0  0  0  0  0
   -1.4018    1.0238    0.4329 C   0  0  0  0  0  0  0  0  0  0  0  0
   -2.2416    1.5423   -0.3033 O   0  0  0  0  0  0  0  0  0  0  0  0
   -0.6927    1.7304    1.3223 N   0  0  0  0  0  0  0  0  0  0  0  0
    0.0178    1.2410    1.8469 H   0  0  0  0  0  0  0  0  0  0  0  0
   -0.8259    3.1712    1.5254 C   0  0  0  0  0  0  0  0  0  0  0  0
   -1.8769    3.4302    1.6645 H   0  0  0  0  0  0  0  0  0  0  0  0
   -0.2598    3.4806    2.4054 H   0  0  0  0  0  0  0  0  0  0  0  0
   -0.4486    3.7020    0.6489 H   0  0  0  0  0  0  0  0  0  0  0  0
  5  6  2  0  0  0  0
  5  7  1  0  0  0  0
  2  3  1  0  0  0  0
  2  4  1  0  0  0  0
  2  5  1  0  0  0  0
  1  2  1  0  0  0  0
 26 27  2  0  0  0  0
 26 28  1  0  0  0  0
 24 25  1  0  0  0  0
 22 23  1  0  0  0  0
 22 24  2  0  0  0  0
 20 21  1  0  0  0  0
 19 20  1  0  0  0  0
 19 22  1  0  0  0  0
 17 18  1  0  0  0  0
 17 19  2  0  0  0  0
 15 16  1  0  0  0  0
 15 17  1  0  0  0  0
 14 15  2  0  0  0  0
 14 24  1  0  0  0  0
 11 12  1  0  0  0  0
 11 13  1  0  0  0  0
 11 14  1  0  0  0  0
  9 10  1  0  0  0  0
  9 11  1  0  0  0  0
  9 26  1  0  0  0  0
  7  8  1  0  0  0  0
  7  9  1  0  0  0  0
 30 31  1  0  0  0  0
 30 32  1  0  0  0  0
 30 33  1  0  0  0  0
 28 29  1  0  0  0  0
 28 30  1  0  0  0  0
M  END
$$$$
default_name
  -OEChem-02102213163D

 33 33  0     1  0  0  0  0  0999 V2000
   -4.0702   -3.8485    1.4554 H   0  0  0  0  0  0  0  0  0  0  0  0
   -4.0012   -2.9605    0.8284 C   0  0  0  0  0  0  0  0  0  0  0  0
   -4.7652   -2.2435    1.1234 H   0  0  0  0  0  0  0  0  0  0  0  0
   -4.1352   -3.2385   -0.2156 H   0  0  0  0  0  0  0  0  0  0  0  0
   -2.6362   -2.3395    1.0094 C   0  0  0  0  0  0  0  0  0  0  0  0
   -1.8292   -2.8395    1.7814 O   0  0  0  0  0  0  0  0  0  0  0  0
   -2.3832   -1.2445    0.2964 N   0  0  0  0  0  0  0  0  0  0  0  0
   -3.1102   -0.8685   -0.2946 H   0  0  0  0  0  0  0  0  0  0  0  0
   -1.1292   -0.4875    0.3524 C   0  0  1  0  0  0  0  0  0  0  0  0
   -0.5898   -0.7762    1.2552 H   0  0  0  0  0  0  0  0  0  0  0  0
   -0.2608   -0.8470   -0.8656 C   0  0  0  0  0  0  0  0  0  0  0  0
   -0.2794   -1.9284   -1.0072 H   0  0  0  0  0  0  0  0  0  0  0  0
   -0.6971   -0.3931   -1.7570 H   0  0  0  0  0  0  0  0  0  0  0  0
    1.1869   -0.4136   -0.7388 C   0  0  0  0  0  0  0  0  0  0  0  0
    2.2272   -1.2952   -1.0946 C   0  0  0  0  0  0  0  0  0  0  0  0
    1.9958   -2.2959   -1.4354 H   0  0  0  0  0  0  0  0  0  0  0  0
    3.5688   -0.8740   -1.0135 C   0  0  0  0  0  0  0  0  0  0  0  0
    4.3629   -1.5523   -1.2853 H   0  0  0  0  0  0  0  0  0  0  0  0
    3.8704    0.4350   -0.5785 C   0  0  0  0  0  0  0  0  0  0  0  0
    5.1608    0.8517   -0.4997 O   0  0  0  0  0  0  0  0  0  0  0  0
    5.7806    0.1429   -0.6765 H   0  0  0  0  0  0  0  0  0  0  0  0
    2.8278    1.3175   -0.2276 C   0  0  0  0  0  0  0  0  0  0  0  0
    3.0714    2.3144    0.1077 H   0  0  0  0  0  0  0  0  0  0  0  0
    1.4881    0.8920   -0.3053 C   0  0  0  0  0  0  0  0  0  0  0  0
    0.6881    1.5676   -0.0267 H   0  0  0  0  0  0  0  0  0  0  0  0
   -1.4018    1.0238    0.4329 C   0  0  0  0  0  0  0  0  0  0  0  0
   -2.2416    1.5423   -0.3033 O   0  0  0  0  0  0  0  0  0  0  0  0
   -0.6927    1.7304    1.3223 N   0  0  0  0  0  0  0  0  0  0  0  0
    0.0178    1.2410    1.8469 H   0  0  0  0  0  0  0  0  0  0  0  0
   -0.8259    3.1712    1.5254 C   0  0  0  0  0  0  0  0  0  0  0  0
   -1.8769    3.4302    1.6645 H   0  0  0  0  0  0  0  0  0  0  0  0
   -0.2598    3.4806    2.4054 H   0  0  0  0  0  0  0  0  0  0  0  0
   -0.4486    3.7020    0.6489 H   0  0  0  0  0  0  0  0  0  0  0  0
  5  6  2  0  0  0  0
  5  7  1  0  0  0  0
  2  3  1  0  0  0  0
  2  4  1  0  0  0  0
  2  5  1  0  0  0  0
  1  2  1  0  0  0  0
 26 27  2  0  0  0  0
 26 28  1  0  0  0  0
 24 25  1  0  0  0  0
 22 23  1  0  0  0  0
 22 24  2  0  0  0  0
 20 21  1  0  0  0  0
 19 20  1  0  0  0  0
 19 22  1  0  0  0  0
 17 18  1  0  0  0  0
 17 19  2  0  0  0  0
 15 16  1  0  0  0  0
 15 17  1  0  0  0  0
 14 15  2  0  0  0  0
 14 24  1  0  0  0  0
 11 12  1  0  0  0  0
 11 13  1  0  0  0  0
 11 14  1  0  0  0  0
  9 10  1  0  0  0  0
  9 11  1  0  0  0  0
  9 26  1  0  0  0  0
  7  8  1  0  0  0  0
  7  9  1  0  0  0  0
 30 31  1  0  0  0  0
 30 32  1  0  0  0  0
 30 33  1  0  0  0  0
 28 29  1  0  0  0  0
 28 30  1  0  0  0  0
M  END
$$$$
default_name
  -OEChem-02102213163D

 33 33  0     1  0  0  0  0  0999 V2000
   -4.0702   -3.8485    1.4554 H   0  0  0  0  0  0  0  0  0  0  0  0
   -4.0012   -2.9605    0.8284 C   0  0  0  0  0  0  0  0  0  0  0  0
   -4.7652   -2.2435    1.1234 H   0  0  0  0  0  0  0  0  0  0  0  0
   -4.1352   -3.2385   -0.2156 H   0  0  0  0  0  0  0  0  0  0  0  0
   -2.6362   -2.3395    1.0094 C   0  0  0  0  0  0  0  0  0  0  0  0
   -1.8292   -2.8395    1.7814 O   0  0  0  0  0  0  0  0  0  0  0  0
   -2.3832   -1.2445    0.2964 N   0  0  0  0  0  0  0  0  0  0  0  0
   -3.1102   -0.8685   -0.2946 H   0  0  0  0  0  0  0  0  0  0  0  0
   -1.1292   -0.4875    0.3524 C   0  0  1  0  0  0  0  0  0  0  0  0
   -0.5898   -0.7762    1.2552 H   0  0  0  0  0  0  0  0  0  0  0  0
   -0.2608   -0.8470   -0.8656 C   0  0  0  0  0  0  0  0  0  0  0  0
   -0.2794   -1.9284   -1.0072 H   0  0  0  0  0  0  0  0  0  0  0  0
   -0.6971   -0.3931   -1.7570 H   0  0  0  0  0  0  0  0  0  0  0  0
    1.1869   -0.4136   -0.7388 C   0  0  0  0  0  0  0  0  0  0  0  0
    2.2076   -1.1479   -1.3752 C   0  0  0  0  0  0  0  0  0  0  0  0
    1.9632   -2.0404   -1.9361 H   0  0  0  0  0  0  0  0  0  0  0  0
    3.5462   -0.7183   -1.2881 C   0  0  0  0  0  0  0  0  0  0  0  0
    4.3255   -1.2839   -1.7754 H   0  0  0  0  0  0  0  0  0  0  0  0
    3.8641    0.4520   -0.5648 C   0  0  0  0  0  0  0  0  0  0  0  0
    5.1515    0.8762   -0.4773 O   0  0  0  0  0  0  0  0  0  0  0  0
    5.7647    0.2522   -0.8680 H   0  0  0  0  0  0  0  0  0  0  0  0
    2.8407    1.1882    0.0673 C   0  0  0  0  0  0  0  0  0  0  0  0
    3.0969    2.0789    0.6211 H   0  0  0  0  0  0  0  0  0  0  0  0
    1.5043    0.7537   -0.0178 C   0  0  0  0  0  0  0  0  0  0  0  0
    0.7198    1.3148    0.4759 H   0  0  0  0  0  0  0  0  0  0  0  0
   -1.4018    1.0238    0.4329 C   0  0  0  0  0  0  0  0  0  0  0  0
   -2.2416    1.5423   -0.3033 O   0  0  0  0  0  0  0  0  0  0  0  0
   -0.6927    1.7304    1.3223 N   0  0  0  0  0  0  0  0  0  0  0  0
    0.0178    1.2410    1.8469 H   0  0  0  0  0  0  0  0  0  0  0  0
   -0.8259    3.1712    1.5254 C   0  0  0  0  0  0  0  0  0  0  0  0
   -1.8769    3.4302    1.6645 H   0  0  0  0  0  0  0  0  0  0  0  0
   -0.2598    3.4806    2.4054 H   0  0  0  0  0  0  0  0  0  0  0  0
   -0.4486    3.7020    0.6489 H   0  0  0  0  0  0  0  0  0  0  0  0
  5  6  2  0  0  0  0
  5  7  1  0  0  0  0
  2  3  1  0  0  0  0
  2  4  1  0  0  0  0
  2  5  1  0  0  0  0
  1  2  1  0  0  0  0
 26 27  2  0  0  0  0
 26 28  1  0  0  0  0
 24 25  1  0  0  0  0
 22 23  1  0  0  0  0
 22 24  2  0  0  0  0
 20 21  1  0  0  0  0
 19 20  1  0  0  0  0
 19 22  1  0  0  0  0
 17 18  1  0  0  0  0
 17 19  2  0  0  0  0
 15 16  1  0  0  0  0
 15 17  1  0  0  0  0
 14 15  2  0  0  0  0
 14 24  1  0  0  0  0
 11 12  1  0  0  0  0
 11 13  1  0  0  0  0
 11 14  1  0  0  0  0
  9 10  1  0  0  0  0
  9 11  1  0  0  0  0
  9 26  1  0  0  0  0
  7  8  1  0  0  0  0
  7  9  1  0  0  0  0
 30 31  1  0  0  0  0
 30 32  1  0  0  0  0
 30 33  1  0  0  0  0
 28 29  1  0  0  0  0
 28 30  1  0  0  0  0
M  END
$$$$
default_name
  -OEChem-02102213163D

 33 33  0     1  0  0  0  0  0999 V2000
   -4.0702   -3.8485    1.4554 H   0  0  0  0  0  0  0  0  0  0  0  0
   -4.0012   -2.9605    0.8284 C   0  0  0  0  0  0  0  0  0  0  0  0
   -4.7652   -2.2435    1.1234 H   0  0  0  0  0  0  0  0  0  0  0  0
   -4.1352   -3.2385   -0.2156 H   0  0  0  0  0  0  0  0  0  0  0  0
   -2.6362   -2.3395    1.0094 C   0  0  0  0  0  0  0  0  0  0  0  0
   -1.8292   -2.8395    1.7814 O   0  0  0  0  0  0  0  0  0  0  0  0
   -2.3832   -1.2445    0.2964 N   0  0  0  0  0  0  0  0  0  0  0  0
   -3.1102   -0.8685   -0.2946 H   0  0  0  0  0  0  0  0  0  0  0  0
   -1.1292   -0.4875    0.3524 C   0  0  1  0  0  0  0  0  0  0  0  0
   -0.5898   -0.7762    1.2552 H   0  0  0  0  0  0  0  0  0  0  0  0
   -0.2608   -0.8470   -0.8656 C   0  0  0  0  0  0  0  0  0  0  0  0
   -0.2794   -1.9284   -1.0072 H   0  0  0  0  0  0  0  0  0  0  0  0
   -0.6971   -0.3931   -1.7570 H   0  0  0  0  0  0  0  0  0  0  0  0
    1.1869   -0.4136   -0.7388 C   0  0  0  0  0  0  0  0  0  0  0  0
    2.1648   -0.9366   -1.6085 C   0  0  0  0  0  0  0  0  0  0  0  0
    1.8891   -1.6706   -2.3542 H   0  0  0  0  0  0  0  0  0  0  0  0
    3.5007   -0.5005   -1.5131 C   0  0  0  0  0  0  0  0  0  0  0  0
    4.2472   -0.9043   -2.1797 H   0  0  0  0  0  0  0  0  0  0  0  0
    3.8586    0.4649   -0.5469 C   0  0  0  0  0  0  0  0  0  0  0  0
    5.1436    0.8941   -0.4489 O   0  0  0  0  0  0  0  0  0  0  0  0
    5.7327    0.4048   -1.0247 H   0  0  0  0  0  0  0  0  0  0  0  0
    2.8778    0.9908    0.3193 C   0  0  0  0  0  0  0  0  0  0  0  0
    3.1647    1.7251    1.0568 H   0  0  0  0  0  0  0  0  0  0  0  0
    1.5443    0.5495    0.2245 C   0  0  0  0  0  0  0  0  0  0  0  0
    0.7930    0.9471    0.8965 H   0  0  0  0  0  0  0  0  0  0  0  0
   -1.4018    1.0238    0.4329 C   0  0  0  0  0  0  0  0  0  0  0  0
   -2.2416    1.5423   -0.3033 O   0  0  0  0  0  0  0  0  0  0  0  0
   -0.6927    1.7304    1.3223 N   0  0  0  0  0  0  0  0  0  0  0  0
    0.0178    1.2410    1.8469 H   0  0  0  0  0  0  0  0  0  0  0  0
   -0.8259    3.1712    1.5254 C   0  0  0  0  0  0  0  0  0  0  0  0
   -1.8769    3.4302    1.6645 H   0  0  0  0  0  0  0  0  0  0  0  0
   -0.2598    3.4806    2.4054 H   0  0  0  0  0  0  0  0  0  0  0  0
   -0.4486    3.7020    0.6489 H   0  0  0  0  0  0  0  0  0  0  0  0
  5  6  2  0  0  0  0
  5  7  1  0  0  0  0
  2  3  1  0  0  0  0
  2  4  1  0  0  0  0
  2  5  1  0  0  0  0
  1  2  1  0  0  0  0
 26 27  2  0  0  0  0
 26 28  1  0  0  0  0
 24 25  1  0  0  0  0
 22 23  1  0  0  0  0
 22 24  2  0  0  0  0
 20 21  1  0  0  0  0
 19 20  1  0  0  0  0
 19 22  1  0  0  0  0
 17 18  1  0  0  0  0
 17 19  2  0  0  0  0
 15 16  1  0  0  0  0
 15 17  1  0  0  0  0
 14 15  2  0  0  0  0
 14 24  1  0  0  0  0
 11 12  1  0  0  0  0
 11 13  1  0  0  0  0
 11 14  1  0  0  0  0
  9 10  1  0  0  0  0
  9 11  1  0  0  0  0
  9 26  1  0  0  0  0
  7  8  1  0  0  0  0
  7  9  1  0  0  0  0
 30 31  1  0  0  0  0
 30 32  1  0  0  0  0
 30 33  1  0  0  0  0
 28 29  1  0  0  0  0
 28 30  1  0  0  0  0
M  END
$$$$
default_name
  -OEChem-02102213163D

 33 33  0     1  0  0  0  0  0999 V2000
   -4.0702   -3.8485    1.4554 H   0  0  0  0  0  0  0  0  0  0  0  0
   -4.0012   -2.9605    0.8284 C   0  0  0  0  0  0  0  0  0  0  0  0
   -4.7652   -2.2435    1.1234 H   0  0  0  0  0  0  0  0  0  0  0  0
   -4.1352   -3.2385   -0.2156 H   0  0  0  0  0  0  0  0  0  0  0  0
   -2.6362   -2.3395    1.0094 C   0  0  0  0  0  0  0  0  0  0  0  0
   -1.8292   -2.8395    1.7814 O   0  0  0  0  0  0  0  0  0  0  0  0
   -2.3832   -1.2445    0.2964 N   0  0  0  0  0  0  0  0  0  0  0  0
   -3.1102   -0.8685   -0.2946 H   0  0  0  0  0  0  0  0  0  0  0  0
   -1.1292   -0.4875    0.3524 C   0  0  1  0  0  0  0  0  0  0  0  0
   -0.5898   -0.7762    1.2552 H   0  0  0  0  0  0  0  0  0  0  0  0
   -0.2608   -0.8470   -0.8656 C   0  0  0  0  0  0  0  0  0  0  0  0
   -0.4849   -1.8699   -1.1710 H   0  0  0  0  0  0  0  0  0  0  0  0
   -0.5285   -0.1918   -1.6962 H   0  0  0  0  0  0  0  0  0  0  0  0
    1.2305   -0.7484   -0.6088 C   0  0  0  0  0  0  0  0  0  0  0  0
    2.1502   -1.0484   -1.6337 C   0  0  0  0  0  0  0  0  0  0  0  0
    1.7941   -1.3760   -2.6017 H   0  0  0  0  0  0  0  0  0  0  0  0
    3.5333   -0.9162   -1.4026 C   0  0  0  0  0  0  0  0  0  0  0  0
    4.2347   -1.1483   -2.1892 H   0  0  0  0  0  0  0  0  0  0  0  0
    3.9977   -0.4789   -0.1429 C   0  0  0  0  0  0  0  0  0  0  0  0
    5.3294   -0.3454    0.0890 O   0  0  0  0  0  0  0  0  0  0  0  0
    5.8574   -0.6637   -0.6444 H   0  0  0  0  0  0  0  0  0  0  0  0
    3.0758   -0.1745    0.8800 C   0  0  0  0  0  0  0  0  0  0  0  0
    3.4433    0.1548    1.8402 H   0  0  0  0  0  0  0  0  0  0  0  0
    1.6941   -0.3119    0.6473 C   0  0  0  0  0  0  0  0  0  0  0  0
    0.9868   -0.0867    1.4366 H   0  0  0  0  0  0  0  0  0  0  0  0
   -1.4018    1.0238    0.4329 C   0  0  0  0  0  0  0  0  0  0  0  0
   -2.2416    1.5423   -0.3033 O   0  0  0  0  0  0  0  0  0  0  0  0
   -0.6927    1.7304    1.3223 N   0  0  0  0  0  0  0  0  0  0  0  0
    0.0178    1.2410    1.8469 H   0  0  0  0  0  0  0  0  0  0  0  0
   -0.8259    3.1712    1.5254 C   0  0  0  0  0  0  0  0  0  0  0  0
   -1.8769    3.4302    1.6645 H   0  0  0  0  0  0  0  0  0  0  0  0
   -0.2598    3.4806    2.4054 H   0  0  0  0  0  0  0  0  0  0  0  0
   -0.4486    3.7020    0.6489 H   0  0  0  0  0  0  0  0  0  0  0  0
  5  6  2  0  0  0  0
  5  7  1  0  0  0  0
  2  3  1  0  0  0  0
  2  4  1  0  0  0  0
  2  5  1  0  0  0  0
  1  2  1  0  0  0  0
 26 27  2  0  0  0  0
 26 28  1  0  0  0  0
 24 25  1  0  0  0  0
 22 23  1  0  0  0  0
 22 24  2  0  0  0  0
 20 21  1  0  0  0  0
 19 20  1  0  0  0  0
 19 22  1  0  0  0  0
 17 18  1  0  0  0  0
 17 19  2  0  0  0  0
 15 16  1  0  0  0  0
 15 17  1  0  0  0  0
 14 15  2  0  0  0  0
 14 24  1  0  0  0  0
 11 12  1  0  0  0  0
 11 13  1  0  0  0  0
 11 14  1  0  0  0  0
  9 10  1  0  0  0  0
  9 11  1  0  0  0  0
  9 26  1  0  0  0  0
  7  8  1  0  0  0  0
  7  9  1  0  0  0  0
 30 31  1  0  0  0  0
 30 32  1  0  0  0  0
 30 33  1  0  0  0  0
 28 29  1  0  0  0  0
 28 30  1  0  0  0  0
M  END
$$$$
default_name
  -OEChem-02102213163D

 33 33  0     1  0  0  0  0  0999 V2000
   -4.0702   -3.8485    1.4554 H   0  0  0  0  0  0  0  0  0  0  0  0
   -4.0012   -2.9605    0.8284 C   0  0  0  0  0  0  0  0  0  0  0  0
   -4.7652   -2.2435    1.1234 H   0  0  0  0  0  0  0  0  0  0  0  0
   -4.1352   -3.2385   -0.2156 H   0  0  0  0  0  0  0  0  0  0  0  0
   -2.6362   -2.3395    1.0094 C   0  0  0  0  0  0  0  0  0  0  0  0
   -1.8292   -2.8395    1.7814 O   0  0  0  0  0  0  0  0  0  0  0  0
   -2.3832   -1.2445    0.2964 N   0  0  0  0  0  0  0  0  0  0  0  0
   -3.1102   -0.8685   -0.2946 H   0  0  0  0  0  0  0  0  0  0  0  0
   -1.1292   -0.4875    0.3524 C   0  0  1  0  0  0  0  0  0  0  0  0
   -0.5898   -0.7762    1.2552 H   0  0  0  0  0  0  0  0  0  0  0  0
   -0.2608   -0.8470   -0.8656 C   0  0  0  0  0  0  0  0  0  0  0  0
   -0.4849   -1.8699   -1.1710 H   0  0  0  0  0  0  0  0  0  0  0  0
   -0.5285   -0.1918   -1.6962 H   0  0  0  0  0  0  0  0  0  0  0  0
    1.2305   -0.7484   -0.6088 C   0  0  0  0  0  0  0  0  0  0  0  0
    2.1386   -0.7354   -1.6865 C   0  0  0  0  0  0  0  0  0  0  0  0
    1.7748   -0.8223   -2.7020 H   0  0  0  0  0  0  0  0  0  0  0  0
    3.5198   -0.6029   -1.4448 C   0  0  0  0  0  0  0  0  0  0  0  0
    4.2124   -0.5949   -2.2723 H   0  0  0  0  0  0  0  0  0  0  0  0
    3.9938   -0.4792   -0.1205 C   0  0  0  0  0  0  0  0  0  0  0  0
    5.3237   -0.3479    0.1229 O   0  0  0  0  0  0  0  0  0  0  0  0
    5.8478   -0.4446   -0.6733 H   0  0  0  0  0  0  0  0  0  0  0  0
    3.0833   -0.4874    0.9564 C   0  0  0  0  0  0  0  0  0  0  0  0
    3.4583   -0.3965    1.9647 H   0  0  0  0  0  0  0  0  0  0  0  0
    1.7037   -0.6247    0.7118 C   0  0  0  0  0  0  0  0  0  0  0  0
    1.0056   -0.6402    1.5403 H   0  0  0  0  0  0  0  0  0  0  0  0
   -1.4018    1.0238    0.4329 C   0  0  0  0  0  0  0  0  0  0  0  0
   -2.2416    1.5423   -0.3033 O   0  0  0  0  0  0  0  0  0  0  0  0
   -0.6927    1.7304    1.3223 N   0  0  0  0  0  0  0  0  0  0  0  0
    0.0178    1.2410    1.8469 H   0  0  0  0  0  0  0  0  0  0  0  0
   -0.8259    3.1712    1.5254 C   0  0  0  0  0  0  0  0  0  0  0  0
   -1.8769    3.4302    1.6645 H   0  0  0  0  0  0  0  0  0  0  0  0
   -0.2598    3.4806    2.4054 H   0  0  0  0  0  0  0  0  0  0  0  0
   -0.4486    3.7020    0.6489 H   0  0  0  0  0  0  0  0  0  0  0  0
  5  6  2  0  0  0  0
  5  7  1  0  0  0  0
  2  3  1  0  0  0  0
  2  4  1  0  0  0  0
  2  5  1  0  0  0  0
  1  2  1  0  0  0  0
 26 27  2  0  0  0  0
 26 28  1  0  0  0  0
 24 25  1  0  0  0  0
 22 23  1  0  0  0  0
 22 24  2  0  0  0  0
 20 21  1  0  0  0  0
 19 20  1  0  0  0  0
 19 22  1  0  0  0  0
 17 18  1  0  0  0  0
 17 19  2  0  0  0  0
 15 16  1  0  0  0  0
 15 17  1  0  0  0  0
 14 15  2  0  0  0  0
 14 24  1  0  0  0  0
 11 12  1  0  0  0  0
 11 13  1  0  0  0  0
 11 14  1  0  0  0  0
  9 10  1  0  0  0  0
  9 11  1  0  0  0  0
  9 26  1  0  0  0  0
  7  8  1  0  0  0  0
  7  9  1  0  0  0  0
 30 31  1  0  0  0  0
 30 32  1  0  0  0  0
 30 33  1  0  0  0  0
 28 29  1  0  0  0  0
 28 30  1  0  0  0  0
M  END
$$$$
default_name
  -OEChem-02102213163D

 33 33  0     1  0  0  0  0  0999 V2000
   -4.0702   -3.8485    1.4554 H   0  0  0  0  0  0  0  0  0  0  0  0
   -4.0012   -2.9605    0.8284 C   0  0  0  0  0  0  0  0  0  0  0  0
   -4.7652   -2.2435    1.1234 H   0  0  0  0  0  0  0  0  0  0  0  0
   -4.1352   -3.2385   -0.2156 H   0  0  0  0  0  0  0  0  0  0  0  0
   -2.6362   -2.3395    1.0094 C   0  0  0  0  0  0  0  0  0  0  0  0
   -1.8292   -2.8395    1.7814 O   0  0  0  0  0  0  0  0  0  0  0  0
   -2.3832   -1.2445    0.2964 N   0  0  0  0  0  0  0  0  0  0  0  0
   -3.1102   -0.8685   -0.2946 H   0  0  0  0  0  0  0  0  0  0  0  0
   -1.1292   -0.4875    0.3524 C   0  0  1  0  0  0  0  0  0  0  0  0
   -0.5898   -0.7762    1.2552 H   0  0  0  0  0  0  0  0  0  0  0  0
   -0.2608   -0.8470   -0.8656 C   0  0  0  0  0  0  0  0  0  0  0  0
   -0.4849   -1.8699   -1.1710 H   0  0  0  0  0  0  0  0  0  0  0  0
   -0.5285   -0.1918   -1.6962 H   0  0  0  0  0  0  0  0  0  0  0  0
    1.2305   -0.7484   -0.6088 C   0  0  0  0  0  0  0  0  0  0  0  0
    2.1128   -0.4202   -1.6577 C   0  0  0  0  0  0  0  0  0  0  0  0
    1.7301   -0.2628   -2.6576 H   0  0  0  0  0  0  0  0  0  0  0  0
    3.4924   -0.2901   -1.4056 C   0  0  0  0  0  0  0  0  0  0  0  0
    4.1653   -0.0402   -2.2114 H   0  0  0  0  0  0  0  0  0  0  0  0
    3.9905   -0.4853   -0.0989 C   0  0  0  0  0  0  0  0  0  0  0  0
    5.3189   -0.3592    0.1551 O   0  0  0  0  0  0  0  0  0  0  0  0
    5.8286   -0.2262   -0.6452 H   0  0  0  0  0  0  0  0  0  0  0  0
    3.1056   -0.8089    0.9504 C   0  0  0  0  0  0  0  0  0  0  0  0
    3.4991   -0.9600    1.9444 H   0  0  0  0  0  0  0  0  0  0  0  0
    1.7277   -0.9427    0.6943 C   0  0  0  0  0  0  0  0  0  0  0  0
    1.0497   -1.2004    1.4992 H   0  0  0  0  0  0  0  0  0  0  0  0
   -1.4018    1.0238    0.4329 C   0  0  0  0  0  0  0  0  0  0  0  0
   -2.2416    1.5423   -0.3033 O   0  0  0  0  0  0  0  0  0  0  0  0
   -0.6927    1.7304    1.3223 N   0  0  0  0  0  0  0  0  0  0  0  0
    0.0178    1.2410    1.8469 H   0  0  0  0  0  0  0  0  0  0  0  0
   -0.8259    3.1712    1.5254 C   0  0  0  0  0  0  0  0  0  0  0  0
   -1.8769    3.4302    1.6645 H   0  0  0  0  0  0  0  0  0  0  0  0
   -0.2598    3.4806    2.4054 H   0  0  0  0  0  0  0  0  0  0  0  0
   -0.4486    3.7020    0.6489 H   0  0  0  0  0  0  0  0  0  0  0  0
  5  6  2  0  0  0  0
  5  7  1  0  0  0  0
  2  3  1  0  0  0  0
  2  4  1  0  0  0  0
  2  5  1  0  0  0  0
  1  2  1  0  0  0  0
 26 27  2  0  0  0  0
 26 28  1  0  0  0  0
 24 25  1  0  0  0  0
 22 23  1  0  0  0  0
 22 24  2  0  0  0  0
 20 21  1  0  0  0  0
 19 20  1  0  0  0  0
 19 22  1  0  0  0  0
 17 18  1  0  0  0  0
 17 19  2  0  0  0  0
 15 16  1  0  0  0  0
 15 17  1  0  0  0  0
 14 15  2  0  0  0  0
 14 24  1  0  0  0  0
 11 12  1  0  0  0  0
 11 13  1  0  0  0  0
 11 14  1  0  0  0  0
  9 10  1  0  0  0  0
  9 11  1  0  0  0  0
  9 26  1  0  0  0  0
  7  8  1  0  0  0  0
  7  9  1  0  0  0  0
 30 31  1  0  0  0  0
 30 32  1  0  0  0  0
 30 33  1  0  0  0  0
 28 29  1  0  0  0  0
 28 30  1  0  0  0  0
M  END
$$$$
default_name
  -OEChem-02102213163D

 33 33  0     1  0  0  0  0  0999 V2000
   -4.0702   -3.8485    1.4554 H   0  0  0  0  0  0  0  0  0  0  0  0
   -4.0012   -2.9605    0.8284 C   0  0  0  0  0  0  0  0  0  0  0  0
   -4.7652   -2.2435    1.1234 H   0  0  0  0  0  0  0  0  0  0  0  0
   -4.1352   -3.2385   -0.2156 H   0  0  0  0  0  0  0  0  0  0  0  0
   -2.6362   -2.3395    1.0094 C   0  0  0  0  0  0  0  0  0  0  0  0
   -1.8292   -2.8395    1.7814 O   0  0  0  0  0  0  0  0  0  0  0  0
   -2.3832   -1.2445    0.2964 N   0  0  0  0  0  0  0  0  0  0  0  0
   -3.1102   -0.8685   -0.2946 H   0  0  0  0  0  0  0  0  0  0  0  0
   -1.1292   -0.4875    0.3524 C   0  0  1  0  0  0  0  0  0  0  0  0
   -0.5898   -0.7762    1.2552 H   0  0  0  0  0  0  0  0  0  0  0  0
   -0.2608   -0.8470   -0.8656 C   0  0  0  0  0  0  0  0  0  0  0  0
   -0.4849   -1.8699   -1.1710 H   0  0  0  0  0  0  0  0  0  0  0  0
   -0.5285   -0.1918   -1.6962 H   0  0  0  0  0  0  0  0  0  0  0  0
    1.2305   -0.7484   -0.6088 C   0  0  0  0  0  0  0  0  0  0  0  0
    2.0745   -0.1242   -1.5491 C   0  0  0  0  0  0  0  0  0  0  0  0
    1.6633    0.2644   -2.4716 H   0  0  0  0  0  0  0  0  0  0  0  0
    3.4528    0.0009   -1.2876 C   0  0  0  0  0  0  0  0  0  0  0  0
    4.0964    0.4781   -2.0106 H   0  0  0  0  0  0  0  0  0  0  0  0
    3.9879   -0.4969   -0.0795 C   0  0  0  0  0  0  0  0  0  0  0  0
    5.3153   -0.3785    0.1834 O   0  0  0  0  0  0  0  0  0  0  0  0
    5.8008   -0.0232   -0.5622 H   0  0  0  0  0  0  0  0  0  0  0  0
    3.1411   -1.1168    0.8625 C   0  0  0  0  0  0  0  0  0  0  0  0
    3.5628   -1.4974    1.7806 H   0  0  0  0  0  0  0  0  0  0  0  0
    1.7646   -1.2444    0.5961 C   0  0  0  0  0  0  0  0  0  0  0  0
    1.1161   -1.7292    1.3162 H   0  0  0  0  0  0  0  0  0  0  0  0
   -1.4018    1.0238    0.4329 C   0  0  0  0  0  0  0  0  0  0  0  0
   -2.2416    1.5423   -0.3033 O   0  0  0  0  0  0  0  0  0  0  0  0
   -0.6927    1.7304    1.3223 N   0  0  0  0  0  0  0  0  0  0  0  0
    0.0178    1.2410    1.8469 H   0  0  0  0  0  0  0  0  0  0  0  0
   -0.8259    3.1712    1.5254 C   0  0  0  0  0  0  0  0  0  0  0  0
   -1.8769    3.4302    1.6645 H   0  0  0  0  0  0  0  0  0  0  0  0
   -0.2598    3.4806    2.4054 H   0  0  0  0  0  0  0  0  0  0  0  0
   -0.4486    3.7020    0.6489 H   0  0  0  0  0  0  0  0  0  0  0  0
  5  6  2  0  0  0  0
  5  7  1  0  0  0  0
  2  3  1  0  0  0  0
  2  4  1  0  0  0  0
  2  5  1  0  0  0  0
  1  2  1  0  0  0  0
 26 27  2  0  0  0  0
 26 28  1  0  0  0  0
 24 25  1  0  0  0  0
 22 23  1  0  0  0  0
 22 24  2  0  0  0  0
 20 21  1  0  0  0  0
 19 20  1  0  0  0  0
 19 22  1  0  0  0  0
 17 18  1  0  0  0  0
 17 19  2  0  0  0  0
 15 16  1  0  0  0  0
 15 17  1  0  0  0  0
 14 15  2  0  0  0  0
 14 24  1  0  0  0  0
 11 12  1  0  0  0  0
 11 13  1  0  0  0  0
 11 14  1  0  0  0  0
  9 10  1  0  0  0  0
  9 11  1  0  0  0  0
  9 26  1  0  0  0  0
  7  8  1  0  0  0  0
  7  9  1  0  0  0  0
 30 31  1  0  0  0  0
 30 32  1  0  0  0  0
 30 33  1  0  0  0  0
 28 29  1  0  0  0  0
 28 30  1  0  0  0  0
M  END
$$$$
default_name
  -OEChem-02102213163D

 33 33  0     1  0  0  0  0  0999 V2000
   -4.0702   -3.8485    1.4554 H   0  0  0  0  0  0  0  0  0  0  0  0
   -4.0012   -2.9605    0.8284 C   0  0  0  0  0  0  0  0  0  0  0  0
   -4.7652   -2.2435    1.1234 H   0  0  0  0  0  0  0  0  0  0  0  0
   -4.1352   -3.2385   -0.2156 H   0  0  0  0  0  0  0  0  0  0  0  0
   -2.6362   -2.3395    1.0094 C   0  0  0  0  0  0  0  0  0  0  0  0
   -1.8292   -2.8395    1.7814 O   0  0  0  0  0  0  0  0  0  0  0  0
   -2.3832   -1.2445    0.2964 N   0  0  0  0  0  0  0  0  0  0  0  0
   -3.1102   -0.8685   -0.2946 H   0  0  0  0  0  0  0  0  0  0  0  0
   -1.1292   -0.4875    0.3524 C   0  0  1  0  0  0  0  0  0  0  0  0
   -0.5898   -0.7762    1.2552 H   0  0  0  0  0  0  0  0  0  0  0  0
   -0.2608   -0.8470   -0.8656 C   0  0  0  0  0  0  0  0  0  0  0  0
   -0.4849   -1.8699   -1.1710 H   0  0  0  0  0  0  0  0  0  0  0  0
   -0.5285   -0.1918   -1.6962 H   0  0  0  0  0  0  0  0  0  0  0  0
    1.2305   -0.7484   -0.6088 C   0  0  0  0  0  0  0  0  0  0  0  0
    2.0264    0.1325   -1.3683 C   0  0  0  0  0  0  0  0  0  0  0  0
    1.5787    0.7234   -2.1566 H   0  0  0  0  0  0  0  0  0  0  0  0
    3.4039    0.2502   -1.0989 C   0  0  0  0  0  0  0  0  0  0  0  0
    4.0106    0.9246   -1.6835 H   0  0  0  0  0  0  0  0  0  0  0  0
    3.9863   -0.5131   -0.0637 C   0  0  0  0  0  0  0  0  0  0  0  0
    5.3132   -0.4045    0.2059 O   0  0  0  0  0  0  0  0  0  0  0  0
    5.7666    0.1506   -0.4298 H   0  0  0  0  0  0  0  0  0  0  0  0
    3.1874   -1.3904    0.6986 C   0  0  0  0  0  0  0  0  0  0  0  0
    3.6451   -1.9720    1.4846 H   0  0  0  0  0  0  0  0  0  0  0  0
    1.8117   -1.5093    0.4238 C   0  0  0  0  0  0  0  0  0  0  0  0
    1.2004   -2.1904    1.0038 H   0  0  0  0  0  0  0  0  0  0  0  0
   -1.4018    1.0238    0.4329 C   0  0  0  0  0  0  0  0  0  0  0  0
   -2.2416    1.5423   -0.3033 O   0  0  0  0  0  0  0  0  0  0  0  0
   -0.6927    1.7304    1.3223 N   0  0  0  0  0  0  0  0  0  0  0  0
    0.0178    1.2410    1.8469 H   0  0  0  0  0  0  0  0  0  0  0  0
   -0.8259    3.1712    1.5254 C   0  0  0  0  0  0  0  0  0  0  0  0
   -1.8769    3.4302    1.6645 H   0  0  0  0  0  0  0  0  0  0  0  0
   -0.2598    3.4806    2.4054 H   0  0  0  0  0  0  0  0  0  0  0  0
   -0.4486    3.7020    0.6489 H   0  0  0  0  0  0  0  0  0  0  0  0
  5  6  2  0  0  0  0
  5  7  1  0  0  0  0
  2  3  1  0  0  0  0
  2  4  1  0  0  0  0
  2  5  1  0  0  0  0
  1  2  1  0  0  0  0
 26 27  2  0  0  0  0
 26 28  1  0  0  0  0
 24 25  1  0  0  0  0
 22 23  1  0  0  0  0
 22 24  2  0  0  0  0
 20 21  1  0  0  0  0
 19 20  1  0  0  0  0
 19 22  1  0  0  0  0
 17 18  1  0  0  0  0
 17 19  2  0  0  0  0
 15 16  1  0  0  0  0
 15 17  1  0  0  0  0
 14 15  2  0  0  0  0
 14 24  1  0  0  0  0
 11 12  1  0  0  0  0
 11 13  1  0  0  0  0
 11 14  1  0  0  0  0
  9 10  1  0  0  0  0
  9 11  1  0  0  0  0
  9 26  1  0  0  0  0
  7  8  1  0  0  0  0
  7  9  1  0  0  0  0
 30 31  1  0  0  0  0
 30 32  1  0  0  0  0
 30 33  1  0  0  0  0
 28 29  1  0  0  0  0
 28 30  1  0  0  0  0
M  END
$$$$
default_name
  -OEChem-02102213163D

 33 33  0     1  0  0  0  0  0999 V2000
   -4.0702   -3.8485    1.4554 H   0  0  0  0  0  0  0  0  0  0  0  0
   -4.0012   -2.9605    0.8284 C   0  0  0  0  0  0  0  0  0  0  0  0
   -4.7652   -2.2435    1.1234 H   0  0  0  0  0  0  0  0  0  0  0  0
   -4.1352   -3.2385   -0.2156 H   0  0  0  0  0  0  0  0  0  0  0  0
   -2.6362   -2.3395    1.0094 C   0  0  0  0  0  0  0  0  0  0  0  0
   -1.8292   -2.8395    1.7814 O   0  0  0  0  0  0  0  0  0  0  0  0
   -2.3832   -1.2445    0.2964 N   0  0  0  0  0  0  0  0  0  0  0  0
   -3.1102   -0.8685   -0.2946 H   0  0  0  0  0  0  0  0  0  0  0  0
   -1.1292   -0.4875    0.3524 C   0  0  1  0  0  0  0  0  0  0  0  0
   -0.5898   -0.7762    1.2552 H   0  0  0  0  0  0  0  0  0  0  0  0
   -0.2608   -0.8470   -0.8656 C   0  0  0  0  0  0  0  0  0  0  0  0
   -0.4849   -1.8699   -1.1710 H   0  0  0  0  0  0  0  0  0  0  0  0
   -0.5285   -0.1918   -1.6962 H   0  0  0  0  0  0  0  0  0  0  0  0
    1.2305   -0.7484   -0.6088 C   0  0  0  0  0  0  0  0  0  0  0  0
    1.9718    0.3322   -1.1275 C   0  0  0  0  0  0  0  0  0  0  0  0
    1.4822    1.0828   -1.7341 H   0  0  0  0  0  0  0  0  0  0  0  0
    3.3488    0.4409   -0.8524 C   0  0  0  0  0  0  0  0  0  0  0  0
    3.9137    1.2688   -1.2525 H   0  0  0  0  0  0  0  0  0  0  0  0
    3.9857   -0.5329   -0.0525 C   0  0  0  0  0  0  0  0  0  0  0  0
    5.3126   -0.4355    0.2211 O   0  0  0  0  0  0  0  0  0  0  0  0
    5.7281    0.2833   -0.2572 H   0  0  0  0  0  0  0  0  0  0  0  0
    3.2413   -1.6109    0.4698 C   0  0  0  0  0  0  0  0  0  0  0  0
    3.7405   -2.3514    1.0765 H   0  0  0  0  0  0  0  0  0  0  0  0
    1.8660   -1.7192    0.1892 C   0  0  0  0  0  0  0  0  0  0  0  0
    1.2968   -2.5527    0.5832 H   0  0  0  0  0  0  0  0  0  0  0  0
   -1.4018    1.0238    0.4329 C   0  0  0  0  0  0  0  0  0  0  0  0
   -2.2416    1.5423   -0.3033 O   0  0  0  0  0  0  0  0  0  0  0  0
   -0.6927    1.7304    1.3223 N   0  0  0  0  0  0  0  0  0  0  0  0
    0.0178    1.2410    1.8469 H   0  0  0  0  0  0  0  0  0  0  0  0
   -0.8259    3.1712    1.5254 C   0  0  0  0  0  0  0  0  0  0  0  0
   -1.8769    3.4302    1.6645 H   0  0  0  0  0  0  0  0  0  0  0  0
   -0.2598    3.4806    2.4054 H   0  0  0  0  0  0  0  0  0  0  0  0
   -0.4486    3.7020    0.6489 H   0  0  0  0  0  0  0  0  0  0  0  0
  5  6  2  0  0  0  0
  5  7  1  0  0  0  0
  2  3  1  0  0  0  0
  2  4  1  0  0  0  0
  2  5  1  0  0  0  0
  1  2  1  0  0  0  0
 26 27  2  0  0  0  0
 26 28  1  0  0  0  0
 24 25  1  0  0  0  0
 22 23  1  0  0  0  0
 22 24  2  0  0  0  0
 20 21  1  0  0  0  0
 19 20  1  0  0  0  0
 19 22  1  0  0  0  0
 17 18  1  0  0  0  0
 17 19  2  0  0  0  0
 15 16  1  0  0  0  0
 15 17  1  0  0  0  0
 14 15  2  0  0  0  0
 14 24  1  0  0  0  0
 11 12  1  0  0  0  0
 11 13  1  0  0  0  0
 11 14  1  0  0  0  0
  9 10  1  0  0  0  0
  9 11  1  0  0  0  0
  9 26  1  0  0  0  0
  7  8  1  0  0  0  0
  7  9  1  0  0  0  0
 30 31  1  0  0  0  0
 30 32  1  0  0  0  0
 30 33  1  0  0  0  0
 28 29  1  0  0  0  0
 28 30  1  0  0  0  0
M  END
$$$$
default_name
  -OEChem-02102213163D

 33 33  0     1  0  0  0  0  0999 V2000
   -4.0702   -3.8485    1.4554 H   0  0  0  0  0  0  0  0  0  0  0  0
   -4.0012   -2.9605    0.8284 C   0  0  0  0  0  0  0  0  0  0  0  0
   -4.7652   -2.2435    1.1234 H   0  0  0  0  0  0  0  0  0  0  0  0
   -4.1352   -3.2385   -0.2156 H   0  0  0  0  0  0  0  0  0  0  0  0
   -2.6362   -2.3395    1.0094 C   0  0  0  0  0  0  0  0  0  0  0  0
   -1.8292   -2.8395    1.7814 O   0  0  0  0  0  0  0  0  0  0  0  0
   -2.3832   -1.2445    0.2964 N   0  0  0  0  0  0  0  0  0  0  0  0
   -3.1102   -0.8685   -0.2946 H   0  0  0  0  0  0  0  0  0  0  0  0
   -1.1292   -0.4875    0.3524 C   0  0  1  0  0  0  0  0  0  0  0  0
   -0.5898   -0.7762    1.2552 H   0  0  0  0  0  0  0  0  0  0  0  0
   -0.2608   -0.8470   -0.8656 C   0  0  0  0  0  0  0  0  0  0  0  0
   -0.4849   -1.8699   -1.1710 H   0  0  0  0  0  0  0  0  0  0  0  0
   -0.5285   -0.1918   -1.6962 H   0  0  0  0  0  0  0  0  0  0  0  0
    1.2305   -0.7484   -0.6088 C   0  0  0  0  0  0  0  0  0  0  0  0
    1.9143    0.4615   -0.8432 C   0  0  0  0  0  0  0  0  0  0  0  0
    1.3803    1.3183   -1.2329 H   0  0  0  0  0  0  0  0  0  0  0  0
    3.2915    0.5599   -0.5648 C   0  0  0  0  0  0  0  0  0  0  0  0
    3.8122    1.4874   -0.7469 H   0  0  0  0  0  0  0  0  0  0  0  0
    3.9861   -0.5548   -0.0467 C   0  0  0  0  0  0  0  0  0  0  0  0
    5.3137   -0.4692    0.2279 O   0  0  0  0  0  0  0  0  0  0  0  0
    5.6880    0.3658   -0.0560 H   0  0  0  0  0  0  0  0  0  0  0  0
    3.2993   -1.7633    0.1919 C   0  0  0  0  0  0  0  0  0  0  0  0
    3.8423   -2.6099    0.5841 H   0  0  0  0  0  0  0  0  0  0  0  0
    1.9237   -1.8598   -0.0917 C   0  0  0  0  0  0  0  0  0  0  0  0
    1.3986   -2.7914    0.0831 H   0  0  0  0  0  0  0  0  0  0  0  0
   -1.4018    1.0238    0.4329 C   0  0  0  0  0  0  0  0  0  0  0  0
   -2.2416    1.5423   -0.3033 O   0  0  0  0  0  0  0  0  0  0  0  0
   -0.6927    1.7304    1.3223 N   0  0  0  0  0  0  0  0  0  0  0  0
    0.0178    1.2410    1.8469 H   0  0  0  0  0  0  0  0  0  0  0  0
   -0.8259    3.1712    1.5254 C   0  0  0  0  0  0  0  0  0  0  0  0
   -1.8769    3.4302    1.6645 H   0  0  0  0  0  0  0  0  0  0  0  0
   -0.2598    3.4806    2.4054 H   0  0  0  0  0  0  0  0  0  0  0  0
   -0.4486    3.7020    0.6489 H   0  0  0  0  0  0  0  0  0  0  0  0
  5  6  2  0  0  0  0
  5  7  1  0  0  0  0
  2  3  1  0  0  0  0
  2  4  1  0  0  0  0
  2  5  1  0  0  0  0
  1  2  1  0  0  0  0
 26 27  2  0  0  0  0
 26 28  1  0  0  0  0
 24 25  1  0  0  0  0
 22 23  1  0  0  0  0
 22 24  2  0  0  0  0
 20 21  1  0  0  0  0
 19 20  1  0  0  0  0
 19 22  1  0  0  0  0
 17 18  1  0  0  0  0
 17 19  2  0  0  0  0
 15 16  1  0  0  0  0
 15 17  1  0  0  0  0
 14 15  2  0  0  0  0
 14 24  1  0  0  0  0
 11 12  1  0  0  0  0
 11 13  1  0  0  0  0
 11 14  1  0  0  0  0
  9 10  1  0  0  0  0
  9 11  1  0  0  0  0
  9 26  1  0  0  0  0
  7  8  1  0  0  0  0
  7  9  1  0  0  0  0
 30 31  1  0  0  0  0
 30 32  1  0  0  0  0
 30 33  1  0  0  0  0
 28 29  1  0  0  0  0
 28 30  1  0  0  0  0
M  END
$$$$
default_name
  -OEChem-02102213163D

 33 33  0     1  0  0  0  0  0999 V2000
   -4.0702   -3.8485    1.4554 H   0  0  0  0  0  0  0  0  0  0  0  0
   -4.0012   -2.9605    0.8284 C   0  0  0  0  0  0  0  0  0  0  0  0
   -4.7652   -2.2435    1.1234 H   0  0  0  0  0  0  0  0  0  0  0  0
   -4.1352   -3.2385   -0.2156 H   0  0  0  0  0  0  0  0  0  0  0  0
   -2.6362   -2.3395    1.0094 C   0  0  0  0  0  0  0  0  0  0  0  0
   -1.8292   -2.8395    1.7814 O   0  0  0  0  0  0  0  0  0  0  0  0
   -2.3832   -1.2445    0.2964 N   0  0  0  0  0  0  0  0  0  0  0  0
   -3.1102   -0.8685   -0.2946 H   0  0  0  0  0  0  0  0  0  0  0  0
   -1.1292   -0.4875    0.3524 C   0  0  1  0  0  0  0  0  0  0  0  0
   -0.5898   -0.7762    1.2552 H   0  0  0  0  0  0  0  0  0  0  0  0
   -0.2608   -0.8470   -0.8656 C   0  0  0  0  0  0  0  0  0  0  0  0
   -0.4849   -1.8699   -1.1710 H   0  0  0  0  0  0  0  0  0  0  0  0
   -0.5285   -0.1918   -1.6962 H   0  0  0  0  0  0  0  0  0  0  0  0
    1.2305   -0.7484   -0.6088 C   0  0  0  0  0  0  0  0  0  0  0  0
    1.8578    0.5115   -0.5346 C   0  0  0  0  0  0  0  0  0  0  0  0
    1.2801    1.4137   -0.6871 H   0  0  0  0  0  0  0  0  0  0  0  0
    3.2357    0.5991   -0.2558 C   0  0  0  0  0  0  0  0  0  0  0  0
    3.7131    1.5654   -0.2012 H   0  0  0  0  0  0  0  0  0  0  0  0
    3.9876   -0.5775   -0.0467 C   0  0  0  0  0  0  0  0  0  0  0  0
    5.3163   -0.5035    0.2258 O   0  0  0  0  0  0  0  0  0  0  0  0
    5.6490    0.3925    0.1600 H   0  0  0  0  0  0  0  0  0  0  0  0
    3.3572   -1.8372   -0.1164 C   0  0  0  0  0  0  0  0  0  0  0  0
    3.9438   -2.7298    0.0410 H   0  0  0  0  0  0  0  0  0  0  0  0
    1.9808   -1.9217   -0.3999 C   0  0  0  0  0  0  0  0  0  0  0  0
    1.4991   -2.8902   -0.4625 H   0  0  0  0  0  0  0  0  0  0  0  0
   -1.4018    1.0238    0.4329 C   0  0  0  0  0  0  0  0  0  0  0  0
   -2.2416    1.5423   -0.3033 O   0  0  0  0  0  0  0  0  0  0  0  0
   -0.6927    1.7304    1.3223 N   0  0  0  0  0  0  0  0  0  0  0  0
    0.0178    1.2410    1.8469 H   0  0  0  0  0  0  0  0  0  0  0  0
   -0.8259    3.1712    1.5254 C   0  0  0  0  0  0  0  0  0  0  0  0
   -1.8769    3.4302    1.6645 H   0  0  0  0  0  0  0  0  0  0  0  0
   -0.2598    3.4806    2.4054 H   0  0  0  0  0  0  0  0  0  0  0  0
   -0.4486    3.7020    0.6489 H   0  0  0  0  0  0  0  0  0  0  0  0
  5  6  2  0  0  0  0
  5  7  1  0  0  0  0
  2  3  1  0  0  0  0
  2  4  1  0  0  0  0
  2  5  1  0  0  0  0
  1  2  1  0  0  0  0
 26 27  2  0  0  0  0
 26 28  1  0  0  0  0
 24 25  1  0  0  0  0
 22 23  1  0  0  0  0
 22 24  2  0  0  0  0
 20 21  1  0  0  0  0
 19 20  1  0  0  0  0
 19 22  1  0  0  0  0
 17 18  1  0  0  0  0
 17 19  2  0  0  0  0
 15 16  1  0  0  0  0
 15 17  1  0  0  0  0
 14 15  2  0  0  0  0
 14 24  1  0  0  0  0
 11 12  1  0  0  0  0
 11 13  1  0  0  0  0
 11 14  1  0  0  0  0
  9 10  1  0  0  0  0
  9 11  1  0  0  0  0
  9 26  1  0  0  0  0
  7  8  1  0  0  0  0
  7  9  1  0  0  0  0
 30 31  1  0  0  0  0
 30 32  1  0  0  0  0
 30 33  1  0  0  0  0
 28 29  1  0  0  0  0
 28 30  1  0  0  0  0
M  END
$$$$
default_name
  -OEChem-02102213163D

 33 33  0     1  0  0  0  0  0999 V2000
   -4.0702   -3.8485    1.4554 H   0  0  0  0  0  0  0  0  0  0  0  0
   -4.0012   -2.9605    0.8284 C   0  0  0  0  0  0  0  0  0  0  0  0
   -4.7652   -2.2435    1.1234 H   0  0  0  0  0  0  0  0  0  0  0  0
   -4.1352   -3.2385   -0.2156 H   0  0  0  0  0  0  0  0  0  0  0  0
   -2.6362   -2.3395    1.0094 C   0  0  0  0  0  0  0  0  0  0  0  0
   -1.8292   -2.8395    1.7814 O   0  0  0  0  0  0  0  0  0  0  0  0
   -2.3832   -1.2445    0.2964 N   0  0  0  0  0  0  0  0  0  0  0  0
   -3.1102   -0.8685   -0.2946 H   0  0  0  0  0  0  0  0  0  0  0  0
   -1.1292   -0.4875    0.3524 C   0  0  1  0  0  0  0  0  0  0  0  0
   -0.5898   -0.7762    1.2552 H   0  0  0  0  0  0  0  0  0  0  0  0
   -0.2608   -0.8470   -0.8656 C   0  0  0  0  0  0  0  0  0  0  0  0
   -0.4849   -1.8699   -1.1710 H   0  0  0  0  0  0  0  0  0  0  0  0
   -0.5285   -0.1918   -1.6962 H   0  0  0  0  0  0  0  0  0  0  0  0
    1.2305   -0.7484   -0.6088 C   0  0  0  0  0  0  0  0  0  0  0  0
    1.8063    0.4787   -0.2230 C   0  0  0  0  0  0  0  0  0  0  0  0
    1.1882    1.3625   -0.1340 H   0  0  0  0  0  0  0  0  0  0  0  0
    3.1852    0.5559    0.0537 C   0  0  0  0  0  0  0  0  0  0  0  0
    3.6231    1.4975    0.3474 H   0  0  0  0  0  0  0  0  0  0  0  0
    3.9901   -0.5994   -0.0525 C   0  0  0  0  0  0  0  0  0  0  0  0
    5.3203   -0.5360    0.2150 O   0  0  0  0  0  0  0  0  0  0  0  0
    5.6139    0.3617    0.3760 H   0  0  0  0  0  0  0  0  0  0  0  0
    3.4113   -1.8275   -0.4340 C   0  0  0  0  0  0  0  0  0  0  0  0
    4.0379   -2.7029   -0.5159 H   0  0  0  0  0  0  0  0  0  0  0  0
    2.0335   -1.9004   -0.7142 C   0  0  0  0  0  0  0  0  0  0  0  0
    1.5913   -2.8423   -1.0163 H   0  0  0  0  0  0  0  0  0  0  0  0
   -1.4018    1.0238    0.4329 C   0  0  0  0  0  0  0  0  0  0  0  0
   -2.2416    1.5423   -0.3033 O   0  0  0  0  0  0  0  0  0  0  0  0
   -0.6927    1.7304    1.3223 N   0  0  0  0  0  0  0  0  0  0  0  0
    0.0178    1.2410    1.8469 H   0  0  0  0  0  0  0  0  0  0  0  0
   -0.8259    3.1712    1.5254 C   0  0  0  0  0  0  0  0  0  0  0  0
   -1.8769    3.4302    1.6645 H   0  0  0  0  0  0  0  0  0  0  0  0
   -0.2598    3.4806    2.4054 H   0  0  0  0  0  0  0  0  0  0  0  0
   -0.4486    3.7020    0.6489 H   0  0  0  0  0  0  0  0  0  0  0  0
  5  6  2  0  0  0  0
  5  7  1  0  0  0  0
  2  3  1  0  0  0  0
  2  4  1  0  0  0  0
  2  5  1  0  0  0  0
  1  2  1  0  0  0  0
 26 27  2  0  0  0  0
 26 28  1  0  0  0  0
 24 25  1  0  0  0  0
 22 23  1  0  0  0  0
 22 24  2  0  0  0  0
 20 21  1  0  0  0  0
 19 20  1  0  0  0  0
 19 22  1  0  0  0  0
 17 18  1  0  0  0  0
 17 19  2  0  0  0  0
 15 16  1  0  0  0  0
 15 17  1  0  0  0  0
 14 15  2  0  0  0  0
 14 24  1  0  0  0  0
 11 12  1  0  0  0  0
 11 13  1  0  0  0  0
 11 14  1  0  0  0  0
  9 10  1  0  0  0  0
  9 11  1  0  0  0  0
  9 26  1  0  0  0  0
  7  8  1  0  0  0  0
  7  9  1  0  0  0  0
 30 31  1  0  0  0  0
 30 32  1  0  0  0  0
 30 33  1  0  0  0  0
 28 29  1  0  0  0  0
 28 30  1  0  0  0  0
M  END
$$$$
default_name
  -OEChem-02102213163D

 33 33  0     1  0  0  0  0  0999 V2000
   -4.0702   -3.8485    1.4554 H   0  0  0  0  0  0  0  0  0  0  0  0
   -4.0012   -2.9605    0.8284 C   0  0  0  0  0  0  0  0  0  0  0  0
   -4.7652   -2.2435    1.1234 H   0  0  0  0  0  0  0  0  0  0  0  0
   -4.1352   -3.2385   -0.2156 H   0  0  0  0  0  0  0  0  0  0  0  0
   -2.6362   -2.3395    1.0094 C   0  0  0  0  0  0  0  0  0  0  0  0
   -1.8292   -2.8395    1.7814 O   0  0  0  0  0  0  0  0  0  0  0  0
   -2.3832   -1.2445    0.2964 N   0  0  0  0  0  0  0  0  0  0  0  0
   -3.1102   -0.8685   -0.2946 H   0  0  0  0  0  0  0  0  0  0  0  0
   -1.1292   -0.4875    0.3524 C   0  0  1  0  0  0  0  0  0  0  0  0
   -0.5898   -0.7762    1.2552 H   0  0  0  0  0  0  0  0  0  0  0  0
   -0.2608   -0.8470   -0.8656 C   0  0  0  0  0  0  0  0  0  0  0  0
   -0.4849   -1.8699   -1.1710 H   0  0  0  0  0  0  0  0  0  0  0  0
   -0.5285   -0.1918   -1.6962 H   0  0  0  0  0  0  0  0  0  0  0  0
    1.2305   -0.7484   -0.6088 C   0  0  0  0  0  0  0  0  0  0  0  0
    1.7633    0.3655    0.0706 C   0  0  0  0  0  0  0  0  0  0  0  0
    1.1111    1.1682    0.3889 H   0  0  0  0  0  0  0  0  0  0  0  0
    3.1437    0.4332    0.3424 C   0  0  0  0  0  0  0  0  0  0  0  0
    3.5484    1.2883    0.8615 H   0  0  0  0  0  0  0  0  0  0  0  0
    3.9933   -0.6189   -0.0637 C   0  0  0  0  0  0  0  0  0  0  0  0
    5.3254   -0.5645    0.1963 O   0  0  0  0  0  0  0  0  0  0  0  0
    5.5849    0.2753    0.5775 H   0  0  0  0  0  0  0  0  0  0  0  0
    3.4577   -1.7351   -0.7392 C   0  0  0  0  0  0  0  0  0  0  0  0
    4.1182   -2.5311   -1.0485 H   0  0  0  0  0  0  0  0  0  0  0  0
    2.0782   -1.7976   -1.0134 C   0  0  0  0  0  0  0  0  0  0  0  0
    1.6689   -2.6512   -1.5406 H   0  0  0  0  0  0  0  0  0  0  0  0
   -1.4018    1.0238    0.4329 C   0  0  0  0  0  0  0  0  0  0  0  0
   -2.2416    1.5423   -0.3033 O   0  0  0  0  0  0  0  0  0  0  0  0
   -0.6927    1.7304    1.3223 N   0  0  0  0  0  0  0  0  0  0  0  0
    0.0178    1.2410    1.8469 H   0  0  0  0  0  0  0  0  0  0  0  0
   -0.8259    3.1712    1.5254 C   0  0  0  0  0  0  0  0  0  0  0  0
   -1.8769    3.4302    1.6645 H   0  0  0  0  0  0  0  0  0  0  0  0
   -0.2598    3.4806    2.4054 H   0  0  0  0  0  0  0  0  0  0  0  0
   -0.4486    3.7020    0.6489 H   0  0  0  0  0  0  0  0  0  0  0  0
  5  6  2  0  0  0  0
  5  7  1  0  0  0  0
  2  3  1  0  0  0  0
  2  4  1  0  0  0  0
  2  5  1  0  0  0  0
  1  2  1  0  0  0  0
 26 27  2  0  0  0  0
 26 28  1  0  0  0  0
 24 25  1  0  0  0  0
 22 23  1  0  0  0  0
 22 24  2  0  0  0  0
 20 21  1  0  0  0  0
 19 20  1  0  0  0  0
 19 22  1  0  0  0  0
 17 18  1  0  0  0  0
 17 19  2  0  0  0  0
 15 16  1  0  0  0  0
 15 17  1  0  0  0  0
 14 15  2  0  0  0  0
 14 24  1  0  0  0  0
 11 12  1  0  0  0  0
 11 13  1  0  0  0  0
 11 14  1  0  0  0  0
  9 10  1  0  0  0  0
  9 11  1  0  0  0  0
  9 26  1  0  0  0  0
  7  8  1  0  0  0  0
  7  9  1  0  0  0  0
 30 31  1  0  0  0  0
 30 32  1  0  0  0  0
 30 33  1  0  0  0  0
 28 29  1  0  0  0  0
 28 30  1  0  0  0  0
M  END
$$$$
default_name
  -OEChem-02102213163D

 33 33  0     1  0  0  0  0  0999 V2000
   -4.0702   -3.8485    1.4554 H   0  0  0  0  0  0  0  0  0  0  0  0
   -4.0012   -2.9605    0.8284 C   0  0  0  0  0  0  0  0  0  0  0  0
   -4.7652   -2.2435    1.1234 H   0  0  0  0  0  0  0  0  0  0  0  0
   -4.1352   -3.2385   -0.2156 H   0  0  0  0  0  0  0  0  0  0  0  0
   -2.6362   -2.3395    1.0094 C   0  0  0  0  0  0  0  0  0  0  0  0
   -1.8292   -2.8395    1.7814 O   0  0  0  0  0  0  0  0  0  0  0  0
   -2.3832   -1.2445    0.2964 N   0  0  0  0  0  0  0  0  0  0  0  0
   -3.1102   -0.8685   -0.2946 H   0  0  0  0  0  0  0  0  0  0  0  0
   -1.1292   -0.4875    0.3524 C   0  0  1  0  0  0  0  0  0  0  0  0
   -0.5898   -0.7762    1.2552 H   0  0  0  0  0  0  0  0  0  0  0  0
   -0.2608   -0.8470   -0.8656 C   0  0  0  0  0  0  0  0  0  0  0  0
   -0.4849   -1.8699   -1.1710 H   0  0  0  0  0  0  0  0  0  0  0  0
   -0.5285   -0.1918   -1.6962 H   0  0  0  0  0  0  0  0  0  0  0  0
    1.2305   -0.7484   -0.6088 C   0  0  0  0  0  0  0  0  0  0  0  0
    1.7316    0.1795    0.3261 C   0  0  0  0  0  0  0  0  0  0  0  0
    1.0538    0.8441    0.8457 H   0  0  0  0  0  0  0  0  0  0  0  0
    3.1137    0.2393    0.5908 C   0  0  0  0  0  0  0  0  0  0  0  0
    3.4941    0.9522    1.3062 H   0  0  0  0  0  0  0  0  0  0  0  0
    3.9971   -0.6348   -0.0795 C   0  0  0  0  0  0  0  0  0  0  0  0
    5.3313   -0.5870    0.1708 O   0  0  0  0  0  0  0  0  0  0  0  0
    5.5641    0.1394    0.7506 H   0  0  0  0  0  0  0  0  0  0  0  0
    3.4933   -1.5660   -1.0112 C   0  0  0  0  0  0  0  0  0  0  0  0
    4.1793   -2.2260   -1.5205 H   0  0  0  0  0  0  0  0  0  0  0  0
    2.1119   -1.6202   -1.2769 C   0  0  0  0  0  0  0  0  0  0  0  0
    1.7267   -2.3296   -1.9996 H   0  0  0  0  0  0  0  0  0  0  0  0
   -1.4018    1.0238    0.4329 C   0  0  0  0  0  0  0  0  0  0  0  0
   -2.2416    1.5423   -0.3033 O   0  0  0  0  0  0  0  0  0  0  0  0
   -0.6927    1.7304    1.3223 N   0  0  0  0  0  0  0  0  0  0  0  0
    0.0178    1.2410    1.8469 H   0  0  0  0  0  0  0  0  0  0  0  0
   -0.8259    3.1712    1.5254 C   0  0  0  0  0  0  0  0  0  0  0  0
   -1.8769    3.4302    1.6645 H   0  0  0  0  0  0  0  0  0  0  0  0
   -0.2598    3.4806    2.4054 H   0  0  0  0  0  0  0  0  0  0  0  0
   -0.4486    3.7020    0.6489 H   0  0  0  0  0  0  0  0  0  0  0  0
  5  6  2  0  0  0  0
  5  7  1  0  0  0  0
  2  3  1  0  0  0  0
  2  4  1  0  0  0  0
  2  5  1  0  0  0  0
  1  2  1  0  0  0  0
 26 27  2  0  0  0  0
 26 28  1  0  0  0  0
 24 25  1  0  0  0  0
 22 23  1  0  0  0  0
 22 24  2  0  0  0  0
 20 21  1  0  0  0  0
 19 20  1  0  0  0  0
 19 22  1  0  0  0  0
 17 18  1  0  0  0  0
 17 19  2  0  0  0  0
 15 16  1  0  0  0  0
 15 17  1  0  0  0  0
 14 15  2  0  0  0  0
 14 24  1  0  0  0  0
 11 12  1  0  0  0  0
 11 13  1  0  0  0  0
 11 14  1  0  0  0  0
  9 10  1  0  0  0  0
  9 11  1  0  0  0  0
  9 26  1  0  0  0  0
  7  8  1  0  0  0  0
  7  9  1  0  0  0  0
 30 31  1  0  0  0  0
 30 32  1  0  0  0  0
 30 33  1  0  0  0  0
 28 29  1  0  0  0  0
 28 30  1  0  0  0  0
M  END
$$$$
default_name
  -OEChem-02102213163D

 33 33  0     1  0  0  0  0  0999 V2000
   -4.0702   -3.8485    1.4554 H   0  0  0  0  0  0  0  0  0  0  0  0
   -4.0012   -2.9605    0.8284 C   0  0  0  0  0  0  0  0  0  0  0  0
   -4.7652   -2.2435    1.1234 H   0  0  0  0  0  0  0  0  0  0  0  0
   -4.1352   -3.2385   -0.2156 H   0  0  0  0  0  0  0  0  0  0  0  0
   -2.6362   -2.3395    1.0094 C   0  0  0  0  0  0  0  0  0  0  0  0
   -1.8292   -2.8395    1.7814 O   0  0  0  0  0  0  0  0  0  0  0  0
   -2.3832   -1.2445    0.2964 N   0  0  0  0  0  0  0  0  0  0  0  0
   -3.1102   -0.8685   -0.2946 H   0  0  0  0  0  0  0  0  0  0  0  0
   -1.1292   -0.4875    0.3524 C   0  0  1  0  0  0  0  0  0  0  0  0
   -0.5898   -0.7762    1.2552 H   0  0  0  0  0  0  0  0  0  0  0  0
   -0.2608   -0.8470   -0.8656 C   0  0  0  0  0  0  0  0  0  0  0  0
   -0.4849   -1.8699   -1.1710 H   0  0  0  0  0  0  0  0  0  0  0  0
   -0.5285   -0.1918   -1.6962 H   0  0  0  0  0  0  0  0  0  0  0  0
    1.2305   -0.7484   -0.6088 C   0  0  0  0  0  0  0  0  0  0  0  0
    1.7134   -0.0665    0.5261 C   0  0  0  0  0  0  0  0  0  0  0  0
    1.0204    0.4123    1.2055 H   0  0  0  0  0  0  0  0  0  0  0  0
    3.0975   -0.0124    0.7818 C   0  0  0  0  0  0  0  0  0  0  0  0
    3.4638    0.5119    1.6510 H   0  0  0  0  0  0  0  0  0  0  0  0
    4.0011   -0.6459   -0.0989 C   0  0  0  0  0  0  0  0  0  0  0  0
    5.3375   -0.6020    0.1404 O   0  0  0  0  0  0  0  0  0  0  0  0
    5.5529   -0.0369    0.8836 H   0  0  0  0  0  0  0  0  0  0  0  0
    3.5158   -1.3319   -1.2315 C   0  0  0  0  0  0  0  0  0  0  0  0
    4.2170   -1.8085   -1.8999 H   0  0  0  0  0  0  0  0  0  0  0  0
    2.1322   -1.3803   -1.4868 C   0  0  0  0  0  0  0  0  0  0  0  0
    1.7607   -1.8997   -2.3622 H   0  0  0  0  0  0  0  0  0  0  0  0
   -1.4018    1.0238    0.4329 C   0  0  0  0  0  0  0  0  0  0  0  0
   -2.2416    1.5423   -0.3033 O   0  0  0  0  0  0  0  0  0  0  0  0
   -0.6927    1.7304    1.3223 N   0  0  0  0  0  0  0  0  0  0  0  0
    0.0178    1.2410    1.8469 H   0  0  0  0  0  0  0  0  0  0  0  0
   -0.8259    3.1712    1.5254 C   0  0  0  0  0  0  0  0  0  0  0  0
   -1.8769    3.4302    1.6645 H   0  0  0  0  0  0  0  0  0  0  0  0
   -0.2598    3.4806    2.4054 H   0  0  0  0  0  0  0  0  0  0  0  0
   -0.4486    3.7020    0.6489 H   0  0  0  0  0  0  0  0  0  0  0  0
  5  6  2  0  0  0  0
  5  7  1  0  0  0  0
  2  3  1  0  0  0  0
  2  4  1  0  0  0  0
  2  5  1  0  0  0  0
  1  2  1  0  0  0  0
 26 27  2  0  0  0  0
 26 28  1  0  0  0  0
 24 25  1  0  0  0  0
 22 23  1  0  0  0  0
 22 24  2  0  0  0  0
 20 21  1  0  0  0  0
 19 20  1  0  0  0  0
 19 22  1  0  0  0  0
 17 18  1  0  0  0  0
 17 19  2  0  0  0  0
 15 16  1  0  0  0  0
 15 17  1  0  0  0  0
 14 15  2  0  0  0  0
 14 24  1  0  0  0  0
 11 12  1  0  0  0  0
 11 13  1  0  0  0  0
 11 14  1  0  0  0  0
  9 10  1  0  0  0  0
  9 11  1  0  0  0  0
  9 26  1  0  0  0  0
  7  8  1  0  0  0  0
  7  9  1  0  0  0  0
 30 31  1  0  0  0  0
 30 32  1  0  0  0  0
 30 33  1  0  0  0  0
 28 29  1  0  0  0  0
 28 30  1  0  0  0  0
M  END
$$$$
default_name
  -OEChem-02102213163D

 33 33  0     1  0  0  0  0  0999 V2000
   -4.0702   -3.8485    1.4554 H   0  0  0  0  0  0  0  0  0  0  0  0
   -4.0012   -2.9605    0.8284 C   0  0  0  0  0  0  0  0  0  0  0  0
   -4.7652   -2.2435    1.1234 H   0  0  0  0  0  0  0  0  0  0  0  0
   -4.1352   -3.2385   -0.2156 H   0  0  0  0  0  0  0  0  0  0  0  0
   -2.6362   -2.3395    1.0094 C   0  0  0  0  0  0  0  0  0  0  0  0
   -1.8292   -2.8395    1.7814 O   0  0  0  0  0  0  0  0  0  0  0  0
   -2.3832   -1.2445    0.2964 N   0  0  0  0  0  0  0  0  0  0  0  0
   -3.1102   -0.8685   -0.2946 H   0  0  0  0  0  0  0  0  0  0  0  0
   -1.1292   -0.4875    0.3524 C   0  0  1  0  0  0  0  0  0  0  0  0
   -0.5898   -0.7762    1.2552 H   0  0  0  0  0  0  0  0  0  0  0  0
   -0.2608   -0.8470   -0.8656 C   0  0  0  0  0  0  0  0  0  0  0  0
   -0.4849   -1.8699   -1.1710 H   0  0  0  0  0  0  0  0  0  0  0  0
   -0.5285   -0.1918   -1.6962 H   0  0  0  0  0  0  0  0  0  0  0  0
    1.2305   -0.7484   -0.6088 C   0  0  0  0  0  0  0  0  0  0  0  0
    1.7100   -0.3559    0.6570 C   0  0  0  0  0  0  0  0  0  0  0  0
    1.0132   -0.0978    1.4437 H   0  0  0  0  0  0  0  0  0  0  0  0
    3.0960   -0.3050    0.9026 C   0  0  0  0  0  0  0  0  0  0  0  0
    3.4597   -0.0025    1.8725 H   0  0  0  0  0  0  0  0  0  0  0  0
    4.0052   -0.6515   -0.1206 C   0  0  0  0  0  0  0  0  0  0  0  0
    5.3437   -0.6084    0.1071 O   0  0  0  0  0  0  0  0  0  0  0  0
    5.5520   -0.2415    0.9673 H   0  0  0  0  0  0  0  0  0  0  0  0
    3.5235   -1.0487   -1.3851 C   0  0  0  0  0  0  0  0  0  0  0  0
    4.2287   -1.3071   -2.1607 H   0  0  0  0  0  0  0  0  0  0  0  0
    2.1377   -1.0942   -1.6289 C   0  0  0  0  0  0  0  0  0  0  0  0
    1.7685   -1.3906   -2.6035 H   0  0  0  0  0  0  0  0  0  0  0  0
   -1.4018    1.0238    0.4329 C   0  0  0  0  0  0  0  0  0  0  0  0
   -2.2416    1.5423   -0.3033 O   0  0  0  0  0  0  0  0  0  0  0  0
   -0.6927    1.7304    1.3223 N   0  0  0  0  0  0  0  0  0  0  0  0
    0.0178    1.2410    1.8469 H   0  0  0  0  0  0  0  0  0  0  0  0
   -0.8259    3.1712    1.5254 C   0  0  0  0  0  0  0  0  0  0  0  0
   -1.8769    3.4302    1.6645 H   0  0  0  0  0  0  0  0  0  0  0  0
   -0.2598    3.4806    2.4054 H   0  0  0  0  0  0  0  0  0  0  0  0
   -0.4486    3.7020    0.6489 H   0  0  0  0  0  0  0  0  0  0  0  0
  5  6  2  0  0  0  0
  5  7  1  0  0  0  0
  2  3  1  0  0  0  0
  2  4  1  0  0  0  0
  2  5  1  0  0  0  0
  1  2  1  0  0  0  0
 26 27  2  0  0  0  0
 26 28  1  0  0  0  0
 24 25  1  0  0  0  0
 22 23  1  0  0  0  0
 22 24  2  0  0  0  0
 20 21  1  0  0  0  0
 19 20  1  0  0  0  0
 19 22  1  0  0  0  0
 17 18  1  0  0  0  0
 17 19  2  0  0  0  0
 15 16  1  0  0  0  0
 15 17  1  0  0  0  0
 14 15  2  0  0  0  0
 14 24  1  0  0  0  0
 11 12  1  0  0  0  0
 11 13  1  0  0  0  0
 11 14  1  0  0  0  0
  9 10  1  0  0  0  0
  9 11  1  0  0  0  0
  9 26  1  0  0  0  0
  7  8  1  0  0  0  0
  7  9  1  0  0  0  0
 30 31  1  0  0  0  0
 30 32  1  0  0  0  0
 30 33  1  0  0  0  0
 28 29  1  0  0  0  0
 28 30  1  0  0  0  0
M  END
$$$$
default_name
  -OEChem-02102213163D

 33 33  0     1  0  0  0  0  0999 V2000
   -4.0702   -3.8485    1.4554 H   0  0  0  0  0  0  0  0  0  0  0  0
   -4.0012   -2.9605    0.8284 C   0  0  0  0  0  0  0  0  0  0  0  0
   -4.7652   -2.2435    1.1234 H   0  0  0  0  0  0  0  0  0  0  0  0
   -4.1352   -3.2385   -0.2156 H   0  0  0  0  0  0  0  0  0  0  0  0
   -2.6362   -2.3395    1.0094 C   0  0  0  0  0  0  0  0  0  0  0  0
   -1.8292   -2.8395    1.7814 O   0  0  0  0  0  0  0  0  0  0  0  0
   -2.3832   -1.2445    0.2964 N   0  0  0  0  0  0  0  0  0  0  0  0
   -3.1102   -0.8685   -0.2946 H   0  0  0  0  0  0  0  0  0  0  0  0
   -1.1292   -0.4875    0.3524 C   0  0  1  0  0  0  0  0  0  0  0  0
   -0.5898   -0.7762    1.2552 H   0  0  0  0  0  0  0  0  0  0  0  0
   -0.2608   -0.8470   -0.8656 C   0  0  0  0  0  0  0  0  0  0  0  0
   -0.4849   -1.8699   -1.1710 H   0  0  0  0  0  0  0  0  0  0  0  0
   -0.5285   -0.1918   -1.6962 H   0  0  0  0  0  0  0  0  0  0  0  0
    1.2305   -0.7484   -0.6088 C   0  0  0  0  0  0  0  0  0  0  0  0
    1.7216   -0.6689    0.7098 C   0  0  0  0  0  0  0  0  0  0  0  0
    1.0325   -0.6516    1.5440 H   0  0  0  0  0  0  0  0  0  0  0  0
    3.1095   -0.6183    0.9448 C   0  0  0  0  0  0  0  0  0  0  0  0
    3.4820   -0.5559    1.9557 H   0  0  0  0  0  0  0  0  0  0  0  0
    4.0091   -0.6512   -0.1430 C   0  0  0  0  0  0  0  0  0  0  0  0
    5.3493   -0.6059    0.0732 O   0  0  0  0  0  0  0  0  0  0  0  0
    5.5615   -0.4605    0.9962 H   0  0  0  0  0  0  0  0  0  0  0  0
    3.5160   -0.7358   -1.4616 C   0  0  0  0  0  0  0  0  0  0  0  0
    4.2137   -0.7558   -2.2852 H   0  0  0  0  0  0  0  0  0  0  0  0
    2.1281   -0.7815   -1.6934 C   0  0  0  0  0  0  0  0  0  0  0  0
    1.7498   -0.8371   -2.7072 H   0  0  0  0  0  0  0  0  0  0  0  0
   -1.4018    1.0238    0.4329 C   0  0  0  0  0  0  0  0  0  0  0  0
   -2.2416    1.5423   -0.3033 O   0  0  0  0  0  0  0  0  0  0  0  0
   -0.6927    1.7304    1.3223 N   0  0  0  0  0  0  0  0  0  0  0  0
    0.0178    1.2410    1.8469 H   0  0  0  0  0  0  0  0  0  0  0  0
   -0.8259    3.1712    1.5254 C   0  0  0  0  0  0  0  0  0  0  0  0
   -1.8769    3.4302    1.6645 H   0  0  0  0  0  0  0  0  0  0  0  0
   -0.2598    3.4806    2.4054 H   0  0  0  0  0  0  0  0  0  0  0  0
   -0.4486    3.7020    0.6489 H   0  0  0  0  0  0  0  0  0  0  0  0
  5  6  2  0  0  0  0
  5  7  1  0  0  0  0
  2  3  1  0  0  0  0
  2  4  1  0  0  0  0
  2  5  1  0  0  0  0
  1  2  1  0  0  0  0
 26 27  2  0  0  0  0
 26 28  1  0  0  0  0
 24 25  1  0  0  0  0
 22 23  1  0  0  0  0
 22 24  2  0  0  0  0
 20 21  1  0  0  0  0
 19 20  1  0  0  0  0
 19 22  1  0  0  0  0
 17 18  1  0  0  0  0
 17 19  2  0  0  0  0
 15 16  1  0  0  0  0
 15 17  1  0  0  0  0
 14 15  2  0  0  0  0
 14 24  1  0  0  0  0
 11 12  1  0  0  0  0
 11 13  1  0  0  0  0
 11 14  1  0  0  0  0
  9 10  1  0  0  0  0
  9 11  1  0  0  0  0
  9 26  1  0  0  0  0
  7  8  1  0  0  0  0
  7  9  1  0  0  0  0
 30 31  1  0  0  0  0
 30 32  1  0  0  0  0
 30 33  1  0  0  0  0
 28 29  1  0  0  0  0
 28 30  1  0  0  0  0
M  END
$$$$
default_name
  -OEChem-02102213163D

 33 33  0     1  0  0  0  0  0999 V2000
   -4.0702   -3.8485    1.4554 H   0  0  0  0  0  0  0  0  0  0  0  0
   -4.0012   -2.9605    0.8284 C   0  0  0  0  0  0  0  0  0  0  0  0
   -4.7652   -2.2435    1.1234 H   0  0  0  0  0  0  0  0  0  0  0  0
   -4.1352   -3.2385   -0.2156 H   0  0  0  0  0  0  0  0  0  0  0  0
   -2.6362   -2.3395    1.0094 C   0  0  0  0  0  0  0  0  0  0  0  0
   -1.8292   -2.8395    1.7814 O   0  0  0  0  0  0  0  0  0  0  0  0
   -2.3832   -1.2445    0.2964 N   0  0  0  0  0  0  0  0  0  0  0  0
   -3.1102   -0.8685   -0.2946 H   0  0  0  0  0  0  0  0  0  0  0  0
   -1.1292   -0.4875    0.3524 C   0  0  1  0  0  0  0  0  0  0  0  0
   -0.5898   -0.7762    1.2552 H   0  0  0  0  0  0  0  0  0  0  0  0
   -0.2608   -0.8470   -0.8656 C   0  0  0  0  0  0  0  0  0  0  0  0
   -0.4849   -1.8699   -1.1710 H   0  0  0  0  0  0  0  0  0  0  0  0
   -0.5285   -0.1918   -1.6962 H   0  0  0  0  0  0  0  0  0  0  0  0
    1.2305   -0.7484   -0.6088 C   0  0  0  0  0  0  0  0  0  0  0  0
    1.7474   -0.9841    0.6809 C   0  0  0  0  0  0  0  0  0  0  0  0
    1.0771   -1.2111    1.4996 H   0  0  0  0  0  0  0  0  0  0  0  0
    3.1369   -0.9311    0.9055 C   0  0  0  0  0  0  0  0  0  0  0  0
    3.5291   -1.1106    1.8948 H   0  0  0  0  0  0  0  0  0  0  0  0
    4.0124   -0.6451   -0.1646 C   0  0  0  0  0  0  0  0  0  0  0  0
    5.3541   -0.5947    0.0410 O   0  0  0  0  0  0  0  0  0  0  0  0
    5.5808   -0.6790    0.9681 H   0  0  0  0  0  0  0  0  0  0  0  0
    3.4937   -0.4143   -1.4556 C   0  0  0  0  0  0  0  0  0  0  0  0
    4.1730   -0.1923   -2.2649 H   0  0  0  0  0  0  0  0  0  0  0  0
    2.1041   -0.4634   -1.6760 C   0  0  0  0  0  0  0  0  0  0  0  0
    1.7057   -0.2769   -2.6662 H   0  0  0  0  0  0  0  0  0  0  0  0
   -1.4018    1.0238    0.4329 C   0  0  0  0  0  0  0  0  0  0  0  0
   -2.2416    1.5423   -0.3033 O   0  0  0  0  0  0  0  0  0  0  0  0
   -0.6927    1.7304    1.3223 N   0  0  0  0  0  0  0  0  0  0  0  0
    0.0178    1.2410    1.8469 H   0  0  0  0  0  0  0  0  0  0  0  0
   -0.8259    3.1712    1.5254 C   0  0  0  0  0  0  0  0  0  0  0  0
   -1.8769    3.4302    1.6645 H   0  0  0  0  0  0  0  0  0  0  0  0
   -0.2598    3.4806    2.4054 H   0  0  0  0  0  0  0  0  0  0  0  0
   -0.4486    3.7020    0.6489 H   0  0  0  0  0  0  0  0  0  0  0  0
  5  6  2  0  0  0  0
  5  7  1  0  0  0  0
  2  3  1  0  0  0  0
  2  4  1  0  0  0  0
  2  5  1  0  0  0  0
  1  2  1  0  0  0  0
 26 27  2  0  0  0  0
 26 28  1  0  0  0  0
 24 25  1  0  0  0  0
 22 23  1  0  0  0  0
 22 24  2  0  0  0  0
 20 21  1  0  0  0  0
 19 20  1  0  0  0  0
 19 22  1  0  0  0  0
 17 18  1  0  0  0  0
 17 19  2  0  0  0  0
 15 16  1  0  0  0  0
 15 17  1  0  0  0  0
 14 15  2  0  0  0  0
 14 24  1  0  0  0  0
 11 12  1  0  0  0  0
 11 13  1  0  0  0  0
 11 14  1  0  0  0  0
  9 10  1  0  0  0  0
  9 11  1  0  0  0  0
  9 26  1  0  0  0  0
  7  8  1  0  0  0  0
  7  9  1  0  0  0  0
 30 31  1  0  0  0  0
 30 32  1  0  0  0  0
 30 33  1  0  0  0  0
 28 29  1  0  0  0  0
 28 30  1  0  0  0  0
M  END
$$$$
default_name
  -OEChem-02102213163D

 33 33  0     1  0  0  0  0  0999 V2000
   -4.0702   -3.8485    1.4554 H   0  0  0  0  0  0  0  0  0  0  0  0
   -4.0012   -2.9605    0.8284 C   0  0  0  0  0  0  0  0  0  0  0  0
   -4.7652   -2.2435    1.1234 H   0  0  0  0  0  0  0  0  0  0  0  0
   -4.1352   -3.2385   -0.2156 H   0  0  0  0  0  0  0  0  0  0  0  0
   -2.6362   -2.3395    1.0094 C   0  0  0  0  0  0  0  0  0  0  0  0
   -1.8292   -2.8395    1.7814 O   0  0  0  0  0  0  0  0  0  0  0  0
   -2.3832   -1.2445    0.2964 N   0  0  0  0  0  0  0  0  0  0  0  0
   -3.1102   -0.8685   -0.2946 H   0  0  0  0  0  0  0  0  0  0  0  0
   -1.1292   -0.4875    0.3524 C   0  0  1  0  0  0  0  0  0  0  0  0
   -0.5898   -0.7762    1.2552 H   0  0  0  0  0  0  0  0  0  0  0  0
   -0.2608   -0.8470   -0.8656 C   0  0  0  0  0  0  0  0  0  0  0  0
   -0.4849   -1.8699   -1.1710 H   0  0  0  0  0  0  0  0  0  0  0  0
   -0.5285   -0.1918   -1.6962 H   0  0  0  0  0  0  0  0  0  0  0  0
    1.2305   -0.7484   -0.6088 C   0  0  0  0  0  0  0  0  0  0  0  0
    1.7857   -1.2801    0.5724 C   0  0  0  0  0  0  0  0  0  0  0  0
    1.1440   -1.7383    1.3136 H   0  0  0  0  0  0  0  0  0  0  0  0
    3.1764   -1.2221    0.7876 C   0  0  0  0  0  0  0  0  0  0  0  0
    3.5980   -1.6289    1.6939 H   0  0  0  0  0  0  0  0  0  0  0  0
    4.0150   -0.6335   -0.1840 C   0  0  0  0  0  0  0  0  0  0  0  0
    5.3577   -0.5754    0.0127 O   0  0  0  0  0  0  0  0  0  0  0  0
    5.6085   -0.8820    0.8851 H   0  0  0  0  0  0  0  0  0  0  0  0
    3.4582   -0.1063   -1.3677 C   0  0  0  0  0  0  0  0  0  0  0  0
    4.1093    0.3451   -2.1011 H   0  0  0  0  0  0  0  0  0  0  0  0
    2.0672   -0.1617   -1.5778 C   0  0  0  0  0  0  0  0  0  0  0  0
    1.6392    0.2518   -2.4832 H   0  0  0  0  0  0  0  0  0  0  0  0
   -1.4018    1.0238    0.4329 C   0  0  0  0  0  0  0  0  0  0  0  0
   -2.2416    1.5423   -0.3033 O   0  0  0  0  0  0  0  0  0  0  0  0
   -0.6927    1.7304    1.3223 N   0  0  0  0  0  0  0  0  0  0  0  0
    0.0178    1.2410    1.8469 H   0  0  0  0  0  0  0  0  0  0  0  0
   -0.8259    3.1712    1.5254 C   0  0  0  0  0  0  0  0  0  0  0  0
   -1.8769    3.4302    1.6645 H   0  0  0  0  0  0  0  0  0  0  0  0
   -0.2598    3.4806    2.4054 H   0  0  0  0  0  0  0  0  0  0  0  0
   -0.4486    3.7020    0.6489 H   0  0  0  0  0  0  0  0  0  0  0  0
  5  6  2  0  0  0  0
  5  7  1  0  0  0  0
  2  3  1  0  0  0  0
  2  4  1  0  0  0  0
  2  5  1  0  0  0  0
  1  2  1  0  0  0  0
 26 27  2  0  0  0  0
 26 28  1  0  0  0  0
 24 25  1  0  0  0  0
 22 23  1  0  0  0  0
 22 24  2  0  0  0  0
 20 21  1  0  0  0  0
 19 20  1  0  0  0  0
 19 22  1  0  0  0  0
 17 18  1  0  0  0  0
 17 19  2  0  0  0  0
 15 16  1  0  0  0  0
 15 17  1  0  0  0  0
 14 15  2  0  0  0  0
 14 24  1  0  0  0  0
 11 12  1  0  0  0  0
 11 13  1  0  0  0  0
 11 14  1  0  0  0  0
  9 10  1  0  0  0  0
  9 11  1  0  0  0  0
  9 26  1  0  0  0  0
  7  8  1  0  0  0  0
  7  9  1  0  0  0  0
 30 31  1  0  0  0  0
 30 32  1  0  0  0  0
 30 33  1  0  0  0  0
 28 29  1  0  0  0  0
 28 30  1  0  0  0  0
M  END
$$$$
default_name
  -OEChem-02102213163D

 33 33  0     1  0  0  0  0  0999 V2000
   -4.0702   -3.8485    1.4554 H   0  0  0  0  0  0  0  0  0  0  0  0
   -4.0012   -2.9605    0.8284 C   0  0  0  0  0  0  0  0  0  0  0  0
   -4.7652   -2.2435    1.1234 H   0  0  0  0  0  0  0  0  0  0  0  0
   -4.1352   -3.2385   -0.2156 H   0  0  0  0  0  0  0  0  0  0  0  0
   -2.6362   -2.3395    1.0094 C   0  0  0  0  0  0  0  0  0  0  0  0
   -1.8292   -2.8395    1.7814 O   0  0  0  0  0  0  0  0  0  0  0  0
   -2.3832   -1.2445    0.2964 N   0  0  0  0  0  0  0  0  0  0  0  0
   -3.1102   -0.8685   -0.2946 H   0  0  0  0  0  0  0  0  0  0  0  0
   -1.1292   -0.4875    0.3524 C   0  0  1  0  0  0  0  0  0  0  0  0
   -0.5898   -0.7762    1.2552 H   0  0  0  0  0  0  0  0  0  0  0  0
   -0.2608   -0.8470   -0.8656 C   0  0  0  0  0  0  0  0  0  0  0  0
   -0.4849   -1.8699   -1.1710 H   0  0  0  0  0  0  0  0  0  0  0  0
   -0.5285   -0.1918   -1.6962 H   0  0  0  0  0  0  0  0  0  0  0  0
    1.2305   -0.7484   -0.6088 C   0  0  0  0  0  0  0  0  0  0  0  0
    1.8338   -1.5368    0.3916 C   0  0  0  0  0  0  0  0  0  0  0  0
    1.2286   -2.1973    0.9986 H   0  0  0  0  0  0  0  0  0  0  0  0
    3.2254   -1.4714    0.5989 C   0  0  0  0  0  0  0  0  0  0  0  0
    3.6838   -2.0754    1.3669 H   0  0  0  0  0  0  0  0  0  0  0  0
    4.0166   -0.6173   -0.1999 C   0  0  0  0  0  0  0  0  0  0  0  0
    5.3599   -0.5494   -0.0098 O   0  0  0  0  0  0  0  0  0  0  0  0
    5.6427   -1.0558    0.7527 H   0  0  0  0  0  0  0  0  0  0  0  0
    3.4119    0.1672   -1.2038 C   0  0  0  0  0  0  0  0  0  0  0  0
    4.0269    0.8197   -1.8051 H   0  0  0  0  0  0  0  0  0  0  0  0
    2.0201    0.1031   -1.4055 C   0  0  0  0  0  0  0  0  0  0  0  0
    1.5550    0.7131   -2.1707 H   0  0  0  0  0  0  0  0  0  0  0  0
   -1.4018    1.0238    0.4329 C   0  0  0  0  0  0  0  0  0  0  0  0
   -2.2416    1.5423   -0.3033 O   0  0  0  0  0  0  0  0  0  0  0  0
   -0.6927    1.7304    1.3223 N   0  0  0  0  0  0  0  0  0  0  0  0
    0.0178    1.2410    1.8469 H   0  0  0  0  0  0  0  0  0  0  0  0
   -0.8259    3.1712    1.5254 C   0  0  0  0  0  0  0  0  0  0  0  0
   -1.8769    3.4302    1.6645 H   0  0  0  0  0  0  0  0  0  0  0  0
   -0.2598    3.4806    2.4054 H   0  0  0  0  0  0  0  0  0  0  0  0
   -0.4486    3.7020    0.6489 H   0  0  0  0  0  0  0  0  0  0  0  0
  5  6  2  0  0  0  0
  5  7  1  0  0  0  0
  2  3  1  0  0  0  0
  2  4  1  0  0  0  0
  2  5  1  0  0  0  0
  1  2  1  0  0  0  0
 26 27  2  0  0  0  0
 26 28  1  0  0  0  0
 24 25  1  0  0  0  0
 22 23  1  0  0  0  0
 22 24  2  0  0  0  0
 20 21  1  0  0  0  0
 19 20  1  0  0  0  0
 19 22  1  0  0  0  0
 17 18  1  0  0  0  0
 17 19  2  0  0  0  0
 15 16  1  0  0  0  0
 15 17  1  0  0  0  0
 14 15  2  0  0  0  0
 14 24  1  0  0  0  0
 11 12  1  0  0  0  0
 11 13  1  0  0  0  0
 11 14  1  0  0  0  0
  9 10  1  0  0  0  0
  9 11  1  0  0  0  0
  9 26  1  0  0  0  0
  7  8  1  0  0  0  0
  7  9  1  0  0  0  0
 30 31  1  0  0  0  0
 30 32  1  0  0  0  0
 30 33  1  0  0  0  0
 28 29  1  0  0  0  0
 28 30  1  0  0  0  0
M  END
$$$$
default_name
  -OEChem-02102213163D

 33 33  0     1  0  0  0  0  0999 V2000
   -4.0702   -3.8485    1.4554 H   0  0  0  0  0  0  0  0  0  0  0  0
   -4.0012   -2.9605    0.8284 C   0  0  0  0  0  0  0  0  0  0  0  0
   -4.7652   -2.2435    1.1234 H   0  0  0  0  0  0  0  0  0  0  0  0
   -4.1352   -3.2385   -0.2156 H   0  0  0  0  0  0  0  0  0  0  0  0
   -2.6362   -2.3395    1.0094 C   0  0  0  0  0  0  0  0  0  0  0  0
   -1.8292   -2.8395    1.7814 O   0  0  0  0  0  0  0  0  0  0  0  0
   -2.3832   -1.2445    0.2964 N   0  0  0  0  0  0  0  0  0  0  0  0
   -3.1102   -0.8685   -0.2946 H   0  0  0  0  0  0  0  0  0  0  0  0
   -1.1292   -0.4875    0.3524 C   0  0  1  0  0  0  0  0  0  0  0  0
   -0.5898   -0.7762    1.2552 H   0  0  0  0  0  0  0  0  0  0  0  0
   -0.2608   -0.8470   -0.8656 C   0  0  0  0  0  0  0  0  0  0  0  0
   -0.4849   -1.8699   -1.1710 H   0  0  0  0  0  0  0  0  0  0  0  0
   -0.5285   -0.1918   -1.6962 H   0  0  0  0  0  0  0  0  0  0  0  0
    1.2305   -0.7484   -0.6088 C   0  0  0  0  0  0  0  0  0  0  0  0
    1.8885   -1.7365    0.1508 C   0  0  0  0  0  0  0  0  0  0  0  0
    1.3251   -2.5567    0.5761 H   0  0  0  0  0  0  0  0  0  0  0  0
    3.2805   -1.6621    0.3524 C   0  0  0  0  0  0  0  0  0  0  0  0
    3.7808   -2.4196    0.9359 H   0  0  0  0  0  0  0  0  0  0  0  0
    4.0172   -0.5975   -0.2111 C   0  0  0  0  0  0  0  0  0  0  0  0
    5.3604   -0.5184   -0.0249 O   0  0  0  0  0  0  0  0  0  0  0  0
    5.6812   -1.1885    0.5801 H   0  0  0  0  0  0  0  0  0  0  0  0
    3.3580    0.3877   -0.9750 C   0  0  0  0  0  0  0  0  0  0  0  0
    3.9316    1.1992   -1.3970 H   0  0  0  0  0  0  0  0  0  0  0  0
    1.9658    0.3130   -1.1709 C   0  0  0  0  0  0  0  0  0  0  0  0
    1.4586    1.0754   -1.7501 H   0  0  0  0  0  0  0  0  0  0  0  0
   -1.4018    1.0238    0.4329 C   0  0  0  0  0  0  0  0  0  0  0  0
   -2.2416    1.5423   -0.3033 O   0  0  0  0  0  0  0  0  0  0  0  0
   -0.6927    1.7304    1.3223 N   0  0  0  0  0  0  0  0  0  0  0  0
    0.0178    1.2410    1.8469 H   0  0  0  0  0  0  0  0  0  0  0  0
   -0.8259    3.1712    1.5254 C   0  0  0  0  0  0  0  0  0  0  0  0
   -1.8769    3.4302    1.6645 H   0  0  0  0  0  0  0  0  0  0  0  0
   -0.2598    3.4806    2.4054 H   0  0  0  0  0  0  0  0  0  0  0  0
   -0.4486    3.7020    0.6489 H   0  0  0  0  0  0  0  0  0  0  0  0
  5  6  2  0  0  0  0
  5  7  1  0  0  0  0
  2  3  1  0  0  0  0
  2  4  1  0  0  0  0
  2  5  1  0  0  0  0
  1  2  1  0  0  0  0
 26 27  2  0  0  0  0
 26 28  1  0  0  0  0
 24 25  1  0  0  0  0
 22 23  1  0  0  0  0
 22 24  2  0  0  0  0
 20 21  1  0  0  0  0
 19 20  1  0  0  0  0
 19 22  1  0  0  0  0
 17 18  1  0  0  0  0
 17 19  2  0  0  0  0
 15 16  1  0  0  0  0
 15 17  1  0  0  0  0
 14 15  2  0  0  0  0
 14 24  1  0  0  0  0
 11 12  1  0  0  0  0
 11 13  1  0  0  0  0
 11 14  1  0  0  0  0
  9 10  1  0  0  0  0
  9 11  1  0  0  0  0
  9 26  1  0  0  0  0
  7  8  1  0  0  0  0
  7  9  1  0  0  0  0
 30 31  1  0  0  0  0
 30 32  1  0  0  0  0
 30 33  1  0  0  0  0
 28 29  1  0  0  0  0
 28 30  1  0  0  0  0
M  END
$$$$
default_name
  -OEChem-02102213163D

 33 33  0     1  0  0  0  0  0999 V2000
   -4.0702   -3.8485    1.4554 H   0  0  0  0  0  0  0  0  0  0  0  0
   -4.0012   -2.9605    0.8284 C   0  0  0  0  0  0  0  0  0  0  0  0
   -4.7652   -2.2435    1.1234 H   0  0  0  0  0  0  0  0  0  0  0  0
   -4.1352   -3.2385   -0.2156 H   0  0  0  0  0  0  0  0  0  0  0  0
   -2.6362   -2.3395    1.0094 C   0  0  0  0  0  0  0  0  0  0  0  0
   -1.8292   -2.8395    1.7814 O   0  0  0  0  0  0  0  0  0  0  0  0
   -2.3832   -1.2445    0.2964 N   0  0  0  0  0  0  0  0  0  0  0  0
   -3.1102   -0.8685   -0.2946 H   0  0  0  0  0  0  0  0  0  0  0  0
   -1.1292   -0.4875    0.3524 C   0  0  1  0  0  0  0  0  0  0  0  0
   -0.5898   -0.7762    1.2552 H   0  0  0  0  0  0  0  0  0  0  0  0
   -0.2608   -0.8470   -0.8656 C   0  0  0  0  0  0  0  0  0  0  0  0
   -0.4849   -1.8699   -1.1710 H   0  0  0  0  0  0  0  0  0  0  0  0
   -0.5285   -0.1918   -1.6962 H   0  0  0  0  0  0  0  0  0  0  0  0
    1.2305   -0.7484   -0.6088 C   0  0  0  0  0  0  0  0  0  0  0  0
    1.9460   -1.8658   -0.1336 C   0  0  0  0  0  0  0  0  0  0  0  0
    1.4269   -2.7922    0.0749 H   0  0  0  0  0  0  0  0  0  0  0  0
    3.3378   -1.7811    0.0648 C   0  0  0  0  0  0  0  0  0  0  0  0
    3.8823   -2.6382    0.4303 H   0  0  0  0  0  0  0  0  0  0  0  0
    4.0168   -0.5756   -0.2169 C   0  0  0  0  0  0  0  0  0  0  0  0
    5.3594   -0.4846   -0.0317 O   0  0  0  0  0  0  0  0  0  0  0  0
    5.7213   -1.2710    0.3789 H   0  0  0  0  0  0  0  0  0  0  0  0
    3.3000    0.5401   -0.6970 C   0  0  0  0  0  0  0  0  0  0  0  0
    3.8297    1.4576   -0.9046 H   0  0  0  0  0  0  0  0  0  0  0  0
    1.9081    0.4537   -0.8899 C   0  0  0  0  0  0  0  0  0  0  0  0
    1.3567    1.3141   -1.2500 H   0  0  0  0  0  0  0  0  0  0  0  0
   -1.4018    1.0238    0.4329 C   0  0  0  0  0  0  0  0  0  0  0  0
   -2.2416    1.5423   -0.3033 O   0  0  0  0  0  0  0  0  0  0  0  0
   -0.6927    1.7304    1.3223 N   0  0  0  0  0  0  0  0  0  0  0  0
    0.0178    1.2410    1.8469 H   0  0  0  0  0  0  0  0  0  0  0  0
   -0.8259    3.1712    1.5254 C   0  0  0  0  0  0  0  0  0  0  0  0
   -1.8769    3.4302    1.6645 H   0  0  0  0  0  0  0  0  0  0  0  0
   -0.2598    3.4806    2.4054 H   0  0  0  0  0  0  0  0  0  0  0  0
   -0.4486    3.7020    0.6489 H   0  0  0  0  0  0  0  0  0  0  0  0
  5  6  2  0  0  0  0
  5  7  1  0  0  0  0
  2  3  1  0  0  0  0
  2  4  1  0  0  0  0
  2  5  1  0  0  0  0
  1  2  1  0  0  0  0
 26 27  2  0  0  0  0
 26 28  1  0  0  0  0
 24 25  1  0  0  0  0
 22 23  1  0  0  0  0
 22 24  2  0  0  0  0
 20 21  1  0  0  0  0
 19 20  1  0  0  0  0
 19 22  1  0  0  0  0
 17 18  1  0  0  0  0
 17 19  2  0  0  0  0
 15 16  1  0  0  0  0
 15 17  1  0  0  0  0
 14 15  2  0  0  0  0
 14 24  1  0  0  0  0
 11 12  1  0  0  0  0
 11 13  1  0  0  0  0
 11 14  1  0  0  0  0
  9 10  1  0  0  0  0
  9 11  1  0  0  0  0
  9 26  1  0  0  0  0
  7  8  1  0  0  0  0
  7  9  1  0  0  0  0
 30 31  1  0  0  0  0
 30 32  1  0  0  0  0
 30 33  1  0  0  0  0
 28 29  1  0  0  0  0
 28 30  1  0  0  0  0
M  END
$$$$
default_name
  -OEChem-02102213163D

 33 33  0     1  0  0  0  0  0999 V2000
   -4.0702   -3.8485    1.4554 H   0  0  0  0  0  0  0  0  0  0  0  0
   -4.0012   -2.9605    0.8284 C   0  0  0  0  0  0  0  0  0  0  0  0
   -4.7652   -2.2435    1.1234 H   0  0  0  0  0  0  0  0  0  0  0  0
   -4.1352   -3.2385   -0.2156 H   0  0  0  0  0  0  0  0  0  0  0  0
   -2.6362   -2.3395    1.0094 C   0  0  0  0  0  0  0  0  0  0  0  0
   -1.8292   -2.8395    1.7814 O   0  0  0  0  0  0  0  0  0  0  0  0
   -2.3832   -1.2445    0.2964 N   0  0  0  0  0  0  0  0  0  0  0  0
   -3.1102   -0.8685   -0.2946 H   0  0  0  0  0  0  0  0  0  0  0  0
   -1.1292   -0.4875    0.3524 C   0  0  1  0  0  0  0  0  0  0  0  0
   -0.5898   -0.7762    1.2552 H   0  0  0  0  0  0  0  0  0  0  0  0
   -0.2608   -0.8470   -0.8656 C   0  0  0  0  0  0  0  0  0  0  0  0
   -0.4849   -1.8699   -1.1710 H   0  0  0  0  0  0  0  0  0  0  0  0
   -0.5285   -0.1918   -1.6962 H   0  0  0  0  0  0  0  0  0  0  0  0
    1.2305   -0.7484   -0.6088 C   0  0  0  0  0  0  0  0  0  0  0  0
    2.0024   -1.9157   -0.4421 C   0  0  0  0  0  0  0  0  0  0  0  0
    1.5272   -2.8876   -0.4709 H   0  0  0  0  0  0  0  0  0  0  0  0
    3.3936   -1.8203   -0.2443 C   0  0  0  0  0  0  0  0  0  0  0  0
    3.9814   -2.7162   -0.1154 H   0  0  0  0  0  0  0  0  0  0  0  0
    4.0153   -0.5529   -0.2169 C   0  0  0  0  0  0  0  0  0  0  0  0
    5.3568   -0.4503   -0.0296 O   0  0  0  0  0  0  0  0  0  0  0  0
    5.7603   -1.2977    0.1629 H   0  0  0  0  0  0  0  0  0  0  0  0
    3.2421    0.6140   -0.3888 C   0  0  0  0  0  0  0  0  0  0  0  0
    3.7283    1.5775   -0.3615 H   0  0  0  0  0  0  0  0  0  0  0  0
    1.8510    0.5155   -0.5817 C   0  0  0  0  0  0  0  0  0  0  0  0
    1.2563    1.4129   -0.7045 H   0  0  0  0  0  0  0  0  0  0  0  0
   -1.4018    1.0238    0.4329 C   0  0  0  0  0  0  0  0  0  0  0  0
   -2.2416    1.5423   -0.3033 O   0  0  0  0  0  0  0  0  0  0  0  0
   -0.6927    1.7304    1.3223 N   0  0  0  0  0  0  0  0  0  0  0  0
    0.0178    1.2410    1.8469 H   0  0  0  0  0  0  0  0  0  0  0  0
   -0.8259    3.1712    1.5254 C   0  0  0  0  0  0  0  0  0  0  0  0
   -1.8769    3.4302    1.6645 H   0  0  0  0  0  0  0  0  0  0  0  0
   -0.2598    3.4806    2.4054 H   0  0  0  0  0  0  0  0  0  0  0  0
   -0.4486    3.7020    0.6489 H   0  0  0  0  0  0  0  0  0  0  0  0
  5  6  2  0  0  0  0
  5  7  1  0  0  0  0
  2  3  1  0  0  0  0
  2  4  1  0  0  0  0
  2  5  1  0  0  0  0
  1  2  1  0  0  0  0
 26 27  2  0  0  0  0
 26 28  1  0  0  0  0
 24 25  1  0  0  0  0
 22 23  1  0  0  0  0
 22 24  2  0  0  0  0
 20 21  1  0  0  0  0
 19 20  1  0  0  0  0
 19 22  1  0  0  0  0
 17 18  1  0  0  0  0
 17 19  2  0  0  0  0
 15 16  1  0  0  0  0
 15 17  1  0  0  0  0
 14 15  2  0  0  0  0
 14 24  1  0  0  0  0
 11 12  1  0  0  0  0
 11 13  1  0  0  0  0
 11 14  1  0  0  0  0
  9 10  1  0  0  0  0
  9 11  1  0  0  0  0
  9 26  1  0  0  0  0
  7  8  1  0  0  0  0
  7  9  1  0  0  0  0
 30 31  1  0  0  0  0
 30 32  1  0  0  0  0
 30 33  1  0  0  0  0
 28 29  1  0  0  0  0
 28 30  1  0  0  0  0
M  END
$$$$
default_name
  -OEChem-02102213163D

 33 33  0     1  0  0  0  0  0999 V2000
   -4.0702   -3.8485    1.4554 H   0  0  0  0  0  0  0  0  0  0  0  0
   -4.0012   -2.9605    0.8284 C   0  0  0  0  0  0  0  0  0  0  0  0
   -4.7652   -2.2435    1.1234 H   0  0  0  0  0  0  0  0  0  0  0  0
   -4.1352   -3.2385   -0.2156 H   0  0  0  0  0  0  0  0  0  0  0  0
   -2.6362   -2.3395    1.0094 C   0  0  0  0  0  0  0  0  0  0  0  0
   -1.8292   -2.8395    1.7814 O   0  0  0  0  0  0  0  0  0  0  0  0
   -2.3832   -1.2445    0.2964 N   0  0  0  0  0  0  0  0  0  0  0  0
   -3.1102   -0.8685   -0.2946 H   0  0  0  0  0  0  0  0  0  0  0  0
   -1.1292   -0.4875    0.3524 C   0  0  1  0  0  0  0  0  0  0  0  0
   -0.5898   -0.7762    1.2552 H   0  0  0  0  0  0  0  0  0  0  0  0
   -0.2608   -0.8470   -0.8656 C   0  0  0  0  0  0  0  0  0  0  0  0
   -0.4849   -1.8699   -1.1710 H   0  0  0  0  0  0  0  0  0  0  0  0
   -0.5285   -0.1918   -1.6962 H   0  0  0  0  0  0  0  0  0  0  0  0
    1.2305   -0.7484   -0.6088 C   0  0  0  0  0  0  0  0  0  0  0  0
    2.0539   -1.8830   -0.7538 C   0  0  0  0  0  0  0  0  0  0  0  0
    1.6191   -2.8364   -1.0241 H   0  0  0  0  0  0  0  0  0  0  0  0
    3.4440   -1.7771   -0.5537 C   0  0  0  0  0  0  0  0  0  0  0  0
    4.0713   -2.6483   -0.6640 H   0  0  0  0  0  0  0  0  0  0  0  0
    4.0128   -0.5310   -0.2111 C   0  0  0  0  0  0  0  0  0  0  0  0
    5.3527   -0.4179   -0.0188 O   0  0  0  0  0  0  0  0  0  0  0  0
    5.7954   -1.2669   -0.0531 H   0  0  0  0  0  0  0  0  0  0  0  0
    3.1880    0.6043   -0.0712 C   0  0  0  0  0  0  0  0  0  0  0  0
    3.6342    1.5506    0.1954 H   0  0  0  0  0  0  0  0  0  0  0  0
    1.7983    0.4943   -0.2674 C   0  0  0  0  0  0  0  0  0  0  0  0
    1.1641    1.3650   -0.1507 H   0  0  0  0  0  0  0  0  0  0  0  0
   -1.4018    1.0238    0.4329 C   0  0  0  0  0  0  0  0  0  0  0  0
   -2.2416    1.5423   -0.3033 O   0  0  0  0  0  0  0  0  0  0  0  0
   -0.6927    1.7304    1.3223 N   0  0  0  0  0  0  0  0  0  0  0  0
    0.0178    1.2410    1.8469 H   0  0  0  0  0  0  0  0  0  0  0  0
   -0.8259    3.1712    1.5254 C   0  0  0  0  0  0  0  0  0  0  0  0
   -1.8769    3.4302    1.6645 H   0  0  0  0  0  0  0  0  0  0  0  0
   -0.2598    3.4806    2.4054 H   0  0  0  0  0  0  0  0  0  0  0  0
   -0.4486    3.7020    0.6489 H   0  0  0  0  0  0  0  0  0  0  0  0
  5  6  2  0  0  0  0
  5  7  1  0  0  0  0
  2  3  1  0  0  0  0
  2  4  1  0  0  0  0
  2  5  1  0  0  0  0
  1  2  1  0  0  0  0
 26 27  2  0  0  0  0
 26 28  1  0  0  0  0
 24 25  1  0  0  0  0
 22 23  1  0  0  0  0
 22 24  2  0  0  0  0
 20 21  1  0  0  0  0
 19 20  1  0  0  0  0
 19 22  1  0  0  0  0
 17 18  1  0  0  0  0
 17 19  2  0  0  0  0
 15 16  1  0  0  0  0
 15 17  1  0  0  0  0
 14 15  2  0  0  0  0
 14 24  1  0  0  0  0
 11 12  1  0  0  0  0
 11 13  1  0  0  0  0
 11 14  1  0  0  0  0
  9 10  1  0  0  0  0
  9 11  1  0  0  0  0
  9 26  1  0  0  0  0
  7  8  1  0  0  0  0
  7  9  1  0  0  0  0
 30 31  1  0  0  0  0
 30 32  1  0  0  0  0
 30 33  1  0  0  0  0
 28 29  1  0  0  0  0
 28 30  1  0  0  0  0
M  END
$$$$
default_name
  -OEChem-02102213163D

 33 33  0     1  0  0  0  0  0999 V2000
   -4.0702   -3.8485    1.4554 H   0  0  0  0  0  0  0  0  0  0  0  0
   -4.0012   -2.9605    0.8284 C   0  0  0  0  0  0  0  0  0  0  0  0
   -4.7652   -2.2435    1.1234 H   0  0  0  0  0  0  0  0  0  0  0  0
   -4.1352   -3.2385   -0.2156 H   0  0  0  0  0  0  0  0  0  0  0  0
   -2.6362   -2.3395    1.0094 C   0  0  0  0  0  0  0  0  0  0  0  0
   -1.8292   -2.8395    1.7814 O   0  0  0  0  0  0  0  0  0  0  0  0
   -2.3832   -1.2445    0.2964 N   0  0  0  0  0  0  0  0  0  0  0  0
   -3.1102   -0.8685   -0.2946 H   0  0  0  0  0  0  0  0  0  0  0  0
   -1.1292   -0.4875    0.3524 C   0  0  1  0  0  0  0  0  0  0  0  0
   -0.5898   -0.7762    1.2552 H   0  0  0  0  0  0  0  0  0  0  0  0
   -0.2608   -0.8470   -0.8656 C   0  0  0  0  0  0  0  0  0  0  0  0
   -0.4849   -1.8699   -1.1710 H   0  0  0  0  0  0  0  0  0  0  0  0
   -0.5285   -0.1918   -1.6962 H   0  0  0  0  0  0  0  0  0  0  0  0
    1.2305   -0.7484   -0.6088 C   0  0  0  0  0  0  0  0  0  0  0  0
    2.0969   -1.7698   -1.0474 C   0  0  0  0  0  0  0  0  0  0  0  0
    1.6962   -2.6421   -1.5469 H   0  0  0  0  0  0  0  0  0  0  0  0
    3.4856   -1.6544   -0.8424 C   0  0  0  0  0  0  0  0  0  0  0  0
    4.1460   -2.4391   -1.1782 H   0  0  0  0  0  0  0  0  0  0  0  0
    4.0096   -0.5115   -0.1999 C   0  0  0  0  0  0  0  0  0  0  0  0
    5.3476   -0.3894   -0.0001 O   0  0  0  0  0  0  0  0  0  0  0  0
    5.8244   -1.1805   -0.2546 H   0  0  0  0  0  0  0  0  0  0  0  0
    3.1416    0.5119    0.2340 C   0  0  0  0  0  0  0  0  0  0  0  0
    3.5539    1.3788    0.7280 H   0  0  0  0  0  0  0  0  0  0  0  0
    1.7536    0.3915    0.0317 C   0  0  0  0  0  0  0  0  0  0  0  0
    1.0865    1.1738    0.3736 H   0  0  0  0  0  0  0  0  0  0  0  0
   -1.4018    1.0238    0.4329 C   0  0  0  0  0  0  0  0  0  0  0  0
   -2.2416    1.5423   -0.3033 O   0  0  0  0  0  0  0  0  0  0  0  0
   -0.6927    1.7304    1.3223 N   0  0  0  0  0  0  0  0  0  0  0  0
    0.0178    1.2410    1.8469 H   0  0  0  0  0  0  0  0  0  0  0  0
   -0.8259    3.1712    1.5254 C   0  0  0  0  0  0  0  0  0  0  0  0
   -1.8769    3.4302    1.6645 H   0  0  0  0  0  0  0  0  0  0  0  0
   -0.2598    3.4806    2.4054 H   0  0  0  0  0  0  0  0  0  0  0  0
   -0.4486    3.7020    0.6489 H   0  0  0  0  0  0  0  0  0  0  0  0
  5  6  2  0  0  0  0
  5  7  1  0  0  0  0
  2  3  1  0  0  0  0
  2  4  1  0  0  0  0
  2  5  1  0  0  0  0
  1  2  1  0  0  0  0
 26 27  2  0  0  0  0
 26 28  1  0  0  0  0
 24 25  1  0  0  0  0
 22 23  1  0  0  0  0
 22 24  2  0  0  0  0
 20 21  1  0  0  0  0
 19 20  1  0  0  0  0
 19 22  1  0  0  0  0
 17 18  1  0  0  0  0
 17 19  2  0  0  0  0
 15 16  1  0  0  0  0
 15 17  1  0  0  0  0
 14 15  2  0  0  0  0
 14 24  1  0  0  0  0
 11 12  1  0  0  0  0
 11 13  1  0  0  0  0
 11 14  1  0  0  0  0
  9 10  1  0  0  0  0
  9 11  1  0  0  0  0
  9 26  1  0  0  0  0
  7  8  1  0  0  0  0
  7  9  1  0  0  0  0
 30 31  1  0  0  0  0
 30 32  1  0  0  0  0
 30 33  1  0  0  0  0
 28 29  1  0  0  0  0
 28 30  1  0  0  0  0
M  END
$$$$
default_name
  -OEChem-02102213163D

 33 33  0     1  0  0  0  0  0999 V2000
   -4.0702   -3.8485    1.4554 H   0  0  0  0  0  0  0  0  0  0  0  0
   -4.0012   -2.9605    0.8284 C   0  0  0  0  0  0  0  0  0  0  0  0
   -4.7652   -2.2435    1.1234 H   0  0  0  0  0  0  0  0  0  0  0  0
   -4.1352   -3.2385   -0.2156 H   0  0  0  0  0  0  0  0  0  0  0  0
   -2.6362   -2.3395    1.0094 C   0  0  0  0  0  0  0  0  0  0  0  0
   -1.8292   -2.8395    1.7814 O   0  0  0  0  0  0  0  0  0  0  0  0
   -2.3832   -1.2445    0.2964 N   0  0  0  0  0  0  0  0  0  0  0  0
   -3.1102   -0.8685   -0.2946 H   0  0  0  0  0  0  0  0  0  0  0  0
   -1.1292   -0.4875    0.3524 C   0  0  1  0  0  0  0  0  0  0  0  0
   -0.5898   -0.7762    1.2552 H   0  0  0  0  0  0  0  0  0  0  0  0
   -0.2608   -0.8470   -0.8656 C   0  0  0  0  0  0  0  0  0  0  0  0
   -0.4849   -1.8699   -1.1710 H   0  0  0  0  0  0  0  0  0  0  0  0
   -0.5285   -0.1918   -1.6962 H   0  0  0  0  0  0  0  0  0  0  0  0
    1.2305   -0.7484   -0.6088 C   0  0  0  0  0  0  0  0  0  0  0  0
    2.1286   -1.5838   -1.3029 C   0  0  0  0  0  0  0  0  0  0  0  0
    1.7534   -2.3180   -2.0037 H   0  0  0  0  0  0  0  0  0  0  0  0
    3.5156   -1.4605   -1.0908 C   0  0  0  0  0  0  0  0  0  0  0  0
    4.2003   -2.1030   -1.6228 H   0  0  0  0  0  0  0  0  0  0  0  0
    4.0058   -0.4956   -0.1840 C   0  0  0  0  0  0  0  0  0  0  0  0
    5.3418   -0.3669    0.0253 O   0  0  0  0  0  0  0  0  0  0  0  0
    5.8452   -1.0446   -0.4277 H   0  0  0  0  0  0  0  0  0  0  0  0
    3.1060    0.3428    0.5060 C   0  0  0  0  0  0  0  0  0  0  0  0
    3.4928    1.0737    1.2000 H   0  0  0  0  0  0  0  0  0  0  0  0
    1.7200    0.2140    0.2953 C   0  0  0  0  0  0  0  0  0  0  0  0
    1.0287    0.8523    0.8327 H   0  0  0  0  0  0  0  0  0  0  0  0
   -1.4018    1.0238    0.4329 C   0  0  0  0  0  0  0  0  0  0  0  0
   -2.2416    1.5423   -0.3033 O   0  0  0  0  0  0  0  0  0  0  0  0
   -0.6927    1.7304    1.3223 N   0  0  0  0  0  0  0  0  0  0  0  0
    0.0178    1.2410    1.8469 H   0  0  0  0  0  0  0  0  0  0  0  0
   -0.8259    3.1712    1.5254 C   0  0  0  0  0  0  0  0  0  0  0  0
   -1.8769    3.4302    1.6645 H   0  0  0  0  0  0  0  0  0  0  0  0
   -0.2598    3.4806    2.4054 H   0  0  0  0  0  0  0  0  0  0  0  0
   -0.4486    3.7020    0.6489 H   0  0  0  0  0  0  0  0  0  0  0  0
  5  6  2  0  0  0  0
  5  7  1  0  0  0  0
  2  3  1  0  0  0  0
  2  4  1  0  0  0  0
  2  5  1  0  0  0  0
  1  2  1  0  0  0  0
 26 27  2  0  0  0  0
 26 28  1  0  0  0  0
 24 25  1  0  0  0  0
 22 23  1  0  0  0  0
 22 24  2  0  0  0  0
 20 21  1  0  0  0  0
 19 20  1  0  0  0  0
 19 22  1  0  0  0  0
 17 18  1  0  0  0  0
 17 19  2  0  0  0  0
 15 16  1  0  0  0  0
 15 17  1  0  0  0  0
 14 15  2  0  0  0  0
 14 24  1  0  0  0  0
 11 12  1  0  0  0  0
 11 13  1  0  0  0  0
 11 14  1  0  0  0  0
  9 10  1  0  0  0  0
  9 11  1  0  0  0  0
  9 26  1  0  0  0  0
  7  8  1  0  0  0  0
  7  9  1  0  0  0  0
 30 31  1  0  0  0  0
 30 32  1  0  0  0  0
 30 33  1  0  0  0  0
 28 29  1  0  0  0  0
 28 30  1  0  0  0  0
M  END
$$$$
default_name
  -OEChem-02102213163D

 33 33  0     1  0  0  0  0  0999 V2000
   -4.0702   -3.8485    1.4554 H   0  0  0  0  0  0  0  0  0  0  0  0
   -4.0012   -2.9605    0.8284 C   0  0  0  0  0  0  0  0  0  0  0  0
   -4.7652   -2.2435    1.1234 H   0  0  0  0  0  0  0  0  0  0  0  0
   -4.1352   -3.2385   -0.2156 H   0  0  0  0  0  0  0  0  0  0  0  0
   -2.6362   -2.3395    1.0094 C   0  0  0  0  0  0  0  0  0  0  0  0
   -1.8292   -2.8395    1.7814 O   0  0  0  0  0  0  0  0  0  0  0  0
   -2.3832   -1.2445    0.2964 N   0  0  0  0  0  0  0  0  0  0  0  0
   -3.1102   -0.8685   -0.2946 H   0  0  0  0  0  0  0  0  0  0  0  0
   -1.1292   -0.4875    0.3524 C   0  0  1  0  0  0  0  0  0  0  0  0
   -0.5898   -0.7762    1.2552 H   0  0  0  0  0  0  0  0  0  0  0  0
   -0.2608   -0.8470   -0.8656 C   0  0  0  0  0  0  0  0  0  0  0  0
   -0.4849   -1.8699   -1.1710 H   0  0  0  0  0  0  0  0  0  0  0  0
   -0.5285   -0.1918   -1.6962 H   0  0  0  0  0  0  0  0  0  0  0  0
    1.2305   -0.7484   -0.6088 C   0  0  0  0  0  0  0  0  0  0  0  0
    2.1468   -1.3377   -1.5029 C   0  0  0  0  0  0  0  0  0  0  0  0
    1.7868   -1.8862   -2.3635 H   0  0  0  0  0  0  0  0  0  0  0  0
    3.5318   -1.2088   -1.2818 C   0  0  0  0  0  0  0  0  0  0  0  0
    4.2306   -1.6627   -1.9676 H   0  0  0  0  0  0  0  0  0  0  0  0
    4.0018   -0.4845   -0.1646 C   0  0  0  0  0  0  0  0  0  0  0  0
    5.3355   -0.3519    0.0557 O   0  0  0  0  0  0  0  0  0  0  0  0
    5.8565   -0.8683   -0.5607 H   0  0  0  0  0  0  0  0  0  0  0  0
    3.0835    0.1087    0.7263 C   0  0  0  0  0  0  0  0  0  0  0  0
    3.4551    0.6563    1.5794 H   0  0  0  0  0  0  0  0  0  0  0  0
    1.6997   -0.0259    0.5052 C   0  0  0  0  0  0  0  0  0  0  0  0
    0.9947    0.4223    1.1952 H   0  0  0  0  0  0  0  0  0  0  0  0
   -1.4018    1.0238    0.4329 C   0  0  0  0  0  0  0  0  0  0  0  0
   -2.2416    1.5423   -0.3033 O   0  0  0  0  0  0  0  0  0  0  0  0
   -0.6927    1.7304    1.3223 N   0  0  0  0  0  0  0  0  0  0  0  0
    0.0178    1.2410    1.8469 H   0  0  0  0  0  0  0  0  0  0  0  0
   -0.8259    3.1712    1.5254 C   0  0  0  0  0  0  0  0  0  0  0  0
   -1.8769    3.4302    1.6645 H   0  0  0  0  0  0  0  0  0  0  0  0
   -0.2598    3.4806    2.4054 H   0  0  0  0  0  0  0  0  0  0  0  0
   -0.4486    3.7020    0.6489 H   0  0  0  0  0  0  0  0  0  0  0  0
  5  6  2  0  0  0  0
  5  7  1  0  0  0  0
  2  3  1  0  0  0  0
  2  4  1  0  0  0  0
  2  5  1  0  0  0  0
  1  2  1  0  0  0  0
 26 27  2  0  0  0  0
 26 28  1  0  0  0  0
 24 25  1  0  0  0  0
 22 23  1  0  0  0  0
 22 24  2  0  0  0  0
 20 21  1  0  0  0  0
 19 20  1  0  0  0  0
 19 22  1  0  0  0  0
 17 18  1  0  0  0  0
 17 19  2  0  0  0  0
 15 16  1  0  0  0  0
 15 17  1  0  0  0  0
 14 15  2  0  0  0  0
 14 24  1  0  0  0  0
 11 12  1  0  0  0  0
 11 13  1  0  0  0  0
 11 14  1  0  0  0  0
  9 10  1  0  0  0  0
  9 11  1  0  0  0  0
  9 26  1  0  0  0  0
  7  8  1  0  0  0  0
  7  9  1  0  0  0  0
 30 31  1  0  0  0  0
 30 32  1  0  0  0  0
 30 33  1  0  0  0  0
 28 29  1  0  0  0  0
 28 30  1  0  0  0  0
M  END
$$$$
default_name
  -OEChem-02102213163D

 33 33  0     1  0  0  0  0  0999 V2000
   -4.0702   -3.8485    1.4554 H   0  0  0  0  0  0  0  0  0  0  0  0
   -4.0012   -2.9605    0.8284 C   0  0  0  0  0  0  0  0  0  0  0  0
   -4.7652   -2.2435    1.1234 H   0  0  0  0  0  0  0  0  0  0  0  0
   -4.1352   -3.2385   -0.2156 H   0  0  0  0  0  0  0  0  0  0  0  0
   -2.6362   -2.3395    1.0094 C   0  0  0  0  0  0  0  0  0  0  0  0
   -1.8292   -2.8395    1.7814 O   0  0  0  0  0  0  0  0  0  0  0  0
   -2.3832   -1.2445    0.2964 N   0  0  0  0  0  0  0  0  0  0  0  0
   -3.1102   -0.8685   -0.2946 H   0  0  0  0  0  0  0  0  0  0  0  0
   -1.1292   -0.4875    0.3524 C   0  0  1  0  0  0  0  0  0  0  0  0
   -0.5898   -0.7762    1.2552 H   0  0  0  0  0  0  0  0  0  0  0  0
   -0.2608   -0.8470   -0.8656 C   0  0  0  0  0  0  0  0  0  0  0  0
   -0.6616   -1.7473   -1.3332 H   0  0  0  0  0  0  0  0  0  0  0  0
   -0.3281   -0.0407   -1.5979 H   0  0  0  0  0  0  0  0  0  0  0  0
    1.1962   -1.0997   -0.5296 C   0  0  0  0  0  0  0  0  0  0  0  0
    2.1120   -1.4394   -1.5455 C   0  0  0  0  0  0  0  0  0  0  0  0
    1.7718   -1.5466   -2.5672 H   0  0  0  0  0  0  0  0  0  0  0  0
    3.4720   -1.6334   -1.2346 C   0  0  0  0  0  0  0  0  0  0  0  0
    4.1702   -1.8949   -2.0148 H   0  0  0  0  0  0  0  0  0  0  0  0
    3.9179   -1.4835    0.0967 C   0  0  0  0  0  0  0  0  0  0  0  0
    5.2278   -1.6656    0.4063 O   0  0  0  0  0  0  0  0  0  0  0  0
    5.7353   -1.9816   -0.3424 H   0  0  0  0  0  0  0  0  0  0  0  0
    3.0009   -1.1388    1.1113 C   0  0  0  0  0  0  0  0  0  0  0  0
    3.3532   -1.0314    2.1261 H   0  0  0  0  0  0  0  0  0  0  0  0
    1.6414   -0.9500    0.7981 C   0  0  0  0  0  0  0  0  0  0  0  0
    0.9359   -0.6943    1.5796 H   0  0  0  0  0  0  0  0  0  0  0  0
   -1.4018    1.0238    0.4329 C   0  0  0  0  0  0  0  0  0  0  0  0
   -2.2416    1.5423   -0.3033 O   0  0  0  0  0  0  0  0  0  0  0  0
   -0.6927    1.7304    1.3223 N   0  0  0  0  0  0  0  0  0  0  0  0
    0.0178    1.2410    1.8469 H   0  0  0  0  0  0  0  0  0  0  0  0
   -0.8259    3.1712    1.5254 C   0  0  0  0  0  0  0  0  0  0  0  0
   -1.8769    3.4302    1.6645 H   0  0  0  0  0  0  0  0  0  0  0  0
   -0.2598    3.4806    2.4054 H   0  0  0  0  0  0  0  0  0  0  0  0
   -0.4486    3.7020    0.6489 H   0  0  0  0  0  0  0  0  0  0  0  0
  5  6  2  0  0  0  0
  5  7  1  0  0  0  0
  2  3  1  0  0  0  0
  2  4  1  0  0  0  0
  2  5  1  0  0  0  0
  1  2  1  0  0  0  0
 26 27  2  0  0  0  0
 26 28  1  0  0  0  0
 24 25  1  0  0  0  0
 22 23  1  0  0  0  0
 22 24  2  0  0  0  0
 20 21  1  0  0  0  0
 19 20  1  0  0  0  0
 19 22  1  0  0  0  0
 17 18  1  0  0  0  0
 17 19  2  0  0  0  0
 15 16  1  0  0  0  0
 15 17  1  0  0  0  0
 14 15  2  0  0  0  0
 14 24  1  0  0  0  0
 11 12  1  0  0  0  0
 11 13  1  0  0  0  0
 11 14  1  0  0  0  0
  9 10  1  0  0  0  0
  9 11  1  0  0  0  0
  9 26  1  0  0  0  0
  7  8  1  0  0  0  0
  7  9  1  0  0  0  0
 30 31  1  0  0  0  0
 30 32  1  0  0  0  0
 30 33  1  0  0  0  0
 28 29  1  0  0  0  0
 28 30  1  0  0  0  0
M  END
$$$$
default_name
  -OEChem-02102213163D

 33 33  0     1  0  0  0  0  0999 V2000
   -4.0702   -3.8485    1.4554 H   0  0  0  0  0  0  0  0  0  0  0  0
   -4.0012   -2.9605    0.8284 C   0  0  0  0  0  0  0  0  0  0  0  0
   -4.7652   -2.2435    1.1234 H   0  0  0  0  0  0  0  0  0  0  0  0
   -4.1352   -3.2385   -0.2156 H   0  0  0  0  0  0  0  0  0  0  0  0
   -2.6362   -2.3395    1.0094 C   0  0  0  0  0  0  0  0  0  0  0  0
   -1.8292   -2.8395    1.7814 O   0  0  0  0  0  0  0  0  0  0  0  0
   -2.3832   -1.2445    0.2964 N   0  0  0  0  0  0  0  0  0  0  0  0
   -3.1102   -0.8685   -0.2946 H   0  0  0  0  0  0  0  0  0  0  0  0
   -1.1292   -0.4875    0.3524 C   0  0  1  0  0  0  0  0  0  0  0  0
   -0.5898   -0.7762    1.2552 H   0  0  0  0  0  0  0  0  0  0  0  0
   -0.2608   -0.8470   -0.8656 C   0  0  0  0  0  0  0  0  0  0  0  0
   -0.6616   -1.7473   -1.3332 H   0  0  0  0  0  0  0  0  0  0  0  0
   -0.3281   -0.0407   -1.5979 H   0  0  0  0  0  0  0  0  0  0  0  0
    1.1962   -1.0997   -0.5296 C   0  0  0  0  0  0  0  0  0  0  0  0
    2.1674   -1.1267   -1.5505 C   0  0  0  0  0  0  0  0  0  0  0  0
    1.8715   -0.9927   -2.5827 H   0  0  0  0  0  0  0  0  0  0  0  0
    3.5248   -1.3214   -1.2291 C   0  0  0  0  0  0  0  0  0  0  0  0
    4.2656   -1.3431   -2.0136 H   0  0  0  0  0  0  0  0  0  0  0  0
    3.9124   -1.4861    0.1186 C   0  0  0  0  0  0  0  0  0  0  0  0
    5.2192   -1.6716    0.4392 O   0  0  0  0  0  0  0  0  0  0  0  0
    5.7721   -1.7636   -0.3379 H   0  0  0  0  0  0  0  0  0  0  0  0
    2.9398   -1.4540    1.1394 C   0  0  0  0  0  0  0  0  0  0  0  0
    3.2480   -1.5854    2.1657 H   0  0  0  0  0  0  0  0  0  0  0  0
    1.5832   -1.2637    0.8145 C   0  0  0  0  0  0  0  0  0  0  0  0
    0.8354   -1.2484    1.5985 H   0  0  0  0  0  0  0  0  0  0  0  0
   -1.4018    1.0238    0.4329 C   0  0  0  0  0  0  0  0  0  0  0  0
   -2.2416    1.5423   -0.3033 O   0  0  0  0  0  0  0  0  0  0  0  0
   -0.6927    1.7304    1.3223 N   0  0  0  0  0  0  0  0  0  0  0  0
    0.0178    1.2410    1.8469 H   0  0  0  0  0  0  0  0  0  0  0  0
   -0.8259    3.1712    1.5254 C   0  0  0  0  0  0  0  0  0  0  0  0
   -1.8769    3.4302    1.6645 H   0  0  0  0  0  0  0  0  0  0  0  0
   -0.2598    3.4806    2.4054 H   0  0  0  0  0  0  0  0  0  0  0  0
   -0.4486    3.7020    0.6489 H   0  0  0  0  0  0  0  0  0  0  0  0
  5  6  2  0  0  0  0
  5  7  1  0  0  0  0
  2  3  1  0  0  0  0
  2  4  1  0  0  0  0
  2  5  1  0  0  0  0
  1  2  1  0  0  0  0
 26 27  2  0  0  0  0
 26 28  1  0  0  0  0
 24 25  1  0  0  0  0
 22 23  1  0  0  0  0
 22 24  2  0  0  0  0
 20 21  1  0  0  0  0
 19 20  1  0  0  0  0
 19 22  1  0  0  0  0
 17 18  1  0  0  0  0
 17 19  2  0  0  0  0
 15 16  1  0  0  0  0
 15 17  1  0  0  0  0
 14 15  2  0  0  0  0
 14 24  1  0  0  0  0
 11 12  1  0  0  0  0
 11 13  1  0  0  0  0
 11 14  1  0  0  0  0
  9 10  1  0  0  0  0
  9 11  1  0  0  0  0
  9 26  1  0  0  0  0
  7  8  1  0  0  0  0
  7  9  1  0  0  0  0
 30 31  1  0  0  0  0
 30 32  1  0  0  0  0
 30 33  1  0  0  0  0
 28 29  1  0  0  0  0
 28 30  1  0  0  0  0
M  END
$$$$
default_name
  -OEChem-02102213163D

 33 33  0     1  0  0  0  0  0999 V2000
   -4.0702   -3.8485    1.4554 H   0  0  0  0  0  0  0  0  0  0  0  0
   -4.0012   -2.9605    0.8284 C   0  0  0  0  0  0  0  0  0  0  0  0
   -4.7652   -2.2435    1.1234 H   0  0  0  0  0  0  0  0  0  0  0  0
   -4.1352   -3.2385   -0.2156 H   0  0  0  0  0  0  0  0  0  0  0  0
   -2.6362   -2.3395    1.0094 C   0  0  0  0  0  0  0  0  0  0  0  0
   -1.8292   -2.8395    1.7814 O   0  0  0  0  0  0  0  0  0  0  0  0
   -2.3832   -1.2445    0.2964 N   0  0  0  0  0  0  0  0  0  0  0  0
   -3.1102   -0.8685   -0.2946 H   0  0  0  0  0  0  0  0  0  0  0  0
   -1.1292   -0.4875    0.3524 C   0  0  1  0  0  0  0  0  0  0  0  0
   -0.5898   -0.7762    1.2552 H   0  0  0  0  0  0  0  0  0  0  0  0
   -0.2608   -0.8470   -0.8656 C   0  0  0  0  0  0  0  0  0  0  0  0
   -0.6616   -1.7473   -1.3332 H   0  0  0  0  0  0  0  0  0  0  0  0
   -0.3281   -0.0407   -1.5979 H   0  0  0  0  0  0  0  0  0  0  0  0
    1.1962   -1.0997   -0.5296 C   0  0  0  0  0  0  0  0  0  0  0  0
    2.2032   -0.8202   -1.4751 C   0  0  0  0  0  0  0  0  0  0  0  0
    1.9367   -0.4480   -2.4557 H   0  0  0  0  0  0  0  0  0  0  0  0
    3.5578   -1.0184   -1.1440 C   0  0  0  0  0  0  0  0  0  0  0  0
    4.3261   -0.8048   -1.8710 H   0  0  0  0  0  0  0  0  0  0  0  0
    3.9062   -1.4943    0.1389 C   0  0  0  0  0  0  0  0  0  0  0  0
    5.2099   -1.6860    0.4690 O   0  0  0  0  0  0  0  0  0  0  0  0
    5.7949   -1.5521   -0.2778 H   0  0  0  0  0  0  0  0  0  0  0  0
    2.8976   -1.7689    1.0855 C   0  0  0  0  0  0  0  0  0  0  0  0
    3.1764   -2.1365    2.0616 H   0  0  0  0  0  0  0  0  0  0  0  0
    1.5443   -1.5741    0.7499 C   0  0  0  0  0  0  0  0  0  0  0  0
    0.7694   -1.7940    1.4746 H   0  0  0  0  0  0  0  0  0  0  0  0
   -1.4018    1.0238    0.4329 C   0  0  0  0  0  0  0  0  0  0  0  0
   -2.2416    1.5423   -0.3033 O   0  0  0  0  0  0  0  0  0  0  0  0
   -0.6927    1.7304    1.3223 N   0  0  0  0  0  0  0  0  0  0  0  0
    0.0178    1.2410    1.8469 H   0  0  0  0  0  0  0  0  0  0  0  0
   -0.8259    3.1712    1.5254 C   0  0  0  0  0  0  0  0  0  0  0  0
   -1.8769    3.4302    1.6645 H   0  0  0  0  0  0  0  0  0  0  0  0
   -0.2598    3.4806    2.4054 H   0  0  0  0  0  0  0  0  0  0  0  0
   -0.4486    3.7020    0.6489 H   0  0  0  0  0  0  0  0  0  0  0  0
  5  6  2  0  0  0  0
  5  7  1  0  0  0  0
  2  3  1  0  0  0  0
  2  4  1  0  0  0  0
  2  5  1  0  0  0  0
  1  2  1  0  0  0  0
 26 27  2  0  0  0  0
 26 28  1  0  0  0  0
 24 25  1  0  0  0  0
 22 23  1  0  0  0  0
 22 24  2  0  0  0  0
 20 21  1  0  0  0  0
 19 20  1  0  0  0  0
 19 22  1  0  0  0  0
 17 18  1  0  0  0  0
 17 19  2  0  0  0  0
 15 16  1  0  0  0  0
 15 17  1  0  0  0  0
 14 15  2  0  0  0  0
 14 24  1  0  0  0  0
 11 12  1  0  0  0  0
 11 13  1  0  0  0  0
 11 14  1  0  0  0  0
  9 10  1  0  0  0  0
  9 11  1  0  0  0  0
  9 26  1  0  0  0  0
  7  8  1  0  0  0  0
  7  9  1  0  0  0  0
 30 31  1  0  0  0  0
 30 32  1  0  0  0  0
 30 33  1  0  0  0  0
 28 29  1  0  0  0  0
 28 30  1  0  0  0  0
M  END
$$$$
default_name
  -OEChem-02102213163D

 33 33  0     1  0  0  0  0  0999 V2000
   -4.0702   -3.8485    1.4554 H   0  0  0  0  0  0  0  0  0  0  0  0
   -4.0012   -2.9605    0.8284 C   0  0  0  0  0  0  0  0  0  0  0  0
   -4.7652   -2.2435    1.1234 H   0  0  0  0  0  0  0  0  0  0  0  0
   -4.1352   -3.2385   -0.2156 H   0  0  0  0  0  0  0  0  0  0  0  0
   -2.6362   -2.3395    1.0094 C   0  0  0  0  0  0  0  0  0  0  0  0
   -1.8292   -2.8395    1.7814 O   0  0  0  0  0  0  0  0  0  0  0  0
   -2.3832   -1.2445    0.2964 N   0  0  0  0  0  0  0  0  0  0  0  0
   -3.1102   -0.8685   -0.2946 H   0  0  0  0  0  0  0  0  0  0  0  0
   -1.1292   -0.4875    0.3524 C   0  0  1  0  0  0  0  0  0  0  0  0
   -0.5898   -0.7762    1.2552 H   0  0  0  0  0  0  0  0  0  0  0  0
   -0.2608   -0.8470   -0.8656 C   0  0  0  0  0  0  0  0  0  0  0  0
   -0.6616   -1.7473   -1.3332 H   0  0  0  0  0  0  0  0  0  0  0  0
   -0.3281   -0.0407   -1.5979 H   0  0  0  0  0  0  0  0  0  0  0  0
    1.1962   -1.0997   -0.5296 C   0  0  0  0  0  0  0  0  0  0  0  0
    2.2169   -0.5409   -1.3246 C   0  0  0  0  0  0  0  0  0  0  0  0
    1.9629    0.0502   -2.1947 H   0  0  0  0  0  0  0  0  0  0  0  0
    3.5685   -0.7450   -0.9849 C   0  0  0  0  0  0  0  0  0  0  0  0
    4.3475   -0.3169   -1.5969 H   0  0  0  0  0  0  0  0  0  0  0  0
    3.8999   -1.5077    0.1562 C   0  0  0  0  0  0  0  0  0  0  0  0
    5.2003   -1.7079    0.4939 O   0  0  0  0  0  0  0  0  0  0  0  0
    5.8022   -1.3614   -0.1661 H   0  0  0  0  0  0  0  0  0  0  0  0
    2.8772   -2.0621    0.9534 C   0  0  0  0  0  0  0  0  0  0  0  0
    3.1433   -2.6470    1.8209 H   0  0  0  0  0  0  0  0  0  0  0  0
    1.5272   -1.8601    0.6086 C   0  0  0  0  0  0  0  0  0  0  0  0
    0.7422   -2.2941    1.2164 H   0  0  0  0  0  0  0  0  0  0  0  0
   -1.4018    1.0238    0.4329 C   0  0  0  0  0  0  0  0  0  0  0  0
   -2.2416    1.5423   -0.3033 O   0  0  0  0  0  0  0  0  0  0  0  0
   -0.6927    1.7304    1.3223 N   0  0  0  0  0  0  0  0  0  0  0  0
    0.0178    1.2410    1.8469 H   0  0  0  0  0  0  0  0  0  0  0  0
   -0.8259    3.1712    1.5254 C   0  0  0  0  0  0  0  0  0  0  0  0
   -1.8769    3.4302    1.6645 H   0  0  0  0  0  0  0  0  0  0  0  0
   -0.2598    3.4806    2.4054 H   0  0  0  0  0  0  0  0  0  0  0  0
   -0.4486    3.7020    0.6489 H   0  0  0  0  0  0  0  0  0  0  0  0
  5  6  2  0  0  0  0
  5  7  1  0  0  0  0
  2  3  1  0  0  0  0
  2  4  1  0  0  0  0
  2  5  1  0  0  0  0
  1  2  1  0  0  0  0
 26 27  2  0  0  0  0
 26 28  1  0  0  0  0
 24 25  1  0  0  0  0
 22 23  1  0  0  0  0
 22 24  2  0  0  0  0
 20 21  1  0  0  0  0
 19 20  1  0  0  0  0
 19 22  1  0  0  0  0
 17 18  1  0  0  0  0
 17 19  2  0  0  0  0
 15 16  1  0  0  0  0
 15 17  1  0  0  0  0
 14 15  2  0  0  0  0
 14 24  1  0  0  0  0
 11 12  1  0  0  0  0
 11 13  1  0  0  0  0
 11 14  1  0  0  0  0
  9 10  1  0  0  0  0
  9 11  1  0  0  0  0
  9 26  1  0  0  0  0
  7  8  1  0  0  0  0
  7  9  1  0  0  0  0
 30 31  1  0  0  0  0
 30 32  1  0  0  0  0
 30 33  1  0  0  0  0
 28 29  1  0  0  0  0
 28 30  1  0  0  0  0
M  END
$$$$
default_name
  -OEChem-02102213163D

 33 33  0     1  0  0  0  0  0999 V2000
   -4.0702   -3.8485    1.4554 H   0  0  0  0  0  0  0  0  0  0  0  0
   -4.0012   -2.9605    0.8284 C   0  0  0  0  0  0  0  0  0  0  0  0
   -4.7652   -2.2435    1.1234 H   0  0  0  0  0  0  0  0  0  0  0  0
   -4.1352   -3.2385   -0.2156 H   0  0  0  0  0  0  0  0  0  0  0  0
   -2.6362   -2.3395    1.0094 C   0  0  0  0  0  0  0  0  0  0  0  0
   -1.8292   -2.8395    1.7814 O   0  0  0  0  0  0  0  0  0  0  0  0
   -2.3832   -1.2445    0.2964 N   0  0  0  0  0  0  0  0  0  0  0  0
   -3.1102   -0.8685   -0.2946 H   0  0  0  0  0  0  0  0  0  0  0  0
   -1.1292   -0.4875    0.3524 C   0  0  1  0  0  0  0  0  0  0  0  0
   -0.5898   -0.7762    1.2552 H   0  0  0  0  0  0  0  0  0  0  0  0
   -0.2608   -0.8470   -0.8656 C   0  0  0  0  0  0  0  0  0  0  0  0
   -0.6616   -1.7473   -1.3332 H   0  0  0  0  0  0  0  0  0  0  0  0
   -0.3281   -0.0407   -1.5979 H   0  0  0  0  0  0  0  0  0  0  0  0
    1.1962   -1.0997   -0.5296 C   0  0  0  0  0  0  0  0  0  0  0  0
    2.2077   -0.3077   -1.1091 C   0  0  0  0  0  0  0  0  0  0  0  0
    1.9484    0.4681   -1.8176 H   0  0  0  0  0  0  0  0  0  0  0  0
    3.5564   -0.5199   -0.7629 C   0  0  0  0  0  0  0  0  0  0  0  0
    4.3284    0.0874   -1.2098 H   0  0  0  0  0  0  0  0  0  0  0  0
    3.8939   -1.5253    0.1693 C   0  0  0  0  0  0  0  0  0  0  0  0
    5.1913   -1.7357    0.5120 O   0  0  0  0  0  0  0  0  0  0  0  0
    5.7936   -1.2046   -0.0105 H   0  0  0  0  0  0  0  0  0  0  0  0
    2.8800   -2.3136    0.7519 C   0  0  0  0  0  0  0  0  0  0  0  0
    3.1511   -3.0822    1.4600 H   0  0  0  0  0  0  0  0  0  0  0  0
    1.5333   -2.1022    0.4003 C   0  0  0  0  0  0  0  0  0  0  0  0
    0.7557   -2.7144    0.8414 H   0  0  0  0  0  0  0  0  0  0  0  0
   -1.4018    1.0238    0.4329 C   0  0  0  0  0  0  0  0  0  0  0  0
   -2.2416    1.5423   -0.3033 O   0  0  0  0  0  0  0  0  0  0  0  0
   -0.6927    1.7304    1.3223 N   0  0  0  0  0  0  0  0  0  0  0  0
    0.0178    1.2410    1.8469 H   0  0  0  0  0  0  0  0  0  0  0  0
   -0.8259    3.1712    1.5254 C   0  0  0  0  0  0  0  0  0  0  0  0
   -1.8769    3.4302    1.6645 H   0  0  0  0  0  0  0  0  0  0  0  0
   -0.2598    3.4806    2.4054 H   0  0  0  0  0  0  0  0  0  0  0  0
   -0.4486    3.7020    0.6489 H   0  0  0  0  0  0  0  0  0  0  0  0
  5  6  2  0  0  0  0
  5  7  1  0  0  0  0
  2  3  1  0  0  0  0
  2  4  1  0  0  0  0
  2  5  1  0  0  0  0
  1  2  1  0  0  0  0
 26 27  2  0  0  0  0
 26 28  1  0  0  0  0
 24 25  1  0  0  0  0
 22 23  1  0  0  0  0
 22 24  2  0  0  0  0
 20 21  1  0  0  0  0
 19 20  1  0  0  0  0
 19 22  1  0  0  0  0
 17 18  1  0  0  0  0
 17 19  2  0  0  0  0
 15 16  1  0  0  0  0
 15 17  1  0  0  0  0
 14 15  2  0  0  0  0
 14 24  1  0  0  0  0
 11 12  1  0  0  0  0
 11 13  1  0  0  0  0
 11 14  1  0  0  0  0
  9 10  1  0  0  0  0
  9 11  1  0  0  0  0
  9 26  1  0  0  0  0
  7  8  1  0  0  0  0
  7  9  1  0  0  0  0
 30 31  1  0  0  0  0
 30 32  1  0  0  0  0
 30 33  1  0  0  0  0
 28 29  1  0  0  0  0
 28 30  1  0  0  0  0
M  END
$$$$
default_name
  -OEChem-02102213163D

 33 33  0     1  0  0  0  0  0999 V2000
   -4.0702   -3.8485    1.4554 H   0  0  0  0  0  0  0  0  0  0  0  0
   -4.0012   -2.9605    0.8284 C   0  0  0  0  0  0  0  0  0  0  0  0
   -4.7652   -2.2435    1.1234 H   0  0  0  0  0  0  0  0  0  0  0  0
   -4.1352   -3.2385   -0.2156 H   0  0  0  0  0  0  0  0  0  0  0  0
   -2.6362   -2.3395    1.0094 C   0  0  0  0  0  0  0  0  0  0  0  0
   -1.8292   -2.8395    1.7814 O   0  0  0  0  0  0  0  0  0  0  0  0
   -2.3832   -1.2445    0.2964 N   0  0  0  0  0  0  0  0  0  0  0  0
   -3.1102   -0.8685   -0.2946 H   0  0  0  0  0  0  0  0  0  0  0  0
   -1.1292   -0.4875    0.3524 C   0  0  1  0  0  0  0  0  0  0  0  0
   -0.5898   -0.7762    1.2552 H   0  0  0  0  0  0  0  0  0  0  0  0
   -0.2608   -0.8470   -0.8656 C   0  0  0  0  0  0  0  0  0  0  0  0
   -0.6616   -1.7473   -1.3332 H   0  0  0  0  0  0  0  0  0  0  0  0
   -0.3281   -0.0407   -1.5979 H   0  0  0  0  0  0  0  0  0  0  0  0
    1.1962   -1.0997   -0.5296 C   0  0  0  0  0  0  0  0  0  0  0  0
    2.1761   -0.1366   -0.8434 C   0  0  0  0  0  0  0  0  0  0  0  0
    1.8942    0.7771   -1.3501 H   0  0  0  0  0  0  0  0  0  0  0  0
    3.5221   -0.3583   -0.4929 C   0  0  0  0  0  0  0  0  0  0  0  0
    4.2701    0.3806   -0.7362 H   0  0  0  0  0  0  0  0  0  0  0  0
    3.8885   -1.5458    0.1773 C   0  0  0  0  0  0  0  0  0  0  0  0
    5.1834   -1.7677    0.5222 O   0  0  0  0  0  0  0  0  0  0  0  0
    5.7695   -1.0922    0.1784 H   0  0  0  0  0  0  0  0  0  0  0  0
    2.9058   -2.5063    0.4949 C   0  0  0  0  0  0  0  0  0  0  0  0
    3.1990   -3.4123    1.0036 H   0  0  0  0  0  0  0  0  0  0  0  0
    1.5620   -2.2839    0.1392 C   0  0  0  0  0  0  0  0  0  0  0  0
    0.8091   -3.0264    0.3753 H   0  0  0  0  0  0  0  0  0  0  0  0
   -1.4018    1.0238    0.4329 C   0  0  0  0  0  0  0  0  0  0  0  0
   -2.2416    1.5423   -0.3033 O   0  0  0  0  0  0  0  0  0  0  0  0
   -0.6927    1.7304    1.3223 N   0  0  0  0  0  0  0  0  0  0  0  0
    0.0178    1.2410    1.8469 H   0  0  0  0  0  0  0  0  0  0  0  0
   -0.8259    3.1712    1.5254 C   0  0  0  0  0  0  0  0  0  0  0  0
   -1.8769    3.4302    1.6645 H   0  0  0  0  0  0  0  0  0  0  0  0
   -0.2598    3.4806    2.4054 H   0  0  0  0  0  0  0  0  0  0  0  0
   -0.4486    3.7020    0.6489 H   0  0  0  0  0  0  0  0  0  0  0  0
  5  6  2  0  0  0  0
  5  7  1  0  0  0  0
  2  3  1  0  0  0  0
  2  4  1  0  0  0  0
  2  5  1  0  0  0  0
  1  2  1  0  0  0  0
 26 27  2  0  0  0  0
 26 28  1  0  0  0  0
 24 25  1  0  0  0  0
 22 23  1  0  0  0  0
 22 24  2  0  0  0  0
 20 21  1  0  0  0  0
 19 20  1  0  0  0  0
 19 22  1  0  0  0  0
 17 18  1  0  0  0  0
 17 19  2  0  0  0  0
 15 16  1  0  0  0  0
 15 17  1  0  0  0  0
 14 15  2  0  0  0  0
 14 24  1  0  0  0  0
 11 12  1  0  0  0  0
 11 13  1  0  0  0  0
 11 14  1  0  0  0  0
  9 10  1  0  0  0  0
  9 11  1  0  0  0  0
  9 26  1  0  0  0  0
  7  8  1  0  0  0  0
  7  9  1  0  0  0  0
 30 31  1  0  0  0  0
 30 32  1  0  0  0  0
 30 33  1  0  0  0  0
 28 29  1  0  0  0  0
 28 30  1  0  0  0  0
M  END
$$$$
default_name
  -OEChem-02102213163D

 33 33  0     1  0  0  0  0  0999 V2000
   -4.0702   -3.8485    1.4554 H   0  0  0  0  0  0  0  0  0  0  0  0
   -4.0012   -2.9605    0.8284 C   0  0  0  0  0  0  0  0  0  0  0  0
   -4.7652   -2.2435    1.1234 H   0  0  0  0  0  0  0  0  0  0  0  0
   -4.1352   -3.2385   -0.2156 H   0  0  0  0  0  0  0  0  0  0  0  0
   -2.6362   -2.3395    1.0094 C   0  0  0  0  0  0  0  0  0  0  0  0
   -1.8292   -2.8395    1.7814 O   0  0  0  0  0  0  0  0  0  0  0  0
   -2.3832   -1.2445    0.2964 N   0  0  0  0  0  0  0  0  0  0  0  0
   -3.1102   -0.8685   -0.2946 H   0  0  0  0  0  0  0  0  0  0  0  0
   -1.1292   -0.4875    0.3524 C   0  0  1  0  0  0  0  0  0  0  0  0
   -0.5898   -0.7762    1.2552 H   0  0  0  0  0  0  0  0  0  0  0  0
   -0.2608   -0.8470   -0.8656 C   0  0  0  0  0  0  0  0  0  0  0  0
   -0.6616   -1.7473   -1.3332 H   0  0  0  0  0  0  0  0  0  0  0  0
   -0.3281   -0.0407   -1.5979 H   0  0  0  0  0  0  0  0  0  0  0  0
    1.1962   -1.0997   -0.5296 C   0  0  0  0  0  0  0  0  0  0  0  0
    2.1243   -0.0392   -0.5456 C   0  0  0  0  0  0  0  0  0  0  0  0
    1.8040    0.9562   -0.8240 H   0  0  0  0  0  0  0  0  0  0  0  0
    3.4682   -0.2713   -0.1934 C   0  0  0  0  0  0  0  0  0  0  0  0
    4.1764    0.5427   -0.2083 H   0  0  0  0  0  0  0  0  0  0  0  0
    3.8841   -1.5680    0.1797 C   0  0  0  0  0  0  0  0  0  0  0  0
    5.1772   -1.8015    0.5238 O   0  0  0  0  0  0  0  0  0  0  0  0
    5.7316   -1.0321    0.3877 H   0  0  0  0  0  0  0  0  0  0  0  0
    2.9529   -2.6270    0.1999 C   0  0  0  0  0  0  0  0  0  0  0  0
    3.2840   -3.6150    0.4827 H   0  0  0  0  0  0  0  0  0  0  0  0
    1.6114   -2.3928   -0.1571 C   0  0  0  0  0  0  0  0  0  0  0  0
    0.8986   -3.2089   -0.1502 H   0  0  0  0  0  0  0  0  0  0  0  0
   -1.4018    1.0238    0.4329 C   0  0  0  0  0  0  0  0  0  0  0  0
   -2.2416    1.5423   -0.3033 O   0  0  0  0  0  0  0  0  0  0  0  0
   -0.6927    1.7304    1.3223 N   0  0  0  0  0  0  0  0  0  0  0  0
    0.0178    1.2410    1.8469 H   0  0  0  0  0  0  0  0  0  0  0  0
   -0.8259    3.1712    1.5254 C   0  0  0  0  0  0  0  0  0  0  0  0
   -1.8769    3.4302    1.6645 H   0  0  0  0  0  0  0  0  0  0  0  0
   -0.2598    3.4806    2.4054 H   0  0  0  0  0  0  0  0  0  0  0  0
   -0.4486    3.7020    0.6489 H   0  0  0  0  0  0  0  0  0  0  0  0
  5  6  2  0  0  0  0
  5  7  1  0  0  0  0
  2  3  1  0  0  0  0
  2  4  1  0  0  0  0
  2  5  1  0  0  0  0
  1  2  1  0  0  0  0
 26 27  2  0  0  0  0
 26 28  1  0  0  0  0
 24 25  1  0  0  0  0
 22 23  1  0  0  0  0
 22 24  2  0  0  0  0
 20 21  1  0  0  0  0
 19 20  1  0  0  0  0
 19 22  1  0  0  0  0
 17 18  1  0  0  0  0
 17 19  2  0  0  0  0
 15 16  1  0  0  0  0
 15 17  1  0  0  0  0
 14 15  2  0  0  0  0
 14 24  1  0  0  0  0
 11 12  1  0  0  0  0
 11 13  1  0  0  0  0
 11 14  1  0  0  0  0
  9 10  1  0  0  0  0
  9 11  1  0  0  0  0
  9 26  1  0  0  0  0
  7  8  1  0  0  0  0
  7  9  1  0  0  0  0
 30 31  1  0  0  0  0
 30 32  1  0  0  0  0
 30 33  1  0  0  0  0
 28 29  1  0  0  0  0
 28 30  1  0  0  0  0
M  END
$$$$
default_name
  -OEChem-02102213163D

 33 33  0     1  0  0  0  0  0999 V2000
   -4.0702   -3.8485    1.4554 H   0  0  0  0  0  0  0  0  0  0  0  0
   -4.0012   -2.9605    0.8284 C   0  0  0  0  0  0  0  0  0  0  0  0
   -4.7652   -2.2435    1.1234 H   0  0  0  0  0  0  0  0  0  0  0  0
   -4.1352   -3.2385   -0.2156 H   0  0  0  0  0  0  0  0  0  0  0  0
   -2.6362   -2.3395    1.0094 C   0  0  0  0  0  0  0  0  0  0  0  0
   -1.8292   -2.8395    1.7814 O   0  0  0  0  0  0  0  0  0  0  0  0
   -2.3832   -1.2445    0.2964 N   0  0  0  0  0  0  0  0  0  0  0  0
   -3.1102   -0.8685   -0.2946 H   0  0  0  0  0  0  0  0  0  0  0  0
   -1.1292   -0.4875    0.3524 C   0  0  1  0  0  0  0  0  0  0  0  0
   -0.5898   -0.7762    1.2552 H   0  0  0  0  0  0  0  0  0  0  0  0
   -0.2608   -0.8470   -0.8656 C   0  0  0  0  0  0  0  0  0  0  0  0
   -0.6616   -1.7473   -1.3332 H   0  0  0  0  0  0  0  0  0  0  0  0
   -0.3281   -0.0407   -1.5979 H   0  0  0  0  0  0  0  0  0  0  0  0
    1.1962   -1.0997   -0.5296 C   0  0  0  0  0  0  0  0  0  0  0  0
    2.0558   -0.0222   -0.2359 C   0  0  0  0  0  0  0  0  0  0  0  0
    1.6838    0.9932   -0.2751 H   0  0  0  0  0  0  0  0  0  0  0  0
    3.3981   -0.2649    0.1151 C   0  0  0  0  0  0  0  0  0  0  0  0
    4.0540    0.5627    0.3378 H   0  0  0  0  0  0  0  0  0  0  0  0
    3.8810   -1.5903    0.1763 C   0  0  0  0  0  0  0  0  0  0  0  0
    5.1730   -1.8350    0.5167 O   0  0  0  0  0  0  0  0  0  0  0  0
    5.6826   -1.0283    0.6033 H   0  0  0  0  0  0  0  0  0  0  0  0
    3.0181   -2.6676   -0.1131 C   0  0  0  0  0  0  0  0  0  0  0  0
    3.4002   -3.6763   -0.0672 H   0  0  0  0  0  0  0  0  0  0  0  0
    1.6782   -2.4215   -0.4681 C   0  0  0  0  0  0  0  0  0  0  0  0
    1.0182   -3.2492   -0.6993 H   0  0  0  0  0  0  0  0  0  0  0  0
   -1.4018    1.0238    0.4329 C   0  0  0  0  0  0  0  0  0  0  0  0
   -2.2416    1.5423   -0.3033 O   0  0  0  0  0  0  0  0  0  0  0  0
   -0.6927    1.7304    1.3223 N   0  0  0  0  0  0  0  0  0  0  0  0
    0.0178    1.2410    1.8469 H   0  0  0  0  0  0  0  0  0  0  0  0
   -0.8259    3.1712    1.5254 C   0  0  0  0  0  0  0  0  0  0  0  0
   -1.8769    3.4302    1.6645 H   0  0  0  0  0  0  0  0  0  0  0  0
   -0.2598    3.4806    2.4054 H   0  0  0  0  0  0  0  0  0  0  0  0
   -0.4486    3.7020    0.6489 H   0  0  0  0  0  0  0  0  0  0  0  0
  5  6  2  0  0  0  0
  5  7  1  0  0  0  0
  2  3  1  0  0  0  0
  2  4  1  0  0  0  0
  2  5  1  0  0  0  0
  1  2  1  0  0  0  0
 26 27  2  0  0  0  0
 26 28  1  0  0  0  0
 24 25  1  0  0  0  0
 22 23  1  0  0  0  0
 22 24  2  0  0  0  0
 20 21  1  0  0  0  0
 19 20  1  0  0  0  0
 19 22  1  0  0  0  0
 17 18  1  0  0  0  0
 17 19  2  0  0  0  0
 15 16  1  0  0  0  0
 15 17  1  0  0  0  0
 14 15  2  0  0  0  0
 14 24  1  0  0  0  0
 11 12  1  0  0  0  0
 11 13  1  0  0  0  0
 11 14  1  0  0  0  0
  9 10  1  0  0  0  0
  9 11  1  0  0  0  0
  9 26  1  0  0  0  0
  7  8  1  0  0  0  0
  7  9  1  0  0  0  0
 30 31  1  0  0  0  0
 30 32  1  0  0  0  0
 30 33  1  0  0  0  0
 28 29  1  0  0  0  0
 28 30  1  0  0  0  0
M  END
$$$$
default_name
  -OEChem-02102213163D

 33 33  0     1  0  0  0  0  0999 V2000
   -4.0702   -3.8485    1.4554 H   0  0  0  0  0  0  0  0  0  0  0  0
   -4.0012   -2.9605    0.8284 C   0  0  0  0  0  0  0  0  0  0  0  0
   -4.7652   -2.2435    1.1234 H   0  0  0  0  0  0  0  0  0  0  0  0
   -4.1352   -3.2385   -0.2156 H   0  0  0  0  0  0  0  0  0  0  0  0
   -2.6362   -2.3395    1.0094 C   0  0  0  0  0  0  0  0  0  0  0  0
   -1.8292   -2.8395    1.7814 O   0  0  0  0  0  0  0  0  0  0  0  0
   -2.3832   -1.2445    0.2964 N   0  0  0  0  0  0  0  0  0  0  0  0
   -3.1102   -0.8685   -0.2946 H   0  0  0  0  0  0  0  0  0  0  0  0
   -1.1292   -0.4875    0.3524 C   0  0  1  0  0  0  0  0  0  0  0  0
   -0.5898   -0.7762    1.2552 H   0  0  0  0  0  0  0  0  0  0  0  0
   -0.2608   -0.8470   -0.8656 C   0  0  0  0  0  0  0  0  0  0  0  0
   -0.6616   -1.7473   -1.3332 H   0  0  0  0  0  0  0  0  0  0  0  0
   -0.3281   -0.0407   -1.5979 H   0  0  0  0  0  0  0  0  0  0  0  0
    1.1962   -1.0997   -0.5296 C   0  0  0  0  0  0  0  0  0  0  0  0
    1.9754   -0.0867    0.0645 C   0  0  0  0  0  0  0  0  0  0  0  0
    1.5420    0.8856    0.2590 H   0  0  0  0  0  0  0  0  0  0  0  0
    3.3168   -0.3394    0.4117 C   0  0  0  0  0  0  0  0  0  0  0  0
    3.9109    0.4391    0.8650 H   0  0  0  0  0  0  0  0  0  0  0  0
    3.8794   -1.6111    0.1673 C   0  0  0  0  0  0  0  0  0  0  0  0
    5.1712   -1.8658    0.5012 O   0  0  0  0  0  0  0  0  0  0  0  0
    5.6257   -1.0810    0.8103 H   0  0  0  0  0  0  0  0  0  0  0  0
    3.0968   -2.6252   -0.4227 C   0  0  0  0  0  0  0  0  0  0  0  0
    3.5396   -3.5921   -0.6086 H   0  0  0  0  0  0  0  0  0  0  0  0
    1.7577   -2.3681   -0.7729 C   0  0  0  0  0  0  0  0  0  0  0  0
    1.1598   -3.1448   -1.2346 H   0  0  0  0  0  0  0  0  0  0  0  0
   -1.4018    1.0238    0.4329 C   0  0  0  0  0  0  0  0  0  0  0  0
   -2.2416    1.5423   -0.3033 O   0  0  0  0  0  0  0  0  0  0  0  0
   -0.6927    1.7304    1.3223 N   0  0  0  0  0  0  0  0  0  0  0  0
    0.0178    1.2410    1.8469 H   0  0  0  0  0  0  0  0  0  0  0  0
   -0.8259    3.1712    1.5254 C   0  0  0  0  0  0  0  0  0  0  0  0
   -1.8769    3.4302    1.6645 H   0  0  0  0  0  0  0  0  0  0  0  0
   -0.2598    3.4806    2.4054 H   0  0  0  0  0  0  0  0  0  0  0  0
   -0.4486    3.7020    0.6489 H   0  0  0  0  0  0  0  0  0  0  0  0
  5  6  2  0  0  0  0
  5  7  1  0  0  0  0
  2  3  1  0  0  0  0
  2  4  1  0  0  0  0
  2  5  1  0  0  0  0
  1  2  1  0  0  0  0
 26 27  2  0  0  0  0
 26 28  1  0  0  0  0
 24 25  1  0  0  0  0
 22 23  1  0  0  0  0
 22 24  2  0  0  0  0
 20 21  1  0  0  0  0
 19 20  1  0  0  0  0
 19 22  1  0  0  0  0
 17 18  1  0  0  0  0
 17 19  2  0  0  0  0
 15 16  1  0  0  0  0
 15 17  1  0  0  0  0
 14 15  2  0  0  0  0
 14 24  1  0  0  0  0
 11 12  1  0  0  0  0
 11 13  1  0  0  0  0
 11 14  1  0  0  0  0
  9 10  1  0  0  0  0
  9 11  1  0  0  0  0
  9 26  1  0  0  0  0
  7  8  1  0  0  0  0
  7  9  1  0  0  0  0
 30 31  1  0  0  0  0
 30 32  1  0  0  0  0
 30 33  1  0  0  0  0
 28 29  1  0  0  0  0
 28 30  1  0  0  0  0
M  END
$$$$
default_name
  -OEChem-02102213163D

 33 33  0     1  0  0  0  0  0999 V2000
   -4.0702   -3.8485    1.4554 H   0  0  0  0  0  0  0  0  0  0  0  0
   -4.0012   -2.9605    0.8284 C   0  0  0  0  0  0  0  0  0  0  0  0
   -4.7652   -2.2435    1.1234 H   0  0  0  0  0  0  0  0  0  0  0  0
   -4.1352   -3.2385   -0.2156 H   0  0  0  0  0  0  0  0  0  0  0  0
   -2.6362   -2.3395    1.0094 C   0  0  0  0  0  0  0  0  0  0  0  0
   -1.8292   -2.8395    1.7814 O   0  0  0  0  0  0  0  0  0  0  0  0
   -2.3832   -1.2445    0.2964 N   0  0  0  0  0  0  0  0  0  0  0  0
   -3.1102   -0.8685   -0.2946 H   0  0  0  0  0  0  0  0  0  0  0  0
   -1.1292   -0.4875    0.3524 C   0  0  1  0  0  0  0  0  0  0  0  0
   -0.5898   -0.7762    1.2552 H   0  0  0  0  0  0  0  0  0  0  0  0
   -0.2608   -0.8470   -0.8656 C   0  0  0  0  0  0  0  0  0  0  0  0
   -0.6616   -1.7473   -1.3332 H   0  0  0  0  0  0  0  0  0  0  0  0
   -0.3281   -0.0407   -1.5979 H   0  0  0  0  0  0  0  0  0  0  0  0
    1.1962   -1.0997   -0.5296 C   0  0  0  0  0  0  0  0  0  0  0  0
    1.8884   -0.2283    0.3351 C   0  0  0  0  0  0  0  0  0  0  0  0
    1.3881    0.6407    0.7421 H   0  0  0  0  0  0  0  0  0  0  0  0
    3.2297   -0.4898    0.6762 C   0  0  0  0  0  0  0  0  0  0  0  0
    3.7571    0.1805    1.3374 H   0  0  0  0  0  0  0  0  0  0  0  0
    3.8795   -1.6291    0.1534 C   0  0  0  0  0  0  0  0  0  0  0  0
    5.1719   -1.8917    0.4786 O   0  0  0  0  0  0  0  0  0  0  0  0
    5.5648   -1.1866    0.9948 H   0  0  0  0  0  0  0  0  0  0  0  0
    3.1838   -2.5028   -0.7078 C   0  0  0  0  0  0  0  0  0  0  0  0
    3.6929   -3.3682   -1.1046 H   0  0  0  0  0  0  0  0  0  0  0  0
    1.8446   -2.2361   -1.0505 C   0  0  0  0  0  0  0  0  0  0  0  0
    1.3136   -2.9028   -1.7196 H   0  0  0  0  0  0  0  0  0  0  0  0
   -1.4018    1.0238    0.4329 C   0  0  0  0  0  0  0  0  0  0  0  0
   -2.2416    1.5423   -0.3033 O   0  0  0  0  0  0  0  0  0  0  0  0
   -0.6927    1.7304    1.3223 N   0  0  0  0  0  0  0  0  0  0  0  0
    0.0178    1.2410    1.8469 H   0  0  0  0  0  0  0  0  0  0  0  0
   -0.8259    3.1712    1.5254 C   0  0  0  0  0  0  0  0  0  0  0  0
   -1.8769    3.4302    1.6645 H   0  0  0  0  0  0  0  0  0  0  0  0
   -0.2598    3.4806    2.4054 H   0  0  0  0  0  0  0  0  0  0  0  0
   -0.4486    3.7020    0.6489 H   0  0  0  0  0  0  0  0  0  0  0  0
  5  6  2  0  0  0  0
  5  7  1  0  0  0  0
  2  3  1  0  0  0  0
  2  4  1  0  0  0  0
  2  5  1  0  0  0  0
  1  2  1  0  0  0  0
 26 27  2  0  0  0  0
 26 28  1  0  0  0  0
 24 25  1  0  0  0  0
 22 23  1  0  0  0  0
 22 24  2  0  0  0  0
 20 21  1  0  0  0  0
 19 20  1  0  0  0  0
 19 22  1  0  0  0  0
 17 18  1  0  0  0  0
 17 19  2  0  0  0  0
 15 16  1  0  0  0  0
 15 17  1  0  0  0  0
 14 15  2  0  0  0  0
 14 24  1  0  0  0  0
 11 12  1  0  0  0  0
 11 13  1  0  0  0  0
 11 14  1  0  0  0  0
  9 10  1  0  0  0  0
  9 11  1  0  0  0  0
  9 26  1  0  0  0  0
  7  8  1  0  0  0  0
  7  9  1  0  0  0  0
 30 31  1  0  0  0  0
 30 32  1  0  0  0  0
 30 33  1  0  0  0  0
 28 29  1  0  0  0  0
 28 30  1  0  0  0  0
M  END
$$$$
default_name
  -OEChem-02102213163D

 33 33  0     1  0  0  0  0  0999 V2000
   -4.0702   -3.8485    1.4554 H   0  0  0  0  0  0  0  0  0  0  0  0
   -4.0012   -2.9605    0.8284 C   0  0  0  0  0  0  0  0  0  0  0  0
   -4.7652   -2.2435    1.1234 H   0  0  0  0  0  0  0  0  0  0  0  0
   -4.1352   -3.2385   -0.2156 H   0  0  0  0  0  0  0  0  0  0  0  0
   -2.6362   -2.3395    1.0094 C   0  0  0  0  0  0  0  0  0  0  0  0
   -1.8292   -2.8395    1.7814 O   0  0  0  0  0  0  0  0  0  0  0  0
   -2.3832   -1.2445    0.2964 N   0  0  0  0  0  0  0  0  0  0  0  0
   -3.1102   -0.8685   -0.2946 H   0  0  0  0  0  0  0  0  0  0  0  0
   -1.1292   -0.4875    0.3524 C   0  0  1  0  0  0  0  0  0  0  0  0
   -0.5898   -0.7762    1.2552 H   0  0  0  0  0  0  0  0  0  0  0  0
   -0.2608   -0.8470   -0.8656 C   0  0  0  0  0  0  0  0  0  0  0  0
   -0.6616   -1.7473   -1.3332 H   0  0  0  0  0  0  0  0  0  0  0  0
   -0.3281   -0.0407   -1.5979 H   0  0  0  0  0  0  0  0  0  0  0  0
    1.1962   -1.0997   -0.5296 C   0  0  0  0  0  0  0  0  0  0  0  0
    1.8008   -0.4373    0.5576 C   0  0  0  0  0  0  0  0  0  0  0  0
    1.2326    0.2752    1.1412 H   0  0  0  0  0  0  0  0  0  0  0  0
    3.1428   -0.7059    0.8905 C   0  0  0  0  0  0  0  0  0  0  0  0
    3.6030   -0.1957    1.7227 H   0  0  0  0  0  0  0  0  0  0  0  0
    3.8812   -1.6431    0.1355 C   0  0  0  0  0  0  0  0  0  0  0  0
    5.1751   -1.9112    0.4504 O   0  0  0  0  0  0  0  0  0  0  0  0
    5.5042   -1.3380    1.1440 H   0  0  0  0  0  0  0  0  0  0  0  0
    3.2731   -2.3086   -0.9490 C   0  0  0  0  0  0  0  0  0  0  0  0
    3.8494   -3.0198   -1.5214 H   0  0  0  0  0  0  0  0  0  0  0  0
    1.9330   -2.0346   -1.2821 C   0  0  0  0  0  0  0  0  0  0  0  0
    1.4693   -2.5395   -2.1212 H   0  0  0  0  0  0  0  0  0  0  0  0
   -1.4018    1.0238    0.4329 C   0  0  0  0  0  0  0  0  0  0  0  0
   -2.2416    1.5423   -0.3033 O   0  0  0  0  0  0  0  0  0  0  0  0
   -0.6927    1.7304    1.3223 N   0  0  0  0  0  0  0  0  0  0  0  0
    0.0178    1.2410    1.8469 H   0  0  0  0  0  0  0  0  0  0  0  0
   -0.8259    3.1712    1.5254 C   0  0  0  0  0  0  0  0  0  0  0  0
   -1.8769    3.4302    1.6645 H   0  0  0  0  0  0  0  0  0  0  0  0
   -0.2598    3.4806    2.4054 H   0  0  0  0  0  0  0  0  0  0  0  0
   -0.4486    3.7020    0.6489 H   0  0  0  0  0  0  0  0  0  0  0  0
  5  6  2  0  0  0  0
  5  7  1  0  0  0  0
  2  3  1  0  0  0  0
  2  4  1  0  0  0  0
  2  5  1  0  0  0  0
  1  2  1  0  0  0  0
 26 27  2  0  0  0  0
 26 28  1  0  0  0  0
 24 25  1  0  0  0  0
 22 23  1  0  0  0  0
 22 24  2  0  0  0  0
 20 21  1  0  0  0  0
 19 20  1  0  0  0  0
 19 22  1  0  0  0  0
 17 18  1  0  0  0  0
 17 19  2  0  0  0  0
 15 16  1  0  0  0  0
 15 17  1  0  0  0  0
 14 15  2  0  0  0  0
 14 24  1  0  0  0  0
 11 12  1  0  0  0  0
 11 13  1  0  0  0  0
 11 14  1  0  0  0  0
  9 10  1  0  0  0  0
  9 11  1  0  0  0  0
  9 26  1  0  0  0  0
  7  8  1  0  0  0  0
  7  9  1  0  0  0  0
 30 31  1  0  0  0  0
 30 32  1  0  0  0  0
 30 33  1  0  0  0  0
 28 29  1  0  0  0  0
 28 30  1  0  0  0  0
M  END
$$$$
default_name
  -OEChem-02102213163D

 33 33  0     1  0  0  0  0  0999 V2000
   -4.0702   -3.8485    1.4554 H   0  0  0  0  0  0  0  0  0  0  0  0
   -4.0012   -2.9605    0.8284 C   0  0  0  0  0  0  0  0  0  0  0  0
   -4.7652   -2.2435    1.1234 H   0  0  0  0  0  0  0  0  0  0  0  0
   -4.1352   -3.2385   -0.2156 H   0  0  0  0  0  0  0  0  0  0  0  0
   -2.6362   -2.3395    1.0094 C   0  0  0  0  0  0  0  0  0  0  0  0
   -1.8292   -2.8395    1.7814 O   0  0  0  0  0  0  0  0  0  0  0  0
   -2.3832   -1.2445    0.2964 N   0  0  0  0  0  0  0  0  0  0  0  0
   -3.1102   -0.8685   -0.2946 H   0  0  0  0  0  0  0  0  0  0  0  0
   -1.1292   -0.4875    0.3524 C   0  0  1  0  0  0  0  0  0  0  0  0
   -0.5898   -0.7762    1.2552 H   0  0  0  0  0  0  0  0  0  0  0  0
   -0.2608   -0.8470   -0.8656 C   0  0  0  0  0  0  0  0  0  0  0  0
   -0.6616   -1.7473   -1.3332 H   0  0  0  0  0  0  0  0  0  0  0  0
   -0.3281   -0.0407   -1.5979 H   0  0  0  0  0  0  0  0  0  0  0  0
    1.1962   -1.0997   -0.5296 C   0  0  0  0  0  0  0  0  0  0  0  0
    1.7186   -0.6996    0.7167 C   0  0  0  0  0  0  0  0  0  0  0  0
    1.0863   -0.1861    1.4291 H   0  0  0  0  0  0  0  0  0  0  0  0
    3.0620   -0.9728    1.0401 C   0  0  0  0  0  0  0  0  0  0  0  0
    3.4591   -0.6636    1.9947 H   0  0  0  0  0  0  0  0  0  0  0  0
    3.8844   -1.6520    0.1149 C   0  0  0  0  0  0  0  0  0  0  0  0
    5.1805   -1.9228    0.4183 O   0  0  0  0  0  0  0  0  0  0  0  0
    5.4478   -1.5249    1.2479 H   0  0  0  0  0  0  0  0  0  0  0  0
    3.3586   -2.0559   -1.1298 C   0  0  0  0  0  0  0  0  0  0  0  0
    3.9987   -2.5706   -1.8306 H   0  0  0  0  0  0  0  0  0  0  0  0
    2.0168   -1.7773   -1.4519 C   0  0  0  0  0  0  0  0  0  0  0  0
    1.6161   -2.0798   -2.4121 H   0  0  0  0  0  0  0  0  0  0  0  0
   -1.4018    1.0238    0.4329 C   0  0  0  0  0  0  0  0  0  0  0  0
   -2.2416    1.5423   -0.3033 O   0  0  0  0  0  0  0  0  0  0  0  0
   -0.6927    1.7304    1.3223 N   0  0  0  0  0  0  0  0  0  0  0  0
    0.0178    1.2410    1.8469 H   0  0  0  0  0  0  0  0  0  0  0  0
   -0.8259    3.1712    1.5254 C   0  0  0  0  0  0  0  0  0  0  0  0
   -1.8769    3.4302    1.6645 H   0  0  0  0  0  0  0  0  0  0  0  0
   -0.2598    3.4806    2.4054 H   0  0  0  0  0  0  0  0  0  0  0  0
   -0.4486    3.7020    0.6489 H   0  0  0  0  0  0  0  0  0  0  0  0
  5  6  2  0  0  0  0
  5  7  1  0  0  0  0
  2  3  1  0  0  0  0
  2  4  1  0  0  0  0
  2  5  1  0  0  0  0
  1  2  1  0  0  0  0
 26 27  2  0  0  0  0
 26 28  1  0  0  0  0
 24 25  1  0  0  0  0
 22 23  1  0  0  0  0
 22 24  2  0  0  0  0
 20 21  1  0  0  0  0
 19 20  1  0  0  0  0
 19 22  1  0  0  0  0
 17 18  1  0  0  0  0
 17 19  2  0  0  0  0
 15 16  1  0  0  0  0
 15 17  1  0  0  0  0
 14 15  2  0  0  0  0
 14 24  1  0  0  0  0
 11 12  1  0  0  0  0
 11 13  1  0  0  0  0
 11 14  1  0  0  0  0
  9 10  1  0  0  0  0
  9 11  1  0  0  0  0
  9 26  1  0  0  0  0
  7  8  1  0  0  0  0
  7  9  1  0  0  0  0
 30 31  1  0  0  0  0
 30 32  1  0  0  0  0
 30 33  1  0  0  0  0
 28 29  1  0  0  0  0
 28 30  1  0  0  0  0
M  END
$$$$
default_name
  -OEChem-02102213163D

 33 33  0     1  0  0  0  0  0999 V2000
   -4.0702   -3.8485    1.4554 H   0  0  0  0  0  0  0  0  0  0  0  0
   -4.0012   -2.9605    0.8284 C   0  0  0  0  0  0  0  0  0  0  0  0
   -4.7652   -2.2435    1.1234 H   0  0  0  0  0  0  0  0  0  0  0  0
   -4.1352   -3.2385   -0.2156 H   0  0  0  0  0  0  0  0  0  0  0  0
   -2.6362   -2.3395    1.0094 C   0  0  0  0  0  0  0  0  0  0  0  0
   -1.8292   -2.8395    1.7814 O   0  0  0  0  0  0  0  0  0  0  0  0
   -2.3832   -1.2445    0.2964 N   0  0  0  0  0  0  0  0  0  0  0  0
   -3.1102   -0.8685   -0.2946 H   0  0  0  0  0  0  0  0  0  0  0  0
   -1.1292   -0.4875    0.3524 C   0  0  1  0  0  0  0  0  0  0  0  0
   -0.5898   -0.7762    1.2552 H   0  0  0  0  0  0  0  0  0  0  0  0
   -0.2608   -0.8470   -0.8656 C   0  0  0  0  0  0  0  0  0  0  0  0
   -0.6616   -1.7473   -1.3332 H   0  0  0  0  0  0  0  0  0  0  0  0
   -0.3281   -0.0407   -1.5979 H   0  0  0  0  0  0  0  0  0  0  0  0
    1.1962   -1.0997   -0.5296 C   0  0  0  0  0  0  0  0  0  0  0  0
    1.6474   -0.9973    0.8017 C   0  0  0  0  0  0  0  0  0  0  0  0
    0.9589   -0.7116    1.5861 H   0  0  0  0  0  0  0  0  0  0  0  0
    2.9928   -1.2725    1.1146 C   0  0  0  0  0  0  0  0  0  0  0  0
    3.3353   -1.1915    2.1348 H   0  0  0  0  0  0  0  0  0  0  0  0
    3.8890   -1.6552    0.0928 C   0  0  0  0  0  0  0  0  0  0  0  0
    5.1877   -1.9257    0.3848 O   0  0  0  0  0  0  0  0  0  0  0  0
    5.3996   -1.7344    1.2994 H   0  0  0  0  0  0  0  0  0  0  0  0
    3.4346   -1.7620   -1.2380 C   0  0  0  0  0  0  0  0  0  0  0  0
    4.1304   -2.0513   -2.0111 H   0  0  0  0  0  0  0  0  0  0  0  0
    2.0903   -1.4818   -1.5483 C   0  0  0  0  0  0  0  0  0  0  0  0
    1.7441   -1.5551   -2.5724 H   0  0  0  0  0  0  0  0  0  0  0  0
   -1.4018    1.0238    0.4329 C   0  0  0  0  0  0  0  0  0  0  0  0
   -2.2416    1.5423   -0.3033 O   0  0  0  0  0  0  0  0  0  0  0  0
   -0.6927    1.7304    1.3223 N   0  0  0  0  0  0  0  0  0  0  0  0
    0.0178    1.2410    1.8469 H   0  0  0  0  0  0  0  0  0  0  0  0
   -0.8259    3.1712    1.5254 C   0  0  0  0  0  0  0  0  0  0  0  0
   -1.8769    3.4302    1.6645 H   0  0  0  0  0  0  0  0  0  0  0  0
   -0.2598    3.4806    2.4054 H   0  0  0  0  0  0  0  0  0  0  0  0
   -0.4486    3.7020    0.6489 H   0  0  0  0  0  0  0  0  0  0  0  0
  5  6  2  0  0  0  0
  5  7  1  0  0  0  0
  2  3  1  0  0  0  0
  2  4  1  0  0  0  0
  2  5  1  0  0  0  0
  1  2  1  0  0  0  0
 26 27  2  0  0  0  0
 26 28  1  0  0  0  0
 24 25  1  0  0  0  0
 22 23  1  0  0  0  0
 22 24  2  0  0  0  0
 20 21  1  0  0  0  0
 19 20  1  0  0  0  0
 19 22  1  0  0  0  0
 17 18  1  0  0  0  0
 17 19  2  0  0  0  0
 15 16  1  0  0  0  0
 15 17  1  0  0  0  0
 14 15  2  0  0  0  0
 14 24  1  0  0  0  0
 11 12  1  0  0  0  0
 11 13  1  0  0  0  0
 11 14  1  0  0  0  0
  9 10  1  0  0  0  0
  9 11  1  0  0  0  0
  9 26  1  0  0  0  0
  7  8  1  0  0  0  0
  7  9  1  0  0  0  0
 30 31  1  0  0  0  0
 30 32  1  0  0  0  0
 30 33  1  0  0  0  0
 28 29  1  0  0  0  0
 28 30  1  0  0  0  0
M  END
$$$$
default_name
  -OEChem-02102213163D

 33 33  0     1  0  0  0  0  0999 V2000
   -4.0702   -3.8485    1.4554 H   0  0  0  0  0  0  0  0  0  0  0  0
   -4.0012   -2.9605    0.8284 C   0  0  0  0  0  0  0  0  0  0  0  0
   -4.7652   -2.2435    1.1234 H   0  0  0  0  0  0  0  0  0  0  0  0
   -4.1352   -3.2385   -0.2156 H   0  0  0  0  0  0  0  0  0  0  0  0
   -2.6362   -2.3395    1.0094 C   0  0  0  0  0  0  0  0  0  0  0  0
   -1.8292   -2.8395    1.7814 O   0  0  0  0  0  0  0  0  0  0  0  0
   -2.3832   -1.2445    0.2964 N   0  0  0  0  0  0  0  0  0  0  0  0
   -3.1102   -0.8685   -0.2946 H   0  0  0  0  0  0  0  0  0  0  0  0
   -1.1292   -0.4875    0.3524 C   0  0  1  0  0  0  0  0  0  0  0  0
   -0.5898   -0.7762    1.2552 H   0  0  0  0  0  0  0  0  0  0  0  0
   -0.2608   -0.8470   -0.8656 C   0  0  0  0  0  0  0  0  0  0  0  0
   -0.6616   -1.7473   -1.3332 H   0  0  0  0  0  0  0  0  0  0  0  0
   -0.3281   -0.0407   -1.5979 H   0  0  0  0  0  0  0  0  0  0  0  0
    1.1962   -1.0997   -0.5296 C   0  0  0  0  0  0  0  0  0  0  0  0
    1.5920   -1.3100    0.8066 C   0  0  0  0  0  0  0  0  0  0  0  0
    0.8592   -1.2655    1.6016 H   0  0  0  0  0  0  0  0  0  0  0  0
    2.9400   -1.5845    1.1091 C   0  0  0  0  0  0  0  0  0  0  0  0
    3.2398   -1.7434    2.1336 H   0  0  0  0  0  0  0  0  0  0  0  0
    3.8945   -1.6526    0.0709 C   0  0  0  0  0  0  0  0  0  0  0  0
    5.1963   -1.9197    0.3519 O   0  0  0  0  0  0  0  0  0  0  0  0
    5.3628   -1.9524    1.2949 H   0  0  0  0  0  0  0  0  0  0  0  0
    3.4957   -1.4469   -1.2661 C   0  0  0  0  0  0  0  0  0  0  0  0
    4.2356   -1.4972   -2.0507 H   0  0  0  0  0  0  0  0  0  0  0  0
    2.1485   -1.1681   -1.5648 C   0  0  0  0  0  0  0  0  0  0  0  0
    1.8445   -1.0010   -2.5913 H   0  0  0  0  0  0  0  0  0  0  0  0
   -1.4018    1.0238    0.4329 C   0  0  0  0  0  0  0  0  0  0  0  0
   -2.2416    1.5423   -0.3033 O   0  0  0  0  0  0  0  0  0  0  0  0
   -0.6927    1.7304    1.3223 N   0  0  0  0  0  0  0  0  0  0  0  0
    0.0178    1.2410    1.8469 H   0  0  0  0  0  0  0  0  0  0  0  0
   -0.8259    3.1712    1.5254 C   0  0  0  0  0  0  0  0  0  0  0  0
   -1.8769    3.4302    1.6645 H   0  0  0  0  0  0  0  0  0  0  0  0
   -0.2598    3.4806    2.4054 H   0  0  0  0  0  0  0  0  0  0  0  0
   -0.4486    3.7020    0.6489 H   0  0  0  0  0  0  0  0  0  0  0  0
  5  6  2  0  0  0  0
  5  7  1  0  0  0  0
  2  3  1  0  0  0  0
  2  4  1  0  0  0  0
  2  5  1  0  0  0  0
  1  2  1  0  0  0  0
 26 27  2  0  0  0  0
 26 28  1  0  0  0  0
 24 25  1  0  0  0  0
 22 23  1  0  0  0  0
 22 24  2  0  0  0  0
 20 21  1  0  0  0  0
 19 20  1  0  0  0  0
 19 22  1  0  0  0  0
 17 18  1  0  0  0  0
 17 19  2  0  0  0  0
 15 16  1  0  0  0  0
 15 17  1  0  0  0  0
 14 15  2  0  0  0  0
 14 24  1  0  0  0  0
 11 12  1  0  0  0  0
 11 13  1  0  0  0  0
 11 14  1  0  0  0  0
  9 10  1  0  0  0  0
  9 11  1  0  0  0  0
  9 26  1  0  0  0  0
  7  8  1  0  0  0  0
  7  9  1  0  0  0  0
 30 31  1  0  0  0  0
 30 32  1  0  0  0  0
 30 33  1  0  0  0  0
 28 29  1  0  0  0  0
 28 30  1  0  0  0  0
M  END
$$$$
default_name
  -OEChem-02102213163D

 33 33  0     1  0  0  0  0  0999 V2000
   -4.0702   -3.8485    1.4554 H   0  0  0  0  0  0  0  0  0  0  0  0
   -4.0012   -2.9605    0.8284 C   0  0  0  0  0  0  0  0  0  0  0  0
   -4.7652   -2.2435    1.1234 H   0  0  0  0  0  0  0  0  0  0  0  0
   -4.1352   -3.2385   -0.2156 H   0  0  0  0  0  0  0  0  0  0  0  0
   -2.6362   -2.3395    1.0094 C   0  0  0  0  0  0  0  0  0  0  0  0
   -1.8292   -2.8395    1.7814 O   0  0  0  0  0  0  0  0  0  0  0  0
   -2.3832   -1.2445    0.2964 N   0  0  0  0  0  0  0  0  0  0  0  0
   -3.1102   -0.8685   -0.2946 H   0  0  0  0  0  0  0  0  0  0  0  0
   -1.1292   -0.4875    0.3524 C   0  0  1  0  0  0  0  0  0  0  0  0
   -0.5898   -0.7762    1.2552 H   0  0  0  0  0  0  0  0  0  0  0  0
   -0.2608   -0.8470   -0.8656 C   0  0  0  0  0  0  0  0  0  0  0  0
   -0.6616   -1.7473   -1.3332 H   0  0  0  0  0  0  0  0  0  0  0  0
   -0.3281   -0.0407   -1.5979 H   0  0  0  0  0  0  0  0  0  0  0  0
    1.1962   -1.0997   -0.5296 C   0  0  0  0  0  0  0  0  0  0  0  0
    1.5562   -1.6164    0.7313 C   0  0  0  0  0  0  0  0  0  0  0  0
    0.7940   -1.8102    1.4746 H   0  0  0  0  0  0  0  0  0  0  0  0
    2.9071   -1.8875    1.0240 C   0  0  0  0  0  0  0  0  0  0  0  0
    3.1793   -2.2816    1.9910 H   0  0  0  0  0  0  0  0  0  0  0  0
    3.9006   -1.6444    0.0506 C   0  0  0  0  0  0  0  0  0  0  0  0
    5.2057   -1.9053    0.3221 O   0  0  0  0  0  0  0  0  0  0  0  0
    5.3400   -2.1640    1.2348 H   0  0  0  0  0  0  0  0  0  0  0  0
    3.5379   -1.1320   -1.2123 C   0  0  0  0  0  0  0  0  0  0  0  0
    4.3072   -0.9462   -1.9466 H   0  0  0  0  0  0  0  0  0  0  0  0
    2.1874   -0.8577   -1.5002 C   0  0  0  0  0  0  0  0  0  0  0  0
    1.9106   -0.4553   -2.4674 H   0  0  0  0  0  0  0  0  0  0  0  0
   -1.4018    1.0238    0.4329 C   0  0  0  0  0  0  0  0  0  0  0  0
   -2.2416    1.5423   -0.3033 O   0  0  0  0  0  0  0  0  0  0  0  0
   -0.6927    1.7304    1.3223 N   0  0  0  0  0  0  0  0  0  0  0  0
    0.0178    1.2410    1.8469 H   0  0  0  0  0  0  0  0  0  0  0  0
   -0.8259    3.1712    1.5254 C   0  0  0  0  0  0  0  0  0  0  0  0
   -1.8769    3.4302    1.6645 H   0  0  0  0  0  0  0  0  0  0  0  0
   -0.2598    3.4806    2.4054 H   0  0  0  0  0  0  0  0  0  0  0  0
   -0.4486    3.7020    0.6489 H   0  0  0  0  0  0  0  0  0  0  0  0
  5  6  2  0  0  0  0
  5  7  1  0  0  0  0
  2  3  1  0  0  0  0
  2  4  1  0  0  0  0
  2  5  1  0  0  0  0
  1  2  1  0  0  0  0
 26 27  2  0  0  0  0
 26 28  1  0  0  0  0
 24 25  1  0  0  0  0
 22 23  1  0  0  0  0
 22 24  2  0  0  0  0
 20 21  1  0  0  0  0
 19 20  1  0  0  0  0
 19 22  1  0  0  0  0
 17 18  1  0  0  0  0
 17 19  2  0  0  0  0
 15 16  1  0  0  0  0
 15 17  1  0  0  0  0
 14 15  2  0  0  0  0
 14 24  1  0  0  0  0
 11 12  1  0  0  0  0
 11 13  1  0  0  0  0
 11 14  1  0  0  0  0
  9 10  1  0  0  0  0
  9 11  1  0  0  0  0
  9 26  1  0  0  0  0
  7  8  1  0  0  0  0
  7  9  1  0  0  0  0
 30 31  1  0  0  0  0
 30 32  1  0  0  0  0
 30 33  1  0  0  0  0
 28 29  1  0  0  0  0
 28 30  1  0  0  0  0
M  END
$$$$
default_name
  -OEChem-02102213163D

 33 33  0     1  0  0  0  0  0999 V2000
   -4.0702   -3.8485    1.4554 H   0  0  0  0  0  0  0  0  0  0  0  0
   -4.0012   -2.9605    0.8284 C   0  0  0  0  0  0  0  0  0  0  0  0
   -4.7652   -2.2435    1.1234 H   0  0  0  0  0  0  0  0  0  0  0  0
   -4.1352   -3.2385   -0.2156 H   0  0  0  0  0  0  0  0  0  0  0  0
   -2.6362   -2.3395    1.0094 C   0  0  0  0  0  0  0  0  0  0  0  0
   -1.8292   -2.8395    1.7814 O   0  0  0  0  0  0  0  0  0  0  0  0
   -2.3832   -1.2445    0.2964 N   0  0  0  0  0  0  0  0  0  0  0  0
   -3.1102   -0.8685   -0.2946 H   0  0  0  0  0  0  0  0  0  0  0  0
   -1.1292   -0.4875    0.3524 C   0  0  1  0  0  0  0  0  0  0  0  0
   -0.5898   -0.7762    1.2552 H   0  0  0  0  0  0  0  0  0  0  0  0
   -0.2608   -0.8470   -0.8656 C   0  0  0  0  0  0  0  0  0  0  0  0
   -0.6616   -1.7473   -1.3332 H   0  0  0  0  0  0  0  0  0  0  0  0
   -0.3281   -0.0407   -1.5979 H   0  0  0  0  0  0  0  0  0  0  0  0
    1.1962   -1.0997   -0.5296 C   0  0  0  0  0  0  0  0  0  0  0  0
    1.5425   -1.8957    0.5807 C   0  0  0  0  0  0  0  0  0  0  0  0
    0.7678   -2.3084    1.2136 H   0  0  0  0  0  0  0  0  0  0  0  0
    2.8963   -2.1609    0.8649 C   0  0  0  0  0  0  0  0  0  0  0  0
    3.1579   -2.7695    1.7169 H   0  0  0  0  0  0  0  0  0  0  0  0
    3.9069   -1.6310    0.0333 C   0  0  0  0  0  0  0  0  0  0  0  0
    5.2152   -1.8834    0.2972 O   0  0  0  0  0  0  0  0  0  0  0  0
    5.3326   -2.3546    1.1231 H   0  0  0  0  0  0  0  0  0  0  0  0
    3.5583   -0.8388   -1.0801 C   0  0  0  0  0  0  0  0  0  0  0  0
    4.3402   -0.4357   -1.7059 H   0  0  0  0  0  0  0  0  0  0  0  0
    2.2045   -0.5717   -1.3589 C   0  0  0  0  0  0  0  0  0  0  0  0
    1.9378    0.0447   -2.2091 H   0  0  0  0  0  0  0  0  0  0  0  0
   -1.4018    1.0238    0.4329 C   0  0  0  0  0  0  0  0  0  0  0  0
   -2.2416    1.5423   -0.3033 O   0  0  0  0  0  0  0  0  0  0  0  0
   -0.6927    1.7304    1.3223 N   0  0  0  0  0  0  0  0  0  0  0  0
    0.0178    1.2410    1.8469 H   0  0  0  0  0  0  0  0  0  0  0  0
   -0.8259    3.1712    1.5254 C   0  0  0  0  0  0  0  0  0  0  0  0
   -1.8769    3.4302    1.6645 H   0  0  0  0  0  0  0  0  0  0  0  0
   -0.2598    3.4806    2.4054 H   0  0  0  0  0  0  0  0  0  0  0  0
   -0.4486    3.7020    0.6489 H   0  0  0  0  0  0  0  0  0  0  0  0
  5  6  2  0  0  0  0
  5  7  1  0  0  0  0
  2  3  1  0  0  0  0
  2  4  1  0  0  0  0
  2  5  1  0  0  0  0
  1  2  1  0  0  0  0
 26 27  2  0  0  0  0
 26 28  1  0  0  0  0
 24 25  1  0  0  0  0
 22 23  1  0  0  0  0
 22 24  2  0  0  0  0
 20 21  1  0  0  0  0
 19 20  1  0  0  0  0
 19 22  1  0  0  0  0
 17 18  1  0  0  0  0
 17 19  2  0  0  0  0
 15 16  1  0  0  0  0
 15 17  1  0  0  0  0
 14 15  2  0  0  0  0
 14 24  1  0  0  0  0
 11 12  1  0  0  0  0
 11 13  1  0  0  0  0
 11 14  1  0  0  0  0
  9 10  1  0  0  0  0
  9 11  1  0  0  0  0
  9 26  1  0  0  0  0
  7  8  1  0  0  0  0
  7  9  1  0  0  0  0
 30 31  1  0  0  0  0
 30 32  1  0  0  0  0
 30 33  1  0  0  0  0
 28 29  1  0  0  0  0
 28 30  1  0  0  0  0
M  END
$$$$
default_name
  -OEChem-02102213163D

 33 33  0     1  0  0  0  0  0999 V2000
   -4.0702   -3.8485    1.4554 H   0  0  0  0  0  0  0  0  0  0  0  0
   -4.0012   -2.9605    0.8284 C   0  0  0  0  0  0  0  0  0  0  0  0
   -4.7652   -2.2435    1.1234 H   0  0  0  0  0  0  0  0  0  0  0  0
   -4.1352   -3.2385   -0.2156 H   0  0  0  0  0  0  0  0  0  0  0  0
   -2.6362   -2.3395    1.0094 C   0  0  0  0  0  0  0  0  0  0  0  0
   -1.8292   -2.8395    1.7814 O   0  0  0  0  0  0  0  0  0  0  0  0
   -2.3832   -1.2445    0.2964 N   0  0  0  0  0  0  0  0  0  0  0  0
   -3.1102   -0.8685   -0.2946 H   0  0  0  0  0  0  0  0  0  0  0  0
   -1.1292   -0.4875    0.3524 C   0  0  1  0  0  0  0  0  0  0  0  0
   -0.5898   -0.7762    1.2552 H   0  0  0  0  0  0  0  0  0  0  0  0
   -0.2608   -0.8470   -0.8656 C   0  0  0  0  0  0  0  0  0  0  0  0
   -0.6616   -1.7473   -1.3332 H   0  0  0  0  0  0  0  0  0  0  0  0
   -0.3281   -0.0407   -1.5979 H   0  0  0  0  0  0  0  0  0  0  0  0
    1.1962   -1.0997   -0.5296 C   0  0  0  0  0  0  0  0  0  0  0  0
    1.5518   -2.1289    0.3653 C   0  0  0  0  0  0  0  0  0  0  0  0
    0.7823   -2.7263    0.8365 H   0  0  0  0  0  0  0  0  0  0  0  0
    2.9085   -2.3861    0.6429 C   0  0  0  0  0  0  0  0  0  0  0  0
    3.1770   -3.1739    1.3298 H   0  0  0  0  0  0  0  0  0  0  0  0
    3.9129   -1.6135    0.0202 C   0  0  0  0  0  0  0  0  0  0  0  0
    5.2242   -1.8555    0.2791 O   0  0  0  0  0  0  0  0  0  0  0  0
    5.3413   -2.5115    0.9675 H   0  0  0  0  0  0  0  0  0  0  0  0
    3.5555   -0.5872   -0.8787 C   0  0  0  0  0  0  0  0  0  0  0  0
    4.3325   -0.0005   -1.3451 H   0  0  0  0  0  0  0  0  0  0  0  0
    2.1984   -0.3296   -1.1506 C   0  0  0  0  0  0  0  0  0  0  0  0
    1.9243    0.4651   -1.8342 H   0  0  0  0  0  0  0  0  0  0  0  0
   -1.4018    1.0238    0.4329 C   0  0  0  0  0  0  0  0  0  0  0  0
   -2.2416    1.5423   -0.3033 O   0  0  0  0  0  0  0  0  0  0  0  0
   -0.6927    1.7304    1.3223 N   0  0  0  0  0  0  0  0  0  0  0  0
    0.0178    1.2410    1.8469 H   0  0  0  0  0  0  0  0  0  0  0  0
   -0.8259    3.1712    1.5254 C   0  0  0  0  0  0  0  0  0  0  0  0
   -1.8769    3.4302    1.6645 H   0  0  0  0  0  0  0  0  0  0  0  0
   -0.2598    3.4806    2.4054 H   0  0  0  0  0  0  0  0  0  0  0  0
   -0.4486    3.7020    0.6489 H   0  0  0  0  0  0  0  0  0  0  0  0
  5  6  2  0  0  0  0
  5  7  1  0  0  0  0
  2  3  1  0  0  0  0
  2  4  1  0  0  0  0
  2  5  1  0  0  0  0
  1  2  1  0  0  0  0
 26 27  2  0  0  0  0
 26 28  1  0  0  0  0
 24 25  1  0  0  0  0
 22 23  1  0  0  0  0
 22 24  2  0  0  0  0
 20 21  1  0  0  0  0
 19 20  1  0  0  0  0
 19 22  1  0  0  0  0
 17 18  1  0  0  0  0
 17 19  2  0  0  0  0
 15 16  1  0  0  0  0
 15 17  1  0  0  0  0
 14 15  2  0  0  0  0
 14 24  1  0  0  0  0
 11 12  1  0  0  0  0
 11 13  1  0  0  0  0
 11 14  1  0  0  0  0
  9 10  1  0  0  0  0
  9 11  1  0  0  0  0
  9 26  1  0  0  0  0
  7  8  1  0  0  0  0
  7  9  1  0  0  0  0
 30 31  1  0  0  0  0
 30 32  1  0  0  0  0
 30 33  1  0  0  0  0
 28 29  1  0  0  0  0
 28 30  1  0  0  0  0
M  END
$$$$
default_name
  -OEChem-02102213163D

 33 33  0     1  0  0  0  0  0999 V2000
   -4.0702   -3.8485    1.4554 H   0  0  0  0  0  0  0  0  0  0  0  0
   -4.0012   -2.9605    0.8284 C   0  0  0  0  0  0  0  0  0  0  0  0
   -4.7652   -2.2435    1.1234 H   0  0  0  0  0  0  0  0  0  0  0  0
   -4.1352   -3.2385   -0.2156 H   0  0  0  0  0  0  0  0  0  0  0  0
   -2.6362   -2.3395    1.0094 C   0  0  0  0  0  0  0  0  0  0  0  0
   -1.8292   -2.8395    1.7814 O   0  0  0  0  0  0  0  0  0  0  0  0
   -2.3832   -1.2445    0.2964 N   0  0  0  0  0  0  0  0  0  0  0  0
   -3.1102   -0.8685   -0.2946 H   0  0  0  0  0  0  0  0  0  0  0  0
   -1.1292   -0.4875    0.3524 C   0  0  1  0  0  0  0  0  0  0  0  0
   -0.5898   -0.7762    1.2552 H   0  0  0  0  0  0  0  0  0  0  0  0
   -0.2608   -0.8470   -0.8656 C   0  0  0  0  0  0  0  0  0  0  0  0
   -0.6616   -1.7473   -1.3332 H   0  0  0  0  0  0  0  0  0  0  0  0
   -0.3281   -0.0407   -1.5979 H   0  0  0  0  0  0  0  0  0  0  0  0
    1.1962   -1.0997   -0.5296 C   0  0  0  0  0  0  0  0  0  0  0  0
    1.5833   -2.3000    0.0996 C   0  0  0  0  0  0  0  0  0  0  0  0
    0.8365   -3.0353    0.3690 H   0  0  0  0  0  0  0  0  0  0  0  0
    2.9427   -2.5476    0.3729 C   0  0  0  0  0  0  0  0  0  0  0  0
    3.2354   -3.4671    0.8562 H   0  0  0  0  0  0  0  0  0  0  0  0
    3.9184   -1.5929    0.0122 C   0  0  0  0  0  0  0  0  0  0  0  0
    5.2321   -1.8236    0.2689 O   0  0  0  0  0  0  0  0  0  0  0  0
    5.3654   -2.6238    0.7786 H   0  0  0  0  0  0  0  0  0  0  0  0
    3.5297   -0.3945   -0.6217 C   0  0  0  0  0  0  0  0  0  0  0  0
    4.2845    0.3297   -0.8886 H   0  0  0  0  0  0  0  0  0  0  0  0
    2.1697   -0.1479   -0.8894 C   0  0  0  0  0  0  0  0  0  0  0  0
    1.8709    0.7771   -1.3681 H   0  0  0  0  0  0  0  0  0  0  0  0
   -1.4018    1.0238    0.4329 C   0  0  0  0  0  0  0  0  0  0  0  0
   -2.2416    1.5423   -0.3033 O   0  0  0  0  0  0  0  0  0  0  0  0
   -0.6927    1.7304    1.3223 N   0  0  0  0  0  0  0  0  0  0  0  0
    0.0178    1.2410    1.8469 H   0  0  0  0  0  0  0  0  0  0  0  0
   -0.8259    3.1712    1.5254 C   0  0  0  0  0  0  0  0  0  0  0  0
   -1.8769    3.4302    1.6645 H   0  0  0  0  0  0  0  0  0  0  0  0
   -0.2598    3.4806    2.4054 H   0  0  0  0  0  0  0  0  0  0  0  0
   -0.4486    3.7020    0.6489 H   0  0  0  0  0  0  0  0  0  0  0  0
  5  6  2  0  0  0  0
  5  7  1  0  0  0  0
  2  3  1  0  0  0  0
  2  4  1  0  0  0  0
  2  5  1  0  0  0  0
  1  2  1  0  0  0  0
 26 27  2  0  0  0  0
 26 28  1  0  0  0  0
 24 25  1  0  0  0  0
 22 23  1  0  0  0  0
 22 24  2  0  0  0  0
 20 21  1  0  0  0  0
 19 20  1  0  0  0  0
 19 22  1  0  0  0  0
 17 18  1  0  0  0  0
 17 19  2  0  0  0  0
 15 16  1  0  0  0  0
 15 17  1  0  0  0  0
 14 15  2  0  0  0  0
 14 24  1  0  0  0  0
 11 12  1  0  0  0  0
 11 13  1  0  0  0  0
 11 14  1  0  0  0  0
  9 10  1  0  0  0  0
  9 11  1  0  0  0  0
  9 26  1  0  0  0  0
  7  8  1  0  0  0  0
  7  9  1  0  0  0  0
 30 31  1  0  0  0  0
 30 32  1  0  0  0  0
 30 33  1  0  0  0  0
 28 29  1  0  0  0  0
 28 30  1  0  0  0  0
M  END
$$$$
default_name
  -OEChem-02102213163D

 33 33  0     1  0  0  0  0  0999 V2000
   -4.0702   -3.8485    1.4554 H   0  0  0  0  0  0  0  0  0  0  0  0
   -4.0012   -2.9605    0.8284 C   0  0  0  0  0  0  0  0  0  0  0  0
   -4.7652   -2.2435    1.1234 H   0  0  0  0  0  0  0  0  0  0  0  0
   -4.1352   -3.2385   -0.2156 H   0  0  0  0  0  0  0  0  0  0  0  0
   -2.6362   -2.3395    1.0094 C   0  0  0  0  0  0  0  0  0  0  0  0
   -1.8292   -2.8395    1.7814 O   0  0  0  0  0  0  0  0  0  0  0  0
   -2.3832   -1.2445    0.2964 N   0  0  0  0  0  0  0  0  0  0  0  0
   -3.1102   -0.8685   -0.2946 H   0  0  0  0  0  0  0  0  0  0  0  0
   -1.1292   -0.4875    0.3524 C   0  0  1  0  0  0  0  0  0  0  0  0
   -0.5898   -0.7762    1.2552 H   0  0  0  0  0  0  0  0  0  0  0  0
   -0.2608   -0.8470   -0.8656 C   0  0  0  0  0  0  0  0  0  0  0  0
   -0.6616   -1.7473   -1.3332 H   0  0  0  0  0  0  0  0  0  0  0  0
   -0.3281   -0.0407   -1.5979 H   0  0  0  0  0  0  0  0  0  0  0  0
    1.1962   -1.0997   -0.5296 C   0  0  0  0  0  0  0  0  0  0  0  0
    1.6351   -2.3974   -0.1983 C   0  0  0  0  0  0  0  0  0  0  0  0
    0.9267   -3.2144   -0.1571 H   0  0  0  0  0  0  0  0  0  0  0  0
    2.9966   -2.6346    0.0735 C   0  0  0  0  0  0  0  0  0  0  0  0
    3.3290   -3.6292    0.3283 H   0  0  0  0  0  0  0  0  0  0  0  0
    3.9228   -1.5707    0.0098 C   0  0  0  0  0  0  0  0  0  0  0  0
    5.2384   -1.7897    0.2673 O   0  0  0  0  0  0  0  0  0  0  0  0
    5.4032   -2.6839    0.5692 H   0  0  0  0  0  0  0  0  0  0  0  0
    3.4826   -0.2738   -0.3266 C   0  0  0  0  0  0  0  0  0  0  0  0
    4.1996    0.5323   -0.3677 H   0  0  0  0  0  0  0  0  0  0  0  0
    2.1203   -0.0390   -0.5932 C   0  0  0  0  0  0  0  0  0  0  0  0
    1.7814    0.9595   -0.8426 H   0  0  0  0  0  0  0  0  0  0  0  0
   -1.4018    1.0238    0.4329 C   0  0  0  0  0  0  0  0  0  0  0  0
   -2.2416    1.5423   -0.3033 O   0  0  0  0  0  0  0  0  0  0  0  0
   -0.6927    1.7304    1.3223 N   0  0  0  0  0  0  0  0  0  0  0  0
    0.0178    1.2410    1.8469 H   0  0  0  0  0  0  0  0  0  0  0  0
   -0.8259    3.1712    1.5254 C   0  0  0  0  0  0  0  0  0  0  0  0
   -1.8769    3.4302    1.6645 H   0  0  0  0  0  0  0  0  0  0  0  0
   -0.2598    3.4806    2.4054 H   0  0  0  0  0  0  0  0  0  0  0  0
   -0.4486    3.7020    0.6489 H   0  0  0  0  0  0  0  0  0  0  0  0
  5  6  2  0  0  0  0
  5  7  1  0  0  0  0
  2  3  1  0  0  0  0
  2  4  1  0  0  0  0
  2  5  1  0  0  0  0
  1  2  1  0  0  0  0
 26 27  2  0  0  0  0
 26 28  1  0  0  0  0
 24 25  1  0  0  0  0
 22 23  1  0  0  0  0
 22 24  2  0  0  0  0
 20 21  1  0  0  0  0
 19 20  1  0  0  0  0
 19 22  1  0  0  0  0
 17 18  1  0  0  0  0
 17 19  2  0  0  0  0
 15 16  1  0  0  0  0
 15 17  1  0  0  0  0
 14 15  2  0  0  0  0
 14 24  1  0  0  0  0
 11 12  1  0  0  0  0
 11 13  1  0  0  0  0
 11 14  1  0  0  0  0
  9 10  1  0  0  0  0
  9 11  1  0  0  0  0
  9 26  1  0  0  0  0
  7  8  1  0  0  0  0
  7  9  1  0  0  0  0
 30 31  1  0  0  0  0
 30 32  1  0  0  0  0
 30 33  1  0  0  0  0
 28 29  1  0  0  0  0
 28 30  1  0  0  0  0
M  END
$$$$
default_name
  -OEChem-02102213163D

 33 33  0     1  0  0  0  0  0999 V2000
   -4.0702   -3.8485    1.4554 H   0  0  0  0  0  0  0  0  0  0  0  0
   -4.0012   -2.9605    0.8284 C   0  0  0  0  0  0  0  0  0  0  0  0
   -4.7652   -2.2435    1.1234 H   0  0  0  0  0  0  0  0  0  0  0  0
   -4.1352   -3.2385   -0.2156 H   0  0  0  0  0  0  0  0  0  0  0  0
   -2.6362   -2.3395    1.0094 C   0  0  0  0  0  0  0  0  0  0  0  0
   -1.8292   -2.8395    1.7814 O   0  0  0  0  0  0  0  0  0  0  0  0
   -2.3832   -1.2445    0.2964 N   0  0  0  0  0  0  0  0  0  0  0  0
   -3.1102   -0.8685   -0.2946 H   0  0  0  0  0  0  0  0  0  0  0  0
   -1.1292   -0.4875    0.3524 C   0  0  1  0  0  0  0  0  0  0  0  0
   -0.5898   -0.7762    1.2552 H   0  0  0  0  0  0  0  0  0  0  0  0
   -0.2608   -0.8470   -0.8656 C   0  0  0  0  0  0  0  0  0  0  0  0
   -0.6616   -1.7473   -1.3332 H   0  0  0  0  0  0  0  0  0  0  0  0
   -0.3281   -0.0407   -1.5979 H   0  0  0  0  0  0  0  0  0  0  0  0
    1.1962   -1.0997   -0.5296 C   0  0  0  0  0  0  0  0  0  0  0  0
    1.7036   -2.4144   -0.5079 C   0  0  0  0  0  0  0  0  0  0  0  0
    1.0469   -3.2514   -0.7060 H   0  0  0  0  0  0  0  0  0  0  0  0
    3.0667   -2.6410   -0.2351 C   0  0  0  0  0  0  0  0  0  0  0  0
    3.4515   -3.6491   -0.2178 H   0  0  0  0  0  0  0  0  0  0  0  0
    3.9258   -1.5484    0.0132 C   0  0  0  0  0  0  0  0  0  0  0  0
    5.2425   -1.7563    0.2744 O   0  0  0  0  0  0  0  0  0  0  0  0
    5.4523   -2.6878    0.3537 H   0  0  0  0  0  0  0  0  0  0  0  0
    3.4174   -0.2332   -0.0136 C   0  0  0  0  0  0  0  0  0  0  0  0
    4.0834    0.5936    0.1822 H   0  0  0  0  0  0  0  0  0  0  0  0
    2.0535   -0.0103   -0.2821 C   0  0  0  0  0  0  0  0  0  0  0  0
    1.6617    0.9999   -0.2935 H   0  0  0  0  0  0  0  0  0  0  0  0
   -1.4018    1.0238    0.4329 C   0  0  0  0  0  0  0  0  0  0  0  0
   -2.2416    1.5423   -0.3033 O   0  0  0  0  0  0  0  0  0  0  0  0
   -0.6927    1.7304    1.3223 N   0  0  0  0  0  0  0  0  0  0  0  0
    0.0178    1.2410    1.8469 H   0  0  0  0  0  0  0  0  0  0  0  0
   -0.8259    3.1712    1.5254 C   0  0  0  0  0  0  0  0  0  0  0  0
   -1.8769    3.4302    1.6645 H   0  0  0  0  0  0  0  0  0  0  0  0
   -0.2598    3.4806    2.4054 H   0  0  0  0  0  0  0  0  0  0  0  0
   -0.4486    3.7020    0.6489 H   0  0  0  0  0  0  0  0  0  0  0  0
  5  6  2  0  0  0  0
  5  7  1  0  0  0  0
  2  3  1  0  0  0  0
  2  4  1  0  0  0  0
  2  5  1  0  0  0  0
  1  2  1  0  0  0  0
 26 27  2  0  0  0  0
 26 28  1  0  0  0  0
 24 25  1  0  0  0  0
 22 23  1  0  0  0  0
 22 24  2  0  0  0  0
 20 21  1  0  0  0  0
 19 20  1  0  0  0  0
 19 22  1  0  0  0  0
 17 18  1  0  0  0  0
 17 19  2  0  0  0  0
 15 16  1  0  0  0  0
 15 17  1  0  0  0  0
 14 15  2  0  0  0  0
 14 24  1  0  0  0  0
 11 12  1  0  0  0  0
 11 13  1  0  0  0  0
 11 14  1  0  0  0  0
  9 10  1  0  0  0  0
  9 11  1  0  0  0  0
  9 26  1  0  0  0  0
  7  8  1  0  0  0  0
  7  9  1  0  0  0  0
 30 31  1  0  0  0  0
 30 32  1  0  0  0  0
 30 33  1  0  0  0  0
 28 29  1  0  0  0  0
 28 30  1  0  0  0  0
M  END
$$$$
default_name
  -OEChem-02102213163D

 33 33  0     1  0  0  0  0  0999 V2000
   -4.0702   -3.8485    1.4554 H   0  0  0  0  0  0  0  0  0  0  0  0
   -4.0012   -2.9605    0.8284 C   0  0  0  0  0  0  0  0  0  0  0  0
   -4.7652   -2.2435    1.1234 H   0  0  0  0  0  0  0  0  0  0  0  0
   -4.1352   -3.2385   -0.2156 H   0  0  0  0  0  0  0  0  0  0  0  0
   -2.6362   -2.3395    1.0094 C   0  0  0  0  0  0  0  0  0  0  0  0
   -1.8292   -2.8395    1.7814 O   0  0  0  0  0  0  0  0  0  0  0  0
   -2.3832   -1.2445    0.2964 N   0  0  0  0  0  0  0  0  0  0  0  0
   -3.1102   -0.8685   -0.2946 H   0  0  0  0  0  0  0  0  0  0  0  0
   -1.1292   -0.4875    0.3524 C   0  0  1  0  0  0  0  0  0  0  0  0
   -0.5898   -0.7762    1.2552 H   0  0  0  0  0  0  0  0  0  0  0  0
   -0.2608   -0.8470   -0.8656 C   0  0  0  0  0  0  0  0  0  0  0  0
   -0.6616   -1.7473   -1.3332 H   0  0  0  0  0  0  0  0  0  0  0  0
   -0.3281   -0.0407   -1.5979 H   0  0  0  0  0  0  0  0  0  0  0  0
    1.1962   -1.0997   -0.5296 C   0  0  0  0  0  0  0  0  0  0  0  0
    1.7841   -2.3499   -0.8083 C   0  0  0  0  0  0  0  0  0  0  0  0
    1.1887   -3.1438   -1.2401 H   0  0  0  0  0  0  0  0  0  0  0  0
    3.1480   -2.5665   -0.5317 C   0  0  0  0  0  0  0  0  0  0  0  0
    3.5945   -3.5256   -0.7450 H   0  0  0  0  0  0  0  0  0  0  0  0
    3.9274   -1.5276    0.0222 C   0  0  0  0  0  0  0  0  0  0  0  0
    5.2443   -1.7255    0.2898 O   0  0  0  0  0  0  0  0  0  0  0  0
    5.5092   -2.6351    0.1466 H   0  0  0  0  0  0  0  0  0  0  0  0
    3.3387   -0.2756    0.2960 C   0  0  0  0  0  0  0  0  0  0  0  0
    3.9439    0.5095    0.7236 H   0  0  0  0  0  0  0  0  0  0  0  0
    1.9740   -0.0637    0.0226 C   0  0  0  0  0  0  0  0  0  0  0  0
    1.5202    0.8955    0.2418 H   0  0  0  0  0  0  0  0  0  0  0  0
   -1.4018    1.0238    0.4329 C   0  0  0  0  0  0  0  0  0  0  0  0
   -2.2416    1.5423   -0.3033 O   0  0  0  0  0  0  0  0  0  0  0  0
   -0.6927    1.7304    1.3223 N   0  0  0  0  0  0  0  0  0  0  0  0
    0.0178    1.2410    1.8469 H   0  0  0  0  0  0  0  0  0  0  0  0
   -0.8259    3.1712    1.5254 C   0  0  0  0  0  0  0  0  0  0  0  0
   -1.8769    3.4302    1.6645 H   0  0  0  0  0  0  0  0  0  0  0  0
   -0.2598    3.4806    2.4054 H   0  0  0  0  0  0  0  0  0  0  0  0
   -0.4486    3.7020    0.6489 H   0  0  0  0  0  0  0  0  0  0  0  0
  5  6  2  0  0  0  0
  5  7  1  0  0  0  0
  2  3  1  0  0  0  0
  2  4  1  0  0  0  0
  2  5  1  0  0  0  0
  1  2  1  0  0  0  0
 26 27  2  0  0  0  0
 26 28  1  0  0  0  0
 24 25  1  0  0  0  0
 22 23  1  0  0  0  0
 22 24  2  0  0  0  0
 20 21  1  0  0  0  0
 19 20  1  0  0  0  0
 19 22  1  0  0  0  0
 17 18  1  0  0  0  0
 17 19  2  0  0  0  0
 15 16  1  0  0  0  0
 15 17  1  0  0  0  0
 14 15  2  0  0  0  0
 14 24  1  0  0  0  0
 11 12  1  0  0  0  0
 11 13  1  0  0  0  0
 11 14  1  0  0  0  0
  9 10  1  0  0  0  0
  9 11  1  0  0  0  0
  9 26  1  0  0  0  0
  7  8  1  0  0  0  0
  7  9  1  0  0  0  0
 30 31  1  0  0  0  0
 30 32  1  0  0  0  0
 30 33  1  0  0  0  0
 28 29  1  0  0  0  0
 28 30  1  0  0  0  0
M  END
$$$$
default_name
  -OEChem-02102213163D

 33 33  0     1  0  0  0  0  0999 V2000
   -4.0702   -3.8485    1.4554 H   0  0  0  0  0  0  0  0  0  0  0  0
   -4.0012   -2.9605    0.8284 C   0  0  0  0  0  0  0  0  0  0  0  0
   -4.7652   -2.2435    1.1234 H   0  0  0  0  0  0  0  0  0  0  0  0
   -4.1352   -3.2385   -0.2156 H   0  0  0  0  0  0  0  0  0  0  0  0
   -2.6362   -2.3395    1.0094 C   0  0  0  0  0  0  0  0  0  0  0  0
   -1.8292   -2.8395    1.7814 O   0  0  0  0  0  0  0  0  0  0  0  0
   -2.3832   -1.2445    0.2964 N   0  0  0  0  0  0  0  0  0  0  0  0
   -3.1102   -0.8685   -0.2946 H   0  0  0  0  0  0  0  0  0  0  0  0
   -1.1292   -0.4875    0.3524 C   0  0  1  0  0  0  0  0  0  0  0  0
   -0.5898   -0.7762    1.2552 H   0  0  0  0  0  0  0  0  0  0  0  0
   -0.2608   -0.8470   -0.8656 C   0  0  0  0  0  0  0  0  0  0  0  0
   -0.6616   -1.7473   -1.3332 H   0  0  0  0  0  0  0  0  0  0  0  0
   -0.3281   -0.0407   -1.5979 H   0  0  0  0  0  0  0  0  0  0  0  0
    1.1962   -1.0997   -0.5296 C   0  0  0  0  0  0  0  0  0  0  0  0
    1.8710   -2.2083   -1.0790 C   0  0  0  0  0  0  0  0  0  0  0  0
    1.3426   -2.8989   -1.7232 H   0  0  0  0  0  0  0  0  0  0  0  0
    3.2351   -2.4161   -0.7962 C   0  0  0  0  0  0  0  0  0  0  0  0
    3.7483   -3.2669   -1.2174 H   0  0  0  0  0  0  0  0  0  0  0  0
    3.9273   -1.5096    0.0361 C   0  0  0  0  0  0  0  0  0  0  0  0
    5.2436   -1.6995    0.3125 O   0  0  0  0  0  0  0  0  0  0  0  0
    5.5700   -2.5294   -0.0378 H   0  0  0  0  0  0  0  0  0  0  0  0
    3.2517   -0.3981    0.5811 C   0  0  0  0  0  0  0  0  0  0  0  0
    3.7907    0.2855    1.2196 H   0  0  0  0  0  0  0  0  0  0  0  0
    1.8871   -0.1957    0.3002 C   0  0  0  0  0  0  0  0  0  0  0  0
    1.3664    0.6534    0.7268 H   0  0  0  0  0  0  0  0  0  0  0  0
   -1.4018    1.0238    0.4329 C   0  0  0  0  0  0  0  0  0  0  0  0
   -2.2416    1.5423   -0.3033 O   0  0  0  0  0  0  0  0  0  0  0  0
   -0.6927    1.7304    1.3223 N   0  0  0  0  0  0  0  0  0  0  0  0
    0.0178    1.2410    1.8469 H   0  0  0  0  0  0  0  0  0  0  0  0
   -0.8259    3.1712    1.5254 C   0  0  0  0  0  0  0  0  0  0  0  0
   -1.8769    3.4302    1.6645 H   0  0  0  0  0  0  0  0  0  0  0  0
   -0.2598    3.4806    2.4054 H   0  0  0  0  0  0  0  0  0  0  0  0
   -0.4486    3.7020    0.6489 H   0  0  0  0  0  0  0  0  0  0  0  0
  5  6  2  0  0  0  0
  5  7  1  0  0  0  0
  2  3  1  0  0  0  0
  2  4  1  0  0  0  0
  2  5  1  0  0  0  0
  1  2  1  0  0  0  0
 26 27  2  0  0  0  0
 26 28  1  0  0  0  0
 24 25  1  0  0  0  0
 22 23  1  0  0  0  0
 22 24  2  0  0  0  0
 20 21  1  0  0  0  0
 19 20  1  0  0  0  0
 19 22  1  0  0  0  0
 17 18  1  0  0  0  0
 17 19  2  0  0  0  0
 15 16  1  0  0  0  0
 15 17  1  0  0  0  0
 14 15  2  0  0  0  0
 14 24  1  0  0  0  0
 11 12  1  0  0  0  0
 11 13  1  0  0  0  0
 11 14  1  0  0  0  0
  9 10  1  0  0  0  0
  9 11  1  0  0  0  0
  9 26  1  0  0  0  0
  7  8  1  0  0  0  0
  7  9  1  0  0  0  0
 30 31  1  0  0  0  0
 30 32  1  0  0  0  0
 30 33  1  0  0  0  0
 28 29  1  0  0  0  0
 28 30  1  0  0  0  0
M  END
$$$$
default_name
  -OEChem-02102213163D

 33 33  0     1  0  0  0  0  0999 V2000
   -4.0702   -3.8485    1.4554 H   0  0  0  0  0  0  0  0  0  0  0  0
   -4.0012   -2.9605    0.8284 C   0  0  0  0  0  0  0  0  0  0  0  0
   -4.7652   -2.2435    1.1234 H   0  0  0  0  0  0  0  0  0  0  0  0
   -4.1352   -3.2385   -0.2156 H   0  0  0  0  0  0  0  0  0  0  0  0
   -2.6362   -2.3395    1.0094 C   0  0  0  0  0  0  0  0  0  0  0  0
   -1.8292   -2.8395    1.7814 O   0  0  0  0  0  0  0  0  0  0  0  0
   -2.3832   -1.2445    0.2964 N   0  0  0  0  0  0  0  0  0  0  0  0
   -3.1102   -0.8685   -0.2946 H   0  0  0  0  0  0  0  0  0  0  0  0
   -1.1292   -0.4875    0.3524 C   0  0  1  0  0  0  0  0  0  0  0  0
   -0.5898   -0.7762    1.2552 H   0  0  0  0  0  0  0  0  0  0  0  0
   -0.2608   -0.8470   -0.8656 C   0  0  0  0  0  0  0  0  0  0  0  0
   -0.6616   -1.7473   -1.3332 H   0  0  0  0  0  0  0  0  0  0  0  0
   -0.3281   -0.0407   -1.5979 H   0  0  0  0  0  0  0  0  0  0  0  0
    1.1962   -1.0997   -0.5296 C   0  0  0  0  0  0  0  0  0  0  0  0
    1.9586   -1.9993   -1.3015 C   0  0  0  0  0  0  0  0  0  0  0  0
    1.4980   -2.5333   -2.1223 H   0  0  0  0  0  0  0  0  0  0  0  0
    3.3220   -2.2001   -1.0105 C   0  0  0  0  0  0  0  0  0  0  0  0
    3.9024   -2.8908   -1.6027 H   0  0  0  0  0  0  0  0  0  0  0  0
    3.9256   -1.4957    0.0540 C   0  0  0  0  0  0  0  0  0  0  0  0
    5.2405   -1.6801    0.3407 O   0  0  0  0  0  0  0  0  0  0  0  0
    5.6307   -2.3780   -0.1870 H   0  0  0  0  0  0  0  0  0  0  0  0
    3.1624   -0.5922    0.8223 C   0  0  0  0  0  0  0  0  0  0  0  0
    3.6342   -0.0629    1.6364 H   0  0  0  0  0  0  0  0  0  0  0  0
    1.7987   -0.3972    0.5318 C   0  0  0  0  0  0  0  0  0  0  0  0
    1.2107    0.2901    1.1284 H   0  0  0  0  0  0  0  0  0  0  0  0
   -1.4018    1.0238    0.4329 C   0  0  0  0  0  0  0  0  0  0  0  0
   -2.2416    1.5423   -0.3033 O   0  0  0  0  0  0  0  0  0  0  0  0
   -0.6927    1.7304    1.3223 N   0  0  0  0  0  0  0  0  0  0  0  0
    0.0178    1.2410    1.8469 H   0  0  0  0  0  0  0  0  0  0  0  0
   -0.8259    3.1712    1.5254 C   0  0  0  0  0  0  0  0  0  0  0  0
   -1.8769    3.4302    1.6645 H   0  0  0  0  0  0  0  0  0  0  0  0
   -0.2598    3.4806    2.4054 H   0  0  0  0  0  0  0  0  0  0  0  0
   -0.4486    3.7020    0.6489 H   0  0  0  0  0  0  0  0  0  0  0  0
  5  6  2  0  0  0  0
  5  7  1  0  0  0  0
  2  3  1  0  0  0  0
  2  4  1  0  0  0  0
  2  5  1  0  0  0  0
  1  2  1  0  0  0  0
 26 27  2  0  0  0  0
 26 28  1  0  0  0  0
 24 25  1  0  0  0  0
 22 23  1  0  0  0  0
 22 24  2  0  0  0  0
 20 21  1  0  0  0  0
 19 20  1  0  0  0  0
 19 22  1  0  0  0  0
 17 18  1  0  0  0  0
 17 19  2  0  0  0  0
 15 16  1  0  0  0  0
 15 17  1  0  0  0  0
 14 15  2  0  0  0  0
 14 24  1  0  0  0  0
 11 12  1  0  0  0  0
 11 13  1  0  0  0  0
 11 14  1  0  0  0  0
  9 10  1  0  0  0  0
  9 11  1  0  0  0  0
  9 26  1  0  0  0  0
  7  8  1  0  0  0  0
  7  9  1  0  0  0  0
 30 31  1  0  0  0  0
 30 32  1  0  0  0  0
 30 33  1  0  0  0  0
 28 29  1  0  0  0  0
 28 30  1  0  0  0  0
M  END
$$$$
default_name
  -OEChem-02102213163D

 33 33  0     1  0  0  0  0  0999 V2000
   -4.0702   -3.8485    1.4554 H   0  0  0  0  0  0  0  0  0  0  0  0
   -4.0012   -2.9605    0.8284 C   0  0  0  0  0  0  0  0  0  0  0  0
   -4.7652   -2.2435    1.1234 H   0  0  0  0  0  0  0  0  0  0  0  0
   -4.1352   -3.2385   -0.2156 H   0  0  0  0  0  0  0  0  0  0  0  0
   -2.6362   -2.3395    1.0094 C   0  0  0  0  0  0  0  0  0  0  0  0
   -1.8292   -2.8395    1.7814 O   0  0  0  0  0  0  0  0  0  0  0  0
   -2.3832   -1.2445    0.2964 N   0  0  0  0  0  0  0  0  0  0  0  0
   -3.1102   -0.8685   -0.2946 H   0  0  0  0  0  0  0  0  0  0  0  0
   -1.1292   -0.4875    0.3524 C   0  0  1  0  0  0  0  0  0  0  0  0
   -0.5898   -0.7762    1.2552 H   0  0  0  0  0  0  0  0  0  0  0  0
   -0.2608   -0.8470   -0.8656 C   0  0  0  0  0  0  0  0  0  0  0  0
   -0.6616   -1.7473   -1.3332 H   0  0  0  0  0  0  0  0  0  0  0  0
   -0.3281   -0.0407   -1.5979 H   0  0  0  0  0  0  0  0  0  0  0  0
    1.1962   -1.0997   -0.5296 C   0  0  0  0  0  0  0  0  0  0  0  0
    2.0408   -1.7370   -1.4606 C   0  0  0  0  0  0  0  0  0  0  0  0
    1.6444   -2.0721   -2.4102 H   0  0  0  0  0  0  0  0  0  0  0  0
    3.4028   -1.9331   -1.1600 C   0  0  0  0  0  0  0  0  0  0  0  0
    4.0463   -2.4228   -1.8747 H   0  0  0  0  0  0  0  0  0  0  0  0
    3.9224   -1.4868    0.0747 C   0  0  0  0  0  0  0  0  0  0  0  0
    5.2351   -1.6685    0.3728 O   0  0  0  0  0  0  0  0  0  0  0  0
    5.6871   -2.1911   -0.2909 H   0  0  0  0  0  0  0  0  0  0  0  0
    3.0769   -0.8449    1.0031 C   0  0  0  0  0  0  0  0  0  0  0  0
    3.4849   -0.5120    1.9456 H   0  0  0  0  0  0  0  0  0  0  0  0
    1.7149   -0.6545    0.7016 C   0  0  0  0  0  0  0  0  0  0  0  0
    1.0639   -0.1695    1.4193 H   0  0  0  0  0  0  0  0  0  0  0  0
   -1.4018    1.0238    0.4329 C   0  0  0  0  0  0  0  0  0  0  0  0
   -2.2416    1.5423   -0.3033 O   0  0  0  0  0  0  0  0  0  0  0  0
   -0.6927    1.7304    1.3223 N   0  0  0  0  0  0  0  0  0  0  0  0
    0.0178    1.2410    1.8469 H   0  0  0  0  0  0  0  0  0  0  0  0
   -0.8259    3.1712    1.5254 C   0  0  0  0  0  0  0  0  0  0  0  0
   -1.8769    3.4302    1.6645 H   0  0  0  0  0  0  0  0  0  0  0  0
   -0.2598    3.4806    2.4054 H   0  0  0  0  0  0  0  0  0  0  0  0
   -0.4486    3.7020    0.6489 H   0  0  0  0  0  0  0  0  0  0  0  0
  5  6  2  0  0  0  0
  5  7  1  0  0  0  0
  2  3  1  0  0  0  0
  2  4  1  0  0  0  0
  2  5  1  0  0  0  0
  1  2  1  0  0  0  0
 26 27  2  0  0  0  0
 26 28  1  0  0  0  0
 24 25  1  0  0  0  0
 22 23  1  0  0  0  0
 22 24  2  0  0  0  0
 20 21  1  0  0  0  0
 19 20  1  0  0  0  0
 19 22  1  0  0  0  0
 17 18  1  0  0  0  0
 17 19  2  0  0  0  0
 15 16  1  0  0  0  0
 15 17  1  0  0  0  0
 14 15  2  0  0  0  0
 14 24  1  0  0  0  0
 11 12  1  0  0  0  0
 11 13  1  0  0  0  0
 11 14  1  0  0  0  0
  9 10  1  0  0  0  0
  9 11  1  0  0  0  0
  9 26  1  0  0  0  0
  7  8  1  0  0  0  0
  7  9  1  0  0  0  0
 30 31  1  0  0  0  0
 30 32  1  0  0  0  0
 30 33  1  0  0  0  0
 28 29  1  0  0  0  0
 28 30  1  0  0  0  0
M  END
$$$$
default_name
  -OEChem-02102213163D

 33 33  0     1  0  0  0  0  0999 V2000
   -4.0702   -3.8485    1.4554 H   0  0  0  0  0  0  0  0  0  0  0  0
   -4.0012   -2.9605    0.8284 C   0  0  0  0  0  0  0  0  0  0  0  0
   -4.7652   -2.2435    1.1234 H   0  0  0  0  0  0  0  0  0  0  0  0
   -4.1352   -3.2385   -0.2156 H   0  0  0  0  0  0  0  0  0  0  0  0
   -2.6362   -2.3395    1.0094 C   0  0  0  0  0  0  0  0  0  0  0  0
   -1.8292   -2.8395    1.7814 O   0  0  0  0  0  0  0  0  0  0  0  0
   -2.3832   -1.2445    0.2964 N   0  0  0  0  0  0  0  0  0  0  0  0
   -3.1102   -0.8685   -0.2946 H   0  0  0  0  0  0  0  0  0  0  0  0
   -1.1292   -0.4875    0.3524 C   0  0  1  0  0  0  0  0  0  0  0  0
   -0.5898   -0.7762    1.2552 H   0  0  0  0  0  0  0  0  0  0  0  0
   -0.2608   -0.8470   -0.8656 C   0  0  0  0  0  0  0  0  0  0  0  0
   -0.7973   -1.5690   -1.4826 H   0  0  0  0  0  0  0  0  0  0  0  0
   -0.1095    0.0498   -1.4688 H   0  0  0  0  0  0  0  0  0  0  0  0
    1.0863   -1.4437   -0.5064 C   0  0  0  0  0  0  0  0  0  0  0  0
    1.9897   -1.8221   -1.5198 C   0  0  0  0  0  0  0  0  0  0  0  0
    1.7133   -1.7118   -2.5602 H   0  0  0  0  0  0  0  0  0  0  0  0
    3.2556   -2.3381   -1.1808 C   0  0  0  0  0  0  0  0  0  0  0  0
    3.9443   -2.6283   -1.9594 H   0  0  0  0  0  0  0  0  0  0  0  0
    3.6204   -2.4725    0.1766 C   0  0  0  0  0  0  0  0  0  0  0  0
    4.8401   -2.9663    0.5138 O   0  0  0  0  0  0  0  0  0  0  0  0
    5.3291   -3.2738   -0.2506 H   0  0  0  0  0  0  0  0  0  0  0  0
    2.7170   -2.0887    1.1893 C   0  0  0  0  0  0  0  0  0  0  0  0
    3.0058   -2.2004    2.2235 H   0  0  0  0  0  0  0  0  0  0  0  0
    1.4507   -1.5776    0.8473 C   0  0  0  0  0  0  0  0  0  0  0  0
    0.7536   -1.2916    1.6260 H   0  0  0  0  0  0  0  0  0  0  0  0
   -1.4018    1.0238    0.4329 C   0  0  0  0  0  0  0  0  0  0  0  0
   -2.2416    1.5423   -0.3033 O   0  0  0  0  0  0  0  0  0  0  0  0
   -0.6927    1.7304    1.3223 N   0  0  0  0  0  0  0  0  0  0  0  0
    0.0178    1.2410    1.8469 H   0  0  0  0  0  0  0  0  0  0  0  0
   -0.8259    3.1712    1.5254 C   0  0  0  0  0  0  0  0  0  0  0  0
   -1.8769    3.4302    1.6645 H   0  0  0  0  0  0  0  0  0  0  0  0
   -0.2598    3.4806    2.4054 H   0  0  0  0  0  0  0  0  0  0  0  0
   -0.4486    3.7020    0.6489 H   0  0  0  0  0  0  0  0  0  0  0  0
  5  6  2  0  0  0  0
  5  7  1  0  0  0  0
  2  3  1  0  0  0  0
  2  4  1  0  0  0  0
  2  5  1  0  0  0  0
  1  2  1  0  0  0  0
 26 27  2  0  0  0  0
 26 28  1  0  0  0  0
 24 25  1  0  0  0  0
 22 23  1  0  0  0  0
 22 24  2  0  0  0  0
 20 21  1  0  0  0  0
 19 20  1  0  0  0  0
 19 22  1  0  0  0  0
 17 18  1  0  0  0  0
 17 19  2  0  0  0  0
 15 16  1  0  0  0  0
 15 17  1  0  0  0  0
 14 15  2  0  0  0  0
 14 24  1  0  0  0  0
 11 12  1  0  0  0  0
 11 13  1  0  0  0  0
 11 14  1  0  0  0  0
  9 10  1  0  0  0  0
  9 11  1  0  0  0  0
  9 26  1  0  0  0  0
  7  8  1  0  0  0  0
  7  9  1  0  0  0  0
 30 31  1  0  0  0  0
 30 32  1  0  0  0  0
 30 33  1  0  0  0  0
 28 29  1  0  0  0  0
 28 30  1  0  0  0  0
M  END
$$$$
default_name
  -OEChem-02102213163D

 33 33  0     1  0  0  0  0  0999 V2000
   -4.0702   -3.8485    1.4554 H   0  0  0  0  0  0  0  0  0  0  0  0
   -4.0012   -2.9605    0.8284 C   0  0  0  0  0  0  0  0  0  0  0  0
   -4.7652   -2.2435    1.1234 H   0  0  0  0  0  0  0  0  0  0  0  0
   -4.1352   -3.2385   -0.2156 H   0  0  0  0  0  0  0  0  0  0  0  0
   -2.6362   -2.3395    1.0094 C   0  0  0  0  0  0  0  0  0  0  0  0
   -1.8292   -2.8395    1.7814 O   0  0  0  0  0  0  0  0  0  0  0  0
   -2.3832   -1.2445    0.2964 N   0  0  0  0  0  0  0  0  0  0  0  0
   -3.1102   -0.8685   -0.2946 H   0  0  0  0  0  0  0  0  0  0  0  0
   -1.1292   -0.4875    0.3524 C   0  0  1  0  0  0  0  0  0  0  0  0
   -0.5898   -0.7762    1.2552 H   0  0  0  0  0  0  0  0  0  0  0  0
   -0.2608   -0.8470   -0.8656 C   0  0  0  0  0  0  0  0  0  0  0  0
   -0.7973   -1.5690   -1.4826 H   0  0  0  0  0  0  0  0  0  0  0  0
   -0.1095    0.0498   -1.4688 H   0  0  0  0  0  0  0  0  0  0  0  0
    1.0863   -1.4437   -0.5064 C   0  0  0  0  0  0  0  0  0  0  0  0
    2.1068   -1.5304   -1.4745 C   0  0  0  0  0  0  0  0  0  0  0  0
    1.9228   -1.1944   -2.4866 H   0  0  0  0  0  0  0  0  0  0  0  0
    3.3694   -2.0480   -1.1255 C   0  0  0  0  0  0  0  0  0  0  0  0
    4.1480   -2.1144   -1.8697 H   0  0  0  0  0  0  0  0  0  0  0  0
    3.6129   -2.4769    0.1976 C   0  0  0  0  0  0  0  0  0  0  0  0
    4.8280   -2.9749    0.5449 O   0  0  0  0  0  0  0  0  0  0  0  0
    5.4084   -3.0711   -0.2113 H   0  0  0  0  0  0  0  0  0  0  0  0
    2.5920   -2.3849    1.1662 C   0  0  0  0  0  0  0  0  0  0  0  0
    2.7890   -2.7201    2.1734 H   0  0  0  0  0  0  0  0  0  0  0  0
    1.3297   -1.8713    0.8131 C   0  0  0  0  0  0  0  0  0  0  0  0
    0.5430   -1.8095    1.5556 H   0  0  0  0  0  0  0  0  0  0  0  0
   -1.4018    1.0238    0.4329 C   0  0  0  0  0  0  0  0  0  0  0  0
   -2.2416    1.5423   -0.3033 O   0  0  0  0  0  0  0  0  0  0  0  0
   -0.6927    1.7304    1.3223 N   0  0  0  0  0  0  0  0  0  0  0  0
    0.0178    1.2410    1.8469 H   0  0  0  0  0  0  0  0  0  0  0  0
   -0.8259    3.1712    1.5254 C   0  0  0  0  0  0  0  0  0  0  0  0
   -1.8769    3.4302    1.6645 H   0  0  0  0  0  0  0  0  0  0  0  0
   -0.2598    3.4806    2.4054 H   0  0  0  0  0  0  0  0  0  0  0  0
   -0.4486    3.7020    0.6489 H   0  0  0  0  0  0  0  0  0  0  0  0
  5  6  2  0  0  0  0
  5  7  1  0  0  0  0
  2  3  1  0  0  0  0
  2  4  1  0  0  0  0
  2  5  1  0  0  0  0
  1  2  1  0  0  0  0
 26 27  2  0  0  0  0
 26 28  1  0  0  0  0
 24 25  1  0  0  0  0
 22 23  1  0  0  0  0
 22 24  2  0  0  0  0
 20 21  1  0  0  0  0
 19 20  1  0  0  0  0
 19 22  1  0  0  0  0
 17 18  1  0  0  0  0
 17 19  2  0  0  0  0
 15 16  1  0  0  0  0
 15 17  1  0  0  0  0
 14 15  2  0  0  0  0
 14 24  1  0  0  0  0
 11 12  1  0  0  0  0
 11 13  1  0  0  0  0
 11 14  1  0  0  0  0
  9 10  1  0  0  0  0
  9 11  1  0  0  0  0
  9 26  1  0  0  0  0
  7  8  1  0  0  0  0
  7  9  1  0  0  0  0
 30 31  1  0  0  0  0
 30 32  1  0  0  0  0
 30 33  1  0  0  0  0
 28 29  1  0  0  0  0
 28 30  1  0  0  0  0
M  END
$$$$
default_name
  -OEChem-02102213163D

 33 33  0     1  0  0  0  0  0999 V2000
   -4.0702   -3.8485    1.4554 H   0  0  0  0  0  0  0  0  0  0  0  0
   -4.0012   -2.9605    0.8284 C   0  0  0  0  0  0  0  0  0  0  0  0
   -4.7652   -2.2435    1.1234 H   0  0  0  0  0  0  0  0  0  0  0  0
   -4.1352   -3.2385   -0.2156 H   0  0  0  0  0  0  0  0  0  0  0  0
   -2.6362   -2.3395    1.0094 C   0  0  0  0  0  0  0  0  0  0  0  0
   -1.8292   -2.8395    1.7814 O   0  0  0  0  0  0  0  0  0  0  0  0
   -2.3832   -1.2445    0.2964 N   0  0  0  0  0  0  0  0  0  0  0  0
   -3.1102   -0.8685   -0.2946 H   0  0  0  0  0  0  0  0  0  0  0  0
   -1.1292   -0.4875    0.3524 C   0  0  1  0  0  0  0  0  0  0  0  0
   -0.5898   -0.7762    1.2552 H   0  0  0  0  0  0  0  0  0  0  0  0
   -0.2608   -0.8470   -0.8656 C   0  0  0  0  0  0  0  0  0  0  0  0
   -0.7973   -1.5690   -1.4826 H   0  0  0  0  0  0  0  0  0  0  0  0
   -0.1095    0.0498   -1.4688 H   0  0  0  0  0  0  0  0  0  0  0  0
    1.0863   -1.4437   -0.5064 C   0  0  0  0  0  0  0  0  0  0  0  0
    2.1975   -1.2518   -1.3518 C   0  0  0  0  0  0  0  0  0  0  0  0
    2.0860   -0.6987   -2.2752 H   0  0  0  0  0  0  0  0  0  0  0  0
    3.4558   -1.7736   -0.9937 C   0  0  0  0  0  0  0  0  0  0  0  0
    4.3042   -1.6261   -1.6442 H   0  0  0  0  0  0  0  0  0  0  0  0
    3.6037   -2.4865    0.2161 C   0  0  0  0  0  0  0  0  0  0  0  0
    4.8137   -2.9911    0.5718 O   0  0  0  0  0  0  0  0  0  0  0  0
    5.4685   -2.8796   -0.1187 H   0  0  0  0  0  0  0  0  0  0  0  0
    2.4918   -2.6733    1.0632 C   0  0  0  0  0  0  0  0  0  0  0  0
    2.6165   -3.2239    1.9834 H   0  0  0  0  0  0  0  0  0  0  0  0
    1.2343   -2.1545    0.7003 C   0  0  0  0  0  0  0  0  0  0  0  0
    0.3785   -2.3064    1.3471 H   0  0  0  0  0  0  0  0  0  0  0  0
   -1.4018    1.0238    0.4329 C   0  0  0  0  0  0  0  0  0  0  0  0
   -2.2416    1.5423   -0.3033 O   0  0  0  0  0  0  0  0  0  0  0  0
   -0.6927    1.7304    1.3223 N   0  0  0  0  0  0  0  0  0  0  0  0
    0.0178    1.2410    1.8469 H   0  0  0  0  0  0  0  0  0  0  0  0
   -0.8259    3.1712    1.5254 C   0  0  0  0  0  0  0  0  0  0  0  0
   -1.8769    3.4302    1.6645 H   0  0  0  0  0  0  0  0  0  0  0  0
   -0.2598    3.4806    2.4054 H   0  0  0  0  0  0  0  0  0  0  0  0
   -0.4486    3.7020    0.6489 H   0  0  0  0  0  0  0  0  0  0  0  0
  5  6  2  0  0  0  0
  5  7  1  0  0  0  0
  2  3  1  0  0  0  0
  2  4  1  0  0  0  0
  2  5  1  0  0  0  0
  1  2  1  0  0  0  0
 26 27  2  0  0  0  0
 26 28  1  0  0  0  0
 24 25  1  0  0  0  0
 22 23  1  0  0  0  0
 22 24  2  0  0  0  0
 20 21  1  0  0  0  0
 19 20  1  0  0  0  0
 19 22  1  0  0  0  0
 17 18  1  0  0  0  0
 17 19  2  0  0  0  0
 15 16  1  0  0  0  0
 15 17  1  0  0  0  0
 14 15  2  0  0  0  0
 14 24  1  0  0  0  0
 11 12  1  0  0  0  0
 11 13  1  0  0  0  0
 11 14  1  0  0  0  0
  9 10  1  0  0  0  0
  9 11  1  0  0  0  0
  9 26  1  0  0  0  0
  7  8  1  0  0  0  0
  7  9  1  0  0  0  0
 30 31  1  0  0  0  0
 30 32  1  0  0  0  0
 30 33  1  0  0  0  0
 28 29  1  0  0  0  0
 28 30  1  0  0  0  0
M  END
$$$$
default_name
  -OEChem-02102213163D

 33 33  0     1  0  0  0  0  0999 V2000
   -4.0702   -3.8485    1.4554 H   0  0  0  0  0  0  0  0  0  0  0  0
   -4.0012   -2.9605    0.8284 C   0  0  0  0  0  0  0  0  0  0  0  0
   -4.7652   -2.2435    1.1234 H   0  0  0  0  0  0  0  0  0  0  0  0
   -4.1352   -3.2385   -0.2156 H   0  0  0  0  0  0  0  0  0  0  0  0
   -2.6362   -2.3395    1.0094 C   0  0  0  0  0  0  0  0  0  0  0  0
   -1.8292   -2.8395    1.7814 O   0  0  0  0  0  0  0  0  0  0  0  0
   -2.3832   -1.2445    0.2964 N   0  0  0  0  0  0  0  0  0  0  0  0
   -3.1102   -0.8685   -0.2946 H   0  0  0  0  0  0  0  0  0  0  0  0
   -1.1292   -0.4875    0.3524 C   0  0  1  0  0  0  0  0  0  0  0  0
   -0.5898   -0.7762    1.2552 H   0  0  0  0  0  0  0  0  0  0  0  0
   -0.2608   -0.8470   -0.8656 C   0  0  0  0  0  0  0  0  0  0  0  0
   -0.7973   -1.5690   -1.4826 H   0  0  0  0  0  0  0  0  0  0  0  0
   -0.1095    0.0498   -1.4688 H   0  0  0  0  0  0  0  0  0  0  0  0
    1.0863   -1.4437   -0.5064 C   0  0  0  0  0  0  0  0  0  0  0  0
    2.2555   -1.0054   -1.1600 C   0  0  0  0  0  0  0  0  0  0  0  0
    2.1917   -0.2585   -1.9404 H   0  0  0  0  0  0  0  0  0  0  0  0
    3.5091   -1.5335   -0.7946 C   0  0  0  0  0  0  0  0  0  0  0  0
    4.4021   -1.1967   -1.2982 H   0  0  0  0  0  0  0  0  0  0  0  0
    3.5936   -2.5005    0.2308 C   0  0  0  0  0  0  0  0  0  0  0  0
    4.7981   -3.0137    0.5926 O   0  0  0  0  0  0  0  0  0  0  0  0
    5.5054   -2.7122    0.0210 H   0  0  0  0  0  0  0  0  0  0  0  0
    2.4231   -2.9343    0.8871 C   0  0  0  0  0  0  0  0  0  0  0  0
    2.5002   -3.6774    1.6665 H   0  0  0  0  0  0  0  0  0  0  0  0
    1.1711   -2.4080    0.5164 C   0  0  0  0  0  0  0  0  0  0  0  0
    0.2712   -2.7485    1.0147 H   0  0  0  0  0  0  0  0  0  0  0  0
   -1.4018    1.0238    0.4329 C   0  0  0  0  0  0  0  0  0  0  0  0
   -2.2416    1.5423   -0.3033 O   0  0  0  0  0  0  0  0  0  0  0  0
   -0.6927    1.7304    1.3223 N   0  0  0  0  0  0  0  0  0  0  0  0
    0.0178    1.2410    1.8469 H   0  0  0  0  0  0  0  0  0  0  0  0
   -0.8259    3.1712    1.5254 C   0  0  0  0  0  0  0  0  0  0  0  0
   -1.8769    3.4302    1.6645 H   0  0  0  0  0  0  0  0  0  0  0  0
   -0.2598    3.4806    2.4054 H   0  0  0  0  0  0  0  0  0  0  0  0
   -0.4486    3.7020    0.6489 H   0  0  0  0  0  0  0  0  0  0  0  0
  5  6  2  0  0  0  0
  5  7  1  0  0  0  0
  2  3  1  0  0  0  0
  2  4  1  0  0  0  0
  2  5  1  0  0  0  0
  1  2  1  0  0  0  0
 26 27  2  0  0  0  0
 26 28  1  0  0  0  0
 24 25  1  0  0  0  0
 22 23  1  0  0  0  0
 22 24  2  0  0  0  0
 20 21  1  0  0  0  0
 19 20  1  0  0  0  0
 19 22  1  0  0  0  0
 17 18  1  0  0  0  0
 17 19  2  0  0  0  0
 15 16  1  0  0  0  0
 15 17  1  0  0  0  0
 14 15  2  0  0  0  0
 14 24  1  0  0  0  0
 11 12  1  0  0  0  0
 11 13  1  0  0  0  0
 11 14  1  0  0  0  0
  9 10  1  0  0  0  0
  9 11  1  0  0  0  0
  9 26  1  0  0  0  0
  7  8  1  0  0  0  0
  7  9  1  0  0  0  0
 30 31  1  0  0  0  0
 30 32  1  0  0  0  0
 30 33  1  0  0  0  0
 28 29  1  0  0  0  0
 28 30  1  0  0  0  0
M  END
$$$$
default_name
  -OEChem-02102213163D

 33 33  0     1  0  0  0  0  0999 V2000
   -4.0702   -3.8485    1.4554 H   0  0  0  0  0  0  0  0  0  0  0  0
   -4.0012   -2.9605    0.8284 C   0  0  0  0  0  0  0  0  0  0  0  0
   -4.7652   -2.2435    1.1234 H   0  0  0  0  0  0  0  0  0  0  0  0
   -4.1352   -3.2385   -0.2156 H   0  0  0  0  0  0  0  0  0  0  0  0
   -2.6362   -2.3395    1.0094 C   0  0  0  0  0  0  0  0  0  0  0  0
   -1.8292   -2.8395    1.7814 O   0  0  0  0  0  0  0  0  0  0  0  0
   -2.3832   -1.2445    0.2964 N   0  0  0  0  0  0  0  0  0  0  0  0
   -3.1102   -0.8685   -0.2946 H   0  0  0  0  0  0  0  0  0  0  0  0
   -1.1292   -0.4875    0.3524 C   0  0  1  0  0  0  0  0  0  0  0  0
   -0.5898   -0.7762    1.2552 H   0  0  0  0  0  0  0  0  0  0  0  0
   -0.2608   -0.8470   -0.8656 C   0  0  0  0  0  0  0  0  0  0  0  0
   -0.7973   -1.5690   -1.4826 H   0  0  0  0  0  0  0  0  0  0  0  0
   -0.1095    0.0498   -1.4688 H   0  0  0  0  0  0  0  0  0  0  0  0
    1.0863   -1.4437   -0.5064 C   0  0  0  0  0  0  0  0  0  0  0  0
    2.2769   -0.8080   -0.9121 C   0  0  0  0  0  0  0  0  0  0  0  0
    2.2328    0.0962   -1.5051 H   0  0  0  0  0  0  0  0  0  0  0  0
    3.5255   -1.3441   -0.5416 C   0  0  0  0  0  0  0  0  0  0  0  0
    4.4352   -0.8555   -0.8553 H   0  0  0  0  0  0  0  0  0  0  0  0
    3.5831   -2.5181    0.2408 C   0  0  0  0  0  0  0  0  0  0  0  0
    4.7823   -3.0413    0.6058 O   0  0  0  0  0  0  0  0  0  0  0  0
    5.5166   -2.5803    0.1981 H   0  0  0  0  0  0  0  0  0  0  0  0
    2.3907   -3.1501    0.6500 C   0  0  0  0  0  0  0  0  0  0  0  0
    2.4478   -4.0497    1.2442 H   0  0  0  0  0  0  0  0  0  0  0  0
    1.1442   -2.6144    0.2741 C   0  0  0  0  0  0  0  0  0  0  0  0
    0.2286   -3.1058    0.5811 H   0  0  0  0  0  0  0  0  0  0  0  0
   -1.4018    1.0238    0.4329 C   0  0  0  0  0  0  0  0  0  0  0  0
   -2.2416    1.5423   -0.3033 O   0  0  0  0  0  0  0  0  0  0  0  0
   -0.6927    1.7304    1.3223 N   0  0  0  0  0  0  0  0  0  0  0  0
    0.0178    1.2410    1.8469 H   0  0  0  0  0  0  0  0  0  0  0  0
   -0.8259    3.1712    1.5254 C   0  0  0  0  0  0  0  0  0  0  0  0
   -1.8769    3.4302    1.6645 H   0  0  0  0  0  0  0  0  0  0  0  0
   -0.2598    3.4806    2.4054 H   0  0  0  0  0  0  0  0  0  0  0  0
   -0.4486    3.7020    0.6489 H   0  0  0  0  0  0  0  0  0  0  0  0
  5  6  2  0  0  0  0
  5  7  1  0  0  0  0
  2  3  1  0  0  0  0
  2  4  1  0  0  0  0
  2  5  1  0  0  0  0
  1  2  1  0  0  0  0
 26 27  2  0  0  0  0
 26 28  1  0  0  0  0
 24 25  1  0  0  0  0
 22 23  1  0  0  0  0
 22 24  2  0  0  0  0
 20 21  1  0  0  0  0
 19 20  1  0  0  0  0
 19 22  1  0  0  0  0
 17 18  1  0  0  0  0
 17 19  2  0  0  0  0
 15 16  1  0  0  0  0
 15 17  1  0  0  0  0
 14 15  2  0  0  0  0
 14 24  1  0  0  0  0
 11 12  1  0  0  0  0
 11 13  1  0  0  0  0
 11 14  1  0  0  0  0
  9 10  1  0  0  0  0
  9 11  1  0  0  0  0
  9 26  1  0  0  0  0
  7  8  1  0  0  0  0
  7  9  1  0  0  0  0
 30 31  1  0  0  0  0
 30 32  1  0  0  0  0
 30 33  1  0  0  0  0
 28 29  1  0  0  0  0
 28 30  1  0  0  0  0
M  END
$$$$
default_name
  -OEChem-02102213163D

 33 33  0     1  0  0  0  0  0999 V2000
   -4.0702   -3.8485    1.4554 H   0  0  0  0  0  0  0  0  0  0  0  0
   -4.0012   -2.9605    0.8284 C   0  0  0  0  0  0  0  0  0  0  0  0
   -4.7652   -2.2435    1.1234 H   0  0  0  0  0  0  0  0  0  0  0  0
   -4.1352   -3.2385   -0.2156 H   0  0  0  0  0  0  0  0  0  0  0  0
   -2.6362   -2.3395    1.0094 C   0  0  0  0  0  0  0  0  0  0  0  0
   -1.8292   -2.8395    1.7814 O   0  0  0  0  0  0  0  0  0  0  0  0
   -2.3832   -1.2445    0.2964 N   0  0  0  0  0  0  0  0  0  0  0  0
   -3.1102   -0.8685   -0.2946 H   0  0  0  0  0  0  0  0  0  0  0  0
   -1.1292   -0.4875    0.3524 C   0  0  1  0  0  0  0  0  0  0  0  0
   -0.5898   -0.7762    1.2552 H   0  0  0  0  0  0  0  0  0  0  0  0
   -0.2608   -0.8470   -0.8656 C   0  0  0  0  0  0  0  0  0  0  0  0
   -0.7973   -1.5690   -1.4826 H   0  0  0  0  0  0  0  0  0  0  0  0
   -0.1095    0.0498   -1.4688 H   0  0  0  0  0  0  0  0  0  0  0  0
    1.0863   -1.4437   -0.5064 C   0  0  0  0  0  0  0  0  0  0  0  0
    2.2602   -0.6729   -0.6252 C   0  0  0  0  0  0  0  0  0  0  0  0
    2.2064    0.3413   -0.9989 H   0  0  0  0  0  0  0  0  0  0  0  0
    3.5040   -1.2183   -0.2520 C   0  0  0  0  0  0  0  0  0  0  0  0
    4.4011   -0.6257   -0.3457 H   0  0  0  0  0  0  0  0  0  0  0  0
    3.5731   -2.5380    0.2453 C   0  0  0  0  0  0  0  0  0  0  0  0
    4.7674   -3.0720    0.6107 O   0  0  0  0  0  0  0  0  0  0  0  0
    5.5013   -2.4930    0.4006 H   0  0  0  0  0  0  0  0  0  0  0  0
    2.3968   -3.3061    0.3681 C   0  0  0  0  0  0  0  0  0  0  0  0
    2.4631   -4.3154    0.7455 H   0  0  0  0  0  0  0  0  0  0  0  0
    1.1556   -2.7598   -0.0101 C   0  0  0  0  0  0  0  0  0  0  0  0
    0.2535   -3.3537    0.0758 H   0  0  0  0  0  0  0  0  0  0  0  0
   -1.4018    1.0238    0.4329 C   0  0  0  0  0  0  0  0  0  0  0  0
   -2.2416    1.5423   -0.3033 O   0  0  0  0  0  0  0  0  0  0  0  0
   -0.6927    1.7304    1.3223 N   0  0  0  0  0  0  0  0  0  0  0  0
    0.0178    1.2410    1.8469 H   0  0  0  0  0  0  0  0  0  0  0  0
   -0.8259    3.1712    1.5254 C   0  0  0  0  0  0  0  0  0  0  0  0
   -1.8769    3.4302    1.6645 H   0  0  0  0  0  0  0  0  0  0  0  0
   -0.2598    3.4806    2.4054 H   0  0  0  0  0  0  0  0  0  0  0  0
   -0.4486    3.7020    0.6489 H   0  0  0  0  0  0  0  0  0  0  0  0
  5  6  2  0  0  0  0
  5  7  1  0  0  0  0
  2  3  1  0  0  0  0
  2  4  1  0  0  0  0
  2  5  1  0  0  0  0
  1  2  1  0  0  0  0
 26 27  2  0  0  0  0
 26 28  1  0  0  0  0
 24 25  1  0  0  0  0
 22 23  1  0  0  0  0
 22 24  2  0  0  0  0
 20 21  1  0  0  0  0
 19 20  1  0  0  0  0
 19 22  1  0  0  0  0
 17 18  1  0  0  0  0
 17 19  2  0  0  0  0
 15 16  1  0  0  0  0
 15 17  1  0  0  0  0
 14 15  2  0  0  0  0
 14 24  1  0  0  0  0
 11 12  1  0  0  0  0
 11 13  1  0  0  0  0
 11 14  1  0  0  0  0
  9 10  1  0  0  0  0
  9 11  1  0  0  0  0
  9 26  1  0  0  0  0
  7  8  1  0  0  0  0
  7  9  1  0  0  0  0
 30 31  1  0  0  0  0
 30 32  1  0  0  0  0
 30 33  1  0  0  0  0
 28 29  1  0  0  0  0
 28 30  1  0  0  0  0
M  END
$$$$
default_name
  -OEChem-02102213163D

 33 33  0     1  0  0  0  0  0999 V2000
   -4.0702   -3.8485    1.4554 H   0  0  0  0  0  0  0  0  0  0  0  0
   -4.0012   -2.9605    0.8284 C   0  0  0  0  0  0  0  0  0  0  0  0
   -4.7652   -2.2435    1.1234 H   0  0  0  0  0  0  0  0  0  0  0  0
   -4.1352   -3.2385   -0.2156 H   0  0  0  0  0  0  0  0  0  0  0  0
   -2.6362   -2.3395    1.0094 C   0  0  0  0  0  0  0  0  0  0  0  0
   -1.8292   -2.8395    1.7814 O   0  0  0  0  0  0  0  0  0  0  0  0
   -2.3832   -1.2445    0.2964 N   0  0  0  0  0  0  0  0  0  0  0  0
   -3.1102   -0.8685   -0.2946 H   0  0  0  0  0  0  0  0  0  0  0  0
   -1.1292   -0.4875    0.3524 C   0  0  1  0  0  0  0  0  0  0  0  0
   -0.5898   -0.7762    1.2552 H   0  0  0  0  0  0  0  0  0  0  0  0
   -0.2608   -0.8470   -0.8656 C   0  0  0  0  0  0  0  0  0  0  0  0
   -0.7973   -1.5690   -1.4826 H   0  0  0  0  0  0  0  0  0  0  0  0
   -0.1095    0.0498   -1.4688 H   0  0  0  0  0  0  0  0  0  0  0  0
    1.0863   -1.4437   -0.5064 C   0  0  0  0  0  0  0  0  0  0  0  0
    2.2066   -0.6094   -0.3186 C   0  0  0  0  0  0  0  0  0  0  0  0
    2.1143    0.4600   -0.4562 H   0  0  0  0  0  0  0  0  0  0  0  0
    3.4461   -1.1647    0.0545 C   0  0  0  0  0  0  0  0  0  0  0  0
    4.3022   -0.5230    0.1959 H   0  0  0  0  0  0  0  0  0  0  0  0
    3.5642   -2.5588    0.2441 C   0  0  0  0  0  0  0  0  0  0  0  0
    4.7544   -3.1037    0.6068 O   0  0  0  0  0  0  0  0  0  0  0  0
    5.4605   -2.4562    0.6148 H   0  0  0  0  0  0  0  0  0  0  0  0
    2.4409   -3.3916    0.0605 C   0  0  0  0  0  0  0  0  0  0  0  0
    2.5449   -4.4565    0.2041 H   0  0  0  0  0  0  0  0  0  0  0  0
    1.2045   -2.8341   -0.3169 C   0  0  0  0  0  0  0  0  0  0  0  0
    0.3442   -3.4756   -0.4668 H   0  0  0  0  0  0  0  0  0  0  0  0
   -1.4018    1.0238    0.4329 C   0  0  0  0  0  0  0  0  0  0  0  0
   -2.2416    1.5423   -0.3033 O   0  0  0  0  0  0  0  0  0  0  0  0
   -0.6927    1.7304    1.3223 N   0  0  0  0  0  0  0  0  0  0  0  0
    0.0178    1.2410    1.8469 H   0  0  0  0  0  0  0  0  0  0  0  0
   -0.8259    3.1712    1.5254 C   0  0  0  0  0  0  0  0  0  0  0  0
   -1.8769    3.4302    1.6645 H   0  0  0  0  0  0  0  0  0  0  0  0
   -0.2598    3.4806    2.4054 H   0  0  0  0  0  0  0  0  0  0  0  0
   -0.4486    3.7020    0.6489 H   0  0  0  0  0  0  0  0  0  0  0  0
  5  6  2  0  0  0  0
  5  7  1  0  0  0  0
  2  3  1  0  0  0  0
  2  4  1  0  0  0  0
  2  5  1  0  0  0  0
  1  2  1  0  0  0  0
 26 27  2  0  0  0  0
 26 28  1  0  0  0  0
 24 25  1  0  0  0  0
 22 23  1  0  0  0  0
 22 24  2  0  0  0  0
 20 21  1  0  0  0  0
 19 20  1  0  0  0  0
 19 22  1  0  0  0  0
 17 18  1  0  0  0  0
 17 19  2  0  0  0  0
 15 16  1  0  0  0  0
 15 17  1  0  0  0  0
 14 15  2  0  0  0  0
 14 24  1  0  0  0  0
 11 12  1  0  0  0  0
 11 13  1  0  0  0  0
 11 14  1  0  0  0  0
  9 10  1  0  0  0  0
  9 11  1  0  0  0  0
  9 26  1  0  0  0  0
  7  8  1  0  0  0  0
  7  9  1  0  0  0  0
 30 31  1  0  0  0  0
 30 32  1  0  0  0  0
 30 33  1  0  0  0  0
 28 29  1  0  0  0  0
 28 30  1  0  0  0  0
M  END
$$$$
default_name
  -OEChem-02102213163D

 33 33  0     1  0  0  0  0  0999 V2000
   -4.0702   -3.8485    1.4554 H   0  0  0  0  0  0  0  0  0  0  0  0
   -4.0012   -2.9605    0.8284 C   0  0  0  0  0  0  0  0  0  0  0  0
   -4.7652   -2.2435    1.1234 H   0  0  0  0  0  0  0  0  0  0  0  0
   -4.1352   -3.2385   -0.2156 H   0  0  0  0  0  0  0  0  0  0  0  0
   -2.6362   -2.3395    1.0094 C   0  0  0  0  0  0  0  0  0  0  0  0
   -1.8292   -2.8395    1.7814 O   0  0  0  0  0  0  0  0  0  0  0  0
   -2.3832   -1.2445    0.2964 N   0  0  0  0  0  0  0  0  0  0  0  0
   -3.1102   -0.8685   -0.2946 H   0  0  0  0  0  0  0  0  0  0  0  0
   -1.1292   -0.4875    0.3524 C   0  0  1  0  0  0  0  0  0  0  0  0
   -0.5898   -0.7762    1.2552 H   0  0  0  0  0  0  0  0  0  0  0  0
   -0.2608   -0.8470   -0.8656 C   0  0  0  0  0  0  0  0  0  0  0  0
   -0.7973   -1.5690   -1.4826 H   0  0  0  0  0  0  0  0  0  0  0  0
   -0.1095    0.0498   -1.4688 H   0  0  0  0  0  0  0  0  0  0  0  0
    1.0863   -1.4437   -0.5064 C   0  0  0  0  0  0  0  0  0  0  0  0
    2.1197   -0.6219   -0.0134 C   0  0  0  0  0  0  0  0  0  0  0  0
    1.9628    0.4442    0.0858 H   0  0  0  0  0  0  0  0  0  0  0  0
    3.3556   -1.1869    0.3570 C   0  0  0  0  0  0  0  0  0  0  0  0
    4.1452   -0.5544    0.7326 H   0  0  0  0  0  0  0  0  0  0  0  0
    3.5570   -2.5793    0.2372 C   0  0  0  0  0  0  0  0  0  0  0  0
    4.7442   -3.1342    0.5944 O   0  0  0  0  0  0  0  0  0  0  0  0
    5.3971   -2.4723    0.8260 H   0  0  0  0  0  0  0  0  0  0  0  0
    2.5201   -3.4007   -0.2517 C   0  0  0  0  0  0  0  0  0  0  0  0
    2.6877   -4.4634   -0.3428 H   0  0  0  0  0  0  0  0  0  0  0  0
    1.2875   -2.8324   -0.6254 C   0  0  0  0  0  0  0  0  0  0  0  0
    0.4945   -3.4629   -1.0097 H   0  0  0  0  0  0  0  0  0  0  0  0
   -1.4018    1.0238    0.4329 C   0  0  0  0  0  0  0  0  0  0  0  0
   -2.2416    1.5423   -0.3033 O   0  0  0  0  0  0  0  0  0  0  0  0
   -0.6927    1.7304    1.3223 N   0  0  0  0  0  0  0  0  0  0  0  0
    0.0178    1.2410    1.8469 H   0  0  0  0  0  0  0  0  0  0  0  0
   -0.8259    3.1712    1.5254 C   0  0  0  0  0  0  0  0  0  0  0  0
   -1.8769    3.4302    1.6645 H   0  0  0  0  0  0  0  0  0  0  0  0
   -0.2598    3.4806    2.4054 H   0  0  0  0  0  0  0  0  0  0  0  0
   -0.4486    3.7020    0.6489 H   0  0  0  0  0  0  0  0  0  0  0  0
  5  6  2  0  0  0  0
  5  7  1  0  0  0  0
  2  3  1  0  0  0  0
  2  4  1  0  0  0  0
  2  5  1  0  0  0  0
  1  2  1  0  0  0  0
 26 27  2  0  0  0  0
 26 28  1  0  0  0  0
 24 25  1  0  0  0  0
 22 23  1  0  0  0  0
 22 24  2  0  0  0  0
 20 21  1  0  0  0  0
 19 20  1  0  0  0  0
 19 22  1  0  0  0  0
 17 18  1  0  0  0  0
 17 19  2  0  0  0  0
 15 16  1  0  0  0  0
 15 17  1  0  0  0  0
 14 15  2  0  0  0  0
 14 24  1  0  0  0  0
 11 12  1  0  0  0  0
 11 13  1  0  0  0  0
 11 14  1  0  0  0  0
  9 10  1  0  0  0  0
  9 11  1  0  0  0  0
  9 26  1  0  0  0  0
  7  8  1  0  0  0  0
  7  9  1  0  0  0  0
 30 31  1  0  0  0  0
 30 32  1  0  0  0  0
 30 33  1  0  0  0  0
 28 29  1  0  0  0  0
 28 30  1  0  0  0  0
M  END
$$$$
default_name
  -OEChem-02102213163D

 33 33  0     1  0  0  0  0  0999 V2000
   -4.0702   -3.8485    1.4554 H   0  0  0  0  0  0  0  0  0  0  0  0
   -4.0012   -2.9605    0.8284 C   0  0  0  0  0  0  0  0  0  0  0  0
   -4.7652   -2.2435    1.1234 H   0  0  0  0  0  0  0  0  0  0  0  0
   -4.1352   -3.2385   -0.2156 H   0  0  0  0  0  0  0  0  0  0  0  0
   -2.6362   -2.3395    1.0094 C   0  0  0  0  0  0  0  0  0  0  0  0
   -1.8292   -2.8395    1.7814 O   0  0  0  0  0  0  0  0  0  0  0  0
   -2.3832   -1.2445    0.2964 N   0  0  0  0  0  0  0  0  0  0  0  0
   -3.1102   -0.8685   -0.2946 H   0  0  0  0  0  0  0  0  0  0  0  0
   -1.1292   -0.4875    0.3524 C   0  0  1  0  0  0  0  0  0  0  0  0
   -0.5898   -0.7762    1.2552 H   0  0  0  0  0  0  0  0  0  0  0  0
   -0.2608   -0.8470   -0.8656 C   0  0  0  0  0  0  0  0  0  0  0  0
   -0.7973   -1.5690   -1.4826 H   0  0  0  0  0  0  0  0  0  0  0  0
   -0.1095    0.0498   -1.4688 H   0  0  0  0  0  0  0  0  0  0  0  0
    1.0863   -1.4437   -0.5064 C   0  0  0  0  0  0  0  0  0  0  0  0
    2.0054   -0.7094    0.2697 C   0  0  0  0  0  0  0  0  0  0  0  0
    1.7622    0.2951    0.5904 H   0  0  0  0  0  0  0  0  0  0  0  0
    3.2387   -1.2835    0.6348 C   0  0  0  0  0  0  0  0  0  0  0  0
    3.9408   -0.7178    1.2278 H   0  0  0  0  0  0  0  0  0  0  0  0
    3.5520   -2.5979    0.2251 C   0  0  0  0  0  0  0  0  0  0  0  0
    4.7375   -3.1615    0.5745 O   0  0  0  0  0  0  0  0  0  0  0  0
    5.3153   -2.5403    1.0198 H   0  0  0  0  0  0  0  0  0  0  0  0
    2.6290   -3.3329   -0.5474 C   0  0  0  0  0  0  0  0  0  0  0  0
    2.8818   -4.3354   -0.8582 H   0  0  0  0  0  0  0  0  0  0  0  0
    1.3990   -2.7547   -0.9145 C   0  0  0  0  0  0  0  0  0  0  0  0
    0.6943   -3.3167   -1.5158 H   0  0  0  0  0  0  0  0  0  0  0  0
   -1.4018    1.0238    0.4329 C   0  0  0  0  0  0  0  0  0  0  0  0
   -2.2416    1.5423   -0.3033 O   0  0  0  0  0  0  0  0  0  0  0  0
   -0.6927    1.7304    1.3223 N   0  0  0  0  0  0  0  0  0  0  0  0
    0.0178    1.2410    1.8469 H   0  0  0  0  0  0  0  0  0  0  0  0
   -0.8259    3.1712    1.5254 C   0  0  0  0  0  0  0  0  0  0  0  0
   -1.8769    3.4302    1.6645 H   0  0  0  0  0  0  0  0  0  0  0  0
   -0.2598    3.4806    2.4054 H   0  0  0  0  0  0  0  0  0  0  0  0
   -0.4486    3.7020    0.6489 H   0  0  0  0  0  0  0  0  0  0  0  0
  5  6  2  0  0  0  0
  5  7  1  0  0  0  0
  2  3  1  0  0  0  0
  2  4  1  0  0  0  0
  2  5  1  0  0  0  0
  1  2  1  0  0  0  0
 26 27  2  0  0  0  0
 26 28  1  0  0  0  0
 24 25  1  0  0  0  0
 22 23  1  0  0  0  0
 22 24  2  0  0  0  0
 20 21  1  0  0  0  0
 19 20  1  0  0  0  0
 19 22  1  0  0  0  0
 17 18  1  0  0  0  0
 17 19  2  0  0  0  0
 15 16  1  0  0  0  0
 15 17  1  0  0  0  0
 14 15  2  0  0  0  0
 14 24  1  0  0  0  0
 11 12  1  0  0  0  0
 11 13  1  0  0  0  0
 11 14  1  0  0  0  0
  9 10  1  0  0  0  0
  9 11  1  0  0  0  0
  9 26  1  0  0  0  0
  7  8  1  0  0  0  0
  7  9  1  0  0  0  0
 30 31  1  0  0  0  0
 30 32  1  0  0  0  0
 30 33  1  0  0  0  0
 28 29  1  0  0  0  0
 28 30  1  0  0  0  0
M  END
$$$$
default_name
  -OEChem-02102213163D

 33 33  0     1  0  0  0  0  0999 V2000
   -4.0702   -3.8485    1.4554 H   0  0  0  0  0  0  0  0  0  0  0  0
   -4.0012   -2.9605    0.8284 C   0  0  0  0  0  0  0  0  0  0  0  0
   -4.7652   -2.2435    1.1234 H   0  0  0  0  0  0  0  0  0  0  0  0
   -4.1352   -3.2385   -0.2156 H   0  0  0  0  0  0  0  0  0  0  0  0
   -2.6362   -2.3395    1.0094 C   0  0  0  0  0  0  0  0  0  0  0  0
   -1.8292   -2.8395    1.7814 O   0  0  0  0  0  0  0  0  0  0  0  0
   -2.3832   -1.2445    0.2964 N   0  0  0  0  0  0  0  0  0  0  0  0
   -3.1102   -0.8685   -0.2946 H   0  0  0  0  0  0  0  0  0  0  0  0
   -1.1292   -0.4875    0.3524 C   0  0  1  0  0  0  0  0  0  0  0  0
   -0.5898   -0.7762    1.2552 H   0  0  0  0  0  0  0  0  0  0  0  0
   -0.2608   -0.8470   -0.8656 C   0  0  0  0  0  0  0  0  0  0  0  0
   -0.7973   -1.5690   -1.4826 H   0  0  0  0  0  0  0  0  0  0  0  0
   -0.1095    0.0498   -1.4688 H   0  0  0  0  0  0  0  0  0  0  0  0
    1.0863   -1.4437   -0.5064 C   0  0  0  0  0  0  0  0  0  0  0  0
    1.8716   -0.8661    0.5114 C   0  0  0  0  0  0  0  0  0  0  0  0
    1.5262    0.0227    1.0230 H   0  0  0  0  0  0  0  0  0  0  0  0
    3.1035   -1.4478    0.8690 C   0  0  0  0  0  0  0  0  0  0  0  0
    3.7030   -1.0019    1.6478 H   0  0  0  0  0  0  0  0  0  0  0  0
    3.5495   -2.6134    0.2086 C   0  0  0  0  0  0  0  0  0  0  0  0
    4.7347   -3.1836    0.5482 O   0  0  0  0  0  0  0  0  0  0  0  0
    5.2207   -2.6556    1.1830 H   0  0  0  0  0  0  0  0  0  0  0  0
    2.7601   -3.1928   -0.8062 C   0  0  0  0  0  0  0  0  0  0  0  0
    3.1139   -4.0815   -1.3068 H   0  0  0  0  0  0  0  0  0  0  0  0
    1.5313   -2.6064   -1.1646 C   0  0  0  0  0  0  0  0  0  0  0  0
    0.9297   -3.0468   -1.9508 H   0  0  0  0  0  0  0  0  0  0  0  0
   -1.4018    1.0238    0.4329 C   0  0  0  0  0  0  0  0  0  0  0  0
   -2.2416    1.5423   -0.3033 O   0  0  0  0  0  0  0  0  0  0  0  0
   -0.6927    1.7304    1.3223 N   0  0  0  0  0  0  0  0  0  0  0  0
    0.0178    1.2410    1.8469 H   0  0  0  0  0  0  0  0  0  0  0  0
   -0.8259    3.1712    1.5254 C   0  0  0  0  0  0  0  0  0  0  0  0
   -1.8769    3.4302    1.6645 H   0  0  0  0  0  0  0  0  0  0  0  0
   -0.2598    3.4806    2.4054 H   0  0  0  0  0  0  0  0  0  0  0  0
   -0.4486    3.7020    0.6489 H   0  0  0  0  0  0  0  0  0  0  0  0
  5  6  2  0  0  0  0
  5  7  1  0  0  0  0
  2  3  1  0  0  0  0
  2  4  1  0  0  0  0
  2  5  1  0  0  0  0
  1  2  1  0  0  0  0
 26 27  2  0  0  0  0
 26 28  1  0  0  0  0
 24 25  1  0  0  0  0
 22 23  1  0  0  0  0
 22 24  2  0  0  0  0
 20 21  1  0  0  0  0
 19 20  1  0  0  0  0
 19 22  1  0  0  0  0
 17 18  1  0  0  0  0
 17 19  2  0  0  0  0
 15 16  1  0  0  0  0
 15 17  1  0  0  0  0
 14 15  2  0  0  0  0
 14 24  1  0  0  0  0
 11 12  1  0  0  0  0
 11 13  1  0  0  0  0
 11 14  1  0  0  0  0
  9 10  1  0  0  0  0
  9 11  1  0  0  0  0
  9 26  1  0  0  0  0
  7  8  1  0  0  0  0
  7  9  1  0  0  0  0
 30 31  1  0  0  0  0
 30 32  1  0  0  0  0
 30 33  1  0  0  0  0
 28 29  1  0  0  0  0
 28 30  1  0  0  0  0
M  END
$$$$
default_name
  -OEChem-02102213163D

 33 33  0     1  0  0  0  0  0999 V2000
   -4.0702   -3.8485    1.4554 H   0  0  0  0  0  0  0  0  0  0  0  0
   -4.0012   -2.9605    0.8284 C   0  0  0  0  0  0  0  0  0  0  0  0
   -4.7652   -2.2435    1.1234 H   0  0  0  0  0  0  0  0  0  0  0  0
   -4.1352   -3.2385   -0.2156 H   0  0  0  0  0  0  0  0  0  0  0  0
   -2.6362   -2.3395    1.0094 C   0  0  0  0  0  0  0  0  0  0  0  0
   -1.8292   -2.8395    1.7814 O   0  0  0  0  0  0  0  0  0  0  0  0
   -2.3832   -1.2445    0.2964 N   0  0  0  0  0  0  0  0  0  0  0  0
   -3.1102   -0.8685   -0.2946 H   0  0  0  0  0  0  0  0  0  0  0  0
   -1.1292   -0.4875    0.3524 C   0  0  1  0  0  0  0  0  0  0  0  0
   -0.5898   -0.7762    1.2552 H   0  0  0  0  0  0  0  0  0  0  0  0
   -0.2608   -0.8470   -0.8656 C   0  0  0  0  0  0  0  0  0  0  0  0
   -0.7973   -1.5690   -1.4826 H   0  0  0  0  0  0  0  0  0  0  0  0
   -0.1095    0.0498   -1.4688 H   0  0  0  0  0  0  0  0  0  0  0  0
    1.0863   -1.4437   -0.5064 C   0  0  0  0  0  0  0  0  0  0  0  0
    1.7273   -1.0812    0.6952 C   0  0  0  0  0  0  0  0  0  0  0  0
    1.2709   -0.3542    1.3543 H   0  0  0  0  0  0  0  0  0  0  0  0
    2.9591   -1.6686    1.0437 C   0  0  0  0  0  0  0  0  0  0  0  0
    3.4479   -1.3875    1.9639 H   0  0  0  0  0  0  0  0  0  0  0  0
    3.5497   -2.6247    0.1889 C   0  0  0  0  0  0  0  0  0  0  0  0
    4.7360   -3.1991    0.5175 O   0  0  0  0  0  0  0  0  0  0  0  0
    5.1198   -2.8103    1.3046 H   0  0  0  0  0  0  0  0  0  0  0  0
    2.9045   -2.9898   -1.0107 C   0  0  0  0  0  0  0  0  0  0  0  0
    3.3682   -3.7188   -1.6582 H   0  0  0  0  0  0  0  0  0  0  0  0
    1.6756   -2.3975   -1.3585 C   0  0  0  0  0  0  0  0  0  0  0  0
    1.1850   -2.6717   -2.2849 H   0  0  0  0  0  0  0  0  0  0  0  0
   -1.4018    1.0238    0.4329 C   0  0  0  0  0  0  0  0  0  0  0  0
   -2.2416    1.5423   -0.3033 O   0  0  0  0  0  0  0  0  0  0  0  0
   -0.6927    1.7304    1.3223 N   0  0  0  0  0  0  0  0  0  0  0  0
    0.0178    1.2410    1.8469 H   0  0  0  0  0  0  0  0  0  0  0  0
   -0.8259    3.1712    1.5254 C   0  0  0  0  0  0  0  0  0  0  0  0
   -1.8769    3.4302    1.6645 H   0  0  0  0  0  0  0  0  0  0  0  0
   -0.2598    3.4806    2.4054 H   0  0  0  0  0  0  0  0  0  0  0  0
   -0.4486    3.7020    0.6489 H   0  0  0  0  0  0  0  0  0  0  0  0
  5  6  2  0  0  0  0
  5  7  1  0  0  0  0
  2  3  1  0  0  0  0
  2  4  1  0  0  0  0
  2  5  1  0  0  0  0
  1  2  1  0  0  0  0
 26 27  2  0  0  0  0
 26 28  1  0  0  0  0
 24 25  1  0  0  0  0
 22 23  1  0  0  0  0
 22 24  2  0  0  0  0
 20 21  1  0  0  0  0
 19 20  1  0  0  0  0
 19 22  1  0  0  0  0
 17 18  1  0  0  0  0
 17 19  2  0  0  0  0
 15 16  1  0  0  0  0
 15 17  1  0  0  0  0
 14 15  2  0  0  0  0
 14 24  1  0  0  0  0
 11 12  1  0  0  0  0
 11 13  1  0  0  0  0
 11 14  1  0  0  0  0
  9 10  1  0  0  0  0
  9 11  1  0  0  0  0
  9 26  1  0  0  0  0
  7  8  1  0  0  0  0
  7  9  1  0  0  0  0
 30 31  1  0  0  0  0
 30 32  1  0  0  0  0
 30 33  1  0  0  0  0
 28 29  1  0  0  0  0
 28 30  1  0  0  0  0
M  END
$$$$
default_name
  -OEChem-02102213163D

 33 33  0     1  0  0  0  0  0999 V2000
   -4.0702   -3.8485    1.4554 H   0  0  0  0  0  0  0  0  0  0  0  0
   -4.0012   -2.9605    0.8284 C   0  0  0  0  0  0  0  0  0  0  0  0
   -4.7652   -2.2435    1.1234 H   0  0  0  0  0  0  0  0  0  0  0  0
   -4.1352   -3.2385   -0.2156 H   0  0  0  0  0  0  0  0  0  0  0  0
   -2.6362   -2.3395    1.0094 C   0  0  0  0  0  0  0  0  0  0  0  0
   -1.8292   -2.8395    1.7814 O   0  0  0  0  0  0  0  0  0  0  0  0
   -2.3832   -1.2445    0.2964 N   0  0  0  0  0  0  0  0  0  0  0  0
   -3.1102   -0.8685   -0.2946 H   0  0  0  0  0  0  0  0  0  0  0  0
   -1.1292   -0.4875    0.3524 C   0  0  1  0  0  0  0  0  0  0  0  0
   -0.5898   -0.7762    1.2552 H   0  0  0  0  0  0  0  0  0  0  0  0
   -0.2608   -0.8470   -0.8656 C   0  0  0  0  0  0  0  0  0  0  0  0
   -0.7973   -1.5690   -1.4826 H   0  0  0  0  0  0  0  0  0  0  0  0
   -0.1095    0.0498   -1.4688 H   0  0  0  0  0  0  0  0  0  0  0  0
    1.0863   -1.4437   -0.5064 C   0  0  0  0  0  0  0  0  0  0  0  0
    1.5824   -1.3401    0.8087 C   0  0  0  0  0  0  0  0  0  0  0  0
    1.0137   -0.8102    1.5616 H   0  0  0  0  0  0  0  0  0  0  0  0
    2.8154   -1.9310    1.1470 C   0  0  0  0  0  0  0  0  0  0  0  0
    3.1930   -1.8483    2.1546 H   0  0  0  0  0  0  0  0  0  0  0  0
    3.5527   -2.6311    0.1673 C   0  0  0  0  0  0  0  0  0  0  0  0
    4.7413   -3.2070    0.4843 O   0  0  0  0  0  0  0  0  0  0  0  0
    5.0194   -2.9939    1.3761 H   0  0  0  0  0  0  0  0  0  0  0  0
    3.0523   -2.7380   -1.1469 C   0  0  0  0  0  0  0  0  0  0  0  0
    3.6274   -3.2721   -1.8882 H   0  0  0  0  0  0  0  0  0  0  0  0
    1.8218   -2.1423   -1.4831 C   0  0  0  0  0  0  0  0  0  0  0  0
    1.4425   -2.2169   -2.4954 H   0  0  0  0  0  0  0  0  0  0  0  0
   -1.4018    1.0238    0.4329 C   0  0  0  0  0  0  0  0  0  0  0  0
   -2.2416    1.5423   -0.3033 O   0  0  0  0  0  0  0  0  0  0  0  0
   -0.6927    1.7304    1.3223 N   0  0  0  0  0  0  0  0  0  0  0  0
    0.0178    1.2410    1.8469 H   0  0  0  0  0  0  0  0  0  0  0  0
   -0.8259    3.1712    1.5254 C   0  0  0  0  0  0  0  0  0  0  0  0
   -1.8769    3.4302    1.6645 H   0  0  0  0  0  0  0  0  0  0  0  0
   -0.2598    3.4806    2.4054 H   0  0  0  0  0  0  0  0  0  0  0  0
   -0.4486    3.7020    0.6489 H   0  0  0  0  0  0  0  0  0  0  0  0
  5  6  2  0  0  0  0
  5  7  1  0  0  0  0
  2  3  1  0  0  0  0
  2  4  1  0  0  0  0
  2  5  1  0  0  0  0
  1  2  1  0  0  0  0
 26 27  2  0  0  0  0
 26 28  1  0  0  0  0
 24 25  1  0  0  0  0
 22 23  1  0  0  0  0
 22 24  2  0  0  0  0
 20 21  1  0  0  0  0
 19 20  1  0  0  0  0
 19 22  1  0  0  0  0
 17 18  1  0  0  0  0
 17 19  2  0  0  0  0
 15 16  1  0  0  0  0
 15 17  1  0  0  0  0
 14 15  2  0  0  0  0
 14 24  1  0  0  0  0
 11 12  1  0  0  0  0
 11 13  1  0  0  0  0
 11 14  1  0  0  0  0
  9 10  1  0  0  0  0
  9 11  1  0  0  0  0
  9 26  1  0  0  0  0
  7  8  1  0  0  0  0
  7  9  1  0  0  0  0
 30 31  1  0  0  0  0
 30 32  1  0  0  0  0
 30 33  1  0  0  0  0
 28 29  1  0  0  0  0
 28 30  1  0  0  0  0
M  END
$$$$
default_name
  -OEChem-02102213163D

 33 33  0     1  0  0  0  0  0999 V2000
   -4.0702   -3.8485    1.4554 H   0  0  0  0  0  0  0  0  0  0  0  0
   -4.0012   -2.9605    0.8284 C   0  0  0  0  0  0  0  0  0  0  0  0
   -4.7652   -2.2435    1.1234 H   0  0  0  0  0  0  0  0  0  0  0  0
   -4.1352   -3.2385   -0.2156 H   0  0  0  0  0  0  0  0  0  0  0  0
   -2.6362   -2.3395    1.0094 C   0  0  0  0  0  0  0  0  0  0  0  0
   -1.8292   -2.8395    1.7814 O   0  0  0  0  0  0  0  0  0  0  0  0
   -2.3832   -1.2445    0.2964 N   0  0  0  0  0  0  0  0  0  0  0  0
   -3.1102   -0.8685   -0.2946 H   0  0  0  0  0  0  0  0  0  0  0  0
   -1.1292   -0.4875    0.3524 C   0  0  1  0  0  0  0  0  0  0  0  0
   -0.5898   -0.7762    1.2552 H   0  0  0  0  0  0  0  0  0  0  0  0
   -0.2608   -0.8470   -0.8656 C   0  0  0  0  0  0  0  0  0  0  0  0
   -0.7973   -1.5690   -1.4826 H   0  0  0  0  0  0  0  0  0  0  0  0
   -0.1095    0.0498   -1.4688 H   0  0  0  0  0  0  0  0  0  0  0  0
    1.0863   -1.4437   -0.5064 C   0  0  0  0  0  0  0  0  0  0  0  0
    1.4468   -1.6251    0.8439 C   0  0  0  0  0  0  0  0  0  0  0  0
    0.7721   -1.3141    1.6308 H   0  0  0  0  0  0  0  0  0  0  0  0
    2.6821   -2.2169    1.1718 C   0  0  0  0  0  0  0  0  0  0  0  0
    2.9555   -2.3529    2.2069 H   0  0  0  0  0  0  0  0  0  0  0  0
    3.5581   -2.6321    0.1453 C   0  0  0  0  0  0  0  0  0  0  0  0
    4.7504   -3.2066    0.4511 O   0  0  0  0  0  0  0  0  0  0  0  0
    4.9264   -3.1938    1.3928 H   0  0  0  0  0  0  0  0  0  0  0  0
    3.1936   -2.4543   -1.2055 C   0  0  0  0  0  0  0  0  0  0  0  0
    3.8738   -2.7719   -1.9814 H   0  0  0  0  0  0  0  0  0  0  0  0
    1.9602   -1.8582   -1.5300 C   0  0  0  0  0  0  0  0  0  0  0  0
    1.6849   -1.7135   -2.5679 H   0  0  0  0  0  0  0  0  0  0  0  0
   -1.4018    1.0238    0.4329 C   0  0  0  0  0  0  0  0  0  0  0  0
   -2.2416    1.5423   -0.3033 O   0  0  0  0  0  0  0  0  0  0  0  0
   -0.6927    1.7304    1.3223 N   0  0  0  0  0  0  0  0  0  0  0  0
    0.0178    1.2410    1.8469 H   0  0  0  0  0  0  0  0  0  0  0  0
   -0.8259    3.1712    1.5254 C   0  0  0  0  0  0  0  0  0  0  0  0
   -1.8769    3.4302    1.6645 H   0  0  0  0  0  0  0  0  0  0  0  0
   -0.2598    3.4806    2.4054 H   0  0  0  0  0  0  0  0  0  0  0  0
   -0.4486    3.7020    0.6489 H   0  0  0  0  0  0  0  0  0  0  0  0
  5  6  2  0  0  0  0
  5  7  1  0  0  0  0
  2  3  1  0  0  0  0
  2  4  1  0  0  0  0
  2  5  1  0  0  0  0
  1  2  1  0  0  0  0
 26 27  2  0  0  0  0
 26 28  1  0  0  0  0
 24 25  1  0  0  0  0
 22 23  1  0  0  0  0
 22 24  2  0  0  0  0
 20 21  1  0  0  0  0
 19 20  1  0  0  0  0
 19 22  1  0  0  0  0
 17 18  1  0  0  0  0
 17 19  2  0  0  0  0
 15 16  1  0  0  0  0
 15 17  1  0  0  0  0
 14 15  2  0  0  0  0
 14 24  1  0  0  0  0
 11 12  1  0  0  0  0
 11 13  1  0  0  0  0
 11 14  1  0  0  0  0
  9 10  1  0  0  0  0
  9 11  1  0  0  0  0
  9 26  1  0  0  0  0
  7  8  1  0  0  0  0
  7  9  1  0  0  0  0
 30 31  1  0  0  0  0
 30 32  1  0  0  0  0
 30 33  1  0  0  0  0
 28 29  1  0  0  0  0
 28 30  1  0  0  0  0
M  END
$$$$
default_name
  -OEChem-02102213163D

 33 33  0     1  0  0  0  0  0999 V2000
   -4.0702   -3.8485    1.4554 H   0  0  0  0  0  0  0  0  0  0  0  0
   -4.0012   -2.9605    0.8284 C   0  0  0  0  0  0  0  0  0  0  0  0
   -4.7652   -2.2435    1.1234 H   0  0  0  0  0  0  0  0  0  0  0  0
   -4.1352   -3.2385   -0.2156 H   0  0  0  0  0  0  0  0  0  0  0  0
   -2.6362   -2.3395    1.0094 C   0  0  0  0  0  0  0  0  0  0  0  0
   -1.8292   -2.8395    1.7814 O   0  0  0  0  0  0  0  0  0  0  0  0
   -2.3832   -1.2445    0.2964 N   0  0  0  0  0  0  0  0  0  0  0  0
   -3.1102   -0.8685   -0.2946 H   0  0  0  0  0  0  0  0  0  0  0  0
   -1.1292   -0.4875    0.3524 C   0  0  1  0  0  0  0  0  0  0  0  0
   -0.5898   -0.7762    1.2552 H   0  0  0  0  0  0  0  0  0  0  0  0
   -0.2608   -0.8470   -0.8656 C   0  0  0  0  0  0  0  0  0  0  0  0
   -0.7973   -1.5690   -1.4826 H   0  0  0  0  0  0  0  0  0  0  0  0
   -0.1095    0.0498   -1.4688 H   0  0  0  0  0  0  0  0  0  0  0  0
    1.0863   -1.4437   -0.5064 C   0  0  0  0  0  0  0  0  0  0  0  0
    1.3296   -1.9168    0.7987 C   0  0  0  0  0  0  0  0  0  0  0  0
    0.5625   -1.8315    1.5572 H   0  0  0  0  0  0  0  0  0  0  0  0
    2.5684   -2.5070    1.1165 C   0  0  0  0  0  0  0  0  0  0  0  0
    2.7518   -2.8668    2.1172 H   0  0  0  0  0  0  0  0  0  0  0  0
    3.5656   -2.6277    0.1243 C   0  0  0  0  0  0  0  0  0  0  0  0
    4.7624   -3.1980    0.4200 O   0  0  0  0  0  0  0  0  0  0  0  0
    4.8471   -3.3964    1.3535 H   0  0  0  0  0  0  0  0  0  0  0  0
    3.3186   -2.1582   -1.1824 C   0  0  0  0  0  0  0  0  0  0  0  0
    4.0906   -2.2521   -1.9312 H   0  0  0  0  0  0  0  0  0  0  0  0
    2.0811   -1.5645   -1.4958 C   0  0  0  0  0  0  0  0  0  0  0  0
    1.8955   -1.1956   -2.4975 H   0  0  0  0  0  0  0  0  0  0  0  0
   -1.4018    1.0238    0.4329 C   0  0  0  0  0  0  0  0  0  0  0  0
   -2.2416    1.5423   -0.3033 O   0  0  0  0  0  0  0  0  0  0  0  0
   -0.6927    1.7304    1.3223 N   0  0  0  0  0  0  0  0  0  0  0  0
    0.0178    1.2410    1.8469 H   0  0  0  0  0  0  0  0  0  0  0  0
   -0.8259    3.1712    1.5254 C   0  0  0  0  0  0  0  0  0  0  0  0
   -1.8769    3.4302    1.6645 H   0  0  0  0  0  0  0  0  0  0  0  0
   -0.2598    3.4806    2.4054 H   0  0  0  0  0  0  0  0  0  0  0  0
   -0.4486    3.7020    0.6489 H   0  0  0  0  0  0  0  0  0  0  0  0
  5  6  2  0  0  0  0
  5  7  1  0  0  0  0
  2  3  1  0  0  0  0
  2  4  1  0  0  0  0
  2  5  1  0  0  0  0
  1  2  1  0  0  0  0
 26 27  2  0  0  0  0
 26 28  1  0  0  0  0
 24 25  1  0  0  0  0
 22 23  1  0  0  0  0
 22 24  2  0  0  0  0
 20 21  1  0  0  0  0
 19 20  1  0  0  0  0
 19 22  1  0  0  0  0
 17 18  1  0  0  0  0
 17 19  2  0  0  0  0
 15 16  1  0  0  0  0
 15 17  1  0  0  0  0
 14 15  2  0  0  0  0
 14 24  1  0  0  0  0
 11 12  1  0  0  0  0
 11 13  1  0  0  0  0
 11 14  1  0  0  0  0
  9 10  1  0  0  0  0
  9 11  1  0  0  0  0
  9 26  1  0  0  0  0
  7  8  1  0  0  0  0
  7  9  1  0  0  0  0
 30 31  1  0  0  0  0
 30 32  1  0  0  0  0
 30 33  1  0  0  0  0
 28 29  1  0  0  0  0
 28 30  1  0  0  0  0
M  END
$$$$
default_name
  -OEChem-02102213163D

 33 33  0     1  0  0  0  0  0999 V2000
   -4.0702   -3.8485    1.4554 H   0  0  0  0  0  0  0  0  0  0  0  0
   -4.0012   -2.9605    0.8284 C   0  0  0  0  0  0  0  0  0  0  0  0
   -4.7652   -2.2435    1.1234 H   0  0  0  0  0  0  0  0  0  0  0  0
   -4.1352   -3.2385   -0.2156 H   0  0  0  0  0  0  0  0  0  0  0  0
   -2.6362   -2.3395    1.0094 C   0  0  0  0  0  0  0  0  0  0  0  0
   -1.8292   -2.8395    1.7814 O   0  0  0  0  0  0  0  0  0  0  0  0
   -2.3832   -1.2445    0.2964 N   0  0  0  0  0  0  0  0  0  0  0  0
   -3.1102   -0.8685   -0.2946 H   0  0  0  0  0  0  0  0  0  0  0  0
   -1.1292   -0.4875    0.3524 C   0  0  1  0  0  0  0  0  0  0  0  0
   -0.5898   -0.7762    1.2552 H   0  0  0  0  0  0  0  0  0  0  0  0
   -0.2608   -0.8470   -0.8656 C   0  0  0  0  0  0  0  0  0  0  0  0
   -0.7973   -1.5690   -1.4826 H   0  0  0  0  0  0  0  0  0  0  0  0
   -0.1095    0.0498   -1.4688 H   0  0  0  0  0  0  0  0  0  0  0  0
    1.0863   -1.4437   -0.5064 C   0  0  0  0  0  0  0  0  0  0  0  0
    1.2390   -2.1953    0.6759 C   0  0  0  0  0  0  0  0  0  0  0  0
    0.3993   -2.3271    1.3458 H   0  0  0  0  0  0  0  0  0  0  0  0
    2.4819   -2.7815    0.9847 C   0  0  0  0  0  0  0  0  0  0  0  0
    2.5957   -3.3551    1.8917 H   0  0  0  0  0  0  0  0  0  0  0  0
    3.5748   -2.6182    0.1058 C   0  0  0  0  0  0  0  0  0  0  0  0
    4.7768   -3.1819    0.3931 O   0  0  0  0  0  0  0  0  0  0  0  0
    4.7870   -3.5879    1.2609 H   0  0  0  0  0  0  0  0  0  0  0  0
    3.4189   -1.8698   -1.0794 C   0  0  0  0  0  0  0  0  0  0  0  0
    4.2631   -1.7484   -1.7412 H   0  0  0  0  0  0  0  0  0  0  0  0
    2.1765   -1.2813   -1.3829 C   0  0  0  0  0  0  0  0  0  0  0  0
    2.0600   -0.6987   -2.2890 H   0  0  0  0  0  0  0  0  0  0  0  0
   -1.4018    1.0238    0.4329 C   0  0  0  0  0  0  0  0  0  0  0  0
   -2.2416    1.5423   -0.3033 O   0  0  0  0  0  0  0  0  0  0  0  0
   -0.6927    1.7304    1.3223 N   0  0  0  0  0  0  0  0  0  0  0  0
    0.0178    1.2410    1.8469 H   0  0  0  0  0  0  0  0  0  0  0  0
   -0.8259    3.1712    1.5254 C   0  0  0  0  0  0  0  0  0  0  0  0
   -1.8769    3.4302    1.6645 H   0  0  0  0  0  0  0  0  0  0  0  0
   -0.2598    3.4806    2.4054 H   0  0  0  0  0  0  0  0  0  0  0  0
   -0.4486    3.7020    0.6489 H   0  0  0  0  0  0  0  0  0  0  0  0
  5  6  2  0  0  0  0
  5  7  1  0  0  0  0
  2  3  1  0  0  0  0
  2  4  1  0  0  0  0
  2  5  1  0  0  0  0
  1  2  1  0  0  0  0
 26 27  2  0  0  0  0
 26 28  1  0  0  0  0
 24 25  1  0  0  0  0
 22 23  1  0  0  0  0
 22 24  2  0  0  0  0
 20 21  1  0  0  0  0
 19 20  1  0  0  0  0
 19 22  1  0  0  0  0
 17 18  1  0  0  0  0
 17 19  2  0  0  0  0
 15 16  1  0  0  0  0
 15 17  1  0  0  0  0
 14 15  2  0  0  0  0
 14 24  1  0  0  0  0
 11 12  1  0  0  0  0
 11 13  1  0  0  0  0
 11 14  1  0  0  0  0
  9 10  1  0  0  0  0
  9 11  1  0  0  0  0
  9 26  1  0  0  0  0
  7  8  1  0  0  0  0
  7  9  1  0  0  0  0
 30 31  1  0  0  0  0
 30 32  1  0  0  0  0
 30 33  1  0  0  0  0
 28 29  1  0  0  0  0
 28 30  1  0  0  0  0
M  END
$$$$
default_name
  -OEChem-02102213163D

 33 33  0     1  0  0  0  0  0999 V2000
   -4.0702   -3.8485    1.4554 H   0  0  0  0  0  0  0  0  0  0  0  0
   -4.0012   -2.9605    0.8284 C   0  0  0  0  0  0  0  0  0  0  0  0
   -4.7652   -2.2435    1.1234 H   0  0  0  0  0  0  0  0  0  0  0  0
   -4.1352   -3.2385   -0.2156 H   0  0  0  0  0  0  0  0  0  0  0  0
   -2.6362   -2.3395    1.0094 C   0  0  0  0  0  0  0  0  0  0  0  0
   -1.8292   -2.8395    1.7814 O   0  0  0  0  0  0  0  0  0  0  0  0
   -2.3832   -1.2445    0.2964 N   0  0  0  0  0  0  0  0  0  0  0  0
   -3.1102   -0.8685   -0.2946 H   0  0  0  0  0  0  0  0  0  0  0  0
   -1.1292   -0.4875    0.3524 C   0  0  1  0  0  0  0  0  0  0  0  0
   -0.5898   -0.7762    1.2552 H   0  0  0  0  0  0  0  0  0  0  0  0
   -0.2608   -0.8470   -0.8656 C   0  0  0  0  0  0  0  0  0  0  0  0
   -0.7973   -1.5690   -1.4826 H   0  0  0  0  0  0  0  0  0  0  0  0
   -0.1095    0.0498   -1.4688 H   0  0  0  0  0  0  0  0  0  0  0  0
    1.0863   -1.4437   -0.5064 C   0  0  0  0  0  0  0  0  0  0  0  0
    1.1810   -2.4417    0.4841 C   0  0  0  0  0  0  0  0  0  0  0  0
    0.2936   -2.7674    1.0110 H   0  0  0  0  0  0  0  0  0  0  0  0
    2.4287   -3.0216    0.7856 C   0  0  0  0  0  0  0  0  0  0  0  0
    2.4977   -3.7845    1.5457 H   0  0  0  0  0  0  0  0  0  0  0  0
    3.5849   -2.6041    0.0910 C   0  0  0  0  0  0  0  0  0  0  0  0
    4.7923   -3.1592    0.3723 O   0  0  0  0  0  0  0  0  0  0  0  0
    4.7501   -3.7553    1.1212 H   0  0  0  0  0  0  0  0  0  0  0  0
    3.4875   -1.6088   -0.9033 C   0  0  0  0  0  0  0  0  0  0  0  0
    4.3795   -1.2949   -1.4243 H   0  0  0  0  0  0  0  0  0  0  0  0
    2.2397   -1.0278   -1.1991 C   0  0  0  0  0  0  0  0  0  0  0  0
    2.1672   -0.2566   -1.9567 H   0  0  0  0  0  0  0  0  0  0  0  0
   -1.4018    1.0238    0.4329 C   0  0  0  0  0  0  0  0  0  0  0  0
   -2.2416    1.5423   -0.3033 O   0  0  0  0  0  0  0  0  0  0  0  0
   -0.6927    1.7304    1.3223 N   0  0  0  0  0  0  0  0  0  0  0  0
    0.0178    1.2410    1.8469 H   0  0  0  0  0  0  0  0  0  0  0  0
   -0.8259    3.1712    1.5254 C   0  0  0  0  0  0  0  0  0  0  0  0
   -1.8769    3.4302    1.6645 H   0  0  0  0  0  0  0  0  0  0  0  0
   -0.2598    3.4806    2.4054 H   0  0  0  0  0  0  0  0  0  0  0  0
   -0.4486    3.7020    0.6489 H   0  0  0  0  0  0  0  0  0  0  0  0
  5  6  2  0  0  0  0
  5  7  1  0  0  0  0
  2  3  1  0  0  0  0
  2  4  1  0  0  0  0
  2  5  1  0  0  0  0
  1  2  1  0  0  0  0
 26 27  2  0  0  0  0
 26 28  1  0  0  0  0
 24 25  1  0  0  0  0
 22 23  1  0  0  0  0
 22 24  2  0  0  0  0
 20 21  1  0  0  0  0
 19 20  1  0  0  0  0
 19 22  1  0  0  0  0
 17 18  1  0  0  0  0
 17 19  2  0  0  0  0
 15 16  1  0  0  0  0
 15 17  1  0  0  0  0
 14 15  2  0  0  0  0
 14 24  1  0  0  0  0
 11 12  1  0  0  0  0
 11 13  1  0  0  0  0
 11 14  1  0  0  0  0
  9 10  1  0  0  0  0
  9 11  1  0  0  0  0
  9 26  1  0  0  0  0
  7  8  1  0  0  0  0
  7  9  1  0  0  0  0
 30 31  1  0  0  0  0
 30 32  1  0  0  0  0
 30 33  1  0  0  0  0
 28 29  1  0  0  0  0
 28 30  1  0  0  0  0
M  END
$$$$
default_name
  -OEChem-02102213163D

 33 33  0     1  0  0  0  0  0999 V2000
   -4.0702   -3.8485    1.4554 H   0  0  0  0  0  0  0  0  0  0  0  0
   -4.0012   -2.9605    0.8284 C   0  0  0  0  0  0  0  0  0  0  0  0
   -4.7652   -2.2435    1.1234 H   0  0  0  0  0  0  0  0  0  0  0  0
   -4.1352   -3.2385   -0.2156 H   0  0  0  0  0  0  0  0  0  0  0  0
   -2.6362   -2.3395    1.0094 C   0  0  0  0  0  0  0  0  0  0  0  0
   -1.8292   -2.8395    1.7814 O   0  0  0  0  0  0  0  0  0  0  0  0
   -2.3832   -1.2445    0.2964 N   0  0  0  0  0  0  0  0  0  0  0  0
   -3.1102   -0.8685   -0.2946 H   0  0  0  0  0  0  0  0  0  0  0  0
   -1.1292   -0.4875    0.3524 C   0  0  1  0  0  0  0  0  0  0  0  0
   -0.5898   -0.7762    1.2552 H   0  0  0  0  0  0  0  0  0  0  0  0
   -0.2608   -0.8470   -0.8656 C   0  0  0  0  0  0  0  0  0  0  0  0
   -0.7973   -1.5690   -1.4826 H   0  0  0  0  0  0  0  0  0  0  0  0
   -0.1095    0.0498   -1.4688 H   0  0  0  0  0  0  0  0  0  0  0  0
    1.0863   -1.4437   -0.5064 C   0  0  0  0  0  0  0  0  0  0  0  0
    1.1596   -2.6392    0.2363 C   0  0  0  0  0  0  0  0  0  0  0  0
    0.2525   -3.1221    0.5757 H   0  0  0  0  0  0  0  0  0  0  0  0
    2.4122   -3.2110    0.5326 C   0  0  0  0  0  0  0  0  0  0  0  0
    2.4647   -4.1257    1.1029 H   0  0  0  0  0  0  0  0  0  0  0  0
    3.5954   -2.5866    0.0811 C   0  0  0  0  0  0  0  0  0  0  0  0
    4.8081   -3.1316    0.3591 O   0  0  0  0  0  0  0  0  0  0  0  0
    4.7389   -3.8872    0.9441 H   0  0  0  0  0  0  0  0  0  0  0  0
    3.5199   -1.3929   -0.6662 C   0  0  0  0  0  0  0  0  0  0  0  0
    4.4318   -0.9226   -1.0021 H   0  0  0  0  0  0  0  0  0  0  0  0
    2.2666   -0.8214   -0.9568 C   0  0  0  0  0  0  0  0  0  0  0  0
    2.2098    0.1007   -1.5230 H   0  0  0  0  0  0  0  0  0  0  0  0
   -1.4018    1.0238    0.4329 C   0  0  0  0  0  0  0  0  0  0  0  0
   -2.2416    1.5423   -0.3033 O   0  0  0  0  0  0  0  0  0  0  0  0
   -0.6927    1.7304    1.3223 N   0  0  0  0  0  0  0  0  0  0  0  0
    0.0178    1.2410    1.8469 H   0  0  0  0  0  0  0  0  0  0  0  0
   -0.8259    3.1712    1.5254 C   0  0  0  0  0  0  0  0  0  0  0  0
   -1.8769    3.4302    1.6645 H   0  0  0  0  0  0  0  0  0  0  0  0
   -0.2598    3.4806    2.4054 H   0  0  0  0  0  0  0  0  0  0  0  0
   -0.4486    3.7020    0.6489 H   0  0  0  0  0  0  0  0  0  0  0  0
  5  6  2  0  0  0  0
  5  7  1  0  0  0  0
  2  3  1  0  0  0  0
  2  4  1  0  0  0  0
  2  5  1  0  0  0  0
  1  2  1  0  0  0  0
 26 27  2  0  0  0  0
 26 28  1  0  0  0  0
 24 25  1  0  0  0  0
 22 23  1  0  0  0  0
 22 24  2  0  0  0  0
 20 21  1  0  0  0  0
 19 20  1  0  0  0  0
 19 22  1  0  0  0  0
 17 18  1  0  0  0  0
 17 19  2  0  0  0  0
 15 16  1  0  0  0  0
 15 17  1  0  0  0  0
 14 15  2  0  0  0  0
 14 24  1  0  0  0  0
 11 12  1  0  0  0  0
 11 13  1  0  0  0  0
 11 14  1  0  0  0  0
  9 10  1  0  0  0  0
  9 11  1  0  0  0  0
  9 26  1  0  0  0  0
  7  8  1  0  0  0  0
  7  9  1  0  0  0  0
 30 31  1  0  0  0  0
 30 32  1  0  0  0  0
 30 33  1  0  0  0  0
 28 29  1  0  0  0  0
 28 30  1  0  0  0  0
M  END
$$$$
default_name
  -OEChem-02102213163D

 33 33  0     1  0  0  0  0  0999 V2000
   -4.0702   -3.8485    1.4554 H   0  0  0  0  0  0  0  0  0  0  0  0
   -4.0012   -2.9605    0.8284 C   0  0  0  0  0  0  0  0  0  0  0  0
   -4.7652   -2.2435    1.1234 H   0  0  0  0  0  0  0  0  0  0  0  0
   -4.1352   -3.2385   -0.2156 H   0  0  0  0  0  0  0  0  0  0  0  0
   -2.6362   -2.3395    1.0094 C   0  0  0  0  0  0  0  0  0  0  0  0
   -1.8292   -2.8395    1.7814 O   0  0  0  0  0  0  0  0  0  0  0  0
   -2.3832   -1.2445    0.2964 N   0  0  0  0  0  0  0  0  0  0  0  0
   -3.1102   -0.8685   -0.2946 H   0  0  0  0  0  0  0  0  0  0  0  0
   -1.1292   -0.4875    0.3524 C   0  0  1  0  0  0  0  0  0  0  0  0
   -0.5898   -0.7762    1.2552 H   0  0  0  0  0  0  0  0  0  0  0  0
   -0.2608   -0.8470   -0.8656 C   0  0  0  0  0  0  0  0  0  0  0  0
   -0.7973   -1.5690   -1.4826 H   0  0  0  0  0  0  0  0  0  0  0  0
   -0.1095    0.0498   -1.4688 H   0  0  0  0  0  0  0  0  0  0  0  0
    1.0863   -1.4437   -0.5064 C   0  0  0  0  0  0  0  0  0  0  0  0
    1.1763   -2.7743   -0.0507 C   0  0  0  0  0  0  0  0  0  0  0  0
    0.2790   -3.3671    0.0694 H   0  0  0  0  0  0  0  0  0  0  0  0
    2.4337   -3.3368    0.2430 C   0  0  0  0  0  0  0  0  0  0  0  0
    2.4988   -4.3555    0.5932 H   0  0  0  0  0  0  0  0  0  0  0  0
    3.6054   -2.5667    0.0765 C   0  0  0  0  0  0  0  0  0  0  0  0
    4.8230   -3.1009    0.3542 O   0  0  0  0  0  0  0  0  0  0  0  0
    4.7542   -3.9745    0.7416 H   0  0  0  0  0  0  0  0  0  0  0  0
    3.5139   -1.2369   -0.3843 C   0  0  0  0  0  0  0  0  0  0  0  0
    4.4166   -0.6568   -0.5033 H   0  0  0  0  0  0  0  0  0  0  0  0
    2.2552   -0.6760   -0.6726 C   0  0  0  0  0  0  0  0  0  0  0  0
    2.1849    0.3486   -1.0177 H   0  0  0  0  0  0  0  0  0  0  0  0
   -1.4018    1.0238    0.4329 C   0  0  0  0  0  0  0  0  0  0  0  0
   -2.2416    1.5423   -0.3033 O   0  0  0  0  0  0  0  0  0  0  0  0
   -0.6927    1.7304    1.3223 N   0  0  0  0  0  0  0  0  0  0  0  0
    0.0178    1.2410    1.8469 H   0  0  0  0  0  0  0  0  0  0  0  0
   -0.8259    3.1712    1.5254 C   0  0  0  0  0  0  0  0  0  0  0  0
   -1.8769    3.4302    1.6645 H   0  0  0  0  0  0  0  0  0  0  0  0
   -0.2598    3.4806    2.4054 H   0  0  0  0  0  0  0  0  0  0  0  0
   -0.4486    3.7020    0.6489 H   0  0  0  0  0  0  0  0  0  0  0  0
  5  6  2  0  0  0  0
  5  7  1  0  0  0  0
  2  3  1  0  0  0  0
  2  4  1  0  0  0  0
  2  5  1  0  0  0  0
  1  2  1  0  0  0  0
 26 27  2  0  0  0  0
 26 28  1  0  0  0  0
 24 25  1  0  0  0  0
 22 23  1  0  0  0  0
 22 24  2  0  0  0  0
 20 21  1  0  0  0  0
 19 20  1  0  0  0  0
 19 22  1  0  0  0  0
 17 18  1  0  0  0  0
 17 19  2  0  0  0  0
 15 16  1  0  0  0  0
 15 17  1  0  0  0  0
 14 15  2  0  0  0  0
 14 24  1  0  0  0  0
 11 12  1  0  0  0  0
 11 13  1  0  0  0  0
 11 14  1  0  0  0  0
  9 10  1  0  0  0  0
  9 11  1  0  0  0  0
  9 26  1  0  0  0  0
  7  8  1  0  0  0  0
  7  9  1  0  0  0  0
 30 31  1  0  0  0  0
 30 32  1  0  0  0  0
 30 33  1  0  0  0  0
 28 29  1  0  0  0  0
 28 30  1  0  0  0  0
M  END
$$$$
default_name
  -OEChem-02102213163D

 33 33  0     1  0  0  0  0  0999 V2000
   -4.0702   -3.8485    1.4554 H   0  0  0  0  0  0  0  0  0  0  0  0
   -4.0012   -2.9605    0.8284 C   0  0  0  0  0  0  0  0  0  0  0  0
   -4.7652   -2.2435    1.1234 H   0  0  0  0  0  0  0  0  0  0  0  0
   -4.1352   -3.2385   -0.2156 H   0  0  0  0  0  0  0  0  0  0  0  0
   -2.6362   -2.3395    1.0094 C   0  0  0  0  0  0  0  0  0  0  0  0
   -1.8292   -2.8395    1.7814 O   0  0  0  0  0  0  0  0  0  0  0  0
   -2.3832   -1.2445    0.2964 N   0  0  0  0  0  0  0  0  0  0  0  0
   -3.1102   -0.8685   -0.2946 H   0  0  0  0  0  0  0  0  0  0  0  0
   -1.1292   -0.4875    0.3524 C   0  0  1  0  0  0  0  0  0  0  0  0
   -0.5898   -0.7762    1.2552 H   0  0  0  0  0  0  0  0  0  0  0  0
   -0.2608   -0.8470   -0.8656 C   0  0  0  0  0  0  0  0  0  0  0  0
   -0.7973   -1.5690   -1.4826 H   0  0  0  0  0  0  0  0  0  0  0  0
   -0.1095    0.0498   -1.4688 H   0  0  0  0  0  0  0  0  0  0  0  0
    1.0863   -1.4437   -0.5064 C   0  0  0  0  0  0  0  0  0  0  0  0
    1.2299   -2.8377   -0.3572 C   0  0  0  0  0  0  0  0  0  0  0  0
    0.3711   -3.4858   -0.4732 H   0  0  0  0  0  0  0  0  0  0  0  0
    2.4917   -3.3904   -0.0635 C   0  0  0  0  0  0  0  0  0  0  0  0
    2.5977   -4.4582    0.0516 H   0  0  0  0  0  0  0  0  0  0  0  0
    3.6143   -2.5458    0.0778 C   0  0  0  0  0  0  0  0  0  0  0  0
    4.8360   -3.0692    0.3581 O   0  0  0  0  0  0  0  0  0  0  0  0
    4.7950   -4.0114    0.5274 H   0  0  0  0  0  0  0  0  0  0  0  0
    3.4697   -1.1515   -0.0767 C   0  0  0  0  0  0  0  0  0  0  0  0
    4.3347   -0.5157    0.0380 H   0  0  0  0  0  0  0  0  0  0  0  0
    2.2063   -0.6017   -0.3658 C   0  0  0  0  0  0  0  0  0  0  0  0
    2.0942    0.4705   -0.4751 H   0  0  0  0  0  0  0  0  0  0  0  0
   -1.4018    1.0238    0.4329 C   0  0  0  0  0  0  0  0  0  0  0  0
   -2.2416    1.5423   -0.3033 O   0  0  0  0  0  0  0  0  0  0  0  0
   -0.6927    1.7304    1.3223 N   0  0  0  0  0  0  0  0  0  0  0  0
    0.0178    1.2410    1.8469 H   0  0  0  0  0  0  0  0  0  0  0  0
   -0.8259    3.1712    1.5254 C   0  0  0  0  0  0  0  0  0  0  0  0
   -1.8769    3.4302    1.6645 H   0  0  0  0  0  0  0  0  0  0  0  0
   -0.2598    3.4806    2.4054 H   0  0  0  0  0  0  0  0  0  0  0  0
   -0.4486    3.7020    0.6489 H   0  0  0  0  0  0  0  0  0  0  0  0
  5  6  2  0  0  0  0
  5  7  1  0  0  0  0
  2  3  1  0  0  0  0
  2  4  1  0  0  0  0
  2  5  1  0  0  0  0
  1  2  1  0  0  0  0
 26 27  2  0  0  0  0
 26 28  1  0  0  0  0
 24 25  1  0  0  0  0
 22 23  1  0  0  0  0
 22 24  2  0  0  0  0
 20 21  1  0  0  0  0
 19 20  1  0  0  0  0
 19 22  1  0  0  0  0
 17 18  1  0  0  0  0
 17 19  2  0  0  0  0
 15 16  1  0  0  0  0
 15 17  1  0  0  0  0
 14 15  2  0  0  0  0
 14 24  1  0  0  0  0
 11 12  1  0  0  0  0
 11 13  1  0  0  0  0
 11 14  1  0  0  0  0
  9 10  1  0  0  0  0
  9 11  1  0  0  0  0
  9 26  1  0  0  0  0
  7  8  1  0  0  0  0
  7  9  1  0  0  0  0
 30 31  1  0  0  0  0
 30 32  1  0  0  0  0
 30 33  1  0  0  0  0
 28 29  1  0  0  0  0
 28 30  1  0  0  0  0
M  END
$$$$
default_name
  -OEChem-02102213163D

 33 33  0     1  0  0  0  0  0999 V2000
   -4.0702   -3.8485    1.4554 H   0  0  0  0  0  0  0  0  0  0  0  0
   -4.0012   -2.9605    0.8284 C   0  0  0  0  0  0  0  0  0  0  0  0
   -4.7652   -2.2435    1.1234 H   0  0  0  0  0  0  0  0  0  0  0  0
   -4.1352   -3.2385   -0.2156 H   0  0  0  0  0  0  0  0  0  0  0  0
   -2.6362   -2.3395    1.0094 C   0  0  0  0  0  0  0  0  0  0  0  0
   -1.8292   -2.8395    1.7814 O   0  0  0  0  0  0  0  0  0  0  0  0
   -2.3832   -1.2445    0.2964 N   0  0  0  0  0  0  0  0  0  0  0  0
   -3.1102   -0.8685   -0.2946 H   0  0  0  0  0  0  0  0  0  0  0  0
   -1.1292   -0.4875    0.3524 C   0  0  1  0  0  0  0  0  0  0  0  0
   -0.5898   -0.7762    1.2552 H   0  0  0  0  0  0  0  0  0  0  0  0
   -0.2608   -0.8470   -0.8656 C   0  0  0  0  0  0  0  0  0  0  0  0
   -0.7973   -1.5690   -1.4826 H   0  0  0  0  0  0  0  0  0  0  0  0
   -0.1095    0.0498   -1.4688 H   0  0  0  0  0  0  0  0  0  0  0  0
    1.0863   -1.4437   -0.5064 C   0  0  0  0  0  0  0  0  0  0  0  0
    1.3168   -2.8253   -0.6624 C   0  0  0  0  0  0  0  0  0  0  0  0
    0.5226   -3.4701   -1.0153 H   0  0  0  0  0  0  0  0  0  0  0  0
    2.5822   -3.3682   -0.3659 C   0  0  0  0  0  0  0  0  0  0  0  0
    2.7547   -4.4268   -0.4851 H   0  0  0  0  0  0  0  0  0  0  0  0
    3.6215   -2.5254    0.0847 C   0  0  0  0  0  0  0  0  0  0  0  0
    4.8462   -3.0387    0.3704 O   0  0  0  0  0  0  0  0  0  0  0  0
    4.8584   -3.9952    0.3162 H   0  0  0  0  0  0  0  0  0  0  0  0
    3.3905   -1.1423    0.2355 C   0  0  0  0  0  0  0  0  0  0  0  0
    4.1919   -0.5089    0.5850 H   0  0  0  0  0  0  0  0  0  0  0  0
    2.1233   -0.6034   -0.0573 C   0  0  0  0  0  0  0  0  0  0  0  0
    1.9439    0.4578    0.0677 H   0  0  0  0  0  0  0  0  0  0  0  0
   -1.4018    1.0238    0.4329 C   0  0  0  0  0  0  0  0  0  0  0  0
   -2.2416    1.5423   -0.3033 O   0  0  0  0  0  0  0  0  0  0  0  0
   -0.6927    1.7304    1.3223 N   0  0  0  0  0  0  0  0  0  0  0  0
    0.0178    1.2410    1.8469 H   0  0  0  0  0  0  0  0  0  0  0  0
   -0.8259    3.1712    1.5254 C   0  0  0  0  0  0  0  0  0  0  0  0
   -1.8769    3.4302    1.6645 H   0  0  0  0  0  0  0  0  0  0  0  0
   -0.2598    3.4806    2.4054 H   0  0  0  0  0  0  0  0  0  0  0  0
   -0.4486    3.7020    0.6489 H   0  0  0  0  0  0  0  0  0  0  0  0
  5  6  2  0  0  0  0
  5  7  1  0  0  0  0
  2  3  1  0  0  0  0
  2  4  1  0  0  0  0
  2  5  1  0  0  0  0
  1  2  1  0  0  0  0
 26 27  2  0  0  0  0
 26 28  1  0  0  0  0
 24 25  1  0  0  0  0
 22 23  1  0  0  0  0
 22 24  2  0  0  0  0
 20 21  1  0  0  0  0
 19 20  1  0  0  0  0
 19 22  1  0  0  0  0
 17 18  1  0  0  0  0
 17 19  2  0  0  0  0
 15 16  1  0  0  0  0
 15 17  1  0  0  0  0
 14 15  2  0  0  0  0
 14 24  1  0  0  0  0
 11 12  1  0  0  0  0
 11 13  1  0  0  0  0
 11 14  1  0  0  0  0
  9 10  1  0  0  0  0
  9 11  1  0  0  0  0
  9 26  1  0  0  0  0
  7  8  1  0  0  0  0
  7  9  1  0  0  0  0
 30 31  1  0  0  0  0
 30 32  1  0  0  0  0
 30 33  1  0  0  0  0
 28 29  1  0  0  0  0
 28 30  1  0  0  0  0
M  END
$$$$
default_name
  -OEChem-02102213163D

 33 33  0     1  0  0  0  0  0999 V2000
   -4.0702   -3.8485    1.4554 H   0  0  0  0  0  0  0  0  0  0  0  0
   -4.0012   -2.9605    0.8284 C   0  0  0  0  0  0  0  0  0  0  0  0
   -4.7652   -2.2435    1.1234 H   0  0  0  0  0  0  0  0  0  0  0  0
   -4.1352   -3.2385   -0.2156 H   0  0  0  0  0  0  0  0  0  0  0  0
   -2.6362   -2.3395    1.0094 C   0  0  0  0  0  0  0  0  0  0  0  0
   -1.8292   -2.8395    1.7814 O   0  0  0  0  0  0  0  0  0  0  0  0
   -2.3832   -1.2445    0.2964 N   0  0  0  0  0  0  0  0  0  0  0  0
   -3.1102   -0.8685   -0.2946 H   0  0  0  0  0  0  0  0  0  0  0  0
   -1.1292   -0.4875    0.3524 C   0  0  1  0  0  0  0  0  0  0  0  0
   -0.5898   -0.7762    1.2552 H   0  0  0  0  0  0  0  0  0  0  0  0
   -0.2608   -0.8470   -0.8656 C   0  0  0  0  0  0  0  0  0  0  0  0
   -0.7973   -1.5690   -1.4826 H   0  0  0  0  0  0  0  0  0  0  0  0
   -0.1095    0.0498   -1.4688 H   0  0  0  0  0  0  0  0  0  0  0  0
    1.0863   -1.4437   -0.5064 C   0  0  0  0  0  0  0  0  0  0  0  0
    1.4310   -2.7377   -0.9456 C   0  0  0  0  0  0  0  0  0  0  0  0
    0.7231   -3.3210   -1.5198 H   0  0  0  0  0  0  0  0  0  0  0  0
    2.6990   -3.2716   -0.6437 C   0  0  0  0  0  0  0  0  0  0  0  0
    2.9590   -4.2634   -0.9803 H   0  0  0  0  0  0  0  0  0  0  0  0
    3.6265   -2.5068    0.0967 C   0  0  0  0  0  0  0  0  0  0  0  0
    4.8530   -3.0115    0.3904 O   0  0  0  0  0  0  0  0  0  0  0  0
    4.9402   -3.9272    0.1224 H   0  0  0  0  0  0  0  0  0  0  0  0
    3.2817   -1.2101    0.5312 C   0  0  0  0  0  0  0  0  0  0  0  0
    3.9978   -0.6368    1.1004 H   0  0  0  0  0  0  0  0  0  0  0  0
    2.0118   -0.6811    0.2318 C   0  0  0  0  0  0  0  0  0  0  0  0
    1.7442    0.3116    0.5739 H   0  0  0  0  0  0  0  0  0  0  0  0
   -1.4018    1.0238    0.4329 C   0  0  0  0  0  0  0  0  0  0  0  0
   -2.2416    1.5423   -0.3033 O   0  0  0  0  0  0  0  0  0  0  0  0
   -0.6927    1.7304    1.3223 N   0  0  0  0  0  0  0  0  0  0  0  0
    0.0178    1.2410    1.8469 H   0  0  0  0  0  0  0  0  0  0  0  0
   -0.8259    3.1712    1.5254 C   0  0  0  0  0  0  0  0  0  0  0  0
   -1.8769    3.4302    1.6645 H   0  0  0  0  0  0  0  0  0  0  0  0
   -0.2598    3.4806    2.4054 H   0  0  0  0  0  0  0  0  0  0  0  0
   -0.4486    3.7020    0.6489 H   0  0  0  0  0  0  0  0  0  0  0  0
  5  6  2  0  0  0  0
  5  7  1  0  0  0  0
  2  3  1  0  0  0  0
  2  4  1  0  0  0  0
  2  5  1  0  0  0  0
  1  2  1  0  0  0  0
 26 27  2  0  0  0  0
 26 28  1  0  0  0  0
 24 25  1  0  0  0  0
 22 23  1  0  0  0  0
 22 24  2  0  0  0  0
 20 21  1  0  0  0  0
 19 20  1  0  0  0  0
 19 22  1  0  0  0  0
 17 18  1  0  0  0  0
 17 19  2  0  0  0  0
 15 16  1  0  0  0  0
 15 17  1  0  0  0  0
 14 15  2  0  0  0  0
 14 24  1  0  0  0  0
 11 12  1  0  0  0  0
 11 13  1  0  0  0  0
 11 14  1  0  0  0  0
  9 10  1  0  0  0  0
  9 11  1  0  0  0  0
  9 26  1  0  0  0  0
  7  8  1  0  0  0  0
  7  9  1  0  0  0  0
 30 31  1  0  0  0  0
 30 32  1  0  0  0  0
 30 33  1  0  0  0  0
 28 29  1  0  0  0  0
 28 30  1  0  0  0  0
M  END
$$$$
default_name
  -OEChem-02102213163D

 33 33  0     1  0  0  0  0  0999 V2000
   -4.0702   -3.8485    1.4554 H   0  0  0  0  0  0  0  0  0  0  0  0
   -4.0012   -2.9605    0.8284 C   0  0  0  0  0  0  0  0  0  0  0  0
   -4.7652   -2.2435    1.1234 H   0  0  0  0  0  0  0  0  0  0  0  0
   -4.1352   -3.2385   -0.2156 H   0  0  0  0  0  0  0  0  0  0  0  0
   -2.6362   -2.3395    1.0094 C   0  0  0  0  0  0  0  0  0  0  0  0
   -1.8292   -2.8395    1.7814 O   0  0  0  0  0  0  0  0  0  0  0  0
   -2.3832   -1.2445    0.2964 N   0  0  0  0  0  0  0  0  0  0  0  0
   -3.1102   -0.8685   -0.2946 H   0  0  0  0  0  0  0  0  0  0  0  0
   -1.1292   -0.4875    0.3524 C   0  0  1  0  0  0  0  0  0  0  0  0
   -0.5898   -0.7762    1.2552 H   0  0  0  0  0  0  0  0  0  0  0  0
   -0.2608   -0.8470   -0.8656 C   0  0  0  0  0  0  0  0  0  0  0  0
   -0.7973   -1.5690   -1.4826 H   0  0  0  0  0  0  0  0  0  0  0  0
   -0.1095    0.0498   -1.4688 H   0  0  0  0  0  0  0  0  0  0  0  0
    1.0863   -1.4437   -0.5064 C   0  0  0  0  0  0  0  0  0  0  0  0
    1.5649   -2.5811   -1.1873 C   0  0  0  0  0  0  0  0  0  0  0  0
    0.9591   -3.0486   -1.9524 H   0  0  0  0  0  0  0  0  0  0  0  0
    2.8342   -3.1073   -0.8780 C   0  0  0  0  0  0  0  0  0  0  0  0
    3.1969   -3.9793   -1.4002 H   0  0  0  0  0  0  0  0  0  0  0  0
    3.6290   -2.4913    0.1132 C   0  0  0  0  0  0  0  0  0  0  0  0
    4.8558   -2.9893    0.4167 O   0  0  0  0  0  0  0  0  0  0  0  0
    5.0348   -3.8119   -0.0408 H   0  0  0  0  0  0  0  0  0  0  0  0
    3.1506   -1.3503    0.7901 C   0  0  0  0  0  0  0  0  0  0  0  0
    3.7657   -0.8908    1.5490 H   0  0  0  0  0  0  0  0  0  0  0  0
    1.8795   -0.8294    0.4819 C   0  0  0  0  0  0  0  0  0  0  0  0
    1.5087    0.0417    1.0088 H   0  0  0  0  0  0  0  0  0  0  0  0
   -1.4018    1.0238    0.4329 C   0  0  0  0  0  0  0  0  0  0  0  0
   -2.2416    1.5423   -0.3033 O   0  0  0  0  0  0  0  0  0  0  0  0
   -0.6927    1.7304    1.3223 N   0  0  0  0  0  0  0  0  0  0  0  0
    0.0178    1.2410    1.8469 H   0  0  0  0  0  0  0  0  0  0  0  0
   -0.8259    3.1712    1.5254 C   0  0  0  0  0  0  0  0  0  0  0  0
   -1.8769    3.4302    1.6645 H   0  0  0  0  0  0  0  0  0  0  0  0
   -0.2598    3.4806    2.4054 H   0  0  0  0  0  0  0  0  0  0  0  0
   -0.4486    3.7020    0.6489 H   0  0  0  0  0  0  0  0  0  0  0  0
  5  6  2  0  0  0  0
  5  7  1  0  0  0  0
  2  3  1  0  0  0  0
  2  4  1  0  0  0  0
  2  5  1  0  0  0  0
  1  2  1  0  0  0  0
 26 27  2  0  0  0  0
 26 28  1  0  0  0  0
 24 25  1  0  0  0  0
 22 23  1  0  0  0  0
 22 24  2  0  0  0  0
 20 21  1  0  0  0  0
 19 20  1  0  0  0  0
 19 22  1  0  0  0  0
 17 18  1  0  0  0  0
 17 19  2  0  0  0  0
 15 16  1  0  0  0  0
 15 17  1  0  0  0  0
 14 15  2  0  0  0  0
 14 24  1  0  0  0  0
 11 12  1  0  0  0  0
 11 13  1  0  0  0  0
 11 14  1  0  0  0  0
  9 10  1  0  0  0  0
  9 11  1  0  0  0  0
  9 26  1  0  0  0  0
  7  8  1  0  0  0  0
  7  9  1  0  0  0  0
 30 31  1  0  0  0  0
 30 32  1  0  0  0  0
 30 33  1  0  0  0  0
 28 29  1  0  0  0  0
 28 30  1  0  0  0  0
M  END
$$$$
default_name
  -OEChem-02102213163D

 33 33  0     1  0  0  0  0  0999 V2000
   -4.0702   -3.8485    1.4554 H   0  0  0  0  0  0  0  0  0  0  0  0
   -4.0012   -2.9605    0.8284 C   0  0  0  0  0  0  0  0  0  0  0  0
   -4.7652   -2.2435    1.1234 H   0  0  0  0  0  0  0  0  0  0  0  0
   -4.1352   -3.2385   -0.2156 H   0  0  0  0  0  0  0  0  0  0  0  0
   -2.6362   -2.3395    1.0094 C   0  0  0  0  0  0  0  0  0  0  0  0
   -1.8292   -2.8395    1.7814 O   0  0  0  0  0  0  0  0  0  0  0  0
   -2.3832   -1.2445    0.2964 N   0  0  0  0  0  0  0  0  0  0  0  0
   -3.1102   -0.8685   -0.2946 H   0  0  0  0  0  0  0  0  0  0  0  0
   -1.1292   -0.4875    0.3524 C   0  0  1  0  0  0  0  0  0  0  0  0
   -0.5898   -0.7762    1.2552 H   0  0  0  0  0  0  0  0  0  0  0  0
   -0.2608   -0.8470   -0.8656 C   0  0  0  0  0  0  0  0  0  0  0  0
   -0.7973   -1.5690   -1.4826 H   0  0  0  0  0  0  0  0  0  0  0  0
   -0.1095    0.0498   -1.4688 H   0  0  0  0  0  0  0  0  0  0  0  0
    1.0863   -1.4437   -0.5064 C   0  0  0  0  0  0  0  0  0  0  0  0
    1.7091   -2.3660   -1.3711 C   0  0  0  0  0  0  0  0  0  0  0  0
    1.2144   -2.6716   -2.2837 H   0  0  0  0  0  0  0  0  0  0  0  0
    2.9786   -2.8864   -1.0527 C   0  0  0  0  0  0  0  0  0  0  0  0
    3.4519   -3.5937   -1.7163 H   0  0  0  0  0  0  0  0  0  0  0  0
    3.6288   -2.4799    0.1329 C   0  0  0  0  0  0  0  0  0  0  0  0
    4.8544   -2.9738    0.4474 O   0  0  0  0  0  0  0  0  0  0  0  0
    5.1357   -3.6572   -0.1624 H   0  0  0  0  0  0  0  0  0  0  0  0
    3.0062   -1.5532    0.9946 C   0  0  0  0  0  0  0  0  0  0  0  0
    3.5114   -1.2535    1.9003 H   0  0  0  0  0  0  0  0  0  0  0  0
    1.7352   -1.0383    0.6758 C   0  0  0  0  0  0  0  0  0  0  0  0
    1.2535   -0.3334    1.3430 H   0  0  0  0  0  0  0  0  0  0  0  0
   -1.4018    1.0238    0.4329 C   0  0  0  0  0  0  0  0  0  0  0  0
   -2.2416    1.5423   -0.3033 O   0  0  0  0  0  0  0  0  0  0  0  0
   -0.6927    1.7304    1.3223 N   0  0  0  0  0  0  0  0  0  0  0  0
    0.0178    1.2410    1.8469 H   0  0  0  0  0  0  0  0  0  0  0  0
   -0.8259    3.1712    1.5254 C   0  0  0  0  0  0  0  0  0  0  0  0
   -1.8769    3.4302    1.6645 H   0  0  0  0  0  0  0  0  0  0  0  0
   -0.2598    3.4806    2.4054 H   0  0  0  0  0  0  0  0  0  0  0  0
   -0.4486    3.7020    0.6489 H   0  0  0  0  0  0  0  0  0  0  0  0
  5  6  2  0  0  0  0
  5  7  1  0  0  0  0
  2  3  1  0  0  0  0
  2  4  1  0  0  0  0
  2  5  1  0  0  0  0
  1  2  1  0  0  0  0
 26 27  2  0  0  0  0
 26 28  1  0  0  0  0
 24 25  1  0  0  0  0
 22 23  1  0  0  0  0
 22 24  2  0  0  0  0
 20 21  1  0  0  0  0
 19 20  1  0  0  0  0
 19 22  1  0  0  0  0
 17 18  1  0  0  0  0
 17 19  2  0  0  0  0
 15 16  1  0  0  0  0
 15 17  1  0  0  0  0
 14 15  2  0  0  0  0
 14 24  1  0  0  0  0
 11 12  1  0  0  0  0
 11 13  1  0  0  0  0
 11 14  1  0  0  0  0
  9 10  1  0  0  0  0
  9 11  1  0  0  0  0
  9 26  1  0  0  0  0
  7  8  1  0  0  0  0
  7  9  1  0  0  0  0
 30 31  1  0  0  0  0
 30 32  1  0  0  0  0
 30 33  1  0  0  0  0
 28 29  1  0  0  0  0
 28 30  1  0  0  0  0
M  END
$$$$
default_name
  -OEChem-02102213163D

 33 33  0     1  0  0  0  0  0999 V2000
   -4.0702   -3.8485    1.4554 H   0  0  0  0  0  0  0  0  0  0  0  0
   -4.0012   -2.9605    0.8284 C   0  0  0  0  0  0  0  0  0  0  0  0
   -4.7652   -2.2435    1.1234 H   0  0  0  0  0  0  0  0  0  0  0  0
   -4.1352   -3.2385   -0.2156 H   0  0  0  0  0  0  0  0  0  0  0  0
   -2.6362   -2.3395    1.0094 C   0  0  0  0  0  0  0  0  0  0  0  0
   -1.8292   -2.8395    1.7814 O   0  0  0  0  0  0  0  0  0  0  0  0
   -2.3832   -1.2445    0.2964 N   0  0  0  0  0  0  0  0  0  0  0  0
   -3.1102   -0.8685   -0.2946 H   0  0  0  0  0  0  0  0  0  0  0  0
   -1.1292   -0.4875    0.3524 C   0  0  1  0  0  0  0  0  0  0  0  0
   -0.5898   -0.7762    1.2552 H   0  0  0  0  0  0  0  0  0  0  0  0
   -0.2608   -0.8470   -0.8656 C   0  0  0  0  0  0  0  0  0  0  0  0
   -0.7973   -1.5690   -1.4826 H   0  0  0  0  0  0  0  0  0  0  0  0
   -0.1095    0.0498   -1.4688 H   0  0  0  0  0  0  0  0  0  0  0  0
    1.0863   -1.4437   -0.5064 C   0  0  0  0  0  0  0  0  0  0  0  0
    1.8540   -2.1071   -1.4845 C   0  0  0  0  0  0  0  0  0  0  0  0
    1.4716   -2.2157   -2.4910 H   0  0  0  0  0  0  0  0  0  0  0  0
    3.1224   -2.6241   -1.1560 C   0  0  0  0  0  0  0  0  0  0  0  0
    3.7069   -3.1329   -1.9071 H   0  0  0  0  0  0  0  0  0  0  0  0
    3.6258   -2.4735    0.1545 C   0  0  0  0  0  0  0  0  0  0  0  0
    4.8491   -2.9660    0.4806 O   0  0  0  0  0  0  0  0  0  0  0  0
    5.2361   -3.4737   -0.2339 H   0  0  0  0  0  0  0  0  0  0  0  0
    2.8583   -1.8051    1.1307 C   0  0  0  0  0  0  0  0  0  0  0  0
    3.2522   -1.7002    2.1304 H   0  0  0  0  0  0  0  0  0  0  0  0
    1.5890   -1.2935    0.8005 C   0  0  0  0  0  0  0  0  0  0  0  0
    0.9959   -0.7882    1.5534 H   0  0  0  0  0  0  0  0  0  0  0  0
   -1.4018    1.0238    0.4329 C   0  0  0  0  0  0  0  0  0  0  0  0
   -2.2416    1.5423   -0.3033 O   0  0  0  0  0  0  0  0  0  0  0  0
   -0.6927    1.7304    1.3223 N   0  0  0  0  0  0  0  0  0  0  0  0
    0.0178    1.2410    1.8469 H   0  0  0  0  0  0  0  0  0  0  0  0
   -0.8259    3.1712    1.5254 C   0  0  0  0  0  0  0  0  0  0  0  0
   -1.8769    3.4302    1.6645 H   0  0  0  0  0  0  0  0  0  0  0  0
   -0.2598    3.4806    2.4054 H   0  0  0  0  0  0  0  0  0  0  0  0
   -0.4486    3.7020    0.6489 H   0  0  0  0  0  0  0  0  0  0  0  0
  5  6  2  0  0  0  0
  5  7  1  0  0  0  0
  2  3  1  0  0  0  0
  2  4  1  0  0  0  0
  2  5  1  0  0  0  0
  1  2  1  0  0  0  0
 26 27  2  0  0  0  0
 26 28  1  0  0  0  0
 24 25  1  0  0  0  0
 22 23  1  0  0  0  0
 22 24  2  0  0  0  0
 20 21  1  0  0  0  0
 19 20  1  0  0  0  0
 19 22  1  0  0  0  0
 17 18  1  0  0  0  0
 17 19  2  0  0  0  0
 15 16  1  0  0  0  0
 15 17  1  0  0  0  0
 14 15  2  0  0  0  0
 14 24  1  0  0  0  0
 11 12  1  0  0  0  0
 11 13  1  0  0  0  0
 11 14  1  0  0  0  0
  9 10  1  0  0  0  0
  9 11  1  0  0  0  0
  9 26  1  0  0  0  0
  7  8  1  0  0  0  0
  7  9  1  0  0  0  0
 30 31  1  0  0  0  0
 30 32  1  0  0  0  0
 30 33  1  0  0  0  0
 28 29  1  0  0  0  0
 28 30  1  0  0  0  0
M  END
$$$$
default_name
  -OEChem-02102213163D

 33 33  0     1  0  0  0  0  0999 V2000
   -4.0702   -3.8485    1.4554 H   0  0  0  0  0  0  0  0  0  0  0  0
   -4.0012   -2.9605    0.8284 C   0  0  0  0  0  0  0  0  0  0  0  0
   -4.7652   -2.2435    1.1234 H   0  0  0  0  0  0  0  0  0  0  0  0
   -4.1352   -3.2385   -0.2156 H   0  0  0  0  0  0  0  0  0  0  0  0
   -2.6362   -2.3395    1.0094 C   0  0  0  0  0  0  0  0  0  0  0  0
   -1.8292   -2.8395    1.7814 O   0  0  0  0  0  0  0  0  0  0  0  0
   -2.3832   -1.2445    0.2964 N   0  0  0  0  0  0  0  0  0  0  0  0
   -3.1102   -0.8685   -0.2946 H   0  0  0  0  0  0  0  0  0  0  0  0
   -1.1292   -0.4875    0.3524 C   0  0  1  0  0  0  0  0  0  0  0  0
   -0.5898   -0.7762    1.2552 H   0  0  0  0  0  0  0  0  0  0  0  0
   -0.2608   -0.8470   -0.8656 C   0  0  0  0  0  0  0  0  0  0  0  0
   -0.8828   -1.3471   -1.6090 H   0  0  0  0  0  0  0  0  0  0  0  0
    0.1123    0.0735   -1.3176 H   0  0  0  0  0  0  0  0  0  0  0  0
    0.9082   -1.7567   -0.5409 C   0  0  0  0  0  0  0  0  0  0  0  0
    1.7916   -2.1705   -1.5582 C   0  0  0  0  0  0  0  0  0  0  0  0
    1.6224   -1.8604   -2.5811 H   0  0  0  0  0  0  0  0  0  0  0  0
    2.8990   -2.9824   -1.2449 C   0  0  0  0  0  0  0  0  0  0  0  0
    3.5725   -3.2986   -2.0266 H   0  0  0  0  0  0  0  0  0  0  0  0
    3.1256   -3.3786    0.0913 C   0  0  0  0  0  0  0  0  0  0  0  0
    4.1925   -4.1590    0.4041 O   0  0  0  0  0  0  0  0  0  0  0  0
    4.6664   -4.4521   -0.3753 H   0  0  0  0  0  0  0  0  0  0  0  0
    2.2435   -2.9596    1.1087 C   0  0  0  0  0  0  0  0  0  0  0  0
    2.4249   -3.2727    2.1258 H   0  0  0  0  0  0  0  0  0  0  0  0
    1.1348   -2.1519    0.7916 C   0  0  0  0  0  0  0  0  0  0  0  0
    0.4523   -1.8380    1.5724 H   0  0  0  0  0  0  0  0  0  0  0  0
   -1.4018    1.0238    0.4329 C   0  0  0  0  0  0  0  0  0  0  0  0
   -2.2416    1.5423   -0.3033 O   0  0  0  0  0  0  0  0  0  0  0  0
   -0.6927    1.7304    1.3223 N   0  0  0  0  0  0  0  0  0  0  0  0
    0.0178    1.2410    1.8469 H   0  0  0  0  0  0  0  0  0  0  0  0
   -0.8259    3.1712    1.5254 C   0  0  0  0  0  0  0  0  0  0  0  0
   -1.8769    3.4302    1.6645 H   0  0  0  0  0  0  0  0  0  0  0  0
   -0.2598    3.4806    2.4054 H   0  0  0  0  0  0  0  0  0  0  0  0
   -0.4486    3.7020    0.6489 H   0  0  0  0  0  0  0  0  0  0  0  0
  5  6  2  0  0  0  0
  5  7  1  0  0  0  0
  2  3  1  0  0  0  0
  2  4  1  0  0  0  0
  2  5  1  0  0  0  0
  1  2  1  0  0  0  0
 26 27  2  0  0  0  0
 26 28  1  0  0  0  0
 24 25  1  0  0  0  0
 22 23  1  0  0  0  0
 22 24  2  0  0  0  0
 20 21  1  0  0  0  0
 19 20  1  0  0  0  0
 19 22  1  0  0  0  0
 17 18  1  0  0  0  0
 17 19  2  0  0  0  0
 15 16  1  0  0  0  0
 15 17  1  0  0  0  0
 14 15  2  0  0  0  0
 14 24  1  0  0  0  0
 11 12  1  0  0  0  0
 11 13  1  0  0  0  0
 11 14  1  0  0  0  0
  9 10  1  0  0  0  0
  9 11  1  0  0  0  0
  9 26  1  0  0  0  0
  7  8  1  0  0  0  0
  7  9  1  0  0  0  0
 30 31  1  0  0  0  0
 30 32  1  0  0  0  0
 30 33  1  0  0  0  0
 28 29  1  0  0  0  0
 28 30  1  0  0  0  0
M  END
$$$$
default_name
  -OEChem-02102213163D

 33 33  0     1  0  0  0  0  0999 V2000
   -4.0702   -3.8485    1.4554 H   0  0  0  0  0  0  0  0  0  0  0  0
   -4.0012   -2.9605    0.8284 C   0  0  0  0  0  0  0  0  0  0  0  0
   -4.7652   -2.2435    1.1234 H   0  0  0  0  0  0  0  0  0  0  0  0
   -4.1352   -3.2385   -0.2156 H   0  0  0  0  0  0  0  0  0  0  0  0
   -2.6362   -2.3395    1.0094 C   0  0  0  0  0  0  0  0  0  0  0  0
   -1.8292   -2.8395    1.7814 O   0  0  0  0  0  0  0  0  0  0  0  0
   -2.3832   -1.2445    0.2964 N   0  0  0  0  0  0  0  0  0  0  0  0
   -3.1102   -0.8685   -0.2946 H   0  0  0  0  0  0  0  0  0  0  0  0
   -1.1292   -0.4875    0.3524 C   0  0  1  0  0  0  0  0  0  0  0  0
   -0.5898   -0.7762    1.2552 H   0  0  0  0  0  0  0  0  0  0  0  0
   -0.2608   -0.8470   -0.8656 C   0  0  0  0  0  0  0  0  0  0  0  0
   -0.8828   -1.3471   -1.6090 H   0  0  0  0  0  0  0  0  0  0  0  0
    0.1123    0.0735   -1.3176 H   0  0  0  0  0  0  0  0  0  0  0  0
    0.9082   -1.7567   -0.5409 C   0  0  0  0  0  0  0  0  0  0  0  0
    1.9610   -1.9190   -1.4637 C   0  0  0  0  0  0  0  0  0  0  0  0
    1.9252   -1.4139   -2.4201 H   0  0  0  0  0  0  0  0  0  0  0  0
    3.0641   -2.7332   -1.1409 C   0  0  0  0  0  0  0  0  0  0  0  0
    3.8677   -2.8564   -1.8505 H   0  0  0  0  0  0  0  0  0  0  0  0
    3.1158   -3.3842    0.1110 C   0  0  0  0  0  0  0  0  0  0  0  0
    4.1766   -4.1691    0.4330 O   0  0  0  0  0  0  0  0  0  0  0  0
    4.7815   -4.2781   -0.3020 H   0  0  0  0  0  0  0  0  0  0  0  0
    2.0638   -3.2167    1.0351 C   0  0  0  0  0  0  0  0  0  0  0  0
    2.1127   -3.7232    1.9873 H   0  0  0  0  0  0  0  0  0  0  0  0
    0.9604   -2.4060    0.7076 C   0  0  0  0  0  0  0  0  0  0  0  0
    0.1481   -2.2852    1.4145 H   0  0  0  0  0  0  0  0  0  0  0  0
   -1.4018    1.0238    0.4329 C   0  0  0  0  0  0  0  0  0  0  0  0
   -2.2416    1.5423   -0.3033 O   0  0  0  0  0  0  0  0  0  0  0  0
   -0.6927    1.7304    1.3223 N   0  0  0  0  0  0  0  0  0  0  0  0
    0.0178    1.2410    1.8469 H   0  0  0  0  0  0  0  0  0  0  0  0
   -0.8259    3.1712    1.5254 C   0  0  0  0  0  0  0  0  0  0  0  0
   -1.8769    3.4302    1.6645 H   0  0  0  0  0  0  0  0  0  0  0  0
   -0.2598    3.4806    2.4054 H   0  0  0  0  0  0  0  0  0  0  0  0
   -0.4486    3.7020    0.6489 H   0  0  0  0  0  0  0  0  0  0  0  0
  5  6  2  0  0  0  0
  5  7  1  0  0  0  0
  2  3  1  0  0  0  0
  2  4  1  0  0  0  0
  2  5  1  0  0  0  0
  1  2  1  0  0  0  0
 26 27  2  0  0  0  0
 26 28  1  0  0  0  0
 24 25  1  0  0  0  0
 22 23  1  0  0  0  0
 22 24  2  0  0  0  0
 20 21  1  0  0  0  0
 19 20  1  0  0  0  0
 19 22  1  0  0  0  0
 17 18  1  0  0  0  0
 17 19  2  0  0  0  0
 15 16  1  0  0  0  0
 15 17  1  0  0  0  0
 14 15  2  0  0  0  0
 14 24  1  0  0  0  0
 11 12  1  0  0  0  0
 11 13  1  0  0  0  0
 11 14  1  0  0  0  0
  9 10  1  0  0  0  0
  9 11  1  0  0  0  0
  9 26  1  0  0  0  0
  7  8  1  0  0  0  0
  7  9  1  0  0  0  0
 30 31  1  0  0  0  0
 30 32  1  0  0  0  0
 30 33  1  0  0  0  0
 28 29  1  0  0  0  0
 28 30  1  0  0  0  0
M  END
$$$$
default_name
  -OEChem-02102213163D

 33 33  0     1  0  0  0  0  0999 V2000
   -4.0702   -3.8485    1.4554 H   0  0  0  0  0  0  0  0  0  0  0  0
   -4.0012   -2.9605    0.8284 C   0  0  0  0  0  0  0  0  0  0  0  0
   -4.7652   -2.2435    1.1234 H   0  0  0  0  0  0  0  0  0  0  0  0
   -4.1352   -3.2385   -0.2156 H   0  0  0  0  0  0  0  0  0  0  0  0
   -2.6362   -2.3395    1.0094 C   0  0  0  0  0  0  0  0  0  0  0  0
   -1.8292   -2.8395    1.7814 O   0  0  0  0  0  0  0  0  0  0  0  0
   -2.3832   -1.2445    0.2964 N   0  0  0  0  0  0  0  0  0  0  0  0
   -3.1102   -0.8685   -0.2946 H   0  0  0  0  0  0  0  0  0  0  0  0
   -1.1292   -0.4875    0.3524 C   0  0  1  0  0  0  0  0  0  0  0  0
   -0.5898   -0.7762    1.2552 H   0  0  0  0  0  0  0  0  0  0  0  0
   -0.2608   -0.8470   -0.8656 C   0  0  0  0  0  0  0  0  0  0  0  0
   -0.8828   -1.3471   -1.6090 H   0  0  0  0  0  0  0  0  0  0  0  0
    0.1123    0.0735   -1.3176 H   0  0  0  0  0  0  0  0  0  0  0  0
    0.9082   -1.7567   -0.5409 C   0  0  0  0  0  0  0  0  0  0  0  0
    2.0961   -1.6856   -1.2960 C   0  0  0  0  0  0  0  0  0  0  0  0
    2.1680   -0.9979   -2.1285 H   0  0  0  0  0  0  0  0  0  0  0  0
    3.1935   -2.5041   -0.9651 C   0  0  0  0  0  0  0  0  0  0  0  0
    4.1010   -2.4481   -1.5464 H   0  0  0  0  0  0  0  0  0  0  0  0
    3.1035   -3.3941    0.1274 C   0  0  0  0  0  0  0  0  0  0  0  0
    4.1573   -4.1855    0.4564 O   0  0  0  0  0  0  0  0  0  0  0  0
    4.8716   -4.1182   -0.1786 H   0  0  0  0  0  0  0  0  0  0  0  0
    1.9158   -3.4604    0.8849 C   0  0  0  0  0  0  0  0  0  0  0  0
    1.8577   -4.1481    1.7151 H   0  0  0  0  0  0  0  0  0  0  0  0
    0.8190   -2.6443    0.5487 C   0  0  0  0  0  0  0  0  0  0  0  0
   -0.0964   -2.7026    1.1255 H   0  0  0  0  0  0  0  0  0  0  0  0
   -1.4018    1.0238    0.4329 C   0  0  0  0  0  0  0  0  0  0  0  0
   -2.2416    1.5423   -0.3033 O   0  0  0  0  0  0  0  0  0  0  0  0
   -0.6927    1.7304    1.3223 N   0  0  0  0  0  0  0  0  0  0  0  0
    0.0178    1.2410    1.8469 H   0  0  0  0  0  0  0  0  0  0  0  0
   -0.8259    3.1712    1.5254 C   0  0  0  0  0  0  0  0  0  0  0  0
   -1.8769    3.4302    1.6645 H   0  0  0  0  0  0  0  0  0  0  0  0
   -0.2598    3.4806    2.4054 H   0  0  0  0  0  0  0  0  0  0  0  0
   -0.4486    3.7020    0.6489 H   0  0  0  0  0  0  0  0  0  0  0  0
  5  6  2  0  0  0  0
  5  7  1  0  0  0  0
  2  3  1  0  0  0  0
  2  4  1  0  0  0  0
  2  5  1  0  0  0  0
  1  2  1  0  0  0  0
 26 27  2  0  0  0  0
 26 28  1  0  0  0  0
 24 25  1  0  0  0  0
 22 23  1  0  0  0  0
 22 24  2  0  0  0  0
 20 21  1  0  0  0  0
 19 20  1  0  0  0  0
 19 22  1  0  0  0  0
 17 18  1  0  0  0  0
 17 19  2  0  0  0  0
 15 16  1  0  0  0  0
 15 17  1  0  0  0  0
 14 15  2  0  0  0  0
 14 24  1  0  0  0  0
 11 12  1  0  0  0  0
 11 13  1  0  0  0  0
 11 14  1  0  0  0  0
  9 10  1  0  0  0  0
  9 11  1  0  0  0  0
  9 26  1  0  0  0  0
  7  8  1  0  0  0  0
  7  9  1  0  0  0  0
 30 31  1  0  0  0  0
 30 32  1  0  0  0  0
 30 33  1  0  0  0  0
 28 29  1  0  0  0  0
 28 30  1  0  0  0  0
M  END
$$$$
default_name
  -OEChem-02102213163D

 33 33  0     1  0  0  0  0  0999 V2000
   -4.0702   -3.8485    1.4554 H   0  0  0  0  0  0  0  0  0  0  0  0
   -4.0012   -2.9605    0.8284 C   0  0  0  0  0  0  0  0  0  0  0  0
   -4.7652   -2.2435    1.1234 H   0  0  0  0  0  0  0  0  0  0  0  0
   -4.1352   -3.2385   -0.2156 H   0  0  0  0  0  0  0  0  0  0  0  0
   -2.6362   -2.3395    1.0094 C   0  0  0  0  0  0  0  0  0  0  0  0
   -1.8292   -2.8395    1.7814 O   0  0  0  0  0  0  0  0  0  0  0  0
   -2.3832   -1.2445    0.2964 N   0  0  0  0  0  0  0  0  0  0  0  0
   -3.1102   -0.8685   -0.2946 H   0  0  0  0  0  0  0  0  0  0  0  0
   -1.1292   -0.4875    0.3524 C   0  0  1  0  0  0  0  0  0  0  0  0
   -0.5898   -0.7762    1.2552 H   0  0  0  0  0  0  0  0  0  0  0  0
   -0.2608   -0.8470   -0.8656 C   0  0  0  0  0  0  0  0  0  0  0  0
   -0.8828   -1.3471   -1.6090 H   0  0  0  0  0  0  0  0  0  0  0  0
    0.1123    0.0735   -1.3176 H   0  0  0  0  0  0  0  0  0  0  0  0
    0.9082   -1.7567   -0.5409 C   0  0  0  0  0  0  0  0  0  0  0  0
    2.1876   -1.4861   -1.0665 C   0  0  0  0  0  0  0  0  0  0  0  0
    2.3341   -0.6408   -1.7261 H   0  0  0  0  0  0  0  0  0  0  0  0
    3.2786   -2.3107   -0.7295 C   0  0  0  0  0  0  0  0  0  0  0  0
    4.2565   -2.1014   -1.1350 H   0  0  0  0  0  0  0  0  0  0  0  0
    3.0897   -3.4076    0.1393 C   0  0  0  0  0  0  0  0  0  0  0  0
    4.1360   -4.2071    0.4728 O   0  0  0  0  0  0  0  0  0  0  0  0
    4.9306   -3.9835   -0.0136 H   0  0  0  0  0  0  0  0  0  0  0  0
    1.8098   -3.6741    0.6682 C   0  0  0  0  0  0  0  0  0  0  0  0
    1.6771   -4.5183    1.3279 H   0  0  0  0  0  0  0  0  0  0  0  0
    0.7204   -2.8507    0.3258 C   0  0  0  0  0  0  0  0  0  0  0  0
   -0.2646   -3.0615    0.7251 H   0  0  0  0  0  0  0  0  0  0  0  0
   -1.4018    1.0238    0.4329 C   0  0  0  0  0  0  0  0  0  0  0  0
   -2.2416    1.5423   -0.3033 O   0  0  0  0  0  0  0  0  0  0  0  0
   -0.6927    1.7304    1.3223 N   0  0  0  0  0  0  0  0  0  0  0  0
    0.0178    1.2410    1.8469 H   0  0  0  0  0  0  0  0  0  0  0  0
   -0.8259    3.1712    1.5254 C   0  0  0  0  0  0  0  0  0  0  0  0
   -1.8769    3.4302    1.6645 H   0  0  0  0  0  0  0  0  0  0  0  0
   -0.2598    3.4806    2.4054 H   0  0  0  0  0  0  0  0  0  0  0  0
   -0.4486    3.7020    0.6489 H   0  0  0  0  0  0  0  0  0  0  0  0
  5  6  2  0  0  0  0
  5  7  1  0  0  0  0
  2  3  1  0  0  0  0
  2  4  1  0  0  0  0
  2  5  1  0  0  0  0
  1  2  1  0  0  0  0
 26 27  2  0  0  0  0
 26 28  1  0  0  0  0
 24 25  1  0  0  0  0
 22 23  1  0  0  0  0
 22 24  2  0  0  0  0
 20 21  1  0  0  0  0
 19 20  1  0  0  0  0
 19 22  1  0  0  0  0
 17 18  1  0  0  0  0
 17 19  2  0  0  0  0
 15 16  1  0  0  0  0
 15 17  1  0  0  0  0
 14 15  2  0  0  0  0
 14 24  1  0  0  0  0
 11 12  1  0  0  0  0
 11 13  1  0  0  0  0
 11 14  1  0  0  0  0
  9 10  1  0  0  0  0
  9 11  1  0  0  0  0
  9 26  1  0  0  0  0
  7  8  1  0  0  0  0
  7  9  1  0  0  0  0
 30 31  1  0  0  0  0
 30 32  1  0  0  0  0
 30 33  1  0  0  0  0
 28 29  1  0  0  0  0
 28 30  1  0  0  0  0
M  END
$$$$
default_name
  -OEChem-02102213163D

 33 33  0     1  0  0  0  0  0999 V2000
   -4.0702   -3.8485    1.4554 H   0  0  0  0  0  0  0  0  0  0  0  0
   -4.0012   -2.9605    0.8284 C   0  0  0  0  0  0  0  0  0  0  0  0
   -4.7652   -2.2435    1.1234 H   0  0  0  0  0  0  0  0  0  0  0  0
   -4.1352   -3.2385   -0.2156 H   0  0  0  0  0  0  0  0  0  0  0  0
   -2.6362   -2.3395    1.0094 C   0  0  0  0  0  0  0  0  0  0  0  0
   -1.8292   -2.8395    1.7814 O   0  0  0  0  0  0  0  0  0  0  0  0
   -2.3832   -1.2445    0.2964 N   0  0  0  0  0  0  0  0  0  0  0  0
   -3.1102   -0.8685   -0.2946 H   0  0  0  0  0  0  0  0  0  0  0  0
   -1.1292   -0.4875    0.3524 C   0  0  1  0  0  0  0  0  0  0  0  0
   -0.5898   -0.7762    1.2552 H   0  0  0  0  0  0  0  0  0  0  0  0
   -0.2608   -0.8470   -0.8656 C   0  0  0  0  0  0  0  0  0  0  0  0
   -0.8828   -1.3471   -1.6090 H   0  0  0  0  0  0  0  0  0  0  0  0
    0.1123    0.0735   -1.3176 H   0  0  0  0  0  0  0  0  0  0  0  0
    0.9082   -1.7567   -0.5409 C   0  0  0  0  0  0  0  0  0  0  0  0
    2.2293   -1.3341   -0.7907 C   0  0  0  0  0  0  0  0  0  0  0  0
    2.4123   -0.3669   -1.2404 H   0  0  0  0  0  0  0  0  0  0  0  0
    3.3135   -2.1662   -0.4501 C   0  0  0  0  0  0  0  0  0  0  0  0
    4.3237   -1.8400   -0.6442 H   0  0  0  0  0  0  0  0  0  0  0  0
    3.0752   -3.4238    0.1460 C   0  0  0  0  0  0  0  0  0  0  0  0
    4.1141   -4.2324    0.4809 O   0  0  0  0  0  0  0  0  0  0  0  0
    4.9546   -3.8830    0.1819 H   0  0  0  0  0  0  0  0  0  0  0  0
    1.7528   -3.8430    0.3997 C   0  0  0  0  0  0  0  0  0  0  0  0
    1.5834   -4.8086    0.8519 H   0  0  0  0  0  0  0  0  0  0  0  0
    0.6711   -3.0110    0.0539 C   0  0  0  0  0  0  0  0  0  0  0  0
   -0.3450   -3.3377    0.2406 H   0  0  0  0  0  0  0  0  0  0  0  0
   -1.4018    1.0238    0.4329 C   0  0  0  0  0  0  0  0  0  0  0  0
   -2.2416    1.5423   -0.3033 O   0  0  0  0  0  0  0  0  0  0  0  0
   -0.6927    1.7304    1.3223 N   0  0  0  0  0  0  0  0  0  0  0  0
    0.0178    1.2410    1.8469 H   0  0  0  0  0  0  0  0  0  0  0  0
   -0.8259    3.1712    1.5254 C   0  0  0  0  0  0  0  0  0  0  0  0
   -1.8769    3.4302    1.6645 H   0  0  0  0  0  0  0  0  0  0  0  0
   -0.2598    3.4806    2.4054 H   0  0  0  0  0  0  0  0  0  0  0  0
   -0.4486    3.7020    0.6489 H   0  0  0  0  0  0  0  0  0  0  0  0
  5  6  2  0  0  0  0
  5  7  1  0  0  0  0
  2  3  1  0  0  0  0
  2  4  1  0  0  0  0
  2  5  1  0  0  0  0
  1  2  1  0  0  0  0
 26 27  2  0  0  0  0
 26 28  1  0  0  0  0
 24 25  1  0  0  0  0
 22 23  1  0  0  0  0
 22 24  2  0  0  0  0
 20 21  1  0  0  0  0
 19 20  1  0  0  0  0
 19 22  1  0  0  0  0
 17 18  1  0  0  0  0
 17 19  2  0  0  0  0
 15 16  1  0  0  0  0
 15 17  1  0  0  0  0
 14 15  2  0  0  0  0
 14 24  1  0  0  0  0
 11 12  1  0  0  0  0
 11 13  1  0  0  0  0
 11 14  1  0  0  0  0
  9 10  1  0  0  0  0
  9 11  1  0  0  0  0
  9 26  1  0  0  0  0
  7  8  1  0  0  0  0
  7  9  1  0  0  0  0
 30 31  1  0  0  0  0
 30 32  1  0  0  0  0
 30 33  1  0  0  0  0
 28 29  1  0  0  0  0
 28 30  1  0  0  0  0
M  END
$$$$
default_name
  -OEChem-02102213163D

 33 33  0     1  0  0  0  0  0999 V2000
   -4.0702   -3.8485    1.4554 H   0  0  0  0  0  0  0  0  0  0  0  0
   -4.0012   -2.9605    0.8284 C   0  0  0  0  0  0  0  0  0  0  0  0
   -4.7652   -2.2435    1.1234 H   0  0  0  0  0  0  0  0  0  0  0  0
   -4.1352   -3.2385   -0.2156 H   0  0  0  0  0  0  0  0  0  0  0  0
   -2.6362   -2.3395    1.0094 C   0  0  0  0  0  0  0  0  0  0  0  0
   -1.8292   -2.8395    1.7814 O   0  0  0  0  0  0  0  0  0  0  0  0
   -2.3832   -1.2445    0.2964 N   0  0  0  0  0  0  0  0  0  0  0  0
   -3.1102   -0.8685   -0.2946 H   0  0  0  0  0  0  0  0  0  0  0  0
   -1.1292   -0.4875    0.3524 C   0  0  1  0  0  0  0  0  0  0  0  0
   -0.5898   -0.7762    1.2552 H   0  0  0  0  0  0  0  0  0  0  0  0
   -0.2608   -0.8470   -0.8656 C   0  0  0  0  0  0  0  0  0  0  0  0
   -0.8828   -1.3471   -1.6090 H   0  0  0  0  0  0  0  0  0  0  0  0
    0.1123    0.0735   -1.3176 H   0  0  0  0  0  0  0  0  0  0  0  0
    0.9082   -1.7567   -0.5409 C   0  0  0  0  0  0  0  0  0  0  0  0
    2.2183   -1.2400   -0.4876 C   0  0  0  0  0  0  0  0  0  0  0  0
    2.3973   -0.1950   -0.7044 H   0  0  0  0  0  0  0  0  0  0  0  0
    3.2957   -2.0804   -0.1459 C   0  0  0  0  0  0  0  0  0  0  0  0
    4.2978   -1.6817   -0.1076 H   0  0  0  0  0  0  0  0  0  0  0  0
    3.0611   -3.4416    0.1470 C   0  0  0  0  0  0  0  0  0  0  0  0
    4.0930   -4.2596    0.4804 O   0  0  0  0  0  0  0  0  0  0  0  0
    4.9418   -3.8236    0.3945 H   0  0  0  0  0  0  0  0  0  0  0  0
    1.7488   -3.9559    0.0979 C   0  0  0  0  0  0  0  0  0  0  0  0
    1.5828   -4.9993    0.3197 H   0  0  0  0  0  0  0  0  0  0  0  0
    0.6746   -3.1143   -0.2484 C   0  0  0  0  0  0  0  0  0  0  0  0
   -0.3321   -3.5123   -0.2949 H   0  0  0  0  0  0  0  0  0  0  0  0
   -1.4018    1.0238    0.4329 C   0  0  0  0  0  0  0  0  0  0  0  0
   -2.2416    1.5423   -0.3033 O   0  0  0  0  0  0  0  0  0  0  0  0
   -0.6927    1.7304    1.3223 N   0  0  0  0  0  0  0  0  0  0  0  0
    0.0178    1.2410    1.8469 H   0  0  0  0  0  0  0  0  0  0  0  0
   -0.8259    3.1712    1.5254 C   0  0  0  0  0  0  0  0  0  0  0  0
   -1.8769    3.4302    1.6645 H   0  0  0  0  0  0  0  0  0  0  0  0
   -0.2598    3.4806    2.4054 H   0  0  0  0  0  0  0  0  0  0  0  0
   -0.4486    3.7020    0.6489 H   0  0  0  0  0  0  0  0  0  0  0  0
  5  6  2  0  0  0  0
  5  7  1  0  0  0  0
  2  3  1  0  0  0  0
  2  4  1  0  0  0  0
  2  5  1  0  0  0  0
  1  2  1  0  0  0  0
 26 27  2  0  0  0  0
 26 28  1  0  0  0  0
 24 25  1  0  0  0  0
 22 23  1  0  0  0  0
 22 24  2  0  0  0  0
 20 21  1  0  0  0  0
 19 20  1  0  0  0  0
 19 22  1  0  0  0  0
 17 18  1  0  0  0  0
 17 19  2  0  0  0  0
 15 16  1  0  0  0  0
 15 17  1  0  0  0  0
 14 15  2  0  0  0  0
 14 24  1  0  0  0  0
 11 12  1  0  0  0  0
 11 13  1  0  0  0  0
 11 14  1  0  0  0  0
  9 10  1  0  0  0  0
  9 11  1  0  0  0  0
  9 26  1  0  0  0  0
  7  8  1  0  0  0  0
  7  9  1  0  0  0  0
 30 31  1  0  0  0  0
 30 32  1  0  0  0  0
 30 33  1  0  0  0  0
 28 29  1  0  0  0  0
 28 30  1  0  0  0  0
M  END
$$$$
default_name
  -OEChem-02102213163D

 33 33  0     1  0  0  0  0  0999 V2000
   -4.0702   -3.8485    1.4554 H   0  0  0  0  0  0  0  0  0  0  0  0
   -4.0012   -2.9605    0.8284 C   0  0  0  0  0  0  0  0  0  0  0  0
   -4.7652   -2.2435    1.1234 H   0  0  0  0  0  0  0  0  0  0  0  0
   -4.1352   -3.2385   -0.2156 H   0  0  0  0  0  0  0  0  0  0  0  0
   -2.6362   -2.3395    1.0094 C   0  0  0  0  0  0  0  0  0  0  0  0
   -1.8292   -2.8395    1.7814 O   0  0  0  0  0  0  0  0  0  0  0  0
   -2.3832   -1.2445    0.2964 N   0  0  0  0  0  0  0  0  0  0  0  0
   -3.1102   -0.8685   -0.2946 H   0  0  0  0  0  0  0  0  0  0  0  0
   -1.1292   -0.4875    0.3524 C   0  0  1  0  0  0  0  0  0  0  0  0
   -0.5898   -0.7762    1.2552 H   0  0  0  0  0  0  0  0  0  0  0  0
   -0.2608   -0.8470   -0.8656 C   0  0  0  0  0  0  0  0  0  0  0  0
   -0.8828   -1.3471   -1.6090 H   0  0  0  0  0  0  0  0  0  0  0  0
    0.1123    0.0735   -1.3176 H   0  0  0  0  0  0  0  0  0  0  0  0
    0.9082   -1.7567   -0.5409 C   0  0  0  0  0  0  0  0  0  0  0  0
    2.1555   -1.2102   -0.1777 C   0  0  0  0  0  0  0  0  0  0  0  0
    2.2900   -0.1367   -0.1548 H   0  0  0  0  0  0  0  0  0  0  0  0
    3.2267   -2.0593    0.1622 C   0  0  0  0  0  0  0  0  0  0  0  0
    4.1808   -1.6373    0.4383 H   0  0  0  0  0  0  0  0  0  0  0  0
    3.0483   -3.4598    0.1422 C   0  0  0  0  0  0  0  0  0  0  0  0
    4.0742   -4.2870    0.4711 O   0  0  0  0  0  0  0  0  0  0  0  0
    4.8931   -3.8093    0.6097 H   0  0  0  0  0  0  0  0  0  0  0  0
    1.7981   -4.0048   -0.2168 C   0  0  0  0  0  0  0  0  0  0  0  0
    1.6754   -5.0773   -0.2326 H   0  0  0  0  0  0  0  0  0  0  0  0
    0.7307   -3.1536   -0.5604 C   0  0  0  0  0  0  0  0  0  0  0  0
   -0.2268   -3.5733   -0.8451 H   0  0  0  0  0  0  0  0  0  0  0  0
   -1.4018    1.0238    0.4329 C   0  0  0  0  0  0  0  0  0  0  0  0
   -2.2416    1.5423   -0.3033 O   0  0  0  0  0  0  0  0  0  0  0  0
   -0.6927    1.7304    1.3223 N   0  0  0  0  0  0  0  0  0  0  0  0
    0.0178    1.2410    1.8469 H   0  0  0  0  0  0  0  0  0  0  0  0
   -0.8259    3.1712    1.5254 C   0  0  0  0  0  0  0  0  0  0  0  0
   -1.8769    3.4302    1.6645 H   0  0  0  0  0  0  0  0  0  0  0  0
   -0.2598    3.4806    2.4054 H   0  0  0  0  0  0  0  0  0  0  0  0
   -0.4486    3.7020    0.6489 H   0  0  0  0  0  0  0  0  0  0  0  0
  5  6  2  0  0  0  0
  5  7  1  0  0  0  0
  2  3  1  0  0  0  0
  2  4  1  0  0  0  0
  2  5  1  0  0  0  0
  1  2  1  0  0  0  0
 26 27  2  0  0  0  0
 26 28  1  0  0  0  0
 24 25  1  0  0  0  0
 22 23  1  0  0  0  0
 22 24  2  0  0  0  0
 20 21  1  0  0  0  0
 19 20  1  0  0  0  0
 19 22  1  0  0  0  0
 17 18  1  0  0  0  0
 17 19  2  0  0  0  0
 15 16  1  0  0  0  0
 15 17  1  0  0  0  0
 14 15  2  0  0  0  0
 14 24  1  0  0  0  0
 11 12  1  0  0  0  0
 11 13  1  0  0  0  0
 11 14  1  0  0  0  0
  9 10  1  0  0  0  0
  9 11  1  0  0  0  0
  9 26  1  0  0  0  0
  7  8  1  0  0  0  0
  7  9  1  0  0  0  0
 30 31  1  0  0  0  0
 30 32  1  0  0  0  0
 30 33  1  0  0  0  0
 28 29  1  0  0  0  0
 28 30  1  0  0  0  0
M  END
$$$$
default_name
  -OEChem-02102213163D

 33 33  0     1  0  0  0  0  0999 V2000
   -4.0702   -3.8485    1.4554 H   0  0  0  0  0  0  0  0  0  0  0  0
   -4.0012   -2.9605    0.8284 C   0  0  0  0  0  0  0  0  0  0  0  0
   -4.7652   -2.2435    1.1234 H   0  0  0  0  0  0  0  0  0  0  0  0
   -4.1352   -3.2385   -0.2156 H   0  0  0  0  0  0  0  0  0  0  0  0
   -2.6362   -2.3395    1.0094 C   0  0  0  0  0  0  0  0  0  0  0  0
   -1.8292   -2.8395    1.7814 O   0  0  0  0  0  0  0  0  0  0  0  0
   -2.3832   -1.2445    0.2964 N   0  0  0  0  0  0  0  0  0  0  0  0
   -3.1102   -0.8685   -0.2946 H   0  0  0  0  0  0  0  0  0  0  0  0
   -1.1292   -0.4875    0.3524 C   0  0  1  0  0  0  0  0  0  0  0  0
   -0.5898   -0.7762    1.2552 H   0  0  0  0  0  0  0  0  0  0  0  0
   -0.2608   -0.8470   -0.8656 C   0  0  0  0  0  0  0  0  0  0  0  0
   -0.8828   -1.3471   -1.6090 H   0  0  0  0  0  0  0  0  0  0  0  0
    0.1123    0.0735   -1.3176 H   0  0  0  0  0  0  0  0  0  0  0  0
    0.9082   -1.7567   -0.5409 C   0  0  0  0  0  0  0  0  0  0  0  0
    2.0450   -1.2467    0.1178 C   0  0  0  0  0  0  0  0  0  0  0  0
    2.0979   -0.1960    0.3712 H   0  0  0  0  0  0  0  0  0  0  0  0
    3.1109   -2.1041    0.4533 C   0  0  0  0  0  0  0  0  0  0  0  0
    3.9805   -1.7099    0.9563 H   0  0  0  0  0  0  0  0  0  0  0  0
    3.0377   -3.4771    0.1320 C   0  0  0  0  0  0  0  0  0  0  0  0
    4.0591   -4.3127    0.4538 O   0  0  0  0  0  0  0  0  0  0  0  0
    4.8119   -3.8412    0.8128 H   0  0  0  0  0  0  0  0  0  0  0  0
    1.8973   -3.9866   -0.5229 C   0  0  0  0  0  0  0  0  0  0  0  0
    1.8550   -5.0374   -0.7672 H   0  0  0  0  0  0  0  0  0  0  0  0
    0.8355   -3.1262   -0.8609 C   0  0  0  0  0  0  0  0  0  0  0  0
   -0.0363   -3.5167   -1.3723 H   0  0  0  0  0  0  0  0  0  0  0  0
   -1.4018    1.0238    0.4329 C   0  0  0  0  0  0  0  0  0  0  0  0
   -2.2416    1.5423   -0.3033 O   0  0  0  0  0  0  0  0  0  0  0  0
   -0.6927    1.7304    1.3223 N   0  0  0  0  0  0  0  0  0  0  0  0
    0.0178    1.2410    1.8469 H   0  0  0  0  0  0  0  0  0  0  0  0
   -0.8259    3.1712    1.5254 C   0  0  0  0  0  0  0  0  0  0  0  0
   -1.8769    3.4302    1.6645 H   0  0  0  0  0  0  0  0  0  0  0  0
   -0.2598    3.4806    2.4054 H   0  0  0  0  0  0  0  0  0  0  0  0
   -0.4486    3.7020    0.6489 H   0  0  0  0  0  0  0  0  0  0  0  0
  5  6  2  0  0  0  0
  5  7  1  0  0  0  0
  2  3  1  0  0  0  0
  2  4  1  0  0  0  0
  2  5  1  0  0  0  0
  1  2  1  0  0  0  0
 26 27  2  0  0  0  0
 26 28  1  0  0  0  0
 24 25  1  0  0  0  0
 22 23  1  0  0  0  0
 22 24  2  0  0  0  0
 20 21  1  0  0  0  0
 19 20  1  0  0  0  0
 19 22  1  0  0  0  0
 17 18  1  0  0  0  0
 17 19  2  0  0  0  0
 15 16  1  0  0  0  0
 15 17  1  0  0  0  0
 14 15  2  0  0  0  0
 14 24  1  0  0  0  0
 11 12  1  0  0  0  0
 11 13  1  0  0  0  0
 11 14  1  0  0  0  0
  9 10  1  0  0  0  0
  9 11  1  0  0  0  0
  9 26  1  0  0  0  0
  7  8  1  0  0  0  0
  7  9  1  0  0  0  0
 30 31  1  0  0  0  0
 30 32  1  0  0  0  0
 30 33  1  0  0  0  0
 28 29  1  0  0  0  0
 28 30  1  0  0  0  0
M  END
$$$$
default_name
  -OEChem-02102213163D

 33 33  0     1  0  0  0  0  0999 V2000
   -4.0702   -3.8485    1.4554 H   0  0  0  0  0  0  0  0  0  0  0  0
   -4.0012   -2.9605    0.8284 C   0  0  0  0  0  0  0  0  0  0  0  0
   -4.7652   -2.2435    1.1234 H   0  0  0  0  0  0  0  0  0  0  0  0
   -4.1352   -3.2385   -0.2156 H   0  0  0  0  0  0  0  0  0  0  0  0
   -2.6362   -2.3395    1.0094 C   0  0  0  0  0  0  0  0  0  0  0  0
   -1.8292   -2.8395    1.7814 O   0  0  0  0  0  0  0  0  0  0  0  0
   -2.3832   -1.2445    0.2964 N   0  0  0  0  0  0  0  0  0  0  0  0
   -3.1102   -0.8685   -0.2946 H   0  0  0  0  0  0  0  0  0  0  0  0
   -1.1292   -0.4875    0.3524 C   0  0  1  0  0  0  0  0  0  0  0  0
   -0.5898   -0.7762    1.2552 H   0  0  0  0  0  0  0  0  0  0  0  0
   -0.2608   -0.8470   -0.8656 C   0  0  0  0  0  0  0  0  0  0  0  0
   -0.8828   -1.3471   -1.6090 H   0  0  0  0  0  0  0  0  0  0  0  0
    0.1123    0.0735   -1.3176 H   0  0  0  0  0  0  0  0  0  0  0  0
    0.9082   -1.7567   -0.5409 C   0  0  0  0  0  0  0  0  0  0  0  0
    1.8944   -1.3471    0.3788 C   0  0  0  0  0  0  0  0  0  0  0  0
    1.8339   -0.3688    0.8375 H   0  0  0  0  0  0  0  0  0  0  0  0
    2.9564   -2.2119    0.7076 C   0  0  0  0  0  0  0  0  0  0  0  0
    3.7107   -1.8944    1.4111 H   0  0  0  0  0  0  0  0  0  0  0  0
    3.0300   -3.4923    0.1170 C   0  0  0  0  0  0  0  0  0  0  0  0
    4.0486   -4.3348    0.4296 O   0  0  0  0  0  0  0  0  0  0  0  0
    4.7037   -3.9170    0.9901 H   0  0  0  0  0  0  0  0  0  0  0  0
    2.0396   -3.9024   -0.7995 C   0  0  0  0  0  0  0  0  0  0  0  0
    2.1092   -4.8821   -1.2477 H   0  0  0  0  0  0  0  0  0  0  0  0
    0.9818   -3.0340   -1.1295 C   0  0  0  0  0  0  0  0  0  0  0  0
    0.2264   -3.3462   -1.8407 H   0  0  0  0  0  0  0  0  0  0  0  0
   -1.4018    1.0238    0.4329 C   0  0  0  0  0  0  0  0  0  0  0  0
   -2.2416    1.5423   -0.3033 O   0  0  0  0  0  0  0  0  0  0  0  0
   -0.6927    1.7304    1.3223 N   0  0  0  0  0  0  0  0  0  0  0  0
    0.0178    1.2410    1.8469 H   0  0  0  0  0  0  0  0  0  0  0  0
   -0.8259    3.1712    1.5254 C   0  0  0  0  0  0  0  0  0  0  0  0
   -1.8769    3.4302    1.6645 H   0  0  0  0  0  0  0  0  0  0  0  0
   -0.2598    3.4806    2.4054 H   0  0  0  0  0  0  0  0  0  0  0  0
   -0.4486    3.7020    0.6489 H   0  0  0  0  0  0  0  0  0  0  0  0
  5  6  2  0  0  0  0
  5  7  1  0  0  0  0
  2  3  1  0  0  0  0
  2  4  1  0  0  0  0
  2  5  1  0  0  0  0
  1  2  1  0  0  0  0
 26 27  2  0  0  0  0
 26 28  1  0  0  0  0
 24 25  1  0  0  0  0
 22 23  1  0  0  0  0
 22 24  2  0  0  0  0
 20 21  1  0  0  0  0
 19 20  1  0  0  0  0
 19 22  1  0  0  0  0
 17 18  1  0  0  0  0
 17 19  2  0  0  0  0
 15 16  1  0  0  0  0
 15 17  1  0  0  0  0
 14 15  2  0  0  0  0
 14 24  1  0  0  0  0
 11 12  1  0  0  0  0
 11 13  1  0  0  0  0
 11 14  1  0  0  0  0
  9 10  1  0  0  0  0
  9 11  1  0  0  0  0
  9 26  1  0  0  0  0
  7  8  1  0  0  0  0
  7  9  1  0  0  0  0
 30 31  1  0  0  0  0
 30 32  1  0  0  0  0
 30 33  1  0  0  0  0
 28 29  1  0  0  0  0
 28 30  1  0  0  0  0
M  END
$$$$
default_name
  -OEChem-02102213163D

 33 33  0     1  0  0  0  0  0999 V2000
   -4.0702   -3.8485    1.4554 H   0  0  0  0  0  0  0  0  0  0  0  0
   -4.0012   -2.9605    0.8284 C   0  0  0  0  0  0  0  0  0  0  0  0
   -4.7652   -2.2435    1.1234 H   0  0  0  0  0  0  0  0  0  0  0  0
   -4.1352   -3.2385   -0.2156 H   0  0  0  0  0  0  0  0  0  0  0  0
   -2.6362   -2.3395    1.0094 C   0  0  0  0  0  0  0  0  0  0  0  0
   -1.8292   -2.8395    1.7814 O   0  0  0  0  0  0  0  0  0  0  0  0
   -2.3832   -1.2445    0.2964 N   0  0  0  0  0  0  0  0  0  0  0  0
   -3.1102   -0.8685   -0.2946 H   0  0  0  0  0  0  0  0  0  0  0  0
   -1.1292   -0.4875    0.3524 C   0  0  1  0  0  0  0  0  0  0  0  0
   -0.5898   -0.7762    1.2552 H   0  0  0  0  0  0  0  0  0  0  0  0
   -0.2608   -0.8470   -0.8656 C   0  0  0  0  0  0  0  0  0  0  0  0
   -0.8828   -1.3471   -1.6090 H   0  0  0  0  0  0  0  0  0  0  0  0
    0.1123    0.0735   -1.3176 H   0  0  0  0  0  0  0  0  0  0  0  0
    0.9082   -1.7567   -0.5409 C   0  0  0  0  0  0  0  0  0  0  0  0
    1.7140   -1.5045    0.5875 C   0  0  0  0  0  0  0  0  0  0  0  0
    1.5160   -0.6435    1.2124 H   0  0  0  0  0  0  0  0  0  0  0  0
    2.7737   -2.3754    0.9077 C   0  0  0  0  0  0  0  0  0  0  0  0
    3.3896   -2.1783    1.7716 H   0  0  0  0  0  0  0  0  0  0  0  0
    3.0257   -3.5045    0.0982 C   0  0  0  0  0  0  0  0  0  0  0  0
    4.0434   -4.3520    0.4002 O   0  0  0  0  0  0  0  0  0  0  0  0
    4.5758   -4.0316    1.1294 H   0  0  0  0  0  0  0  0  0  0  0  0
    2.2153   -3.7581   -1.0278 C   0  0  0  0  0  0  0  0  0  0  0  0
    2.4208   -4.6222   -1.6414 H   0  0  0  0  0  0  0  0  0  0  0  0
    1.1598   -2.8832   -1.3478 C   0  0  0  0  0  0  0  0  0  0  0  0
    0.5434   -3.0736   -2.2183 H   0  0  0  0  0  0  0  0  0  0  0  0
   -1.4018    1.0238    0.4329 C   0  0  0  0  0  0  0  0  0  0  0  0
   -2.2416    1.5423   -0.3033 O   0  0  0  0  0  0  0  0  0  0  0  0
   -0.6927    1.7304    1.3223 N   0  0  0  0  0  0  0  0  0  0  0  0
    0.0178    1.2410    1.8469 H   0  0  0  0  0  0  0  0  0  0  0  0
   -0.8259    3.1712    1.5254 C   0  0  0  0  0  0  0  0  0  0  0  0
   -1.8769    3.4302    1.6645 H   0  0  0  0  0  0  0  0  0  0  0  0
   -0.2598    3.4806    2.4054 H   0  0  0  0  0  0  0  0  0  0  0  0
   -0.4486    3.7020    0.6489 H   0  0  0  0  0  0  0  0  0  0  0  0
  5  6  2  0  0  0  0
  5  7  1  0  0  0  0
  2  3  1  0  0  0  0
  2  4  1  0  0  0  0
  2  5  1  0  0  0  0
  1  2  1  0  0  0  0
 26 27  2  0  0  0  0
 26 28  1  0  0  0  0
 24 25  1  0  0  0  0
 22 23  1  0  0  0  0
 22 24  2  0  0  0  0
 20 21  1  0  0  0  0
 19 20  1  0  0  0  0
 19 22  1  0  0  0  0
 17 18  1  0  0  0  0
 17 19  2  0  0  0  0
 15 16  1  0  0  0  0
 15 17  1  0  0  0  0
 14 15  2  0  0  0  0
 14 24  1  0  0  0  0
 11 12  1  0  0  0  0
 11 13  1  0  0  0  0
 11 14  1  0  0  0  0
  9 10  1  0  0  0  0
  9 11  1  0  0  0  0
  9 26  1  0  0  0  0
  7  8  1  0  0  0  0
  7  9  1  0  0  0  0
 30 31  1  0  0  0  0
 30 32  1  0  0  0  0
 30 33  1  0  0  0  0
 28 29  1  0  0  0  0
 28 30  1  0  0  0  0
M  END
$$$$
default_name
  -OEChem-02102213163D

 33 33  0     1  0  0  0  0  0999 V2000
   -4.0702   -3.8485    1.4554 H   0  0  0  0  0  0  0  0  0  0  0  0
   -4.0012   -2.9605    0.8284 C   0  0  0  0  0  0  0  0  0  0  0  0
   -4.7652   -2.2435    1.1234 H   0  0  0  0  0  0  0  0  0  0  0  0
   -4.1352   -3.2385   -0.2156 H   0  0  0  0  0  0  0  0  0  0  0  0
   -2.6362   -2.3395    1.0094 C   0  0  0  0  0  0  0  0  0  0  0  0
   -1.8292   -2.8395    1.7814 O   0  0  0  0  0  0  0  0  0  0  0  0
   -2.3832   -1.2445    0.2964 N   0  0  0  0  0  0  0  0  0  0  0  0
   -3.1102   -0.8685   -0.2946 H   0  0  0  0  0  0  0  0  0  0  0  0
   -1.1292   -0.4875    0.3524 C   0  0  1  0  0  0  0  0  0  0  0  0
   -0.5898   -0.7762    1.2552 H   0  0  0  0  0  0  0  0  0  0  0  0
   -0.2608   -0.8470   -0.8656 C   0  0  0  0  0  0  0  0  0  0  0  0
   -0.8828   -1.3471   -1.6090 H   0  0  0  0  0  0  0  0  0  0  0  0
    0.1123    0.0735   -1.3176 H   0  0  0  0  0  0  0  0  0  0  0  0
    0.9082   -1.7567   -0.5409 C   0  0  0  0  0  0  0  0  0  0  0  0
    1.5160   -1.7081    0.7297 C   0  0  0  0  0  0  0  0  0  0  0  0
    1.1660   -1.0012    1.4705 H   0  0  0  0  0  0  0  0  0  0  0  0
    2.5751   -2.5833    1.0400 C   0  0  0  0  0  0  0  0  0  0  0  0
    3.0392   -2.5423    2.0134 H   0  0  0  0  0  0  0  0  0  0  0  0
    3.0252   -3.5128    0.0771 C   0  0  0  0  0  0  0  0  0  0  0  0
    4.0439   -4.3630    0.3676 O   0  0  0  0  0  0  0  0  0  0  0  0
    4.4371   -4.1771    1.2213 H   0  0  0  0  0  0  0  0  0  0  0  0
    2.4125   -3.5633   -1.1922 C   0  0  0  0  0  0  0  0  0  0  0  0
    2.7684   -4.2754   -1.9215 H   0  0  0  0  0  0  0  0  0  0  0  0
    1.3572   -2.6841   -1.5009 C   0  0  0  0  0  0  0  0  0  0  0  0
    0.8932   -2.7173   -2.4795 H   0  0  0  0  0  0  0  0  0  0  0  0
   -1.4018    1.0238    0.4329 C   0  0  0  0  0  0  0  0  0  0  0  0
   -2.2416    1.5423   -0.3033 O   0  0  0  0  0  0  0  0  0  0  0  0
   -0.6927    1.7304    1.3223 N   0  0  0  0  0  0  0  0  0  0  0  0
    0.0178    1.2410    1.8469 H   0  0  0  0  0  0  0  0  0  0  0  0
   -0.8259    3.1712    1.5254 C   0  0  0  0  0  0  0  0  0  0  0  0
   -1.8769    3.4302    1.6645 H   0  0  0  0  0  0  0  0  0  0  0  0
   -0.2598    3.4806    2.4054 H   0  0  0  0  0  0  0  0  0  0  0  0
   -0.4486    3.7020    0.6489 H   0  0  0  0  0  0  0  0  0  0  0  0
  5  6  2  0  0  0  0
  5  7  1  0  0  0  0
  2  3  1  0  0  0  0
  2  4  1  0  0  0  0
  2  5  1  0  0  0  0
  1  2  1  0  0  0  0
 26 27  2  0  0  0  0
 26 28  1  0  0  0  0
 24 25  1  0  0  0  0
 22 23  1  0  0  0  0
 22 24  2  0  0  0  0
 20 21  1  0  0  0  0
 19 20  1  0  0  0  0
 19 22  1  0  0  0  0
 17 18  1  0  0  0  0
 17 19  2  0  0  0  0
 15 16  1  0  0  0  0
 15 17  1  0  0  0  0
 14 15  2  0  0  0  0
 14 24  1  0  0  0  0
 11 12  1  0  0  0  0
 11 13  1  0  0  0  0
 11 14  1  0  0  0  0
  9 10  1  0  0  0  0
  9 11  1  0  0  0  0
  9 26  1  0  0  0  0
  7  8  1  0  0  0  0
  7  9  1  0  0  0  0
 30 31  1  0  0  0  0
 30 32  1  0  0  0  0
 30 33  1  0  0  0  0
 28 29  1  0  0  0  0
 28 30  1  0  0  0  0
M  END
$$$$
default_name
  -OEChem-02102213163D

 33 33  0     1  0  0  0  0  0999 V2000
   -4.0702   -3.8485    1.4554 H   0  0  0  0  0  0  0  0  0  0  0  0
   -4.0012   -2.9605    0.8284 C   0  0  0  0  0  0  0  0  0  0  0  0
   -4.7652   -2.2435    1.1234 H   0  0  0  0  0  0  0  0  0  0  0  0
   -4.1352   -3.2385   -0.2156 H   0  0  0  0  0  0  0  0  0  0  0  0
   -2.6362   -2.3395    1.0094 C   0  0  0  0  0  0  0  0  0  0  0  0
   -1.8292   -2.8395    1.7814 O   0  0  0  0  0  0  0  0  0  0  0  0
   -2.3832   -1.2445    0.2964 N   0  0  0  0  0  0  0  0  0  0  0  0
   -3.1102   -0.8685   -0.2946 H   0  0  0  0  0  0  0  0  0  0  0  0
   -1.1292   -0.4875    0.3524 C   0  0  1  0  0  0  0  0  0  0  0  0
   -0.5898   -0.7762    1.2552 H   0  0  0  0  0  0  0  0  0  0  0  0
   -0.2608   -0.8470   -0.8656 C   0  0  0  0  0  0  0  0  0  0  0  0
   -0.8828   -1.3471   -1.6090 H   0  0  0  0  0  0  0  0  0  0  0  0
    0.1123    0.0735   -1.3176 H   0  0  0  0  0  0  0  0  0  0  0  0
    0.9082   -1.7567   -0.5409 C   0  0  0  0  0  0  0  0  0  0  0  0
    1.3140   -1.9442    0.7956 C   0  0  0  0  0  0  0  0  0  0  0  0
    0.8077   -1.4176    1.5940 H   0  0  0  0  0  0  0  0  0  0  0  0
    2.3743   -2.8215    1.0955 C   0  0  0  0  0  0  0  0  0  0  0  0
    2.6834   -2.9615    2.1199 H   0  0  0  0  0  0  0  0  0  0  0  0
    3.0284   -3.5165    0.0549 C   0  0  0  0  0  0  0  0  0  0  0  0
    4.0500   -4.3671    0.3339 O   0  0  0  0  0  0  0  0  0  0  0  0
    4.2968   -4.3437    1.2594 H   0  0  0  0  0  0  0  0  0  0  0  0
    2.6178   -3.3315   -1.2816 C   0  0  0  0  0  0  0  0  0  0  0  0
    3.1285   -3.8652   -2.0688 H   0  0  0  0  0  0  0  0  0  0  0  0
    1.5606   -2.4504   -1.5784 C   0  0  0  0  0  0  0  0  0  0  0  0
    1.2518   -2.3017   -2.6063 H   0  0  0  0  0  0  0  0  0  0  0  0
   -1.4018    1.0238    0.4329 C   0  0  0  0  0  0  0  0  0  0  0  0
   -2.2416    1.5423   -0.3033 O   0  0  0  0  0  0  0  0  0  0  0  0
   -0.6927    1.7304    1.3223 N   0  0  0  0  0  0  0  0  0  0  0  0
    0.0178    1.2410    1.8469 H   0  0  0  0  0  0  0  0  0  0  0  0
   -0.8259    3.1712    1.5254 C   0  0  0  0  0  0  0  0  0  0  0  0
   -1.8769    3.4302    1.6645 H   0  0  0  0  0  0  0  0  0  0  0  0
   -0.2598    3.4806    2.4054 H   0  0  0  0  0  0  0  0  0  0  0  0
   -0.4486    3.7020    0.6489 H   0  0  0  0  0  0  0  0  0  0  0  0
  5  6  2  0  0  0  0
  5  7  1  0  0  0  0
  2  3  1  0  0  0  0
  2  4  1  0  0  0  0
  2  5  1  0  0  0  0
  1  2  1  0  0  0  0
 26 27  2  0  0  0  0
 26 28  1  0  0  0  0
 24 25  1  0  0  0  0
 22 23  1  0  0  0  0
 22 24  2  0  0  0  0
 20 21  1  0  0  0  0
 19 20  1  0  0  0  0
 19 22  1  0  0  0  0
 17 18  1  0  0  0  0
 17 19  2  0  0  0  0
 15 16  1  0  0  0  0
 15 17  1  0  0  0  0
 14 15  2  0  0  0  0
 14 24  1  0  0  0  0
 11 12  1  0  0  0  0
 11 13  1  0  0  0  0
 11 14  1  0  0  0  0
  9 10  1  0  0  0  0
  9 11  1  0  0  0  0
  9 26  1  0  0  0  0
  7  8  1  0  0  0  0
  7  9  1  0  0  0  0
 30 31  1  0  0  0  0
 30 32  1  0  0  0  0
 30 33  1  0  0  0  0
 28 29  1  0  0  0  0
 28 30  1  0  0  0  0
M  END
$$$$
default_name
  -OEChem-02102213163D

 33 33  0     1  0  0  0  0  0999 V2000
   -4.0702   -3.8485    1.4554 H   0  0  0  0  0  0  0  0  0  0  0  0
   -4.0012   -2.9605    0.8284 C   0  0  0  0  0  0  0  0  0  0  0  0
   -4.7652   -2.2435    1.1234 H   0  0  0  0  0  0  0  0  0  0  0  0
   -4.1352   -3.2385   -0.2156 H   0  0  0  0  0  0  0  0  0  0  0  0
   -2.6362   -2.3395    1.0094 C   0  0  0  0  0  0  0  0  0  0  0  0
   -1.8292   -2.8395    1.7814 O   0  0  0  0  0  0  0  0  0  0  0  0
   -2.3832   -1.2445    0.2964 N   0  0  0  0  0  0  0  0  0  0  0  0
   -3.1102   -0.8685   -0.2946 H   0  0  0  0  0  0  0  0  0  0  0  0
   -1.1292   -0.4875    0.3524 C   0  0  1  0  0  0  0  0  0  0  0  0
   -0.5898   -0.7762    1.2552 H   0  0  0  0  0  0  0  0  0  0  0  0
   -0.2608   -0.8470   -0.8656 C   0  0  0  0  0  0  0  0  0  0  0  0
   -0.8828   -1.3471   -1.6090 H   0  0  0  0  0  0  0  0  0  0  0  0
    0.1123    0.0735   -1.3176 H   0  0  0  0  0  0  0  0  0  0  0  0
    0.9082   -1.7567   -0.5409 C   0  0  0  0  0  0  0  0  0  0  0  0
    1.1218   -2.1965    0.7809 C   0  0  0  0  0  0  0  0  0  0  0  0
    0.4655   -1.8643    1.5746 H   0  0  0  0  0  0  0  0  0  0  0  0
    2.1850   -3.0738    1.0703 C   0  0  0  0  0  0  0  0  0  0  0  0
    2.3465   -3.4073    2.0839 H   0  0  0  0  0  0  0  0  0  0  0  0
    3.0351   -3.5156    0.0332 C   0  0  0  0  0  0  0  0  0  0  0  0
    4.0614   -4.3640    0.3015 O   0  0  0  0  0  0  0  0  0  0  0  0
    4.1647   -4.5201    1.2412 H   0  0  0  0  0  0  0  0  0  0  0  0
    2.8170   -3.0784   -1.2898 C   0  0  0  0  0  0  0  0  0  0  0  0
    3.4765   -3.4196   -2.0734 H   0  0  0  0  0  0  0  0  0  0  0  0
    1.7562   -2.1978   -1.5751 C   0  0  0  0  0  0  0  0  0  0  0  0
    1.5949   -1.8550   -2.5902 H   0  0  0  0  0  0  0  0  0  0  0  0
   -1.4018    1.0238    0.4329 C   0  0  0  0  0  0  0  0  0  0  0  0
   -2.2416    1.5423   -0.3033 O   0  0  0  0  0  0  0  0  0  0  0  0
   -0.6927    1.7304    1.3223 N   0  0  0  0  0  0  0  0  0  0  0  0
    0.0178    1.2410    1.8469 H   0  0  0  0  0  0  0  0  0  0  0  0
   -0.8259    3.1712    1.5254 C   0  0  0  0  0  0  0  0  0  0  0  0
   -1.8769    3.4302    1.6645 H   0  0  0  0  0  0  0  0  0  0  0  0
   -0.2598    3.4806    2.4054 H   0  0  0  0  0  0  0  0  0  0  0  0
   -0.4486    3.7020    0.6489 H   0  0  0  0  0  0  0  0  0  0  0  0
  5  6  2  0  0  0  0
  5  7  1  0  0  0  0
  2  3  1  0  0  0  0
  2  4  1  0  0  0  0
  2  5  1  0  0  0  0
  1  2  1  0  0  0  0
 26 27  2  0  0  0  0
 26 28  1  0  0  0  0
 24 25  1  0  0  0  0
 22 23  1  0  0  0  0
 22 24  2  0  0  0  0
 20 21  1  0  0  0  0
 19 20  1  0  0  0  0
 19 22  1  0  0  0  0
 17 18  1  0  0  0  0
 17 19  2  0  0  0  0
 15 16  1  0  0  0  0
 15 17  1  0  0  0  0
 14 15  2  0  0  0  0
 14 24  1  0  0  0  0
 11 12  1  0  0  0  0
 11 13  1  0  0  0  0
 11 14  1  0  0  0  0
  9 10  1  0  0  0  0
  9 11  1  0  0  0  0
  9 26  1  0  0  0  0
  7  8  1  0  0  0  0
  7  9  1  0  0  0  0
 30 31  1  0  0  0  0
 30 32  1  0  0  0  0
 30 33  1  0  0  0  0
 28 29  1  0  0  0  0
 28 30  1  0  0  0  0
M  END
$$$$
default_name
  -OEChem-02102213163D

 33 33  0     1  0  0  0  0  0999 V2000
   -4.0702   -3.8485    1.4554 H   0  0  0  0  0  0  0  0  0  0  0  0
   -4.0012   -2.9605    0.8284 C   0  0  0  0  0  0  0  0  0  0  0  0
   -4.7652   -2.2435    1.1234 H   0  0  0  0  0  0  0  0  0  0  0  0
   -4.1352   -3.2385   -0.2156 H   0  0  0  0  0  0  0  0  0  0  0  0
   -2.6362   -2.3395    1.0094 C   0  0  0  0  0  0  0  0  0  0  0  0
   -1.8292   -2.8395    1.7814 O   0  0  0  0  0  0  0  0  0  0  0  0
   -2.3832   -1.2445    0.2964 N   0  0  0  0  0  0  0  0  0  0  0  0
   -3.1102   -0.8685   -0.2946 H   0  0  0  0  0  0  0  0  0  0  0  0
   -1.1292   -0.4875    0.3524 C   0  0  1  0  0  0  0  0  0  0  0  0
   -0.5898   -0.7762    1.2552 H   0  0  0  0  0  0  0  0  0  0  0  0
   -0.2608   -0.8470   -0.8656 C   0  0  0  0  0  0  0  0  0  0  0  0
   -0.8828   -1.3471   -1.6090 H   0  0  0  0  0  0  0  0  0  0  0  0
    0.1123    0.0735   -1.3176 H   0  0  0  0  0  0  0  0  0  0  0  0
    0.9082   -1.7567   -0.5409 C   0  0  0  0  0  0  0  0  0  0  0  0
    0.9523   -2.4480    0.6864 C   0  0  0  0  0  0  0  0  0  0  0  0
    0.1627   -2.3108    1.4136 H   0  0  0  0  0  0  0  0  0  0  0  0
    2.0199   -3.3230    0.9663 C   0  0  0  0  0  0  0  0  0  0  0  0
    2.0512   -3.8495    1.9078 H   0  0  0  0  0  0  0  0  0  0  0  0
    3.0450   -3.5100    0.0135 C   0  0  0  0  0  0  0  0  0  0  0  0
    4.0773   -4.3539    0.2727 O   0  0  0  0  0  0  0  0  0  0  0  0
    4.0496   -4.6941    1.1679 H   0  0  0  0  0  0  0  0  0  0  0  0
    2.9967   -2.8212   -1.2162 C   0  0  0  0  0  0  0  0  0  0  0  0
    3.7887   -2.9691   -1.9349 H   0  0  0  0  0  0  0  0  0  0  0  0
    1.9307   -1.9437   -1.4911 C   0  0  0  0  0  0  0  0  0  0  0  0
    1.8991   -1.4078   -2.4323 H   0  0  0  0  0  0  0  0  0  0  0  0
   -1.4018    1.0238    0.4329 C   0  0  0  0  0  0  0  0  0  0  0  0
   -2.2416    1.5423   -0.3033 O   0  0  0  0  0  0  0  0  0  0  0  0
   -0.6927    1.7304    1.3223 N   0  0  0  0  0  0  0  0  0  0  0  0
    0.0178    1.2410    1.8469 H   0  0  0  0  0  0  0  0  0  0  0  0
   -0.8259    3.1712    1.5254 C   0  0  0  0  0  0  0  0  0  0  0  0
   -1.8769    3.4302    1.6645 H   0  0  0  0  0  0  0  0  0  0  0  0
   -0.2598    3.4806    2.4054 H   0  0  0  0  0  0  0  0  0  0  0  0
   -0.4486    3.7020    0.6489 H   0  0  0  0  0  0  0  0  0  0  0  0
  5  6  2  0  0  0  0
  5  7  1  0  0  0  0
  2  3  1  0  0  0  0
  2  4  1  0  0  0  0
  2  5  1  0  0  0  0
  1  2  1  0  0  0  0
 26 27  2  0  0  0  0
 26 28  1  0  0  0  0
 24 25  1  0  0  0  0
 22 23  1  0  0  0  0
 22 24  2  0  0  0  0
 20 21  1  0  0  0  0
 19 20  1  0  0  0  0
 19 22  1  0  0  0  0
 17 18  1  0  0  0  0
 17 19  2  0  0  0  0
 15 16  1  0  0  0  0
 15 17  1  0  0  0  0
 14 15  2  0  0  0  0
 14 24  1  0  0  0  0
 11 12  1  0  0  0  0
 11 13  1  0  0  0  0
 11 14  1  0  0  0  0
  9 10  1  0  0  0  0
  9 11  1  0  0  0  0
  9 26  1  0  0  0  0
  7  8  1  0  0  0  0
  7  9  1  0  0  0  0
 30 31  1  0  0  0  0
 30 32  1  0  0  0  0
 30 33  1  0  0  0  0
 28 29  1  0  0  0  0
 28 30  1  0  0  0  0
M  END
$$$$
default_name
  -OEChem-02102213163D

 33 33  0     1  0  0  0  0  0999 V2000
   -4.0702   -3.8485    1.4554 H   0  0  0  0  0  0  0  0  0  0  0  0
   -4.0012   -2.9605    0.8284 C   0  0  0  0  0  0  0  0  0  0  0  0
   -4.7652   -2.2435    1.1234 H   0  0  0  0  0  0  0  0  0  0  0  0
   -4.1352   -3.2385   -0.2156 H   0  0  0  0  0  0  0  0  0  0  0  0
   -2.6362   -2.3395    1.0094 C   0  0  0  0  0  0  0  0  0  0  0  0
   -1.8292   -2.8395    1.7814 O   0  0  0  0  0  0  0  0  0  0  0  0
   -2.3832   -1.2445    0.2964 N   0  0  0  0  0  0  0  0  0  0  0  0
   -3.1102   -0.8685   -0.2946 H   0  0  0  0  0  0  0  0  0  0  0  0
   -1.1292   -0.4875    0.3524 C   0  0  1  0  0  0  0  0  0  0  0  0
   -0.5898   -0.7762    1.2552 H   0  0  0  0  0  0  0  0  0  0  0  0
   -0.2608   -0.8470   -0.8656 C   0  0  0  0  0  0  0  0  0  0  0  0
   -0.8828   -1.3471   -1.6090 H   0  0  0  0  0  0  0  0  0  0  0  0
    0.1123    0.0735   -1.3176 H   0  0  0  0  0  0  0  0  0  0  0  0
    0.9082   -1.7567   -0.5409 C   0  0  0  0  0  0  0  0  0  0  0  0
    0.8172   -2.6814    0.5187 C   0  0  0  0  0  0  0  0  0  0  0  0
   -0.0801   -2.7268    1.1220 H   0  0  0  0  0  0  0  0  0  0  0  0
    1.8905   -3.5521    0.7905 C   0  0  0  0  0  0  0  0  0  0  0  0
    1.8179   -4.2579    1.6037 H   0  0  0  0  0  0  0  0  0  0  0  0
    3.0572   -3.5001   -0.0029 C   0  0  0  0  0  0  0  0  0  0  0  0
    4.0966   -4.3375    0.2493 O   0  0  0  0  0  0  0  0  0  0  0  0
    3.9595   -4.8539    1.0446 H   0  0  0  0  0  0  0  0  0  0  0  0
    3.1447   -2.5775   -1.0660 C   0  0  0  0  0  0  0  0  0  0  0  0
    4.0437   -2.5442   -1.6627 H   0  0  0  0  0  0  0  0  0  0  0  0
    2.0720   -1.7054   -1.3322 C   0  0  0  0  0  0  0  0  0  0  0  0
    2.1436   -0.9905   -2.1433 H   0  0  0  0  0  0  0  0  0  0  0  0
   -1.4018    1.0238    0.4329 C   0  0  0  0  0  0  0  0  0  0  0  0
   -2.2416    1.5423   -0.3033 O   0  0  0  0  0  0  0  0  0  0  0  0
   -0.6927    1.7304    1.3223 N   0  0  0  0  0  0  0  0  0  0  0  0
    0.0178    1.2410    1.8469 H   0  0  0  0  0  0  0  0  0  0  0  0
   -0.8259    3.1712    1.5254 C   0  0  0  0  0  0  0  0  0  0  0  0
   -1.8769    3.4302    1.6645 H   0  0  0  0  0  0  0  0  0  0  0  0
   -0.2598    3.4806    2.4054 H   0  0  0  0  0  0  0  0  0  0  0  0
   -0.4486    3.7020    0.6489 H   0  0  0  0  0  0  0  0  0  0  0  0
  5  6  2  0  0  0  0
  5  7  1  0  0  0  0
  2  3  1  0  0  0  0
  2  4  1  0  0  0  0
  2  5  1  0  0  0  0
  1  2  1  0  0  0  0
 26 27  2  0  0  0  0
 26 28  1  0  0  0  0
 24 25  1  0  0  0  0
 22 23  1  0  0  0  0
 22 24  2  0  0  0  0
 20 21  1  0  0  0  0
 19 20  1  0  0  0  0
 19 22  1  0  0  0  0
 17 18  1  0  0  0  0
 17 19  2  0  0  0  0
 15 16  1  0  0  0  0
 15 17  1  0  0  0  0
 14 15  2  0  0  0  0
 14 24  1  0  0  0  0
 11 12  1  0  0  0  0
 11 13  1  0  0  0  0
 11 14  1  0  0  0  0
  9 10  1  0  0  0  0
  9 11  1  0  0  0  0
  9 26  1  0  0  0  0
  7  8  1  0  0  0  0
  7  9  1  0  0  0  0
 30 31  1  0  0  0  0
 30 32  1  0  0  0  0
 30 33  1  0  0  0  0
 28 29  1  0  0  0  0
 28 30  1  0  0  0  0
M  END
$$$$
default_name
  -OEChem-02102213163D

 33 33  0     1  0  0  0  0  0999 V2000
   -4.0702   -3.8485    1.4554 H   0  0  0  0  0  0  0  0  0  0  0  0
   -4.0012   -2.9605    0.8284 C   0  0  0  0  0  0  0  0  0  0  0  0
   -4.7652   -2.2435    1.1234 H   0  0  0  0  0  0  0  0  0  0  0  0
   -4.1352   -3.2385   -0.2156 H   0  0  0  0  0  0  0  0  0  0  0  0
   -2.6362   -2.3395    1.0094 C   0  0  0  0  0  0  0  0  0  0  0  0
   -1.8292   -2.8395    1.7814 O   0  0  0  0  0  0  0  0  0  0  0  0
   -2.3832   -1.2445    0.2964 N   0  0  0  0  0  0  0  0  0  0  0  0
   -3.1102   -0.8685   -0.2946 H   0  0  0  0  0  0  0  0  0  0  0  0
   -1.1292   -0.4875    0.3524 C   0  0  1  0  0  0  0  0  0  0  0  0
   -0.5898   -0.7762    1.2552 H   0  0  0  0  0  0  0  0  0  0  0  0
   -0.2608   -0.8470   -0.8656 C   0  0  0  0  0  0  0  0  0  0  0  0
   -0.8828   -1.3471   -1.6090 H   0  0  0  0  0  0  0  0  0  0  0  0
    0.1123    0.0735   -1.3176 H   0  0  0  0  0  0  0  0  0  0  0  0
    0.9082   -1.7567   -0.5409 C   0  0  0  0  0  0  0  0  0  0  0  0
    0.7257   -2.8810    0.2892 C   0  0  0  0  0  0  0  0  0  0  0  0
   -0.2462   -3.0839    0.7196 H   0  0  0  0  0  0  0  0  0  0  0  0
    1.8054   -3.7455    0.5549 C   0  0  0  0  0  0  0  0  0  0  0  0
    1.6624   -4.6046    1.1923 H   0  0  0  0  0  0  0  0  0  0  0  0
    3.0711   -3.4865   -0.0148 C   0  0  0  0  0  0  0  0  0  0  0  0
    4.1179   -4.3159    0.2329 O   0  0  0  0  0  0  0  0  0  0  0  0
    3.9004   -4.9886    0.8795 H   0  0  0  0  0  0  0  0  0  0  0  0
    3.2507   -2.3638   -0.8492 C   0  0  0  0  0  0  0  0  0  0  0  0
    4.2243   -2.1740   -1.2754 H   0  0  0  0  0  0  0  0  0  0  0  0
    2.1707   -1.4990   -1.1092 C   0  0  0  0  0  0  0  0  0  0  0  0
    2.3118   -0.6315   -1.7429 H   0  0  0  0  0  0  0  0  0  0  0  0
   -1.4018    1.0238    0.4329 C   0  0  0  0  0  0  0  0  0  0  0  0
   -2.2416    1.5423   -0.3033 O   0  0  0  0  0  0  0  0  0  0  0  0
   -0.6927    1.7304    1.3223 N   0  0  0  0  0  0  0  0  0  0  0  0
    0.0178    1.2410    1.8469 H   0  0  0  0  0  0  0  0  0  0  0  0
   -0.8259    3.1712    1.5254 C   0  0  0  0  0  0  0  0  0  0  0  0
   -1.8769    3.4302    1.6645 H   0  0  0  0  0  0  0  0  0  0  0  0
   -0.2598    3.4806    2.4054 H   0  0  0  0  0  0  0  0  0  0  0  0
   -0.4486    3.7020    0.6489 H   0  0  0  0  0  0  0  0  0  0  0  0
  5  6  2  0  0  0  0
  5  7  1  0  0  0  0
  2  3  1  0  0  0  0
  2  4  1  0  0  0  0
  2  5  1  0  0  0  0
  1  2  1  0  0  0  0
 26 27  2  0  0  0  0
 26 28  1  0  0  0  0
 24 25  1  0  0  0  0
 22 23  1  0  0  0  0
 22 24  2  0  0  0  0
 20 21  1  0  0  0  0
 19 20  1  0  0  0  0
 19 22  1  0  0  0  0
 17 18  1  0  0  0  0
 17 19  2  0  0  0  0
 15 16  1  0  0  0  0
 15 17  1  0  0  0  0
 14 15  2  0  0  0  0
 14 24  1  0  0  0  0
 11 12  1  0  0  0  0
 11 13  1  0  0  0  0
 11 14  1  0  0  0  0
  9 10  1  0  0  0  0
  9 11  1  0  0  0  0
  9 26  1  0  0  0  0
  7  8  1  0  0  0  0
  7  9  1  0  0  0  0
 30 31  1  0  0  0  0
 30 32  1  0  0  0  0
 30 33  1  0  0  0  0
 28 29  1  0  0  0  0
 28 30  1  0  0  0  0
M  END
$$$$
default_name
  -OEChem-02102213163D

 33 33  0     1  0  0  0  0  0999 V2000
   -4.0702   -3.8485    1.4554 H   0  0  0  0  0  0  0  0  0  0  0  0
   -4.0012   -2.9605    0.8284 C   0  0  0  0  0  0  0  0  0  0  0  0
   -4.7652   -2.2435    1.1234 H   0  0  0  0  0  0  0  0  0  0  0  0
   -4.1352   -3.2385   -0.2156 H   0  0  0  0  0  0  0  0  0  0  0  0
   -2.6362   -2.3395    1.0094 C   0  0  0  0  0  0  0  0  0  0  0  0
   -1.8292   -2.8395    1.7814 O   0  0  0  0  0  0  0  0  0  0  0  0
   -2.3832   -1.2445    0.2964 N   0  0  0  0  0  0  0  0  0  0  0  0
   -3.1102   -0.8685   -0.2946 H   0  0  0  0  0  0  0  0  0  0  0  0
   -1.1292   -0.4875    0.3524 C   0  0  1  0  0  0  0  0  0  0  0  0
   -0.5898   -0.7762    1.2552 H   0  0  0  0  0  0  0  0  0  0  0  0
   -0.2608   -0.8470   -0.8656 C   0  0  0  0  0  0  0  0  0  0  0  0
   -0.8828   -1.3471   -1.6090 H   0  0  0  0  0  0  0  0  0  0  0  0
    0.1123    0.0735   -1.3176 H   0  0  0  0  0  0  0  0  0  0  0  0
    0.9082   -1.7567   -0.5409 C   0  0  0  0  0  0  0  0  0  0  0  0
    0.6840   -3.0329    0.0134 C   0  0  0  0  0  0  0  0  0  0  0  0
   -0.3244   -3.3578    0.2339 H   0  0  0  0  0  0  0  0  0  0  0  0
    1.7705   -3.8900    0.2755 C   0  0  0  0  0  0  0  0  0  0  0  0
    1.5953   -4.8659    0.7015 H   0  0  0  0  0  0  0  0  0  0  0  0
    3.0855   -3.4703   -0.0215 C   0  0  0  0  0  0  0  0  0  0  0  0
    4.1399   -4.2906    0.2247 O   0  0  0  0  0  0  0  0  0  0  0  0
    3.8765   -5.0892    0.6840 H   0  0  0  0  0  0  0  0  0  0  0  0
    3.3077   -2.1949   -0.5808 C   0  0  0  0  0  0  0  0  0  0  0  0
    4.3181   -1.8837   -0.7995 H   0  0  0  0  0  0  0  0  0  0  0  0
    2.2199   -1.3387   -0.8373 C   0  0  0  0  0  0  0  0  0  0  0  0
    2.3922   -0.3553   -1.2584 H   0  0  0  0  0  0  0  0  0  0  0  0
   -1.4018    1.0238    0.4329 C   0  0  0  0  0  0  0  0  0  0  0  0
   -2.2416    1.5423   -0.3033 O   0  0  0  0  0  0  0  0  0  0  0  0
   -0.6927    1.7304    1.3223 N   0  0  0  0  0  0  0  0  0  0  0  0
    0.0178    1.2410    1.8469 H   0  0  0  0  0  0  0  0  0  0  0  0
   -0.8259    3.1712    1.5254 C   0  0  0  0  0  0  0  0  0  0  0  0
   -1.8769    3.4302    1.6645 H   0  0  0  0  0  0  0  0  0  0  0  0
   -0.2598    3.4806    2.4054 H   0  0  0  0  0  0  0  0  0  0  0  0
   -0.4486    3.7020    0.6489 H   0  0  0  0  0  0  0  0  0  0  0  0
  5  6  2  0  0  0  0
  5  7  1  0  0  0  0
  2  3  1  0  0  0  0
  2  4  1  0  0  0  0
  2  5  1  0  0  0  0
  1  2  1  0  0  0  0
 26 27  2  0  0  0  0
 26 28  1  0  0  0  0
 24 25  1  0  0  0  0
 22 23  1  0  0  0  0
 22 24  2  0  0  0  0
 20 21  1  0  0  0  0
 19 20  1  0  0  0  0
 19 22  1  0  0  0  0
 17 18  1  0  0  0  0
 17 19  2  0  0  0  0
 15 16  1  0  0  0  0
 15 17  1  0  0  0  0
 14 15  2  0  0  0  0
 14 24  1  0  0  0  0
 11 12  1  0  0  0  0
 11 13  1  0  0  0  0
 11 14  1  0  0  0  0
  9 10  1  0  0  0  0
  9 11  1  0  0  0  0
  9 26  1  0  0  0  0
  7  8  1  0  0  0  0
  7  9  1  0  0  0  0
 30 31  1  0  0  0  0
 30 32  1  0  0  0  0
 30 33  1  0  0  0  0
 28 29  1  0  0  0  0
 28 30  1  0  0  0  0
M  END
$$$$
default_name
  -OEChem-02102213163D

 33 33  0     1  0  0  0  0  0999 V2000
   -4.0702   -3.8485    1.4554 H   0  0  0  0  0  0  0  0  0  0  0  0
   -4.0012   -2.9605    0.8284 C   0  0  0  0  0  0  0  0  0  0  0  0
   -4.7652   -2.2435    1.1234 H   0  0  0  0  0  0  0  0  0  0  0  0
   -4.1352   -3.2385   -0.2156 H   0  0  0  0  0  0  0  0  0  0  0  0
   -2.6362   -2.3395    1.0094 C   0  0  0  0  0  0  0  0  0  0  0  0
   -1.8292   -2.8395    1.7814 O   0  0  0  0  0  0  0  0  0  0  0  0
   -2.3832   -1.2445    0.2964 N   0  0  0  0  0  0  0  0  0  0  0  0
   -3.1102   -0.8685   -0.2946 H   0  0  0  0  0  0  0  0  0  0  0  0
   -1.1292   -0.4875    0.3524 C   0  0  1  0  0  0  0  0  0  0  0  0
   -0.5898   -0.7762    1.2552 H   0  0  0  0  0  0  0  0  0  0  0  0
   -0.2608   -0.8470   -0.8656 C   0  0  0  0  0  0  0  0  0  0  0  0
   -0.8828   -1.3471   -1.6090 H   0  0  0  0  0  0  0  0  0  0  0  0
    0.1123    0.0735   -1.3176 H   0  0  0  0  0  0  0  0  0  0  0  0
    0.9082   -1.7567   -0.5409 C   0  0  0  0  0  0  0  0  0  0  0  0
    0.6950   -3.1270   -0.2897 C   0  0  0  0  0  0  0  0  0  0  0  0
   -0.3094   -3.5297   -0.3021 H   0  0  0  0  0  0  0  0  0  0  0  0
    1.7883   -3.9758   -0.0286 C   0  0  0  0  0  0  0  0  0  0  0  0
    1.6211   -5.0242    0.1649 H   0  0  0  0  0  0  0  0  0  0  0  0
    3.0997   -3.4525   -0.0225 C   0  0  0  0  0  0  0  0  0  0  0  0
    4.1609   -4.2634    0.2253 O   0  0  0  0  0  0  0  0  0  0  0  0
    3.8893   -5.1486    0.4715 H   0  0  0  0  0  0  0  0  0  0  0  0
    3.3116   -2.0821   -0.2790 C   0  0  0  0  0  0  0  0  0  0  0  0
    4.3186   -1.6930   -0.2672 H   0  0  0  0  0  0  0  0  0  0  0  0
    2.2164   -1.2354   -0.5351 C   0  0  0  0  0  0  0  0  0  0  0  0
    2.3793   -0.1808   -0.7229 H   0  0  0  0  0  0  0  0  0  0  0  0
   -1.4018    1.0238    0.4329 C   0  0  0  0  0  0  0  0  0  0  0  0
   -2.2416    1.5423   -0.3033 O   0  0  0  0  0  0  0  0  0  0  0  0
   -0.6927    1.7304    1.3223 N   0  0  0  0  0  0  0  0  0  0  0  0
    0.0178    1.2410    1.8469 H   0  0  0  0  0  0  0  0  0  0  0  0
   -0.8259    3.1712    1.5254 C   0  0  0  0  0  0  0  0  0  0  0  0
   -1.8769    3.4302    1.6645 H   0  0  0  0  0  0  0  0  0  0  0  0
   -0.2598    3.4806    2.4054 H   0  0  0  0  0  0  0  0  0  0  0  0
   -0.4486    3.7020    0.6489 H   0  0  0  0  0  0  0  0  0  0  0  0
  5  6  2  0  0  0  0
  5  7  1  0  0  0  0
  2  3  1  0  0  0  0
  2  4  1  0  0  0  0
  2  5  1  0  0  0  0
  1  2  1  0  0  0  0
 26 27  2  0  0  0  0
 26 28  1  0  0  0  0
 24 25  1  0  0  0  0
 22 23  1  0  0  0  0
 22 24  2  0  0  0  0
 20 21  1  0  0  0  0
 19 20  1  0  0  0  0
 19 22  1  0  0  0  0
 17 18  1  0  0  0  0
 17 19  2  0  0  0  0
 15 16  1  0  0  0  0
 15 17  1  0  0  0  0
 14 15  2  0  0  0  0
 14 24  1  0  0  0  0
 11 12  1  0  0  0  0
 11 13  1  0  0  0  0
 11 14  1  0  0  0  0
  9 10  1  0  0  0  0
  9 11  1  0  0  0  0
  9 26  1  0  0  0  0
  7  8  1  0  0  0  0
  7  9  1  0  0  0  0
 30 31  1  0  0  0  0
 30 32  1  0  0  0  0
 30 33  1  0  0  0  0
 28 29  1  0  0  0  0
 28 30  1  0  0  0  0
M  END
$$$$
default_name
  -OEChem-02102213163D

 33 33  0     1  0  0  0  0  0999 V2000
   -4.0702   -3.8485    1.4554 H   0  0  0  0  0  0  0  0  0  0  0  0
   -4.0012   -2.9605    0.8284 C   0  0  0  0  0  0  0  0  0  0  0  0
   -4.7652   -2.2435    1.1234 H   0  0  0  0  0  0  0  0  0  0  0  0
   -4.1352   -3.2385   -0.2156 H   0  0  0  0  0  0  0  0  0  0  0  0
   -2.6362   -2.3395    1.0094 C   0  0  0  0  0  0  0  0  0  0  0  0
   -1.8292   -2.8395    1.7814 O   0  0  0  0  0  0  0  0  0  0  0  0
   -2.3832   -1.2445    0.2964 N   0  0  0  0  0  0  0  0  0  0  0  0
   -3.1102   -0.8685   -0.2946 H   0  0  0  0  0  0  0  0  0  0  0  0
   -1.1292   -0.4875    0.3524 C   0  0  1  0  0  0  0  0  0  0  0  0
   -0.5898   -0.7762    1.2552 H   0  0  0  0  0  0  0  0  0  0  0  0
   -0.2608   -0.8470   -0.8656 C   0  0  0  0  0  0  0  0  0  0  0  0
   -0.8828   -1.3471   -1.6090 H   0  0  0  0  0  0  0  0  0  0  0  0
    0.1123    0.0735   -1.3176 H   0  0  0  0  0  0  0  0  0  0  0  0
    0.9082   -1.7567   -0.5409 C   0  0  0  0  0  0  0  0  0  0  0  0
    0.7578   -3.1568   -0.5996 C   0  0  0  0  0  0  0  0  0  0  0  0
   -0.2022   -3.5880   -0.8517 H   0  0  0  0  0  0  0  0  0  0  0  0
    1.8573   -3.9969   -0.3367 C   0  0  0  0  0  0  0  0  0  0  0  0
    1.7382   -5.0686   -0.3810 H   0  0  0  0  0  0  0  0  0  0  0  0
    3.1125   -3.4344   -0.0177 C   0  0  0  0  0  0  0  0  0  0  0  0
    4.1797   -4.2360    0.2345 O   0  0  0  0  0  0  0  0  0  0  0  0
    3.9380   -5.1628    0.2563 H   0  0  0  0  0  0  0  0  0  0  0  0
    3.2624   -2.0331    0.0357 C   0  0  0  0  0  0  0  0  0  0  0  0
    4.2260   -1.6150    0.2850 H   0  0  0  0  0  0  0  0  0  0  0  0
    2.1604   -1.1961   -0.2231 C   0  0  0  0  0  0  0  0  0  0  0  0
    2.2740   -0.1197   -0.1727 H   0  0  0  0  0  0  0  0  0  0  0  0
   -1.4018    1.0238    0.4329 C   0  0  0  0  0  0  0  0  0  0  0  0
   -2.2416    1.5423   -0.3033 O   0  0  0  0  0  0  0  0  0  0  0  0
   -0.6927    1.7304    1.3223 N   0  0  0  0  0  0  0  0  0  0  0  0
    0.0178    1.2410    1.8469 H   0  0  0  0  0  0  0  0  0  0  0  0
   -0.8259    3.1712    1.5254 C   0  0  0  0  0  0  0  0  0  0  0  0
   -1.8769    3.4302    1.6645 H   0  0  0  0  0  0  0  0  0  0  0  0
   -0.2598    3.4806    2.4054 H   0  0  0  0  0  0  0  0  0  0  0  0
   -0.4486    3.7020    0.6489 H   0  0  0  0  0  0  0  0  0  0  0  0
  5  6  2  0  0  0  0
  5  7  1  0  0  0  0
  2  3  1  0  0  0  0
  2  4  1  0  0  0  0
  2  5  1  0  0  0  0
  1  2  1  0  0  0  0
 26 27  2  0  0  0  0
 26 28  1  0  0  0  0
 24 25  1  0  0  0  0
 22 23  1  0  0  0  0
 22 24  2  0  0  0  0
 20 21  1  0  0  0  0
 19 20  1  0  0  0  0
 19 22  1  0  0  0  0
 17 18  1  0  0  0  0
 17 19  2  0  0  0  0
 15 16  1  0  0  0  0
 15 17  1  0  0  0  0
 14 15  2  0  0  0  0
 14 24  1  0  0  0  0
 11 12  1  0  0  0  0
 11 13  1  0  0  0  0
 11 14  1  0  0  0  0
  9 10  1  0  0  0  0
  9 11  1  0  0  0  0
  9 26  1  0  0  0  0
  7  8  1  0  0  0  0
  7  9  1  0  0  0  0
 30 31  1  0  0  0  0
 30 32  1  0  0  0  0
 30 33  1  0  0  0  0
 28 29  1  0  0  0  0
 28 30  1  0  0  0  0
M  END
$$$$
default_name
  -OEChem-02102213163D

 33 33  0     1  0  0  0  0  0999 V2000
   -4.0702   -3.8485    1.4554 H   0  0  0  0  0  0  0  0  0  0  0  0
   -4.0012   -2.9605    0.8284 C   0  0  0  0  0  0  0  0  0  0  0  0
   -4.7652   -2.2435    1.1234 H   0  0  0  0  0  0  0  0  0  0  0  0
   -4.1352   -3.2385   -0.2156 H   0  0  0  0  0  0  0  0  0  0  0  0
   -2.6362   -2.3395    1.0094 C   0  0  0  0  0  0  0  0  0  0  0  0
   -1.8292   -2.8395    1.7814 O   0  0  0  0  0  0  0  0  0  0  0  0
   -2.3832   -1.2445    0.2964 N   0  0  0  0  0  0  0  0  0  0  0  0
   -3.1102   -0.8685   -0.2946 H   0  0  0  0  0  0  0  0  0  0  0  0
   -1.1292   -0.4875    0.3524 C   0  0  1  0  0  0  0  0  0  0  0  0
   -0.5898   -0.7762    1.2552 H   0  0  0  0  0  0  0  0  0  0  0  0
   -0.2608   -0.8470   -0.8656 C   0  0  0  0  0  0  0  0  0  0  0  0
   -0.8828   -1.3471   -1.6090 H   0  0  0  0  0  0  0  0  0  0  0  0
    0.1123    0.0735   -1.3176 H   0  0  0  0  0  0  0  0  0  0  0  0
    0.9082   -1.7567   -0.5409 C   0  0  0  0  0  0  0  0  0  0  0  0
    0.8683   -3.1203   -0.8951 C   0  0  0  0  0  0  0  0  0  0  0  0
   -0.0100   -3.5287   -1.3777 H   0  0  0  0  0  0  0  0  0  0  0  0
    1.9731   -3.9521   -0.6278 C   0  0  0  0  0  0  0  0  0  0  0  0
    1.9384   -4.9961   -0.8990 H   0  0  0  0  0  0  0  0  0  0  0  0
    3.1231   -3.4171   -0.0075 C   0  0  0  0  0  0  0  0  0  0  0  0
    4.1948   -4.2103    0.2518 O   0  0  0  0  0  0  0  0  0  0  0  0
    4.0192   -5.1310    0.0531 H   0  0  0  0  0  0  0  0  0  0  0  0
    3.1632   -2.0513    0.3418 C   0  0  0  0  0  0  0  0  0  0  0  0
    4.0465   -1.6550    0.8196 H   0  0  0  0  0  0  0  0  0  0  0  0
    2.0556   -1.2235    0.0775 C   0  0  0  0  0  0  0  0  0  0  0  0
    2.0835   -0.1763    0.3545 H   0  0  0  0  0  0  0  0  0  0  0  0
   -1.4018    1.0238    0.4329 C   0  0  0  0  0  0  0  0  0  0  0  0
   -2.2416    1.5423   -0.3033 O   0  0  0  0  0  0  0  0  0  0  0  0
   -0.6927    1.7304    1.3223 N   0  0  0  0  0  0  0  0  0  0  0  0
    0.0178    1.2410    1.8469 H   0  0  0  0  0  0  0  0  0  0  0  0
   -0.8259    3.1712    1.5254 C   0  0  0  0  0  0  0  0  0  0  0  0
   -1.8769    3.4302    1.6645 H   0  0  0  0  0  0  0  0  0  0  0  0
   -0.2598    3.4806    2.4054 H   0  0  0  0  0  0  0  0  0  0  0  0
   -0.4486    3.7020    0.6489 H   0  0  0  0  0  0  0  0  0  0  0  0
  5  6  2  0  0  0  0
  5  7  1  0  0  0  0
  2  3  1  0  0  0  0
  2  4  1  0  0  0  0
  2  5  1  0  0  0  0
  1  2  1  0  0  0  0
 26 27  2  0  0  0  0
 26 28  1  0  0  0  0
 24 25  1  0  0  0  0
 22 23  1  0  0  0  0
 22 24  2  0  0  0  0
 20 21  1  0  0  0  0
 19 20  1  0  0  0  0
 19 22  1  0  0  0  0
 17 18  1  0  0  0  0
 17 19  2  0  0  0  0
 15 16  1  0  0  0  0
 15 17  1  0  0  0  0
 14 15  2  0  0  0  0
 14 24  1  0  0  0  0
 11 12  1  0  0  0  0
 11 13  1  0  0  0  0
 11 14  1  0  0  0  0
  9 10  1  0  0  0  0
  9 11  1  0  0  0  0
  9 26  1  0  0  0  0
  7  8  1  0  0  0  0
  7  9  1  0  0  0  0
 30 31  1  0  0  0  0
 30 32  1  0  0  0  0
 30 33  1  0  0  0  0
 28 29  1  0  0  0  0
 28 30  1  0  0  0  0
M  END
$$$$
default_name
  -OEChem-02102213163D

 33 33  0     1  0  0  0  0  0999 V2000
   -4.0702   -3.8485    1.4554 H   0  0  0  0  0  0  0  0  0  0  0  0
   -4.0012   -2.9605    0.8284 C   0  0  0  0  0  0  0  0  0  0  0  0
   -4.7652   -2.2435    1.1234 H   0  0  0  0  0  0  0  0  0  0  0  0
   -4.1352   -3.2385   -0.2156 H   0  0  0  0  0  0  0  0  0  0  0  0
   -2.6362   -2.3395    1.0094 C   0  0  0  0  0  0  0  0  0  0  0  0
   -1.8292   -2.8395    1.7814 O   0  0  0  0  0  0  0  0  0  0  0  0
   -2.3832   -1.2445    0.2964 N   0  0  0  0  0  0  0  0  0  0  0  0
   -3.1102   -0.8685   -0.2946 H   0  0  0  0  0  0  0  0  0  0  0  0
   -1.1292   -0.4875    0.3524 C   0  0  1  0  0  0  0  0  0  0  0  0
   -0.5898   -0.7762    1.2552 H   0  0  0  0  0  0  0  0  0  0  0  0
   -0.2608   -0.8470   -0.8656 C   0  0  0  0  0  0  0  0  0  0  0  0
   -0.8828   -1.3471   -1.6090 H   0  0  0  0  0  0  0  0  0  0  0  0
    0.1123    0.0735   -1.3176 H   0  0  0  0  0  0  0  0  0  0  0  0
    0.9082   -1.7567   -0.5409 C   0  0  0  0  0  0  0  0  0  0  0  0
    1.0189   -3.0199   -1.1561 C   0  0  0  0  0  0  0  0  0  0  0  0
    0.2540   -3.3558   -1.8440 H   0  0  0  0  0  0  0  0  0  0  0  0
    2.1276   -3.8443   -0.8821 C   0  0  0  0  0  0  0  0  0  0  0  0
    2.2083   -4.8116   -1.3538 H   0  0  0  0  0  0  0  0  0  0  0  0
    3.1308   -3.4018    0.0075 C   0  0  0  0  0  0  0  0  0  0  0  0
    4.2054   -4.1881    0.2760 O   0  0  0  0  0  0  0  0  0  0  0  0
    4.1274   -5.0552   -0.1242 H   0  0  0  0  0  0  0  0  0  0  0  0
    3.0209   -2.1355    0.6184 C   0  0  0  0  0  0  0  0  0  0  0  0
    3.7922   -1.8102    1.3001 H   0  0  0  0  0  0  0  0  0  0  0  0
    1.9092   -1.3157    0.3460 C   0  0  0  0  0  0  0  0  0  0  0  0
    1.8208   -0.3468    0.8229 H   0  0  0  0  0  0  0  0  0  0  0  0
   -1.4018    1.0238    0.4329 C   0  0  0  0  0  0  0  0  0  0  0  0
   -2.2416    1.5423   -0.3033 O   0  0  0  0  0  0  0  0  0  0  0  0
   -0.6927    1.7304    1.3223 N   0  0  0  0  0  0  0  0  0  0  0  0
    0.0178    1.2410    1.8469 H   0  0  0  0  0  0  0  0  0  0  0  0
   -0.8259    3.1712    1.5254 C   0  0  0  0  0  0  0  0  0  0  0  0
   -1.8769    3.4302    1.6645 H   0  0  0  0  0  0  0  0  0  0  0  0
   -0.2598    3.4806    2.4054 H   0  0  0  0  0  0  0  0  0  0  0  0
   -0.4486    3.7020    0.6489 H   0  0  0  0  0  0  0  0  0  0  0  0
  5  6  2  0  0  0  0
  5  7  1  0  0  0  0
  2  3  1  0  0  0  0
  2  4  1  0  0  0  0
  2  5  1  0  0  0  0
  1  2  1  0  0  0  0
 26 27  2  0  0  0  0
 26 28  1  0  0  0  0
 24 25  1  0  0  0  0
 22 23  1  0  0  0  0
 22 24  2  0  0  0  0
 20 21  1  0  0  0  0
 19 20  1  0  0  0  0
 19 22  1  0  0  0  0
 17 18  1  0  0  0  0
 17 19  2  0  0  0  0
 15 16  1  0  0  0  0
 15 17  1  0  0  0  0
 14 15  2  0  0  0  0
 14 24  1  0  0  0  0
 11 12  1  0  0  0  0
 11 13  1  0  0  0  0
 11 14  1  0  0  0  0
  9 10  1  0  0  0  0
  9 11  1  0  0  0  0
  9 26  1  0  0  0  0
  7  8  1  0  0  0  0
  7  9  1  0  0  0  0
 30 31  1  0  0  0  0
 30 32  1  0  0  0  0
 30 33  1  0  0  0  0
 28 29  1  0  0  0  0
 28 30  1  0  0  0  0
M  END
$$$$
default_name
  -OEChem-02102213163D

 33 33  0     1  0  0  0  0  0999 V2000
   -4.0702   -3.8485    1.4554 H   0  0  0  0  0  0  0  0  0  0  0  0
   -4.0012   -2.9605    0.8284 C   0  0  0  0  0  0  0  0  0  0  0  0
   -4.7652   -2.2435    1.1234 H   0  0  0  0  0  0  0  0  0  0  0  0
   -4.1352   -3.2385   -0.2156 H   0  0  0  0  0  0  0  0  0  0  0  0
   -2.6362   -2.3395    1.0094 C   0  0  0  0  0  0  0  0  0  0  0  0
   -1.8292   -2.8395    1.7814 O   0  0  0  0  0  0  0  0  0  0  0  0
   -2.3832   -1.2445    0.2964 N   0  0  0  0  0  0  0  0  0  0  0  0
   -3.1102   -0.8685   -0.2946 H   0  0  0  0  0  0  0  0  0  0  0  0
   -1.1292   -0.4875    0.3524 C   0  0  1  0  0  0  0  0  0  0  0  0
   -0.5898   -0.7762    1.2552 H   0  0  0  0  0  0  0  0  0  0  0  0
   -0.2608   -0.8470   -0.8656 C   0  0  0  0  0  0  0  0  0  0  0  0
   -0.8828   -1.3471   -1.6090 H   0  0  0  0  0  0  0  0  0  0  0  0
    0.1123    0.0735   -1.3176 H   0  0  0  0  0  0  0  0  0  0  0  0
    0.9082   -1.7567   -0.5409 C   0  0  0  0  0  0  0  0  0  0  0  0
    1.1993   -2.8625   -1.3648 C   0  0  0  0  0  0  0  0  0  0  0  0
    0.5719   -3.0812   -2.2189 H   0  0  0  0  0  0  0  0  0  0  0  0
    2.3103   -3.6808   -1.0822 C   0  0  0  0  0  0  0  0  0  0  0  0
    2.5293   -4.5277   -1.7143 H   0  0  0  0  0  0  0  0  0  0  0  0
    3.1351   -3.3896    0.0262 C   0  0  0  0  0  0  0  0  0  0  0  0
    4.2105   -4.1710    0.3055 O   0  0  0  0  0  0  0  0  0  0  0  0
    4.2552   -4.9406   -0.2635 H   0  0  0  0  0  0  0  0  0  0  0  0
    2.8452   -2.2798    0.8467 C   0  0  0  0  0  0  0  0  0  0  0  0
    3.4807   -2.0701    1.6939 H   0  0  0  0  0  0  0  0  0  0  0  0
    1.7313   -1.4665    0.5643 C   0  0  0  0  0  0  0  0  0  0  0  0
    1.5038   -0.6195    1.2005 H   0  0  0  0  0  0  0  0  0  0  0  0
   -1.4018    1.0238    0.4329 C   0  0  0  0  0  0  0  0  0  0  0  0
   -2.2416    1.5423   -0.3033 O   0  0  0  0  0  0  0  0  0  0  0  0
   -0.6927    1.7304    1.3223 N   0  0  0  0  0  0  0  0  0  0  0  0
    0.0178    1.2410    1.8469 H   0  0  0  0  0  0  0  0  0  0  0  0
   -0.8259    3.1712    1.5254 C   0  0  0  0  0  0  0  0  0  0  0  0
   -1.8769    3.4302    1.6645 H   0  0  0  0  0  0  0  0  0  0  0  0
   -0.2598    3.4806    2.4054 H   0  0  0  0  0  0  0  0  0  0  0  0
   -0.4486    3.7020    0.6489 H   0  0  0  0  0  0  0  0  0  0  0  0
  5  6  2  0  0  0  0
  5  7  1  0  0  0  0
  2  3  1  0  0  0  0
  2  4  1  0  0  0  0
  2  5  1  0  0  0  0
  1  2  1  0  0  0  0
 26 27  2  0  0  0  0
 26 28  1  0  0  0  0
 24 25  1  0  0  0  0
 22 23  1  0  0  0  0
 22 24  2  0  0  0  0
 20 21  1  0  0  0  0
 19 20  1  0  0  0  0
 19 22  1  0  0  0  0
 17 18  1  0  0  0  0
 17 19  2  0  0  0  0
 15 16  1  0  0  0  0
 15 17  1  0  0  0  0
 14 15  2  0  0  0  0
 14 24  1  0  0  0  0
 11 12  1  0  0  0  0
 11 13  1  0  0  0  0
 11 14  1  0  0  0  0
  9 10  1  0  0  0  0
  9 11  1  0  0  0  0
  9 26  1  0  0  0  0
  7  8  1  0  0  0  0
  7  9  1  0  0  0  0
 30 31  1  0  0  0  0
 30 32  1  0  0  0  0
 30 33  1  0  0  0  0
 28 29  1  0  0  0  0
 28 30  1  0  0  0  0
M  END
$$$$
default_name
  -OEChem-02102213163D

 33 33  0     1  0  0  0  0  0999 V2000
   -4.0702   -3.8485    1.4554 H   0  0  0  0  0  0  0  0  0  0  0  0
   -4.0012   -2.9605    0.8284 C   0  0  0  0  0  0  0  0  0  0  0  0
   -4.7652   -2.2435    1.1234 H   0  0  0  0  0  0  0  0  0  0  0  0
   -4.1352   -3.2385   -0.2156 H   0  0  0  0  0  0  0  0  0  0  0  0
   -2.6362   -2.3395    1.0094 C   0  0  0  0  0  0  0  0  0  0  0  0
   -1.8292   -2.8395    1.7814 O   0  0  0  0  0  0  0  0  0  0  0  0
   -2.3832   -1.2445    0.2964 N   0  0  0  0  0  0  0  0  0  0  0  0
   -3.1102   -0.8685   -0.2946 H   0  0  0  0  0  0  0  0  0  0  0  0
   -1.1292   -0.4875    0.3524 C   0  0  1  0  0  0  0  0  0  0  0  0
   -0.5898   -0.7762    1.2552 H   0  0  0  0  0  0  0  0  0  0  0  0
   -0.2608   -0.8470   -0.8656 C   0  0  0  0  0  0  0  0  0  0  0  0
   -0.8828   -1.3471   -1.6090 H   0  0  0  0  0  0  0  0  0  0  0  0
    0.1123    0.0735   -1.3176 H   0  0  0  0  0  0  0  0  0  0  0  0
    0.9082   -1.7567   -0.5409 C   0  0  0  0  0  0  0  0  0  0  0  0
    1.3973   -2.6589   -1.5070 C   0  0  0  0  0  0  0  0  0  0  0  0
    0.9219   -2.7235   -2.4770 H   0  0  0  0  0  0  0  0  0  0  0  0
    2.5089   -3.4729   -1.2145 C   0  0  0  0  0  0  0  0  0  0  0  0
    2.8797   -4.1637   -1.9561 H   0  0  0  0  0  0  0  0  0  0  0  0
    3.1356   -3.3814    0.0474 C   0  0  0  0  0  0  0  0  0  0  0  0
    4.2100   -4.1600    0.3381 O   0  0  0  0  0  0  0  0  0  0  0  0
    4.3940   -4.7950   -0.3553 H   0  0  0  0  0  0  0  0  0  0  0  0
    2.6480   -2.4746    1.0111 C   0  0  0  0  0  0  0  0  0  0  0  0
    3.1330   -2.4169    1.9739 H   0  0  0  0  0  0  0  0  0  0  0  0
    1.5339   -1.6656    0.7174 C   0  0  0  0  0  0  0  0  0  0  0  0
    1.1540   -0.9757    1.4617 H   0  0  0  0  0  0  0  0  0  0  0  0
   -1.4018    1.0238    0.4329 C   0  0  0  0  0  0  0  0  0  0  0  0
   -2.2416    1.5423   -0.3033 O   0  0  0  0  0  0  0  0  0  0  0  0
   -0.6927    1.7304    1.3223 N   0  0  0  0  0  0  0  0  0  0  0  0
    0.0178    1.2410    1.8469 H   0  0  0  0  0  0  0  0  0  0  0  0
   -0.8259    3.1712    1.5254 C   0  0  0  0  0  0  0  0  0  0  0  0
   -1.8769    3.4302    1.6645 H   0  0  0  0  0  0  0  0  0  0  0  0
   -0.2598    3.4806    2.4054 H   0  0  0  0  0  0  0  0  0  0  0  0
   -0.4486    3.7020    0.6489 H   0  0  0  0  0  0  0  0  0  0  0  0
  5  6  2  0  0  0  0
  5  7  1  0  0  0  0
  2  3  1  0  0  0  0
  2  4  1  0  0  0  0
  2  5  1  0  0  0  0
  1  2  1  0  0  0  0
 26 27  2  0  0  0  0
 26 28  1  0  0  0  0
 24 25  1  0  0  0  0
 22 23  1  0  0  0  0
 22 24  2  0  0  0  0
 20 21  1  0  0  0  0
 19 20  1  0  0  0  0
 19 22  1  0  0  0  0
 17 18  1  0  0  0  0
 17 19  2  0  0  0  0
 15 16  1  0  0  0  0
 15 17  1  0  0  0  0
 14 15  2  0  0  0  0
 14 24  1  0  0  0  0
 11 12  1  0  0  0  0
 11 13  1  0  0  0  0
 11 14  1  0  0  0  0
  9 10  1  0  0  0  0
  9 11  1  0  0  0  0
  9 26  1  0  0  0  0
  7  8  1  0  0  0  0
  7  9  1  0  0  0  0
 30 31  1  0  0  0  0
 30 32  1  0  0  0  0
 30 33  1  0  0  0  0
 28 29  1  0  0  0  0
 28 30  1  0  0  0  0
M  END
$$$$
default_name
  -OEChem-02102213163D

 33 33  0     1  0  0  0  0  0999 V2000
   -4.0702   -3.8485    1.4554 H   0  0  0  0  0  0  0  0  0  0  0  0
   -4.0012   -2.9605    0.8284 C   0  0  0  0  0  0  0  0  0  0  0  0
   -4.7652   -2.2435    1.1234 H   0  0  0  0  0  0  0  0  0  0  0  0
   -4.1352   -3.2385   -0.2156 H   0  0  0  0  0  0  0  0  0  0  0  0
   -2.6362   -2.3395    1.0094 C   0  0  0  0  0  0  0  0  0  0  0  0
   -1.8292   -2.8395    1.7814 O   0  0  0  0  0  0  0  0  0  0  0  0
   -2.3832   -1.2445    0.2964 N   0  0  0  0  0  0  0  0  0  0  0  0
   -3.1102   -0.8685   -0.2946 H   0  0  0  0  0  0  0  0  0  0  0  0
   -1.1292   -0.4875    0.3524 C   0  0  1  0  0  0  0  0  0  0  0  0
   -0.5898   -0.7762    1.2552 H   0  0  0  0  0  0  0  0  0  0  0  0
   -0.2608   -0.8470   -0.8656 C   0  0  0  0  0  0  0  0  0  0  0  0
   -0.8828   -1.3471   -1.6090 H   0  0  0  0  0  0  0  0  0  0  0  0
    0.1123    0.0735   -1.3176 H   0  0  0  0  0  0  0  0  0  0  0  0
    0.9082   -1.7567   -0.5409 C   0  0  0  0  0  0  0  0  0  0  0  0
    1.5993   -2.4228   -1.5729 C   0  0  0  0  0  0  0  0  0  0  0  0
    1.2802   -2.3071   -2.6005 H   0  0  0  0  0  0  0  0  0  0  0  0
    2.7097   -3.2347   -1.2700 C   0  0  0  0  0  0  0  0  0  0  0  0
    3.2355   -3.7445   -2.0626 H   0  0  0  0  0  0  0  0  0  0  0  0
    3.1324   -3.3776    0.0696 C   0  0  0  0  0  0  0  0  0  0  0  0
    4.2039   -4.1559    0.3718 O   0  0  0  0  0  0  0  0  0  0  0  0
    4.5343   -4.6284   -0.3934 H   0  0  0  0  0  0  0  0  0  0  0  0
    2.4427   -2.7064    1.1005 C   0  0  0  0  0  0  0  0  0  0  0  0
    2.7729   -2.8271    2.1213 H   0  0  0  0  0  0  0  0  0  0  0  0
    1.3304   -1.8993    0.7950 C   0  0  0  0  0  0  0  0  0  0  0  0
    0.7954   -1.3914    1.5885 H   0  0  0  0  0  0  0  0  0  0  0  0
   -1.4018    1.0238    0.4329 C   0  0  0  0  0  0  0  0  0  0  0  0
   -2.2416    1.5423   -0.3033 O   0  0  0  0  0  0  0  0  0  0  0  0
   -0.6927    1.7304    1.3223 N   0  0  0  0  0  0  0  0  0  0  0  0
    0.0178    1.2410    1.8469 H   0  0  0  0  0  0  0  0  0  0  0  0
   -0.8259    3.1712    1.5254 C   0  0  0  0  0  0  0  0  0  0  0  0
   -1.8769    3.4302    1.6645 H   0  0  0  0  0  0  0  0  0  0  0  0
   -0.2598    3.4806    2.4054 H   0  0  0  0  0  0  0  0  0  0  0  0
   -0.4486    3.7020    0.6489 H   0  0  0  0  0  0  0  0  0  0  0  0
  5  6  2  0  0  0  0
  5  7  1  0  0  0  0
  2  3  1  0  0  0  0
  2  4  1  0  0  0  0
  2  5  1  0  0  0  0
  1  2  1  0  0  0  0
 26 27  2  0  0  0  0
 26 28  1  0  0  0  0
 24 25  1  0  0  0  0
 22 23  1  0  0  0  0
 22 24  2  0  0  0  0
 20 21  1  0  0  0  0
 19 20  1  0  0  0  0
 19 22  1  0  0  0  0
 17 18  1  0  0  0  0
 17 19  2  0  0  0  0
 15 16  1  0  0  0  0
 15 17  1  0  0  0  0
 14 15  2  0  0  0  0
 14 24  1  0  0  0  0
 11 12  1  0  0  0  0
 11 13  1  0  0  0  0
 11 14  1  0  0  0  0
  9 10  1  0  0  0  0
  9 11  1  0  0  0  0
  9 26  1  0  0  0  0
  7  8  1  0  0  0  0
  7  9  1  0  0  0  0
 30 31  1  0  0  0  0
 30 32  1  0  0  0  0
 30 33  1  0  0  0  0
 28 29  1  0  0  0  0
 28 30  1  0  0  0  0
M  END
$$$$
default_name
  -OEChem-02102213163D

 33 33  0     1  0  0  0  0  0999 V2000
   -4.0702   -3.8485    1.4554 H   0  0  0  0  0  0  0  0  0  0  0  0
   -4.0012   -2.9605    0.8284 C   0  0  0  0  0  0  0  0  0  0  0  0
   -4.7652   -2.2435    1.1234 H   0  0  0  0  0  0  0  0  0  0  0  0
   -4.1352   -3.2385   -0.2156 H   0  0  0  0  0  0  0  0  0  0  0  0
   -2.6362   -2.3395    1.0094 C   0  0  0  0  0  0  0  0  0  0  0  0
   -1.8292   -2.8395    1.7814 O   0  0  0  0  0  0  0  0  0  0  0  0
   -2.3832   -1.2445    0.2964 N   0  0  0  0  0  0  0  0  0  0  0  0
   -3.1102   -0.8685   -0.2946 H   0  0  0  0  0  0  0  0  0  0  0  0
   -1.1292   -0.4875    0.3524 C   0  0  1  0  0  0  0  0  0  0  0  0
   -0.5898   -0.7762    1.2552 H   0  0  0  0  0  0  0  0  0  0  0  0
   -0.2608   -0.8470   -0.8656 C   0  0  0  0  0  0  0  0  0  0  0  0
   -0.9123   -1.0969   -1.7040 H   0  0  0  0  0  0  0  0  0  0  0  0
    0.3224    0.0289   -1.1547 H   0  0  0  0  0  0  0  0  0  0  0  0
    0.6742   -2.0176   -0.6308 C   0  0  0  0  0  0  0  0  0  0  0  0
    1.5311   -2.4608   -1.6582 C   0  0  0  0  0  0  0  0  0  0  0  0
    1.5055   -1.9823   -2.6285 H   0  0  0  0  0  0  0  0  0  0  0  0
    2.4264   -3.5222   -1.4225 C   0  0  0  0  0  0  0  0  0  0  0  0
    3.0801   -3.8600   -2.2120 H   0  0  0  0  0  0  0  0  0  0  0  0
    2.4672   -4.1399   -0.1535 C   0  0  0  0  0  0  0  0  0  0  0  0
    3.3292   -5.1623    0.0848 O   0  0  0  0  0  0  0  0  0  0  0  0
    3.7924   -5.4362   -0.7079 H   0  0  0  0  0  0  0  0  0  0  0  0
    1.6125   -3.6919    0.8750 C   0  0  0  0  0  0  0  0  0  0  0  0
    1.6499   -4.1751    1.8397 H   0  0  0  0  0  0  0  0  0  0  0  0
    0.7154   -2.6337    0.6349 C   0  0  0  0  0  0  0  0  0  0  0  0
    0.0525   -2.2962    1.4227 H   0  0  0  0  0  0  0  0  0  0  0  0
   -1.4018    1.0238    0.4329 C   0  0  0  0  0  0  0  0  0  0  0  0
   -2.2416    1.5423   -0.3033 O   0  0  0  0  0  0  0  0  0  0  0  0
   -0.6927    1.7304    1.3223 N   0  0  0  0  0  0  0  0  0  0  0  0
    0.0178    1.2410    1.8469 H   0  0  0  0  0  0  0  0  0  0  0  0
   -0.8259    3.1712    1.5254 C   0  0  0  0  0  0  0  0  0  0  0  0
   -1.8769    3.4302    1.6645 H   0  0  0  0  0  0  0  0  0  0  0  0
   -0.2598    3.4806    2.4054 H   0  0  0  0  0  0  0  0  0  0  0  0
   -0.4486    3.7020    0.6489 H   0  0  0  0  0  0  0  0  0  0  0  0
  5  6  2  0  0  0  0
  5  7  1  0  0  0  0
  2  3  1  0  0  0  0
  2  4  1  0  0  0  0
  2  5  1  0  0  0  0
  1  2  1  0  0  0  0
 26 27  2  0  0  0  0
 26 28  1  0  0  0  0
 24 25  1  0  0  0  0
 22 23  1  0  0  0  0
 22 24  2  0  0  0  0
 20 21  1  0  0  0  0
 19 20  1  0  0  0  0
 19 22  1  0  0  0  0
 17 18  1  0  0  0  0
 17 19  2  0  0  0  0
 15 16  1  0  0  0  0
 15 17  1  0  0  0  0
 14 15  2  0  0  0  0
 14 24  1  0  0  0  0
 11 12  1  0  0  0  0
 11 13  1  0  0  0  0
 11 14  1  0  0  0  0
  9 10  1  0  0  0  0
  9 11  1  0  0  0  0
  9 26  1  0  0  0  0
  7  8  1  0  0  0  0
  7  9  1  0  0  0  0
 30 31  1  0  0  0  0
 30 32  1  0  0  0  0
 30 33  1  0  0  0  0
 28 29  1  0  0  0  0
 28 30  1  0  0  0  0
M  END
$$$$
default_name
  -OEChem-02102213163D

 33 33  0     1  0  0  0  0  0999 V2000
   -4.0702   -3.8485    1.4554 H   0  0  0  0  0  0  0  0  0  0  0  0
   -4.0012   -2.9605    0.8284 C   0  0  0  0  0  0  0  0  0  0  0  0
   -4.7652   -2.2435    1.1234 H   0  0  0  0  0  0  0  0  0  0  0  0
   -4.1352   -3.2385   -0.2156 H   0  0  0  0  0  0  0  0  0  0  0  0
   -2.6362   -2.3395    1.0094 C   0  0  0  0  0  0  0  0  0  0  0  0
   -1.8292   -2.8395    1.7814 O   0  0  0  0  0  0  0  0  0  0  0  0
   -2.3832   -1.2445    0.2964 N   0  0  0  0  0  0  0  0  0  0  0  0
   -3.1102   -0.8685   -0.2946 H   0  0  0  0  0  0  0  0  0  0  0  0
   -1.1292   -0.4875    0.3524 C   0  0  1  0  0  0  0  0  0  0  0  0
   -0.5898   -0.7762    1.2552 H   0  0  0  0  0  0  0  0  0  0  0  0
   -0.2608   -0.8470   -0.8656 C   0  0  0  0  0  0  0  0  0  0  0  0
   -0.9123   -1.0969   -1.7040 H   0  0  0  0  0  0  0  0  0  0  0  0
    0.3224    0.0289   -1.1547 H   0  0  0  0  0  0  0  0  0  0  0  0
    0.6742   -2.0176   -0.6308 C   0  0  0  0  0  0  0  0  0  0  0  0
    1.7399   -2.2661   -1.5190 C   0  0  0  0  0  0  0  0  0  0  0  0
    1.8786   -1.6360   -2.3878 H   0  0  0  0  0  0  0  0  0  0  0  0
    2.6297   -3.3302   -1.2744 C   0  0  0  0  0  0  0  0  0  0  0  0
    3.4437   -3.5185   -1.9574 H   0  0  0  0  0  0  0  0  0  0  0  0
    2.4550   -4.1460   -0.1353 C   0  0  0  0  0  0  0  0  0  0  0  0
    3.3095   -5.1728    0.1110 O   0  0  0  0  0  0  0  0  0  0  0  0
    3.9341   -5.3022   -0.6038 H   0  0  0  0  0  0  0  0  0  0  0  0
    1.3910   -3.8929    0.7550 C   0  0  0  0  0  0  0  0  0  0  0  0
    1.2652   -4.5264    1.6201 H   0  0  0  0  0  0  0  0  0  0  0  0
    0.5005   -2.8314    0.5053 C   0  0  0  0  0  0  0  0  0  0  0  0
   -0.3222   -2.6433    1.1848 H   0  0  0  0  0  0  0  0  0  0  0  0
   -1.4018    1.0238    0.4329 C   0  0  0  0  0  0  0  0  0  0  0  0
   -2.2416    1.5423   -0.3033 O   0  0  0  0  0  0  0  0  0  0  0  0
   -0.6927    1.7304    1.3223 N   0  0  0  0  0  0  0  0  0  0  0  0
    0.0178    1.2410    1.8469 H   0  0  0  0  0  0  0  0  0  0  0  0
   -0.8259    3.1712    1.5254 C   0  0  0  0  0  0  0  0  0  0  0  0
   -1.8769    3.4302    1.6645 H   0  0  0  0  0  0  0  0  0  0  0  0
   -0.2598    3.4806    2.4054 H   0  0  0  0  0  0  0  0  0  0  0  0
   -0.4486    3.7020    0.6489 H   0  0  0  0  0  0  0  0  0  0  0  0
  5  6  2  0  0  0  0
  5  7  1  0  0  0  0
  2  3  1  0  0  0  0
  2  4  1  0  0  0  0
  2  5  1  0  0  0  0
  1  2  1  0  0  0  0
 26 27  2  0  0  0  0
 26 28  1  0  0  0  0
 24 25  1  0  0  0  0
 22 23  1  0  0  0  0
 22 24  2  0  0  0  0
 20 21  1  0  0  0  0
 19 20  1  0  0  0  0
 19 22  1  0  0  0  0
 17 18  1  0  0  0  0
 17 19  2  0  0  0  0
 15 16  1  0  0  0  0
 15 17  1  0  0  0  0
 14 15  2  0  0  0  0
 14 24  1  0  0  0  0
 11 12  1  0  0  0  0
 11 13  1  0  0  0  0
 11 14  1  0  0  0  0
  9 10  1  0  0  0  0
  9 11  1  0  0  0  0
  9 26  1  0  0  0  0
  7  8  1  0  0  0  0
  7  9  1  0  0  0  0
 30 31  1  0  0  0  0
 30 32  1  0  0  0  0
 30 33  1  0  0  0  0
 28 29  1  0  0  0  0
 28 30  1  0  0  0  0
M  END
$$$$
default_name
  -OEChem-02102213163D

 33 33  0     1  0  0  0  0  0999 V2000
   -4.0702   -3.8485    1.4554 H   0  0  0  0  0  0  0  0  0  0  0  0
   -4.0012   -2.9605    0.8284 C   0  0  0  0  0  0  0  0  0  0  0  0
   -4.7652   -2.2435    1.1234 H   0  0  0  0  0  0  0  0  0  0  0  0
   -4.1352   -3.2385   -0.2156 H   0  0  0  0  0  0  0  0  0  0  0  0
   -2.6362   -2.3395    1.0094 C   0  0  0  0  0  0  0  0  0  0  0  0
   -1.8292   -2.8395    1.7814 O   0  0  0  0  0  0  0  0  0  0  0  0
   -2.3832   -1.2445    0.2964 N   0  0  0  0  0  0  0  0  0  0  0  0
   -3.1102   -0.8685   -0.2946 H   0  0  0  0  0  0  0  0  0  0  0  0
   -1.1292   -0.4875    0.3524 C   0  0  1  0  0  0  0  0  0  0  0  0
   -0.5898   -0.7762    1.2552 H   0  0  0  0  0  0  0  0  0  0  0  0
   -0.2608   -0.8470   -0.8656 C   0  0  0  0  0  0  0  0  0  0  0  0
   -0.9123   -1.0969   -1.7040 H   0  0  0  0  0  0  0  0  0  0  0  0
    0.3224    0.0289   -1.1547 H   0  0  0  0  0  0  0  0  0  0  0  0
    0.6742   -2.0176   -0.6308 C   0  0  0  0  0  0  0  0  0  0  0  0
    1.9059   -2.0919   -1.3117 C   0  0  0  0  0  0  0  0  0  0  0  0
    2.1770   -1.3250   -2.0255 H   0  0  0  0  0  0  0  0  0  0  0  0
    2.7888   -3.1601   -1.0600 C   0  0  0  0  0  0  0  0  0  0  0  0
    3.7304   -3.2147   -1.5844 H   0  0  0  0  0  0  0  0  0  0  0  0
    2.4398   -4.1553   -0.1212 C   0  0  0  0  0  0  0  0  0  0  0  0
    3.2856   -5.1879    0.1308 O   0  0  0  0  0  0  0  0  0  0  0  0
    4.0448   -5.1836   -0.4536 H   0  0  0  0  0  0  0  0  0  0  0  0
    1.2090   -4.0767    0.5628 C   0  0  0  0  0  0  0  0  0  0  0  0
    0.9515   -4.8461    1.2751 H   0  0  0  0  0  0  0  0  0  0  0  0
    0.3267   -3.0103    0.3057 C   0  0  0  0  0  0  0  0  0  0  0  0
   -0.6228   -2.9555    0.8248 H   0  0  0  0  0  0  0  0  0  0  0  0
   -1.4018    1.0238    0.4329 C   0  0  0  0  0  0  0  0  0  0  0  0
   -2.2416    1.5423   -0.3033 O   0  0  0  0  0  0  0  0  0  0  0  0
   -0.6927    1.7304    1.3223 N   0  0  0  0  0  0  0  0  0  0  0  0
    0.0178    1.2410    1.8469 H   0  0  0  0  0  0  0  0  0  0  0  0
   -0.8259    3.1712    1.5254 C   0  0  0  0  0  0  0  0  0  0  0  0
   -1.8769    3.4302    1.6645 H   0  0  0  0  0  0  0  0  0  0  0  0
   -0.2598    3.4806    2.4054 H   0  0  0  0  0  0  0  0  0  0  0  0
   -0.4486    3.7020    0.6489 H   0  0  0  0  0  0  0  0  0  0  0  0
  5  6  2  0  0  0  0
  5  7  1  0  0  0  0
  2  3  1  0  0  0  0
  2  4  1  0  0  0  0
  2  5  1  0  0  0  0
  1  2  1  0  0  0  0
 26 27  2  0  0  0  0
 26 28  1  0  0  0  0
 24 25  1  0  0  0  0
 22 23  1  0  0  0  0
 22 24  2  0  0  0  0
 20 21  1  0  0  0  0
 19 20  1  0  0  0  0
 19 22  1  0  0  0  0
 17 18  1  0  0  0  0
 17 19  2  0  0  0  0
 15 16  1  0  0  0  0
 15 17  1  0  0  0  0
 14 15  2  0  0  0  0
 14 24  1  0  0  0  0
 11 12  1  0  0  0  0
 11 13  1  0  0  0  0
 11 14  1  0  0  0  0
  9 10  1  0  0  0  0
  9 11  1  0  0  0  0
  9 26  1  0  0  0  0
  7  8  1  0  0  0  0
  7  9  1  0  0  0  0
 30 31  1  0  0  0  0
 30 32  1  0  0  0  0
 30 33  1  0  0  0  0
 28 29  1  0  0  0  0
 28 30  1  0  0  0  0
M  END
$$$$
default_name
  -OEChem-02102213163D

 33 33  0     1  0  0  0  0  0999 V2000
   -4.0702   -3.8485    1.4554 H   0  0  0  0  0  0  0  0  0  0  0  0
   -4.0012   -2.9605    0.8284 C   0  0  0  0  0  0  0  0  0  0  0  0
   -4.7652   -2.2435    1.1234 H   0  0  0  0  0  0  0  0  0  0  0  0
   -4.1352   -3.2385   -0.2156 H   0  0  0  0  0  0  0  0  0  0  0  0
   -2.6362   -2.3395    1.0094 C   0  0  0  0  0  0  0  0  0  0  0  0
   -1.8292   -2.8395    1.7814 O   0  0  0  0  0  0  0  0  0  0  0  0
   -2.3832   -1.2445    0.2964 N   0  0  0  0  0  0  0  0  0  0  0  0
   -3.1102   -0.8685   -0.2946 H   0  0  0  0  0  0  0  0  0  0  0  0
   -1.1292   -0.4875    0.3524 C   0  0  1  0  0  0  0  0  0  0  0  0
   -0.5898   -0.7762    1.2552 H   0  0  0  0  0  0  0  0  0  0  0  0
   -0.2608   -0.8470   -0.8656 C   0  0  0  0  0  0  0  0  0  0  0  0
   -0.9123   -1.0969   -1.7040 H   0  0  0  0  0  0  0  0  0  0  0  0
    0.3224    0.0289   -1.1547 H   0  0  0  0  0  0  0  0  0  0  0  0
    0.6742   -2.0176   -0.6308 C   0  0  0  0  0  0  0  0  0  0  0  0
    2.0179   -1.9501   -1.0505 C   0  0  0  0  0  0  0  0  0  0  0  0
    2.3803   -1.0705   -1.5663 H   0  0  0  0  0  0  0  0  0  0  0  0
    2.8928   -3.0237   -0.7941 C   0  0  0  0  0  0  0  0  0  0  0  0
    3.9207   -2.9692   -1.1183 H   0  0  0  0  0  0  0  0  0  0  0  0
    2.4227   -4.1672   -0.1121 C   0  0  0  0  0  0  0  0  0  0  0  0
    3.2592   -5.2066    0.1427 O   0  0  0  0  0  0  0  0  0  0  0  0
    4.1170   -5.0886   -0.2675 H   0  0  0  0  0  0  0  0  0  0  0  0
    1.0790   -4.2310    0.3115 C   0  0  0  0  0  0  0  0  0  0  0  0
    0.7303   -5.1125    0.8282 H   0  0  0  0  0  0  0  0  0  0  0  0
    0.2058   -3.1581    0.0496 C   0  0  0  0  0  0  0  0  0  0  0  0
   -0.8287   -3.2118    0.3672 H   0  0  0  0  0  0  0  0  0  0  0  0
   -1.4018    1.0238    0.4329 C   0  0  0  0  0  0  0  0  0  0  0  0
   -2.2416    1.5423   -0.3033 O   0  0  0  0  0  0  0  0  0  0  0  0
   -0.6927    1.7304    1.3223 N   0  0  0  0  0  0  0  0  0  0  0  0
    0.0178    1.2410    1.8469 H   0  0  0  0  0  0  0  0  0  0  0  0
   -0.8259    3.1712    1.5254 C   0  0  0  0  0  0  0  0  0  0  0  0
   -1.8769    3.4302    1.6645 H   0  0  0  0  0  0  0  0  0  0  0  0
   -0.2598    3.4806    2.4054 H   0  0  0  0  0  0  0  0  0  0  0  0
   -0.4486    3.7020    0.6489 H   0  0  0  0  0  0  0  0  0  0  0  0
  5  6  2  0  0  0  0
  5  7  1  0  0  0  0
  2  3  1  0  0  0  0
  2  4  1  0  0  0  0
  2  5  1  0  0  0  0
  1  2  1  0  0  0  0
 26 27  2  0  0  0  0
 26 28  1  0  0  0  0
 24 25  1  0  0  0  0
 22 23  1  0  0  0  0
 22 24  2  0  0  0  0
 20 21  1  0  0  0  0
 19 20  1  0  0  0  0
 19 22  1  0  0  0  0
 17 18  1  0  0  0  0
 17 19  2  0  0  0  0
 15 16  1  0  0  0  0
 15 17  1  0  0  0  0
 14 15  2  0  0  0  0
 14 24  1  0  0  0  0
 11 12  1  0  0  0  0
 11 13  1  0  0  0  0
 11 14  1  0  0  0  0
  9 10  1  0  0  0  0
  9 11  1  0  0  0  0
  9 26  1  0  0  0  0
  7  8  1  0  0  0  0
  7  9  1  0  0  0  0
 30 31  1  0  0  0  0
 30 32  1  0  0  0  0
 30 33  1  0  0  0  0
 28 29  1  0  0  0  0
 28 30  1  0  0  0  0
M  END
$$$$
default_name
  -OEChem-02102213163D

 33 33  0     1  0  0  0  0  0999 V2000
   -4.0702   -3.8485    1.4554 H   0  0  0  0  0  0  0  0  0  0  0  0
   -4.0012   -2.9605    0.8284 C   0  0  0  0  0  0  0  0  0  0  0  0
   -4.7652   -2.2435    1.1234 H   0  0  0  0  0  0  0  0  0  0  0  0
   -4.1352   -3.2385   -0.2156 H   0  0  0  0  0  0  0  0  0  0  0  0
   -2.6362   -2.3395    1.0094 C   0  0  0  0  0  0  0  0  0  0  0  0
   -1.8292   -2.8395    1.7814 O   0  0  0  0  0  0  0  0  0  0  0  0
   -2.3832   -1.2445    0.2964 N   0  0  0  0  0  0  0  0  0  0  0  0
   -3.1102   -0.8685   -0.2946 H   0  0  0  0  0  0  0  0  0  0  0  0
   -1.1292   -0.4875    0.3524 C   0  0  1  0  0  0  0  0  0  0  0  0
   -0.5898   -0.7762    1.2552 H   0  0  0  0  0  0  0  0  0  0  0  0
   -0.2608   -0.8470   -0.8656 C   0  0  0  0  0  0  0  0  0  0  0  0
   -0.9123   -1.0969   -1.7040 H   0  0  0  0  0  0  0  0  0  0  0  0
    0.3224    0.0289   -1.1547 H   0  0  0  0  0  0  0  0  0  0  0  0
    0.6742   -2.0176   -0.6308 C   0  0  0  0  0  0  0  0  0  0  0  0
    2.0682   -1.8503   -0.7532 C   0  0  0  0  0  0  0  0  0  0  0  0
    2.4749   -0.8898   -1.0415 H   0  0  0  0  0  0  0  0  0  0  0  0
    2.9346   -2.9302   -0.4946 C   0  0  0  0  0  0  0  0  0  0  0  0
    4.0015   -2.7989   -0.5909 H   0  0  0  0  0  0  0  0  0  0  0  0
    2.4048   -4.1808   -0.1086 C   0  0  0  0  0  0  0  0  0  0  0  0
    3.2321   -5.2276    0.1459 O   0  0  0  0  0  0  0  0  0  0  0  0
    4.1457   -5.0237   -0.0581 H   0  0  0  0  0  0  0  0  0  0  0  0
    1.0098   -4.3451    0.0182 C   0  0  0  0  0  0  0  0  0  0  0  0
    0.6166   -5.3073    0.3098 H   0  0  0  0  0  0  0  0  0  0  0  0
    0.1462   -3.2650   -0.2454 C   0  0  0  0  0  0  0  0  0  0  0  0
   -0.9259   -3.3945   -0.1568 H   0  0  0  0  0  0  0  0  0  0  0  0
   -1.4018    1.0238    0.4329 C   0  0  0  0  0  0  0  0  0  0  0  0
   -2.2416    1.5423   -0.3033 O   0  0  0  0  0  0  0  0  0  0  0  0
   -0.6927    1.7304    1.3223 N   0  0  0  0  0  0  0  0  0  0  0  0
    0.0178    1.2410    1.8469 H   0  0  0  0  0  0  0  0  0  0  0  0
   -0.8259    3.1712    1.5254 C   0  0  0  0  0  0  0  0  0  0  0  0
   -1.8769    3.4302    1.6645 H   0  0  0  0  0  0  0  0  0  0  0  0
   -0.2598    3.4806    2.4054 H   0  0  0  0  0  0  0  0  0  0  0  0
   -0.4486    3.7020    0.6489 H   0  0  0  0  0  0  0  0  0  0  0  0
  5  6  2  0  0  0  0
  5  7  1  0  0  0  0
  2  3  1  0  0  0  0
  2  4  1  0  0  0  0
  2  5  1  0  0  0  0
  1  2  1  0  0  0  0
 26 27  2  0  0  0  0
 26 28  1  0  0  0  0
 24 25  1  0  0  0  0
 22 23  1  0  0  0  0
 22 24  2  0  0  0  0
 20 21  1  0  0  0  0
 19 20  1  0  0  0  0
 19 22  1  0  0  0  0
 17 18  1  0  0  0  0
 17 19  2  0  0  0  0
 15 16  1  0  0  0  0
 15 17  1  0  0  0  0
 14 15  2  0  0  0  0
 14 24  1  0  0  0  0
 11 12  1  0  0  0  0
 11 13  1  0  0  0  0
 11 14  1  0  0  0  0
  9 10  1  0  0  0  0
  9 11  1  0  0  0  0
  9 26  1  0  0  0  0
  7  8  1  0  0  0  0
  7  9  1  0  0  0  0
 30 31  1  0  0  0  0
 30 32  1  0  0  0  0
 30 33  1  0  0  0  0
 28 29  1  0  0  0  0
 28 30  1  0  0  0  0
M  END
$$$$
default_name
  -OEChem-02102213163D

 33 33  0     1  0  0  0  0  0999 V2000
   -4.0702   -3.8485    1.4554 H   0  0  0  0  0  0  0  0  0  0  0  0
   -4.0012   -2.9605    0.8284 C   0  0  0  0  0  0  0  0  0  0  0  0
   -4.7652   -2.2435    1.1234 H   0  0  0  0  0  0  0  0  0  0  0  0
   -4.1352   -3.2385   -0.2156 H   0  0  0  0  0  0  0  0  0  0  0  0
   -2.6362   -2.3395    1.0094 C   0  0  0  0  0  0  0  0  0  0  0  0
   -1.8292   -2.8395    1.7814 O   0  0  0  0  0  0  0  0  0  0  0  0
   -2.3832   -1.2445    0.2964 N   0  0  0  0  0  0  0  0  0  0  0  0
   -3.1102   -0.8685   -0.2946 H   0  0  0  0  0  0  0  0  0  0  0  0
   -1.1292   -0.4875    0.3524 C   0  0  1  0  0  0  0  0  0  0  0  0
   -0.5898   -0.7762    1.2552 H   0  0  0  0  0  0  0  0  0  0  0  0
   -0.2608   -0.8470   -0.8656 C   0  0  0  0  0  0  0  0  0  0  0  0
   -0.9123   -1.0969   -1.7040 H   0  0  0  0  0  0  0  0  0  0  0  0
    0.3224    0.0289   -1.1547 H   0  0  0  0  0  0  0  0  0  0  0  0
    0.6742   -2.0176   -0.6308 C   0  0  0  0  0  0  0  0  0  0  0  0
    2.0534   -1.7993   -0.4401 C   0  0  0  0  0  0  0  0  0  0  0  0
    2.4541   -0.7951   -0.4868 H   0  0  0  0  0  0  0  0  0  0  0  0
    2.9115   -2.8860   -0.1821 C   0  0  0  0  0  0  0  0  0  0  0  0
    3.9673   -2.7154   -0.0381 H   0  0  0  0  0  0  0  0  0  0  0  0
    2.3873   -4.1952   -0.1110 C   0  0  0  0  0  0  0  0  0  0  0  0
    3.2061   -5.2495    0.1402 O   0  0  0  0  0  0  0  0  0  0  0  0
    4.1291   -4.9932    0.1603 H   0  0  0  0  0  0  0  0  0  0  0  0
    1.0062   -4.4112   -0.2972 C   0  0  0  0  0  0  0  0  0  0  0  0
    0.6181   -5.4173   -0.2448 H   0  0  0  0  0  0  0  0  0  0  0  0
    0.1518   -3.3234   -0.5594 C   0  0  0  0  0  0  0  0  0  0  0  0
   -0.9078   -3.4913   -0.7116 H   0  0  0  0  0  0  0  0  0  0  0  0
   -1.4018    1.0238    0.4329 C   0  0  0  0  0  0  0  0  0  0  0  0
   -2.2416    1.5423   -0.3033 O   0  0  0  0  0  0  0  0  0  0  0  0
   -0.6927    1.7304    1.3223 N   0  0  0  0  0  0  0  0  0  0  0  0
    0.0178    1.2410    1.8469 H   0  0  0  0  0  0  0  0  0  0  0  0
   -0.8259    3.1712    1.5254 C   0  0  0  0  0  0  0  0  0  0  0  0
   -1.8769    3.4302    1.6645 H   0  0  0  0  0  0  0  0  0  0  0  0
   -0.2598    3.4806    2.4054 H   0  0  0  0  0  0  0  0  0  0  0  0
   -0.4486    3.7020    0.6489 H   0  0  0  0  0  0  0  0  0  0  0  0
  5  6  2  0  0  0  0
  5  7  1  0  0  0  0
  2  3  1  0  0  0  0
  2  4  1  0  0  0  0
  2  5  1  0  0  0  0
  1  2  1  0  0  0  0
 26 27  2  0  0  0  0
 26 28  1  0  0  0  0
 24 25  1  0  0  0  0
 22 23  1  0  0  0  0
 22 24  2  0  0  0  0
 20 21  1  0  0  0  0
 19 20  1  0  0  0  0
 19 22  1  0  0  0  0
 17 18  1  0  0  0  0
 17 19  2  0  0  0  0
 15 16  1  0  0  0  0
 15 17  1  0  0  0  0
 14 15  2  0  0  0  0
 14 24  1  0  0  0  0
 11 12  1  0  0  0  0
 11 13  1  0  0  0  0
 11 14  1  0  0  0  0
  9 10  1  0  0  0  0
  9 11  1  0  0  0  0
  9 26  1  0  0  0  0
  7  8  1  0  0  0  0
  7  9  1  0  0  0  0
 30 31  1  0  0  0  0
 30 32  1  0  0  0  0
 30 33  1  0  0  0  0
 28 29  1  0  0  0  0
 28 30  1  0  0  0  0
M  END
$$$$
default_name
  -OEChem-02102213163D

 33 33  0     1  0  0  0  0  0999 V2000
   -4.0702   -3.8485    1.4554 H   0  0  0  0  0  0  0  0  0  0  0  0
   -4.0012   -2.9605    0.8284 C   0  0  0  0  0  0  0  0  0  0  0  0
   -4.7652   -2.2435    1.1234 H   0  0  0  0  0  0  0  0  0  0  0  0
   -4.1352   -3.2385   -0.2156 H   0  0  0  0  0  0  0  0  0  0  0  0
   -2.6362   -2.3395    1.0094 C   0  0  0  0  0  0  0  0  0  0  0  0
   -1.8292   -2.8395    1.7814 O   0  0  0  0  0  0  0  0  0  0  0  0
   -2.3832   -1.2445    0.2964 N   0  0  0  0  0  0  0  0  0  0  0  0
   -3.1102   -0.8685   -0.2946 H   0  0  0  0  0  0  0  0  0  0  0  0
   -1.1292   -0.4875    0.3524 C   0  0  1  0  0  0  0  0  0  0  0  0
   -0.5898   -0.7762    1.2552 H   0  0  0  0  0  0  0  0  0  0  0  0
   -0.2608   -0.8470   -0.8656 C   0  0  0  0  0  0  0  0  0  0  0  0
   -0.9123   -1.0969   -1.7040 H   0  0  0  0  0  0  0  0  0  0  0  0
    0.3224    0.0289   -1.1547 H   0  0  0  0  0  0  0  0  0  0  0  0
    0.6742   -2.0176   -0.6308 C   0  0  0  0  0  0  0  0  0  0  0  0
    1.9745   -1.8006   -0.1324 C   0  0  0  0  0  0  0  0  0  0  0  0
    2.3194   -0.7931    0.0599 H   0  0  0  0  0  0  0  0  0  0  0  0
    2.8249   -2.8942    0.1222 C   0  0  0  0  0  0  0  0  0  0  0  0
    3.8206   -2.7242    0.5023 H   0  0  0  0  0  0  0  0  0  0  0  0
    2.3716   -4.2094   -0.1190 C   0  0  0  0  0  0  0  0  0  0  0  0
    3.1830   -5.2708    0.1261 O   0  0  0  0  0  0  0  0  0  0  0  0
    4.0681   -4.9993    0.3727 H   0  0  0  0  0  0  0  0  0  0  0  0
    1.0683   -4.4249   -0.6131 C   0  0  0  0  0  0  0  0  0  0  0  0
    0.7347   -5.4350   -0.7977 H   0  0  0  0  0  0  0  0  0  0  0  0
    0.2223   -3.3296   -0.8710 C   0  0  0  0  0  0  0  0  0  0  0  0
   -0.7755   -3.4955   -1.2593 H   0  0  0  0  0  0  0  0  0  0  0  0
   -1.4018    1.0238    0.4329 C   0  0  0  0  0  0  0  0  0  0  0  0
   -2.2416    1.5423   -0.3033 O   0  0  0  0  0  0  0  0  0  0  0  0
   -0.6927    1.7304    1.3223 N   0  0  0  0  0  0  0  0  0  0  0  0
    0.0178    1.2410    1.8469 H   0  0  0  0  0  0  0  0  0  0  0  0
   -0.8259    3.1712    1.5254 C   0  0  0  0  0  0  0  0  0  0  0  0
   -1.8769    3.4302    1.6645 H   0  0  0  0  0  0  0  0  0  0  0  0
   -0.2598    3.4806    2.4054 H   0  0  0  0  0  0  0  0  0  0  0  0
   -0.4486    3.7020    0.6489 H   0  0  0  0  0  0  0  0  0  0  0  0
  5  6  2  0  0  0  0
  5  7  1  0  0  0  0
  2  3  1  0  0  0  0
  2  4  1  0  0  0  0
  2  5  1  0  0  0  0
  1  2  1  0  0  0  0
 26 27  2  0  0  0  0
 26 28  1  0  0  0  0
 24 25  1  0  0  0  0
 22 23  1  0  0  0  0
 22 24  2  0  0  0  0
 20 21  1  0  0  0  0
 19 20  1  0  0  0  0
 19 22  1  0  0  0  0
 17 18  1  0  0  0  0
 17 19  2  0  0  0  0
 15 16  1  0  0  0  0
 15 17  1  0  0  0  0
 14 15  2  0  0  0  0
 14 24  1  0  0  0  0
 11 12  1  0  0  0  0
 11 13  1  0  0  0  0
 11 14  1  0  0  0  0
  9 10  1  0  0  0  0
  9 11  1  0  0  0  0
  9 26  1  0  0  0  0
  7  8  1  0  0  0  0
  7  9  1  0  0  0  0
 30 31  1  0  0  0  0
 30 32  1  0  0  0  0
 30 33  1  0  0  0  0
 28 29  1  0  0  0  0
 28 30  1  0  0  0  0
M  END
$$$$
default_name
  -OEChem-02102213163D

 33 33  0     1  0  0  0  0  0999 V2000
   -4.0702   -3.8485    1.4554 H   0  0  0  0  0  0  0  0  0  0  0  0
   -4.0012   -2.9605    0.8284 C   0  0  0  0  0  0  0  0  0  0  0  0
   -4.7652   -2.2435    1.1234 H   0  0  0  0  0  0  0  0  0  0  0  0
   -4.1352   -3.2385   -0.2156 H   0  0  0  0  0  0  0  0  0  0  0  0
   -2.6362   -2.3395    1.0094 C   0  0  0  0  0  0  0  0  0  0  0  0
   -1.8292   -2.8395    1.7814 O   0  0  0  0  0  0  0  0  0  0  0  0
   -2.3832   -1.2445    0.2964 N   0  0  0  0  0  0  0  0  0  0  0  0
   -3.1102   -0.8685   -0.2946 H   0  0  0  0  0  0  0  0  0  0  0  0
   -1.1292   -0.4875    0.3524 C   0  0  1  0  0  0  0  0  0  0  0  0
   -0.5898   -0.7762    1.2552 H   0  0  0  0  0  0  0  0  0  0  0  0
   -0.2608   -0.8470   -0.8656 C   0  0  0  0  0  0  0  0  0  0  0  0
   -0.9123   -1.0969   -1.7040 H   0  0  0  0  0  0  0  0  0  0  0  0
    0.3224    0.0289   -1.1547 H   0  0  0  0  0  0  0  0  0  0  0  0
    0.6742   -2.0176   -0.6308 C   0  0  0  0  0  0  0  0  0  0  0  0
    1.8369   -1.8542    0.1487 C   0  0  0  0  0  0  0  0  0  0  0  0
    2.0799   -0.8838    0.5614 H   0  0  0  0  0  0  0  0  0  0  0  0
    2.6809   -2.9540    0.3975 C   0  0  0  0  0  0  0  0  0  0  0  0
    3.5712   -2.8249    0.9936 H   0  0  0  0  0  0  0  0  0  0  0  0
    2.3585   -4.2225   -0.1323 C   0  0  0  0  0  0  0  0  0  0  0  0
    3.1643   -5.2900    0.1044 O   0  0  0  0  0  0  0  0  0  0  0  0
    3.9670   -5.0415    0.5648 H   0  0  0  0  0  0  0  0  0  0  0  0
    1.1920   -4.3853   -0.9080 C   0  0  0  0  0  0  0  0  0  0  0  0
    0.9586   -5.3592   -1.3113 H   0  0  0  0  0  0  0  0  0  0  0  0
    0.3529   -3.2830   -1.1587 C   0  0  0  0  0  0  0  0  0  0  0  0
   -0.5382   -3.4069   -1.7626 H   0  0  0  0  0  0  0  0  0  0  0  0
   -1.4018    1.0238    0.4329 C   0  0  0  0  0  0  0  0  0  0  0  0
   -2.2416    1.5423   -0.3033 O   0  0  0  0  0  0  0  0  0  0  0  0
   -0.6927    1.7304    1.3223 N   0  0  0  0  0  0  0  0  0  0  0  0
    0.0178    1.2410    1.8469 H   0  0  0  0  0  0  0  0  0  0  0  0
   -0.8259    3.1712    1.5254 C   0  0  0  0  0  0  0  0  0  0  0  0
   -1.8769    3.4302    1.6645 H   0  0  0  0  0  0  0  0  0  0  0  0
   -0.2598    3.4806    2.4054 H   0  0  0  0  0  0  0  0  0  0  0  0
   -0.4486    3.7020    0.6489 H   0  0  0  0  0  0  0  0  0  0  0  0
  5  6  2  0  0  0  0
  5  7  1  0  0  0  0
  2  3  1  0  0  0  0
  2  4  1  0  0  0  0
  2  5  1  0  0  0  0
  1  2  1  0  0  0  0
 26 27  2  0  0  0  0
 26 28  1  0  0  0  0
 24 25  1  0  0  0  0
 22 23  1  0  0  0  0
 22 24  2  0  0  0  0
 20 21  1  0  0  0  0
 19 20  1  0  0  0  0
 19 22  1  0  0  0  0
 17 18  1  0  0  0  0
 17 19  2  0  0  0  0
 15 16  1  0  0  0  0
 15 17  1  0  0  0  0
 14 15  2  0  0  0  0
 14 24  1  0  0  0  0
 11 12  1  0  0  0  0
 11 13  1  0  0  0  0
 11 14  1  0  0  0  0
  9 10  1  0  0  0  0
  9 11  1  0  0  0  0
  9 26  1  0  0  0  0
  7  8  1  0  0  0  0
  7  9  1  0  0  0  0
 30 31  1  0  0  0  0
 30 32  1  0  0  0  0
 30 33  1  0  0  0  0
 28 29  1  0  0  0  0
 28 30  1  0  0  0  0
M  END
$$$$
default_name
  -OEChem-02102213163D

 33 33  0     1  0  0  0  0  0999 V2000
   -4.0702   -3.8485    1.4554 H   0  0  0  0  0  0  0  0  0  0  0  0
   -4.0012   -2.9605    0.8284 C   0  0  0  0  0  0  0  0  0  0  0  0
   -4.7652   -2.2435    1.1234 H   0  0  0  0  0  0  0  0  0  0  0  0
   -4.1352   -3.2385   -0.2156 H   0  0  0  0  0  0  0  0  0  0  0  0
   -2.6362   -2.3395    1.0094 C   0  0  0  0  0  0  0  0  0  0  0  0
   -1.8292   -2.8395    1.7814 O   0  0  0  0  0  0  0  0  0  0  0  0
   -2.3832   -1.2445    0.2964 N   0  0  0  0  0  0  0  0  0  0  0  0
   -3.1102   -0.8685   -0.2946 H   0  0  0  0  0  0  0  0  0  0  0  0
   -1.1292   -0.4875    0.3524 C   0  0  1  0  0  0  0  0  0  0  0  0
   -0.5898   -0.7762    1.2552 H   0  0  0  0  0  0  0  0  0  0  0  0
   -0.2608   -0.8470   -0.8656 C   0  0  0  0  0  0  0  0  0  0  0  0
   -0.9123   -1.0969   -1.7040 H   0  0  0  0  0  0  0  0  0  0  0  0
    0.3224    0.0289   -1.1547 H   0  0  0  0  0  0  0  0  0  0  0  0
    0.6742   -2.0176   -0.6308 C   0  0  0  0  0  0  0  0  0  0  0  0
    1.6499   -1.9563    0.3843 C   0  0  0  0  0  0  0  0  0  0  0  0
    1.7521   -1.0609    0.9835 H   0  0  0  0  0  0  0  0  0  0  0  0
    2.4891   -3.0616    0.6251 C   0  0  0  0  0  0  0  0  0  0  0  0
    3.2362   -3.0105    1.4022 H   0  0  0  0  0  0  0  0  0  0  0  0
    2.3490   -4.2335   -0.1497 C   0  0  0  0  0  0  0  0  0  0  0  0
    3.1514   -5.3059    0.0767 O   0  0  0  0  0  0  0  0  0  0  0  0
    3.8327   -5.1170    0.7233 H   0  0  0  0  0  0  0  0  0  0  0  0
    1.3688   -4.2949   -1.1619 C   0  0  0  0  0  0  0  0  0  0  0  0
    1.2744   -5.1950   -1.7505 H   0  0  0  0  0  0  0  0  0  0  0  0
    0.5347   -3.1868   -1.4032 C   0  0  0  0  0  0  0  0  0  0  0  0
   -0.2120   -3.2314   -2.1871 H   0  0  0  0  0  0  0  0  0  0  0  0
   -1.4018    1.0238    0.4329 C   0  0  0  0  0  0  0  0  0  0  0  0
   -2.2416    1.5423   -0.3033 O   0  0  0  0  0  0  0  0  0  0  0  0
   -0.6927    1.7304    1.3223 N   0  0  0  0  0  0  0  0  0  0  0  0
    0.0178    1.2410    1.8469 H   0  0  0  0  0  0  0  0  0  0  0  0
   -0.8259    3.1712    1.5254 C   0  0  0  0  0  0  0  0  0  0  0  0
   -1.8769    3.4302    1.6645 H   0  0  0  0  0  0  0  0  0  0  0  0
   -0.2598    3.4806    2.4054 H   0  0  0  0  0  0  0  0  0  0  0  0
   -0.4486    3.7020    0.6489 H   0  0  0  0  0  0  0  0  0  0  0  0
  5  6  2  0  0  0  0
  5  7  1  0  0  0  0
  2  3  1  0  0  0  0
  2  4  1  0  0  0  0
  2  5  1  0  0  0  0
  1  2  1  0  0  0  0
 26 27  2  0  0  0  0
 26 28  1  0  0  0  0
 24 25  1  0  0  0  0
 22 23  1  0  0  0  0
 22 24  2  0  0  0  0
 20 21  1  0  0  0  0
 19 20  1  0  0  0  0
 19 22  1  0  0  0  0
 17 18  1  0  0  0  0
 17 19  2  0  0  0  0
 15 16  1  0  0  0  0
 15 17  1  0  0  0  0
 14 15  2  0  0  0  0
 14 24  1  0  0  0  0
 11 12  1  0  0  0  0
 11 13  1  0  0  0  0
 11 14  1  0  0  0  0
  9 10  1  0  0  0  0
  9 11  1  0  0  0  0
  9 26  1  0  0  0  0
  7  8  1  0  0  0  0
  7  9  1  0  0  0  0
 30 31  1  0  0  0  0
 30 32  1  0  0  0  0
 30 33  1  0  0  0  0
 28 29  1  0  0  0  0
 28 30  1  0  0  0  0
M  END
$$$$
default_name
  -OEChem-02102213163D

 33 33  0     1  0  0  0  0  0999 V2000
   -4.0702   -3.8485    1.4554 H   0  0  0  0  0  0  0  0  0  0  0  0
   -4.0012   -2.9605    0.8284 C   0  0  0  0  0  0  0  0  0  0  0  0
   -4.7652   -2.2435    1.1234 H   0  0  0  0  0  0  0  0  0  0  0  0
   -4.1352   -3.2385   -0.2156 H   0  0  0  0  0  0  0  0  0  0  0  0
   -2.6362   -2.3395    1.0094 C   0  0  0  0  0  0  0  0  0  0  0  0
   -1.8292   -2.8395    1.7814 O   0  0  0  0  0  0  0  0  0  0  0  0
   -2.3832   -1.2445    0.2964 N   0  0  0  0  0  0  0  0  0  0  0  0
   -3.1102   -0.8685   -0.2946 H   0  0  0  0  0  0  0  0  0  0  0  0
   -1.1292   -0.4875    0.3524 C   0  0  1  0  0  0  0  0  0  0  0  0
   -0.5898   -0.7762    1.2552 H   0  0  0  0  0  0  0  0  0  0  0  0
   -0.2608   -0.8470   -0.8656 C   0  0  0  0  0  0  0  0  0  0  0  0
   -0.9123   -1.0969   -1.7040 H   0  0  0  0  0  0  0  0  0  0  0  0
    0.3224    0.0289   -1.1547 H   0  0  0  0  0  0  0  0  0  0  0  0
    0.6742   -2.0176   -0.6308 C   0  0  0  0  0  0  0  0  0  0  0  0
    1.4264   -2.1000    0.5582 C   0  0  0  0  0  0  0  0  0  0  0  0
    1.3582   -1.3126    1.2974 H   0  0  0  0  0  0  0  0  0  0  0  0
    2.2627   -3.2094    0.7895 C   0  0  0  0  0  0  0  0  0  0  0  0
    2.8384   -3.2685    1.7004 H   0  0  0  0  0  0  0  0  0  0  0  0
    2.3438   -4.2418   -0.1703 C   0  0  0  0  0  0  0  0  0  0  0  0
    3.1452   -5.3173    0.0448 O   0  0  0  0  0  0  0  0  0  0  0  0
    3.6743   -5.2206    0.8376 H   0  0  0  0  0  0  0  0  0  0  0  0
    1.5867   -4.1601   -1.3573 C   0  0  0  0  0  0  0  0  0  0  0  0
    1.6607   -4.9537   -2.0855 H   0  0  0  0  0  0  0  0  0  0  0  0
    0.7552   -3.0477   -1.5877 C   0  0  0  0  0  0  0  0  0  0  0  0
    0.1809   -2.9811   -2.5041 H   0  0  0  0  0  0  0  0  0  0  0  0
   -1.4018    1.0238    0.4329 C   0  0  0  0  0  0  0  0  0  0  0  0
   -2.2416    1.5423   -0.3033 O   0  0  0  0  0  0  0  0  0  0  0  0
   -0.6927    1.7304    1.3223 N   0  0  0  0  0  0  0  0  0  0  0  0
    0.0178    1.2410    1.8469 H   0  0  0  0  0  0  0  0  0  0  0  0
   -0.8259    3.1712    1.5254 C   0  0  0  0  0  0  0  0  0  0  0  0
   -1.8769    3.4302    1.6645 H   0  0  0  0  0  0  0  0  0  0  0  0
   -0.2598    3.4806    2.4054 H   0  0  0  0  0  0  0  0  0  0  0  0
   -0.4486    3.7020    0.6489 H   0  0  0  0  0  0  0  0  0  0  0  0
  5  6  2  0  0  0  0
  5  7  1  0  0  0  0
  2  3  1  0  0  0  0
  2  4  1  0  0  0  0
  2  5  1  0  0  0  0
  1  2  1  0  0  0  0
 26 27  2  0  0  0  0
 26 28  1  0  0  0  0
 24 25  1  0  0  0  0
 22 23  1  0  0  0  0
 22 24  2  0  0  0  0
 20 21  1  0  0  0  0
 19 20  1  0  0  0  0
 19 22  1  0  0  0  0
 17 18  1  0  0  0  0
 17 19  2  0  0  0  0
 15 16  1  0  0  0  0
 15 17  1  0  0  0  0
 14 15  2  0  0  0  0
 14 24  1  0  0  0  0
 11 12  1  0  0  0  0
 11 13  1  0  0  0  0
 11 14  1  0  0  0  0
  9 10  1  0  0  0  0
  9 11  1  0  0  0  0
  9 26  1  0  0  0  0
  7  8  1  0  0  0  0
  7  9  1  0  0  0  0
 30 31  1  0  0  0  0
 30 32  1  0  0  0  0
 30 33  1  0  0  0  0
 28 29  1  0  0  0  0
 28 30  1  0  0  0  0
M  END
$$$$
default_name
  -OEChem-02102213163D

 33 33  0     1  0  0  0  0  0999 V2000
   -4.0702   -3.8485    1.4554 H   0  0  0  0  0  0  0  0  0  0  0  0
   -4.0012   -2.9605    0.8284 C   0  0  0  0  0  0  0  0  0  0  0  0
   -4.7652   -2.2435    1.1234 H   0  0  0  0  0  0  0  0  0  0  0  0
   -4.1352   -3.2385   -0.2156 H   0  0  0  0  0  0  0  0  0  0  0  0
   -2.6362   -2.3395    1.0094 C   0  0  0  0  0  0  0  0  0  0  0  0
   -1.8292   -2.8395    1.7814 O   0  0  0  0  0  0  0  0  0  0  0  0
   -2.3832   -1.2445    0.2964 N   0  0  0  0  0  0  0  0  0  0  0  0
   -3.1102   -0.8685   -0.2946 H   0  0  0  0  0  0  0  0  0  0  0  0
   -1.1292   -0.4875    0.3524 C   0  0  1  0  0  0  0  0  0  0  0  0
   -0.5898   -0.7762    1.2552 H   0  0  0  0  0  0  0  0  0  0  0  0
   -0.2608   -0.8470   -0.8656 C   0  0  0  0  0  0  0  0  0  0  0  0
   -0.9123   -1.0969   -1.7040 H   0  0  0  0  0  0  0  0  0  0  0  0
    0.3224    0.0289   -1.1547 H   0  0  0  0  0  0  0  0  0  0  0  0
    0.6742   -2.0176   -0.6308 C   0  0  0  0  0  0  0  0  0  0  0  0
    1.1814   -2.2755    0.6586 C   0  0  0  0  0  0  0  0  0  0  0  0
    0.9251   -1.6216    1.4818 H   0  0  0  0  0  0  0  0  0  0  0  0
    2.0171   -3.3876    0.8795 C   0  0  0  0  0  0  0  0  0  0  0  0
    2.4049   -3.5811    1.8678 H   0  0  0  0  0  0  0  0  0  0  0  0
    2.3433   -4.2467   -0.1925 C   0  0  0  0  0  0  0  0  0  0  0  0
    3.1459   -5.3235    0.0109 O   0  0  0  0  0  0  0  0  0  0  0  0
    3.5026   -5.3453    0.8998 H   0  0  0  0  0  0  0  0  0  0  0  0
    1.8308   -3.9900   -1.4810 C   0  0  0  0  0  0  0  0  0  0  0  0
    2.0910   -4.6517   -2.2935 H   0  0  0  0  0  0  0  0  0  0  0  0
    0.9996   -2.8750   -1.6996 C   0  0  0  0  0  0  0  0  0  0  0  0
    0.6138   -2.6731   -2.6918 H   0  0  0  0  0  0  0  0  0  0  0  0
   -1.4018    1.0238    0.4329 C   0  0  0  0  0  0  0  0  0  0  0  0
   -2.2416    1.5423   -0.3033 O   0  0  0  0  0  0  0  0  0  0  0  0
   -0.6927    1.7304    1.3223 N   0  0  0  0  0  0  0  0  0  0  0  0
    0.0178    1.2410    1.8469 H   0  0  0  0  0  0  0  0  0  0  0  0
   -0.8259    3.1712    1.5254 C   0  0  0  0  0  0  0  0  0  0  0  0
   -1.8769    3.4302    1.6645 H   0  0  0  0  0  0  0  0  0  0  0  0
   -0.2598    3.4806    2.4054 H   0  0  0  0  0  0  0  0  0  0  0  0
   -0.4486    3.7020    0.6489 H   0  0  0  0  0  0  0  0  0  0  0  0
  5  6  2  0  0  0  0
  5  7  1  0  0  0  0
  2  3  1  0  0  0  0
  2  4  1  0  0  0  0
  2  5  1  0  0  0  0
  1  2  1  0  0  0  0
 26 27  2  0  0  0  0
 26 28  1  0  0  0  0
 24 25  1  0  0  0  0
 22 23  1  0  0  0  0
 22 24  2  0  0  0  0
 20 21  1  0  0  0  0
 19 20  1  0  0  0  0
 19 22  1  0  0  0  0
 17 18  1  0  0  0  0
 17 19  2  0  0  0  0
 15 16  1  0  0  0  0
 15 17  1  0  0  0  0
 14 15  2  0  0  0  0
 14 24  1  0  0  0  0
 11 12  1  0  0  0  0
 11 13  1  0  0  0  0
 11 14  1  0  0  0  0
  9 10  1  0  0  0  0
  9 11  1  0  0  0  0
  9 26  1  0  0  0  0
  7  8  1  0  0  0  0
  7  9  1  0  0  0  0
 30 31  1  0  0  0  0
 30 32  1  0  0  0  0
 30 33  1  0  0  0  0
 28 29  1  0  0  0  0
 28 30  1  0  0  0  0
M  END
$$$$
default_name
  -OEChem-02102213163D

 33 33  0     1  0  0  0  0  0999 V2000
   -4.0702   -3.8485    1.4554 H   0  0  0  0  0  0  0  0  0  0  0  0
   -4.0012   -2.9605    0.8284 C   0  0  0  0  0  0  0  0  0  0  0  0
   -4.7652   -2.2435    1.1234 H   0  0  0  0  0  0  0  0  0  0  0  0
   -4.1352   -3.2385   -0.2156 H   0  0  0  0  0  0  0  0  0  0  0  0
   -2.6362   -2.3395    1.0094 C   0  0  0  0  0  0  0  0  0  0  0  0
   -1.8292   -2.8395    1.7814 O   0  0  0  0  0  0  0  0  0  0  0  0
   -2.3832   -1.2445    0.2964 N   0  0  0  0  0  0  0  0  0  0  0  0
   -3.1102   -0.8685   -0.2946 H   0  0  0  0  0  0  0  0  0  0  0  0
   -1.1292   -0.4875    0.3524 C   0  0  1  0  0  0  0  0  0  0  0  0
   -0.5898   -0.7762    1.2552 H   0  0  0  0  0  0  0  0  0  0  0  0
   -0.2608   -0.8470   -0.8656 C   0  0  0  0  0  0  0  0  0  0  0  0
   -0.9123   -1.0969   -1.7040 H   0  0  0  0  0  0  0  0  0  0  0  0
    0.3224    0.0289   -1.1547 H   0  0  0  0  0  0  0  0  0  0  0  0
    0.6742   -2.0176   -0.6308 C   0  0  0  0  0  0  0  0  0  0  0  0
    0.9318   -2.4708    0.6786 C   0  0  0  0  0  0  0  0  0  0  0  0
    0.4823   -1.9668    1.5241 H   0  0  0  0  0  0  0  0  0  0  0  0
    1.7690   -3.5838    0.8889 C   0  0  0  0  0  0  0  0  0  0  0  0
    1.9653   -3.9272    1.8929 H   0  0  0  0  0  0  0  0  0  0  0  0
    2.3473   -4.2480   -0.2148 C   0  0  0  0  0  0  0  0  0  0  0  0
    3.1537   -5.3240   -0.0227 O   0  0  0  0  0  0  0  0  0  0  0  0
    3.3293   -5.4825    0.9057 H   0  0  0  0  0  0  0  0  0  0  0  0
    2.0845   -3.7961   -1.5246 C   0  0  0  0  0  0  0  0  0  0  0  0
    2.5361   -4.3095   -2.3601 H   0  0  0  0  0  0  0  0  0  0  0  0
    1.2510   -2.6805   -1.7313 C   0  0  0  0  0  0  0  0  0  0  0  0
    1.0570   -2.3282   -2.7374 H   0  0  0  0  0  0  0  0  0  0  0  0
   -1.4018    1.0238    0.4329 C   0  0  0  0  0  0  0  0  0  0  0  0
   -2.2416    1.5423   -0.3033 O   0  0  0  0  0  0  0  0  0  0  0  0
   -0.6927    1.7304    1.3223 N   0  0  0  0  0  0  0  0  0  0  0  0
    0.0178    1.2410    1.8469 H   0  0  0  0  0  0  0  0  0  0  0  0
   -0.8259    3.1712    1.5254 C   0  0  0  0  0  0  0  0  0  0  0  0
   -1.8769    3.4302    1.6645 H   0  0  0  0  0  0  0  0  0  0  0  0
   -0.2598    3.4806    2.4054 H   0  0  0  0  0  0  0  0  0  0  0  0
   -0.4486    3.7020    0.6489 H   0  0  0  0  0  0  0  0  0  0  0  0
  5  6  2  0  0  0  0
  5  7  1  0  0  0  0
  2  3  1  0  0  0  0
  2  4  1  0  0  0  0
  2  5  1  0  0  0  0
  1  2  1  0  0  0  0
 26 27  2  0  0  0  0
 26 28  1  0  0  0  0
 24 25  1  0  0  0  0
 22 23  1  0  0  0  0
 22 24  2  0  0  0  0
 20 21  1  0  0  0  0
 19 20  1  0  0  0  0
 19 22  1  0  0  0  0
 17 18  1  0  0  0  0
 17 19  2  0  0  0  0
 15 16  1  0  0  0  0
 15 17  1  0  0  0  0
 14 15  2  0  0  0  0
 14 24  1  0  0  0  0
 11 12  1  0  0  0  0
 11 13  1  0  0  0  0
 11 14  1  0  0  0  0
  9 10  1  0  0  0  0
  9 11  1  0  0  0  0
  9 26  1  0  0  0  0
  7  8  1  0  0  0  0
  7  9  1  0  0  0  0
 30 31  1  0  0  0  0
 30 32  1  0  0  0  0
 30 33  1  0  0  0  0
 28 29  1  0  0  0  0
 28 30  1  0  0  0  0
M  END
$$$$
default_name
  -OEChem-02102213163D

 33 33  0     1  0  0  0  0  0999 V2000
   -4.0702   -3.8485    1.4554 H   0  0  0  0  0  0  0  0  0  0  0  0
   -4.0012   -2.9605    0.8284 C   0  0  0  0  0  0  0  0  0  0  0  0
   -4.7652   -2.2435    1.1234 H   0  0  0  0  0  0  0  0  0  0  0  0
   -4.1352   -3.2385   -0.2156 H   0  0  0  0  0  0  0  0  0  0  0  0
   -2.6362   -2.3395    1.0094 C   0  0  0  0  0  0  0  0  0  0  0  0
   -1.8292   -2.8395    1.7814 O   0  0  0  0  0  0  0  0  0  0  0  0
   -2.3832   -1.2445    0.2964 N   0  0  0  0  0  0  0  0  0  0  0  0
   -3.1102   -0.8685   -0.2946 H   0  0  0  0  0  0  0  0  0  0  0  0
   -1.1292   -0.4875    0.3524 C   0  0  1  0  0  0  0  0  0  0  0  0
   -0.5898   -0.7762    1.2552 H   0  0  0  0  0  0  0  0  0  0  0  0
   -0.2608   -0.8470   -0.8656 C   0  0  0  0  0  0  0  0  0  0  0  0
   -0.9123   -1.0969   -1.7040 H   0  0  0  0  0  0  0  0  0  0  0  0
    0.3224    0.0289   -1.1547 H   0  0  0  0  0  0  0  0  0  0  0  0
    0.6742   -2.0176   -0.6308 C   0  0  0  0  0  0  0  0  0  0  0  0
    0.6945   -2.6727    0.6169 C   0  0  0  0  0  0  0  0  0  0  0  0
    0.0600   -2.3247    1.4214 H   0  0  0  0  0  0  0  0  0  0  0  0
    1.5353   -3.7849    0.8170 C   0  0  0  0  0  0  0  0  0  0  0  0
    1.5495   -4.2831    1.7742 H   0  0  0  0  0  0  0  0  0  0  0  0
    2.3558   -4.2454   -0.2358 C   0  0  0  0  0  0  0  0  0  0  0  0
    3.1679   -5.3189   -0.0537 O   0  0  0  0  0  0  0  0  0  0  0  0
    3.1663   -5.6229    0.8549 H   0  0  0  0  0  0  0  0  0  0  0  0
    2.3305   -3.5917   -1.4851 C   0  0  0  0  0  0  0  0  0  0  0  0
    2.9656   -3.9505   -2.2810 H   0  0  0  0  0  0  0  0  0  0  0  0
    1.4924   -2.4775   -1.6807 C   0  0  0  0  0  0  0  0  0  0  0  0
    1.4804   -1.9700   -2.6379 H   0  0  0  0  0  0  0  0  0  0  0  0
   -1.4018    1.0238    0.4329 C   0  0  0  0  0  0  0  0  0  0  0  0
   -2.2416    1.5423   -0.3033 O   0  0  0  0  0  0  0  0  0  0  0  0
   -0.6927    1.7304    1.3223 N   0  0  0  0  0  0  0  0  0  0  0  0
    0.0178    1.2410    1.8469 H   0  0  0  0  0  0  0  0  0  0  0  0
   -0.8259    3.1712    1.5254 C   0  0  0  0  0  0  0  0  0  0  0  0
   -1.8769    3.4302    1.6645 H   0  0  0  0  0  0  0  0  0  0  0  0
   -0.2598    3.4806    2.4054 H   0  0  0  0  0  0  0  0  0  0  0  0
   -0.4486    3.7020    0.6489 H   0  0  0  0  0  0  0  0  0  0  0  0
  5  6  2  0  0  0  0
  5  7  1  0  0  0  0
  2  3  1  0  0  0  0
  2  4  1  0  0  0  0
  2  5  1  0  0  0  0
  1  2  1  0  0  0  0
 26 27  2  0  0  0  0
 26 28  1  0  0  0  0
 24 25  1  0  0  0  0
 22 23  1  0  0  0  0
 22 24  2  0  0  0  0
 20 21  1  0  0  0  0
 19 20  1  0  0  0  0
 19 22  1  0  0  0  0
 17 18  1  0  0  0  0
 17 19  2  0  0  0  0
 15 16  1  0  0  0  0
 15 17  1  0  0  0  0
 14 15  2  0  0  0  0
 14 24  1  0  0  0  0
 11 12  1  0  0  0  0
 11 13  1  0  0  0  0
 11 14  1  0  0  0  0
  9 10  1  0  0  0  0
  9 11  1  0  0  0  0
  9 26  1  0  0  0  0
  7  8  1  0  0  0  0
  7  9  1  0  0  0  0
 30 31  1  0  0  0  0
 30 32  1  0  0  0  0
 30 33  1  0  0  0  0
 28 29  1  0  0  0  0
 28 30  1  0  0  0  0
M  END
$$$$
default_name
  -OEChem-02102213163D

 33 33  0     1  0  0  0  0  0999 V2000
   -4.0702   -3.8485    1.4554 H   0  0  0  0  0  0  0  0  0  0  0  0
   -4.0012   -2.9605    0.8284 C   0  0  0  0  0  0  0  0  0  0  0  0
   -4.7652   -2.2435    1.1234 H   0  0  0  0  0  0  0  0  0  0  0  0
   -4.1352   -3.2385   -0.2156 H   0  0  0  0  0  0  0  0  0  0  0  0
   -2.6362   -2.3395    1.0094 C   0  0  0  0  0  0  0  0  0  0  0  0
   -1.8292   -2.8395    1.7814 O   0  0  0  0  0  0  0  0  0  0  0  0
   -2.3832   -1.2445    0.2964 N   0  0  0  0  0  0  0  0  0  0  0  0
   -3.1102   -0.8685   -0.2946 H   0  0  0  0  0  0  0  0  0  0  0  0
   -1.1292   -0.4875    0.3524 C   0  0  1  0  0  0  0  0  0  0  0  0
   -0.5898   -0.7762    1.2552 H   0  0  0  0  0  0  0  0  0  0  0  0
   -0.2608   -0.8470   -0.8656 C   0  0  0  0  0  0  0  0  0  0  0  0
   -0.9123   -1.0969   -1.7040 H   0  0  0  0  0  0  0  0  0  0  0  0
    0.3224    0.0289   -1.1547 H   0  0  0  0  0  0  0  0  0  0  0  0
    0.6742   -2.0176   -0.6308 C   0  0  0  0  0  0  0  0  0  0  0  0
    0.4858   -2.8674    0.4776 C   0  0  0  0  0  0  0  0  0  0  0  0
   -0.3131   -2.6710    1.1807 H   0  0  0  0  0  0  0  0  0  0  0  0
    1.3321   -3.9769    0.6689 C   0  0  0  0  0  0  0  0  0  0  0  0
    1.1859   -4.6247    1.5196 H   0  0  0  0  0  0  0  0  0  0  0  0
    2.3680   -4.2393   -0.2539 C   0  0  0  0  0  0  0  0  0  0  0  0
    3.1876   -5.3084   -0.0799 O   0  0  0  0  0  0  0  0  0  0  0  0
    3.0246   -5.7570    0.7508 H   0  0  0  0  0  0  0  0  0  0  0  0
    2.5520   -3.3907   -1.3652 C   0  0  0  0  0  0  0  0  0  0  0  0
    3.3504   -3.5992   -2.0614 H   0  0  0  0  0  0  0  0  0  0  0  0
    1.7073   -2.2798   -1.5511 C   0  0  0  0  0  0  0  0  0  0  0  0
    1.8552   -1.6230   -2.4001 H   0  0  0  0  0  0  0  0  0  0  0  0
   -1.4018    1.0238    0.4329 C   0  0  0  0  0  0  0  0  0  0  0  0
   -2.2416    1.5423   -0.3033 O   0  0  0  0  0  0  0  0  0  0  0  0
   -0.6927    1.7304    1.3223 N   0  0  0  0  0  0  0  0  0  0  0  0
    0.0178    1.2410    1.8469 H   0  0  0  0  0  0  0  0  0  0  0  0
   -0.8259    3.1712    1.5254 C   0  0  0  0  0  0  0  0  0  0  0  0
   -1.8769    3.4302    1.6645 H   0  0  0  0  0  0  0  0  0  0  0  0
   -0.2598    3.4806    2.4054 H   0  0  0  0  0  0  0  0  0  0  0  0
   -0.4486    3.7020    0.6489 H   0  0  0  0  0  0  0  0  0  0  0  0
  5  6  2  0  0  0  0
  5  7  1  0  0  0  0
  2  3  1  0  0  0  0
  2  4  1  0  0  0  0
  2  5  1  0  0  0  0
  1  2  1  0  0  0  0
 26 27  2  0  0  0  0
 26 28  1  0  0  0  0
 24 25  1  0  0  0  0
 22 23  1  0  0  0  0
 22 24  2  0  0  0  0
 20 21  1  0  0  0  0
 19 20  1  0  0  0  0
 19 22  1  0  0  0  0
 17 18  1  0  0  0  0
 17 19  2  0  0  0  0
 15 16  1  0  0  0  0
 15 17  1  0  0  0  0
 14 15  2  0  0  0  0
 14 24  1  0  0  0  0
 11 12  1  0  0  0  0
 11 13  1  0  0  0  0
 11 14  1  0  0  0  0
  9 10  1  0  0  0  0
  9 11  1  0  0  0  0
  9 26  1  0  0  0  0
  7  8  1  0  0  0  0
  7  9  1  0  0  0  0
 30 31  1  0  0  0  0
 30 32  1  0  0  0  0
 30 33  1  0  0  0  0
 28 29  1  0  0  0  0
 28 30  1  0  0  0  0
M  END
$$$$
default_name
  -OEChem-02102213163D

 33 33  0     1  0  0  0  0  0999 V2000
   -4.0702   -3.8485    1.4554 H   0  0  0  0  0  0  0  0  0  0  0  0
   -4.0012   -2.9605    0.8284 C   0  0  0  0  0  0  0  0  0  0  0  0
   -4.7652   -2.2435    1.1234 H   0  0  0  0  0  0  0  0  0  0  0  0
   -4.1352   -3.2385   -0.2156 H   0  0  0  0  0  0  0  0  0  0  0  0
   -2.6362   -2.3395    1.0094 C   0  0  0  0  0  0  0  0  0  0  0  0
   -1.8292   -2.8395    1.7814 O   0  0  0  0  0  0  0  0  0  0  0  0
   -2.3832   -1.2445    0.2964 N   0  0  0  0  0  0  0  0  0  0  0  0
   -3.1102   -0.8685   -0.2946 H   0  0  0  0  0  0  0  0  0  0  0  0
   -1.1292   -0.4875    0.3524 C   0  0  1  0  0  0  0  0  0  0  0  0
   -0.5898   -0.7762    1.2552 H   0  0  0  0  0  0  0  0  0  0  0  0
   -0.2608   -0.8470   -0.8656 C   0  0  0  0  0  0  0  0  0  0  0  0
   -0.9123   -1.0969   -1.7040 H   0  0  0  0  0  0  0  0  0  0  0  0
    0.3224    0.0289   -1.1547 H   0  0  0  0  0  0  0  0  0  0  0  0
    0.6742   -2.0176   -0.6308 C   0  0  0  0  0  0  0  0  0  0  0  0
    0.3197   -3.0416    0.2703 C   0  0  0  0  0  0  0  0  0  0  0  0
   -0.6115   -2.9820    0.8184 H   0  0  0  0  0  0  0  0  0  0  0  0
    1.1730   -4.1470    0.4546 C   0  0  0  0  0  0  0  0  0  0  0  0
    0.8991   -4.9285    1.1466 H   0  0  0  0  0  0  0  0  0  0  0  0
    2.3832   -4.2300   -0.2680 C   0  0  0  0  0  0  0  0  0  0  0  0
    3.2115   -5.2933   -0.0997 O   0  0  0  0  0  0  0  0  0  0  0  0
    2.9139   -5.8755    0.6006 H   0  0  0  0  0  0  0  0  0  0  0  0
    2.7340   -3.2068   -1.1730 C   0  0  0  0  0  0  0  0  0  0  0  0
    3.6640   -3.2795   -1.7164 H   0  0  0  0  0  0  0  0  0  0  0  0
    1.8812   -2.1010   -1.3515 C   0  0  0  0  0  0  0  0  0  0  0  0
    2.1557   -1.3107   -2.0401 H   0  0  0  0  0  0  0  0  0  0  0  0
   -1.4018    1.0238    0.4329 C   0  0  0  0  0  0  0  0  0  0  0  0
   -2.2416    1.5423   -0.3033 O   0  0  0  0  0  0  0  0  0  0  0  0
   -0.6927    1.7304    1.3223 N   0  0  0  0  0  0  0  0  0  0  0  0
    0.0178    1.2410    1.8469 H   0  0  0  0  0  0  0  0  0  0  0  0
   -0.8259    3.1712    1.5254 C   0  0  0  0  0  0  0  0  0  0  0  0
   -1.8769    3.4302    1.6645 H   0  0  0  0  0  0  0  0  0  0  0  0
   -0.2598    3.4806    2.4054 H   0  0  0  0  0  0  0  0  0  0  0  0
   -0.4486    3.7020    0.6489 H   0  0  0  0  0  0  0  0  0  0  0  0
  5  6  2  0  0  0  0
  5  7  1  0  0  0  0
  2  3  1  0  0  0  0
  2  4  1  0  0  0  0
  2  5  1  0  0  0  0
  1  2  1  0  0  0  0
 26 27  2  0  0  0  0
 26 28  1  0  0  0  0
 24 25  1  0  0  0  0
 22 23  1  0  0  0  0
 22 24  2  0  0  0  0
 20 21  1  0  0  0  0
 19 20  1  0  0  0  0
 19 22  1  0  0  0  0
 17 18  1  0  0  0  0
 17 19  2  0  0  0  0
 15 16  1  0  0  0  0
 15 17  1  0  0  0  0
 14 15  2  0  0  0  0
 14 24  1  0  0  0  0
 11 12  1  0  0  0  0
 11 13  1  0  0  0  0
 11 14  1  0  0  0  0
  9 10  1  0  0  0  0
  9 11  1  0  0  0  0
  9 26  1  0  0  0  0
  7  8  1  0  0  0  0
  7  9  1  0  0  0  0
 30 31  1  0  0  0  0
 30 32  1  0  0  0  0
 30 33  1  0  0  0  0
 28 29  1  0  0  0  0
 28 30  1  0  0  0  0
M  END
$$$$
default_name
  -OEChem-02102213163D

 33 33  0     1  0  0  0  0  0999 V2000
   -4.0702   -3.8485    1.4554 H   0  0  0  0  0  0  0  0  0  0  0  0
   -4.0012   -2.9605    0.8284 C   0  0  0  0  0  0  0  0  0  0  0  0
   -4.7652   -2.2435    1.1234 H   0  0  0  0  0  0  0  0  0  0  0  0
   -4.1352   -3.2385   -0.2156 H   0  0  0  0  0  0  0  0  0  0  0  0
   -2.6362   -2.3395    1.0094 C   0  0  0  0  0  0  0  0  0  0  0  0
   -1.8292   -2.8395    1.7814 O   0  0  0  0  0  0  0  0  0  0  0  0
   -2.3832   -1.2445    0.2964 N   0  0  0  0  0  0  0  0  0  0  0  0
   -3.1102   -0.8685   -0.2946 H   0  0  0  0  0  0  0  0  0  0  0  0
   -1.1292   -0.4875    0.3524 C   0  0  1  0  0  0  0  0  0  0  0  0
   -0.5898   -0.7762    1.2552 H   0  0  0  0  0  0  0  0  0  0  0  0
   -0.2608   -0.8470   -0.8656 C   0  0  0  0  0  0  0  0  0  0  0  0
   -0.9123   -1.0969   -1.7040 H   0  0  0  0  0  0  0  0  0  0  0  0
    0.3224    0.0289   -1.1547 H   0  0  0  0  0  0  0  0  0  0  0  0
    0.6742   -2.0176   -0.6308 C   0  0  0  0  0  0  0  0  0  0  0  0
    0.2078   -3.1834    0.0092 C   0  0  0  0  0  0  0  0  0  0  0  0
   -0.8149   -3.2365    0.3592 H   0  0  0  0  0  0  0  0  0  0  0  0
    1.0690   -4.2834    0.1886 C   0  0  0  0  0  0  0  0  0  0  0  0
    0.7089   -5.1739    0.6805 H   0  0  0  0  0  0  0  0  0  0  0  0
    2.4003   -4.2181   -0.2771 C   0  0  0  0  0  0  0  0  0  0  0  0
    3.2379   -5.2746   -0.1115 O   0  0  0  0  0  0  0  0  0  0  0  0
    2.8417   -5.9705    0.4145 H   0  0  0  0  0  0  0  0  0  0  0  0
    2.8640   -3.0526   -0.9217 C   0  0  0  0  0  0  0  0  0  0  0  0
    3.8853   -3.0131   -1.2695 H   0  0  0  0  0  0  0  0  0  0  0  0
    2.0020   -1.9531   -1.0955 C   0  0  0  0  0  0  0  0  0  0  0  0
    2.3616   -1.0545   -1.5825 H   0  0  0  0  0  0  0  0  0  0  0  0
   -1.4018    1.0238    0.4329 C   0  0  0  0  0  0  0  0  0  0  0  0
   -2.2416    1.5423   -0.3033 O   0  0  0  0  0  0  0  0  0  0  0  0
   -0.6927    1.7304    1.3223 N   0  0  0  0  0  0  0  0  0  0  0  0
    0.0178    1.2410    1.8469 H   0  0  0  0  0  0  0  0  0  0  0  0
   -0.8259    3.1712    1.5254 C   0  0  0  0  0  0  0  0  0  0  0  0
   -1.8769    3.4302    1.6645 H   0  0  0  0  0  0  0  0  0  0  0  0
   -0.2598    3.4806    2.4054 H   0  0  0  0  0  0  0  0  0  0  0  0
   -0.4486    3.7020    0.6489 H   0  0  0  0  0  0  0  0  0  0  0  0
  5  6  2  0  0  0  0
  5  7  1  0  0  0  0
  2  3  1  0  0  0  0
  2  4  1  0  0  0  0
  2  5  1  0  0  0  0
  1  2  1  0  0  0  0
 26 27  2  0  0  0  0
 26 28  1  0  0  0  0
 24 25  1  0  0  0  0
 22 23  1  0  0  0  0
 22 24  2  0  0  0  0
 20 21  1  0  0  0  0
 19 20  1  0  0  0  0
 19 22  1  0  0  0  0
 17 18  1  0  0  0  0
 17 19  2  0  0  0  0
 15 16  1  0  0  0  0
 15 17  1  0  0  0  0
 14 15  2  0  0  0  0
 14 24  1  0  0  0  0
 11 12  1  0  0  0  0
 11 13  1  0  0  0  0
 11 14  1  0  0  0  0
  9 10  1  0  0  0  0
  9 11  1  0  0  0  0
  9 26  1  0  0  0  0
  7  8  1  0  0  0  0
  7  9  1  0  0  0  0
 30 31  1  0  0  0  0
 30 32  1  0  0  0  0
 30 33  1  0  0  0  0
 28 29  1  0  0  0  0
 28 30  1  0  0  0  0
M  END
$$$$
default_name
  -OEChem-02102213163D

 33 33  0     1  0  0  0  0  0999 V2000
   -4.0702   -3.8485    1.4554 H   0  0  0  0  0  0  0  0  0  0  0  0
   -4.0012   -2.9605    0.8284 C   0  0  0  0  0  0  0  0  0  0  0  0
   -4.7652   -2.2435    1.1234 H   0  0  0  0  0  0  0  0  0  0  0  0
   -4.1352   -3.2385   -0.2156 H   0  0  0  0  0  0  0  0  0  0  0  0
   -2.6362   -2.3395    1.0094 C   0  0  0  0  0  0  0  0  0  0  0  0
   -1.8292   -2.8395    1.7814 O   0  0  0  0  0  0  0  0  0  0  0  0
   -2.3832   -1.2445    0.2964 N   0  0  0  0  0  0  0  0  0  0  0  0
   -3.1102   -0.8685   -0.2946 H   0  0  0  0  0  0  0  0  0  0  0  0
   -1.1292   -0.4875    0.3524 C   0  0  1  0  0  0  0  0  0  0  0  0
   -0.5898   -0.7762    1.2552 H   0  0  0  0  0  0  0  0  0  0  0  0
   -0.2608   -0.8470   -0.8656 C   0  0  0  0  0  0  0  0  0  0  0  0
   -0.9123   -1.0969   -1.7040 H   0  0  0  0  0  0  0  0  0  0  0  0
    0.3224    0.0289   -1.1547 H   0  0  0  0  0  0  0  0  0  0  0  0
    0.6742   -2.0176   -0.6308 C   0  0  0  0  0  0  0  0  0  0  0  0
    0.1574   -3.2832   -0.2881 C   0  0  0  0  0  0  0  0  0  0  0  0
   -0.9094   -3.4173   -0.1656 H   0  0  0  0  0  0  0  0  0  0  0  0
    1.0271   -4.3769   -0.1108 C   0  0  0  0  0  0  0  0  0  0  0  0
    0.6281   -5.3442    0.1531 H   0  0  0  0  0  0  0  0  0  0  0  0
    2.4182   -4.2045   -0.2806 C   0  0  0  0  0  0  0  0  0  0  0  0
    3.2650   -5.2536   -0.1148 O   0  0  0  0  0  0  0  0  0  0  0  0
    2.8130   -6.0355    0.2051 H   0  0  0  0  0  0  0  0  0  0  0  0
    2.9331   -2.9385   -0.6283 C   0  0  0  0  0  0  0  0  0  0  0  0
    3.9990   -2.8183   -0.7511 H   0  0  0  0  0  0  0  0  0  0  0  0
    2.0617   -1.8463   -0.8004 C   0  0  0  0  0  0  0  0  0  0  0  0
    2.4588   -0.8718   -1.0584 H   0  0  0  0  0  0  0  0  0  0  0  0
   -1.4018    1.0238    0.4329 C   0  0  0  0  0  0  0  0  0  0  0  0
   -2.2416    1.5423   -0.3033 O   0  0  0  0  0  0  0  0  0  0  0  0
   -0.6927    1.7304    1.3223 N   0  0  0  0  0  0  0  0  0  0  0  0
    0.0178    1.2410    1.8469 H   0  0  0  0  0  0  0  0  0  0  0  0
   -0.8259    3.1712    1.5254 C   0  0  0  0  0  0  0  0  0  0  0  0
   -1.8769    3.4302    1.6645 H   0  0  0  0  0  0  0  0  0  0  0  0
   -0.2598    3.4806    2.4054 H   0  0  0  0  0  0  0  0  0  0  0  0
   -0.4486    3.7020    0.6489 H   0  0  0  0  0  0  0  0  0  0  0  0
  5  6  2  0  0  0  0
  5  7  1  0  0  0  0
  2  3  1  0  0  0  0
  2  4  1  0  0  0  0
  2  5  1  0  0  0  0
  1  2  1  0  0  0  0
 26 27  2  0  0  0  0
 26 28  1  0  0  0  0
 24 25  1  0  0  0  0
 22 23  1  0  0  0  0
 22 24  2  0  0  0  0
 20 21  1  0  0  0  0
 19 20  1  0  0  0  0
 19 22  1  0  0  0  0
 17 18  1  0  0  0  0
 17 19  2  0  0  0  0
 15 16  1  0  0  0  0
 15 17  1  0  0  0  0
 14 15  2  0  0  0  0
 14 24  1  0  0  0  0
 11 12  1  0  0  0  0
 11 13  1  0  0  0  0
 11 14  1  0  0  0  0
  9 10  1  0  0  0  0
  9 11  1  0  0  0  0
  9 26  1  0  0  0  0
  7  8  1  0  0  0  0
  7  9  1  0  0  0  0
 30 31  1  0  0  0  0
 30 32  1  0  0  0  0
 30 33  1  0  0  0  0
 28 29  1  0  0  0  0
 28 30  1  0  0  0  0
M  END
$$$$
default_name
  -OEChem-02102213163D

 33 33  0     1  0  0  0  0  0999 V2000
   -4.0702   -3.8485    1.4554 H   0  0  0  0  0  0  0  0  0  0  0  0
   -4.0012   -2.9605    0.8284 C   0  0  0  0  0  0  0  0  0  0  0  0
   -4.7652   -2.2435    1.1234 H   0  0  0  0  0  0  0  0  0  0  0  0
   -4.1352   -3.2385   -0.2156 H   0  0  0  0  0  0  0  0  0  0  0  0
   -2.6362   -2.3395    1.0094 C   0  0  0  0  0  0  0  0  0  0  0  0
   -1.8292   -2.8395    1.7814 O   0  0  0  0  0  0  0  0  0  0  0  0
   -2.3832   -1.2445    0.2964 N   0  0  0  0  0  0  0  0  0  0  0  0
   -3.1102   -0.8685   -0.2946 H   0  0  0  0  0  0  0  0  0  0  0  0
   -1.1292   -0.4875    0.3524 C   0  0  1  0  0  0  0  0  0  0  0  0
   -0.5898   -0.7762    1.2552 H   0  0  0  0  0  0  0  0  0  0  0  0
   -0.2608   -0.8470   -0.8656 C   0  0  0  0  0  0  0  0  0  0  0  0
   -0.9123   -1.0969   -1.7040 H   0  0  0  0  0  0  0  0  0  0  0  0
    0.3224    0.0289   -1.1547 H   0  0  0  0  0  0  0  0  0  0  0  0
    0.6742   -2.0176   -0.6308 C   0  0  0  0  0  0  0  0  0  0  0  0
    0.1722   -3.3342   -0.6013 C   0  0  0  0  0  0  0  0  0  0  0  0
   -0.8886   -3.5119   -0.7203 H   0  0  0  0  0  0  0  0  0  0  0  0
    1.0503   -4.4211   -0.4233 C   0  0  0  0  0  0  0  0  0  0  0  0
    0.6623   -5.4278   -0.3997 H   0  0  0  0  0  0  0  0  0  0  0  0
    2.4356   -4.1901   -0.2782 C   0  0  0  0  0  0  0  0  0  0  0  0
    3.2910   -5.2317   -0.1091 O   0  0  0  0  0  0  0  0  0  0  0  0
    2.8297   -6.0659   -0.0133 H   0  0  0  0  0  0  0  0  0  0  0  0
    2.9368   -2.8723   -0.3130 C   0  0  0  0  0  0  0  0  0  0  0  0
    3.9975   -2.7083   -0.1965 H   0  0  0  0  0  0  0  0  0  0  0  0
    2.0560   -1.7878   -0.4864 C   0  0  0  0  0  0  0  0  0  0  0  0
    2.4407   -0.7750   -0.5037 H   0  0  0  0  0  0  0  0  0  0  0  0
   -1.4018    1.0238    0.4329 C   0  0  0  0  0  0  0  0  0  0  0  0
   -2.2416    1.5423   -0.3033 O   0  0  0  0  0  0  0  0  0  0  0  0
   -0.6927    1.7304    1.3223 N   0  0  0  0  0  0  0  0  0  0  0  0
    0.0178    1.2410    1.8469 H   0  0  0  0  0  0  0  0  0  0  0  0
   -0.8259    3.1712    1.5254 C   0  0  0  0  0  0  0  0  0  0  0  0
   -1.8769    3.4302    1.6645 H   0  0  0  0  0  0  0  0  0  0  0  0
   -0.2598    3.4806    2.4054 H   0  0  0  0  0  0  0  0  0  0  0  0
   -0.4486    3.7020    0.6489 H   0  0  0  0  0  0  0  0  0  0  0  0
  5  6  2  0  0  0  0
  5  7  1  0  0  0  0
  2  3  1  0  0  0  0
  2  4  1  0  0  0  0
  2  5  1  0  0  0  0
  1  2  1  0  0  0  0
 26 27  2  0  0  0  0
 26 28  1  0  0  0  0
 24 25  1  0  0  0  0
 22 23  1  0  0  0  0
 22 24  2  0  0  0  0
 20 21  1  0  0  0  0
 19 20  1  0  0  0  0
 19 22  1  0  0  0  0
 17 18  1  0  0  0  0
 17 19  2  0  0  0  0
 15 16  1  0  0  0  0
 15 17  1  0  0  0  0
 14 15  2  0  0  0  0
 14 24  1  0  0  0  0
 11 12  1  0  0  0  0
 11 13  1  0  0  0  0
 11 14  1  0  0  0  0
  9 10  1  0  0  0  0
  9 11  1  0  0  0  0
  9 26  1  0  0  0  0
  7  8  1  0  0  0  0
  7  9  1  0  0  0  0
 30 31  1  0  0  0  0
 30 32  1  0  0  0  0
 30 33  1  0  0  0  0
 28 29  1  0  0  0  0
 28 30  1  0  0  0  0
M  END
$$$$
default_name
  -OEChem-02102213163D

 33 33  0     1  0  0  0  0  0999 V2000
   -4.0702   -3.8485    1.4554 H   0  0  0  0  0  0  0  0  0  0  0  0
   -4.0012   -2.9605    0.8284 C   0  0  0  0  0  0  0  0  0  0  0  0
   -4.7652   -2.2435    1.1234 H   0  0  0  0  0  0  0  0  0  0  0  0
   -4.1352   -3.2385   -0.2156 H   0  0  0  0  0  0  0  0  0  0  0  0
   -2.6362   -2.3395    1.0094 C   0  0  0  0  0  0  0  0  0  0  0  0
   -1.8292   -2.8395    1.7814 O   0  0  0  0  0  0  0  0  0  0  0  0
   -2.3832   -1.2445    0.2964 N   0  0  0  0  0  0  0  0  0  0  0  0
   -3.1102   -0.8685   -0.2946 H   0  0  0  0  0  0  0  0  0  0  0  0
   -1.1292   -0.4875    0.3524 C   0  0  1  0  0  0  0  0  0  0  0  0
   -0.5898   -0.7762    1.2552 H   0  0  0  0  0  0  0  0  0  0  0  0
   -0.2608   -0.8470   -0.8656 C   0  0  0  0  0  0  0  0  0  0  0  0
   -0.9123   -1.0969   -1.7040 H   0  0  0  0  0  0  0  0  0  0  0  0
    0.3224    0.0289   -1.1547 H   0  0  0  0  0  0  0  0  0  0  0  0
    0.6742   -2.0176   -0.6308 C   0  0  0  0  0  0  0  0  0  0  0  0
    0.2511   -3.3329   -0.9089 C   0  0  0  0  0  0  0  0  0  0  0  0
   -0.7539   -3.5139   -1.2670 H   0  0  0  0  0  0  0  0  0  0  0  0
    1.1368   -4.4129   -0.7276 C   0  0  0  0  0  0  0  0  0  0  0  0
    0.8090   -5.4189   -0.9401 H   0  0  0  0  0  0  0  0  0  0  0  0
    2.4514   -4.1759   -0.2702 C   0  0  0  0  0  0  0  0  0  0  0  0
    3.3141   -5.2104   -0.0950 O   0  0  0  0  0  0  0  0  0  0  0  0
    2.8906   -6.0598   -0.2257 H   0  0  0  0  0  0  0  0  0  0  0  0
    2.8746   -2.8586    0.0029 C   0  0  0  0  0  0  0  0  0  0  0  0
    3.8808   -2.6906    0.3564 H   0  0  0  0  0  0  0  0  0  0  0  0
    1.9855   -1.7816   -0.1749 C   0  0  0  0  0  0  0  0  0  0  0  0
    2.3085   -0.7708    0.0440 H   0  0  0  0  0  0  0  0  0  0  0  0
   -1.4018    1.0238    0.4329 C   0  0  0  0  0  0  0  0  0  0  0  0
   -2.2416    1.5423   -0.3033 O   0  0  0  0  0  0  0  0  0  0  0  0
   -0.6927    1.7304    1.3223 N   0  0  0  0  0  0  0  0  0  0  0  0
    0.0178    1.2410    1.8469 H   0  0  0  0  0  0  0  0  0  0  0  0
   -0.8259    3.1712    1.5254 C   0  0  0  0  0  0  0  0  0  0  0  0
   -1.8769    3.4302    1.6645 H   0  0  0  0  0  0  0  0  0  0  0  0
   -0.2598    3.4806    2.4054 H   0  0  0  0  0  0  0  0  0  0  0  0
   -0.4486    3.7020    0.6489 H   0  0  0  0  0  0  0  0  0  0  0  0
  5  6  2  0  0  0  0
  5  7  1  0  0  0  0
  2  3  1  0  0  0  0
  2  4  1  0  0  0  0
  2  5  1  0  0  0  0
  1  2  1  0  0  0  0
 26 27  2  0  0  0  0
 26 28  1  0  0  0  0
 24 25  1  0  0  0  0
 22 23  1  0  0  0  0
 22 24  2  0  0  0  0
 20 21  1  0  0  0  0
 19 20  1  0  0  0  0
 19 22  1  0  0  0  0
 17 18  1  0  0  0  0
 17 19  2  0  0  0  0
 15 16  1  0  0  0  0
 15 17  1  0  0  0  0
 14 15  2  0  0  0  0
 14 24  1  0  0  0  0
 11 12  1  0  0  0  0
 11 13  1  0  0  0  0
 11 14  1  0  0  0  0
  9 10  1  0  0  0  0
  9 11  1  0  0  0  0
  9 26  1  0  0  0  0
  7  8  1  0  0  0  0
  7  9  1  0  0  0  0
 30 31  1  0  0  0  0
 30 32  1  0  0  0  0
 30 33  1  0  0  0  0
 28 29  1  0  0  0  0
 28 30  1  0  0  0  0
M  END
$$$$
default_name
  -OEChem-02102213163D

 33 33  0     1  0  0  0  0  0999 V2000
   -4.0702   -3.8485    1.4554 H   0  0  0  0  0  0  0  0  0  0  0  0
   -4.0012   -2.9605    0.8284 C   0  0  0  0  0  0  0  0  0  0  0  0
   -4.7652   -2.2435    1.1234 H   0  0  0  0  0  0  0  0  0  0  0  0
   -4.1352   -3.2385   -0.2156 H   0  0  0  0  0  0  0  0  0  0  0  0
   -2.6362   -2.3395    1.0094 C   0  0  0  0  0  0  0  0  0  0  0  0
   -1.8292   -2.8395    1.7814 O   0  0  0  0  0  0  0  0  0  0  0  0
   -2.3832   -1.2445    0.2964 N   0  0  0  0  0  0  0  0  0  0  0  0
   -3.1102   -0.8685   -0.2946 H   0  0  0  0  0  0  0  0  0  0  0  0
   -1.1292   -0.4875    0.3524 C   0  0  1  0  0  0  0  0  0  0  0  0
   -0.5898   -0.7762    1.2552 H   0  0  0  0  0  0  0  0  0  0  0  0
   -0.2608   -0.8470   -0.8656 C   0  0  0  0  0  0  0  0  0  0  0  0
   -0.9123   -1.0969   -1.7040 H   0  0  0  0  0  0  0  0  0  0  0  0
    0.3224    0.0289   -1.1547 H   0  0  0  0  0  0  0  0  0  0  0  0
    0.6742   -2.0176   -0.6308 C   0  0  0  0  0  0  0  0  0  0  0  0
    0.3888   -3.2794   -1.1901 C   0  0  0  0  0  0  0  0  0  0  0  0
   -0.5145   -3.4233   -1.7685 H   0  0  0  0  0  0  0  0  0  0  0  0
    1.2809   -4.3531   -1.0030 C   0  0  0  0  0  0  0  0  0  0  0  0
    1.0584   -5.3183   -1.4314 H   0  0  0  0  0  0  0  0  0  0  0  0
    2.4645   -4.1628   -0.2569 C   0  0  0  0  0  0  0  0  0  0  0  0
    3.3327   -5.1912   -0.0733 O   0  0  0  0  0  0  0  0  0  0  0  0
    2.9917   -6.0176   -0.4178 H   0  0  0  0  0  0  0  0  0  0  0  0
    2.7509   -2.8983    0.2979 C   0  0  0  0  0  0  0  0  0  0  0  0
    3.6569   -2.7664    0.8700 H   0  0  0  0  0  0  0  0  0  0  0  0
    1.8549   -1.8282    0.1129 C   0  0  0  0  0  0  0  0  0  0  0  0
    2.0711   -0.8594    0.5473 H   0  0  0  0  0  0  0  0  0  0  0  0
   -1.4018    1.0238    0.4329 C   0  0  0  0  0  0  0  0  0  0  0  0
   -2.2416    1.5423   -0.3033 O   0  0  0  0  0  0  0  0  0  0  0  0
   -0.6927    1.7304    1.3223 N   0  0  0  0  0  0  0  0  0  0  0  0
    0.0178    1.2410    1.8469 H   0  0  0  0  0  0  0  0  0  0  0  0
   -0.8259    3.1712    1.5254 C   0  0  0  0  0  0  0  0  0  0  0  0
   -1.8769    3.4302    1.6645 H   0  0  0  0  0  0  0  0  0  0  0  0
   -0.2598    3.4806    2.4054 H   0  0  0  0  0  0  0  0  0  0  0  0
   -0.4486    3.7020    0.6489 H   0  0  0  0  0  0  0  0  0  0  0  0
  5  6  2  0  0  0  0
  5  7  1  0  0  0  0
  2  3  1  0  0  0  0
  2  4  1  0  0  0  0
  2  5  1  0  0  0  0
  1  2  1  0  0  0  0
 26 27  2  0  0  0  0
 26 28  1  0  0  0  0
 24 25  1  0  0  0  0
 22 23  1  0  0  0  0
 22 24  2  0  0  0  0
 20 21  1  0  0  0  0
 19 20  1  0  0  0  0
 19 22  1  0  0  0  0
 17 18  1  0  0  0  0
 17 19  2  0  0  0  0
 15 16  1  0  0  0  0
 15 17  1  0  0  0  0
 14 15  2  0  0  0  0
 14 24  1  0  0  0  0
 11 12  1  0  0  0  0
 11 13  1  0  0  0  0
 11 14  1  0  0  0  0
  9 10  1  0  0  0  0
  9 11  1  0  0  0  0
  9 26  1  0  0  0  0
  7  8  1  0  0  0  0
  7  9  1  0  0  0  0
 30 31  1  0  0  0  0
 30 32  1  0  0  0  0
 30 33  1  0  0  0  0
 28 29  1  0  0  0  0
 28 30  1  0  0  0  0
M  END
$$$$
default_name
  -OEChem-02102213163D

 33 33  0     1  0  0  0  0  0999 V2000
   -4.0702   -3.8485    1.4554 H   0  0  0  0  0  0  0  0  0  0  0  0
   -4.0012   -2.9605    0.8284 C   0  0  0  0  0  0  0  0  0  0  0  0
   -4.7652   -2.2435    1.1234 H   0  0  0  0  0  0  0  0  0  0  0  0
   -4.1352   -3.2385   -0.2156 H   0  0  0  0  0  0  0  0  0  0  0  0
   -2.6362   -2.3395    1.0094 C   0  0  0  0  0  0  0  0  0  0  0  0
   -1.8292   -2.8395    1.7814 O   0  0  0  0  0  0  0  0  0  0  0  0
   -2.3832   -1.2445    0.2964 N   0  0  0  0  0  0  0  0  0  0  0  0
   -3.1102   -0.8685   -0.2946 H   0  0  0  0  0  0  0  0  0  0  0  0
   -1.1292   -0.4875    0.3524 C   0  0  1  0  0  0  0  0  0  0  0  0
   -0.5898   -0.7762    1.2552 H   0  0  0  0  0  0  0  0  0  0  0  0
   -0.2608   -0.8470   -0.8656 C   0  0  0  0  0  0  0  0  0  0  0  0
   -0.9123   -1.0969   -1.7040 H   0  0  0  0  0  0  0  0  0  0  0  0
    0.3224    0.0289   -1.1547 H   0  0  0  0  0  0  0  0  0  0  0  0
    0.6742   -2.0176   -0.6308 C   0  0  0  0  0  0  0  0  0  0  0  0
    0.5757   -3.1773   -1.4256 C   0  0  0  0  0  0  0  0  0  0  0  0
   -0.1866   -3.2461   -2.1906 H   0  0  0  0  0  0  0  0  0  0  0  0
    1.4727   -4.2455   -1.2306 C   0  0  0  0  0  0  0  0  0  0  0  0
    1.3934   -5.1326   -1.8400 H   0  0  0  0  0  0  0  0  0  0  0  0
    2.4739   -4.1518   -0.2395 C   0  0  0  0  0  0  0  0  0  0  0  0
    3.3456   -5.1753   -0.0455 O   0  0  0  0  0  0  0  0  0  0  0  0
    3.1260   -5.9421   -0.5763 H   0  0  0  0  0  0  0  0  0  0  0  0
    2.5741   -2.9886    0.5517 C   0  0  0  0  0  0  0  0  0  0  0  0
    3.3411   -2.9306    1.3092 H   0  0  0  0  0  0  0  0  0  0  0  0
    1.6732   -1.9244    0.3574 C   0  0  0  0  0  0  0  0  0  0  0  0
    1.7449   -1.0348    0.9719 H   0  0  0  0  0  0  0  0  0  0  0  0
   -1.4018    1.0238    0.4329 C   0  0  0  0  0  0  0  0  0  0  0  0
   -2.2416    1.5423   -0.3033 O   0  0  0  0  0  0  0  0  0  0  0  0
   -0.6927    1.7304    1.3223 N   0  0  0  0  0  0  0  0  0  0  0  0
    0.0178    1.2410    1.8469 H   0  0  0  0  0  0  0  0  0  0  0  0
   -0.8259    3.1712    1.5254 C   0  0  0  0  0  0  0  0  0  0  0  0
   -1.8769    3.4302    1.6645 H   0  0  0  0  0  0  0  0  0  0  0  0
   -0.2598    3.4806    2.4054 H   0  0  0  0  0  0  0  0  0  0  0  0
   -0.4486    3.7020    0.6489 H   0  0  0  0  0  0  0  0  0  0  0  0
  5  6  2  0  0  0  0
  5  7  1  0  0  0  0
  2  3  1  0  0  0  0
  2  4  1  0  0  0  0
  2  5  1  0  0  0  0
  1  2  1  0  0  0  0
 26 27  2  0  0  0  0
 26 28  1  0  0  0  0
 24 25  1  0  0  0  0
 22 23  1  0  0  0  0
 22 24  2  0  0  0  0
 20 21  1  0  0  0  0
 19 20  1  0  0  0  0
 19 22  1  0  0  0  0
 17 18  1  0  0  0  0
 17 19  2  0  0  0  0
 15 16  1  0  0  0  0
 15 17  1  0  0  0  0
 14 15  2  0  0  0  0
 14 24  1  0  0  0  0
 11 12  1  0  0  0  0
 11 13  1  0  0  0  0
 11 14  1  0  0  0  0
  9 10  1  0  0  0  0
  9 11  1  0  0  0  0
  9 26  1  0  0  0  0
  7  8  1  0  0  0  0
  7  9  1  0  0  0  0
 30 31  1  0  0  0  0
 30 32  1  0  0  0  0
 30 33  1  0  0  0  0
 28 29  1  0  0  0  0
 28 30  1  0  0  0  0
M  END
$$$$
default_name
  -OEChem-02102213163D

 33 33  0     1  0  0  0  0  0999 V2000
   -4.0702   -3.8485    1.4554 H   0  0  0  0  0  0  0  0  0  0  0  0
   -4.0012   -2.9605    0.8284 C   0  0  0  0  0  0  0  0  0  0  0  0
   -4.7652   -2.2435    1.1234 H   0  0  0  0  0  0  0  0  0  0  0  0
   -4.1352   -3.2385   -0.2156 H   0  0  0  0  0  0  0  0  0  0  0  0
   -2.6362   -2.3395    1.0094 C   0  0  0  0  0  0  0  0  0  0  0  0
   -1.8292   -2.8395    1.7814 O   0  0  0  0  0  0  0  0  0  0  0  0
   -2.3832   -1.2445    0.2964 N   0  0  0  0  0  0  0  0  0  0  0  0
   -3.1102   -0.8685   -0.2946 H   0  0  0  0  0  0  0  0  0  0  0  0
   -1.1292   -0.4875    0.3524 C   0  0  1  0  0  0  0  0  0  0  0  0
   -0.5898   -0.7762    1.2552 H   0  0  0  0  0  0  0  0  0  0  0  0
   -0.2608   -0.8470   -0.8656 C   0  0  0  0  0  0  0  0  0  0  0  0
   -0.9123   -1.0969   -1.7040 H   0  0  0  0  0  0  0  0  0  0  0  0
    0.3224    0.0289   -1.1547 H   0  0  0  0  0  0  0  0  0  0  0  0
    0.6742   -2.0176   -0.6308 C   0  0  0  0  0  0  0  0  0  0  0  0
    0.7993   -3.0336   -1.5995 C   0  0  0  0  0  0  0  0  0  0  0  0
    0.2072   -2.9944   -2.5045 H   0  0  0  0  0  0  0  0  0  0  0  0
    1.6991   -4.0977   -1.3950 C   0  0  0  0  0  0  0  0  0  0  0  0
    1.7912   -4.8747   -2.1382 H   0  0  0  0  0  0  0  0  0  0  0  0
    2.4791   -4.1435   -0.2189 C   0  0  0  0  0  0  0  0  0  0  0  0
    3.3519   -5.1639   -0.0136 O   0  0  0  0  0  0  0  0  0  0  0  0
    3.2844   -5.8385   -0.6906 H   0  0  0  0  0  0  0  0  0  0  0  0
    2.3562   -3.1234    0.7471 C   0  0  0  0  0  0  0  0  0  0  0  0
    2.9549   -3.1719    1.6442 H   0  0  0  0  0  0  0  0  0  0  0  0
    1.4526   -2.0636    0.5419 C   0  0  0  0  0  0  0  0  0  0  0  0
    1.3520   -1.2851    1.2888 H   0  0  0  0  0  0  0  0  0  0  0  0
   -1.4018    1.0238    0.4329 C   0  0  0  0  0  0  0  0  0  0  0  0
   -2.2416    1.5423   -0.3033 O   0  0  0  0  0  0  0  0  0  0  0  0
   -0.6927    1.7304    1.3223 N   0  0  0  0  0  0  0  0  0  0  0  0
    0.0178    1.2410    1.8469 H   0  0  0  0  0  0  0  0  0  0  0  0
   -0.8259    3.1712    1.5254 C   0  0  0  0  0  0  0  0  0  0  0  0
   -1.8769    3.4302    1.6645 H   0  0  0  0  0  0  0  0  0  0  0  0
   -0.2598    3.4806    2.4054 H   0  0  0  0  0  0  0  0  0  0  0  0
   -0.4486    3.7020    0.6489 H   0  0  0  0  0  0  0  0  0  0  0  0
  5  6  2  0  0  0  0
  5  7  1  0  0  0  0
  2  3  1  0  0  0  0
  2  4  1  0  0  0  0
  2  5  1  0  0  0  0
  1  2  1  0  0  0  0
 26 27  2  0  0  0  0
 26 28  1  0  0  0  0
 24 25  1  0  0  0  0
 22 23  1  0  0  0  0
 22 24  2  0  0  0  0
 20 21  1  0  0  0  0
 19 20  1  0  0  0  0
 19 22  1  0  0  0  0
 17 18  1  0  0  0  0
 17 19  2  0  0  0  0
 15 16  1  0  0  0  0
 15 17  1  0  0  0  0
 14 15  2  0  0  0  0
 14 24  1  0  0  0  0
 11 12  1  0  0  0  0
 11 13  1  0  0  0  0
 11 14  1  0  0  0  0
  9 10  1  0  0  0  0
  9 11  1  0  0  0  0
  9 26  1  0  0  0  0
  7  8  1  0  0  0  0
  7  9  1  0  0  0  0
 30 31  1  0  0  0  0
 30 32  1  0  0  0  0
 30 33  1  0  0  0  0
 28 29  1  0  0  0  0
 28 30  1  0  0  0  0
M  END
$$$$
default_name
  -OEChem-02102213163D

 33 33  0     1  0  0  0  0  0999 V2000
   -4.0702   -3.8485    1.4554 H   0  0  0  0  0  0  0  0  0  0  0  0
   -4.0012   -2.9605    0.8284 C   0  0  0  0  0  0  0  0  0  0  0  0
   -4.7652   -2.2435    1.1234 H   0  0  0  0  0  0  0  0  0  0  0  0
   -4.1352   -3.2385   -0.2156 H   0  0  0  0  0  0  0  0  0  0  0  0
   -2.6362   -2.3395    1.0094 C   0  0  0  0  0  0  0  0  0  0  0  0
   -1.8292   -2.8395    1.7814 O   0  0  0  0  0  0  0  0  0  0  0  0
   -2.3832   -1.2445    0.2964 N   0  0  0  0  0  0  0  0  0  0  0  0
   -3.1102   -0.8685   -0.2946 H   0  0  0  0  0  0  0  0  0  0  0  0
   -1.1292   -0.4875    0.3524 C   0  0  1  0  0  0  0  0  0  0  0  0
   -0.5898   -0.7762    1.2552 H   0  0  0  0  0  0  0  0  0  0  0  0
   -0.2608   -0.8470   -0.8656 C   0  0  0  0  0  0  0  0  0  0  0  0
   -0.9123   -1.0969   -1.7040 H   0  0  0  0  0  0  0  0  0  0  0  0
    0.3224    0.0289   -1.1547 H   0  0  0  0  0  0  0  0  0  0  0  0
    0.6742   -2.0176   -0.6308 C   0  0  0  0  0  0  0  0  0  0  0  0
    1.0442   -2.8580   -1.6999 C   0  0  0  0  0  0  0  0  0  0  0  0
    0.6403   -2.6855   -2.6889 H   0  0  0  0  0  0  0  0  0  0  0  0
    1.9447   -3.9195   -1.4849 C   0  0  0  0  0  0  0  0  0  0  0  0
    2.2247   -4.5620   -2.3055 H   0  0  0  0  0  0  0  0  0  0  0  0
    2.4797   -4.1386   -0.1967 C   0  0  0  0  0  0  0  0  0  0  0  0
    3.3512   -5.1577    0.0203 O   0  0  0  0  0  0  0  0  0  0  0  0
    3.4561   -5.7139   -0.7528 H   0  0  0  0  0  0  0  0  0  0  0  0
    2.1121   -3.2936    0.8709 C   0  0  0  0  0  0  0  0  0  0  0  0
    2.5246   -3.4739    1.8522 H   0  0  0  0  0  0  0  0  0  0  0  0
    1.2083   -2.2363    0.6538 C   0  0  0  0  0  0  0  0  0  0  0  0
    0.9192   -1.5932    1.4765 H   0  0  0  0  0  0  0  0  0  0  0  0
   -1.4018    1.0238    0.4329 C   0  0  0  0  0  0  0  0  0  0  0  0
   -2.2416    1.5423   -0.3033 O   0  0  0  0  0  0  0  0  0  0  0  0
   -0.6927    1.7304    1.3223 N   0  0  0  0  0  0  0  0  0  0  0  0
    0.0178    1.2410    1.8469 H   0  0  0  0  0  0  0  0  0  0  0  0
   -0.8259    3.1712    1.5254 C   0  0  0  0  0  0  0  0  0  0  0  0
   -1.8769    3.4302    1.6645 H   0  0  0  0  0  0  0  0  0  0  0  0
   -0.2598    3.4806    2.4054 H   0  0  0  0  0  0  0  0  0  0  0  0
   -0.4486    3.7020    0.6489 H   0  0  0  0  0  0  0  0  0  0  0  0
  5  6  2  0  0  0  0
  5  7  1  0  0  0  0
  2  3  1  0  0  0  0
  2  4  1  0  0  0  0
  2  5  1  0  0  0  0
  1  2  1  0  0  0  0
 26 27  2  0  0  0  0
 26 28  1  0  0  0  0
 24 25  1  0  0  0  0
 22 23  1  0  0  0  0
 22 24  2  0  0  0  0
 20 21  1  0  0  0  0
 19 20  1  0  0  0  0
 19 22  1  0  0  0  0
 17 18  1  0  0  0  0
 17 19  2  0  0  0  0
 15 16  1  0  0  0  0
 15 17  1  0  0  0  0
 14 15  2  0  0  0  0
 14 24  1  0  0  0  0
 11 12  1  0  0  0  0
 11 13  1  0  0  0  0
 11 14  1  0  0  0  0
  9 10  1  0  0  0  0
  9 11  1  0  0  0  0
  9 26  1  0  0  0  0
  7  8  1  0  0  0  0
  7  9  1  0  0  0  0
 30 31  1  0  0  0  0
 30 32  1  0  0  0  0
 30 33  1  0  0  0  0
 28 29  1  0  0  0  0
 28 30  1  0  0  0  0
M  END
$$$$
default_name
  -OEChem-02102213163D

 33 33  0     1  0  0  0  0  0999 V2000
   -4.0702   -3.8485    1.4554 H   0  0  0  0  0  0  0  0  0  0  0  0
   -4.0012   -2.9605    0.8284 C   0  0  0  0  0  0  0  0  0  0  0  0
   -4.7652   -2.2435    1.1234 H   0  0  0  0  0  0  0  0  0  0  0  0
   -4.1352   -3.2385   -0.2156 H   0  0  0  0  0  0  0  0  0  0  0  0
   -2.6362   -2.3395    1.0094 C   0  0  0  0  0  0  0  0  0  0  0  0
   -1.8292   -2.8395    1.7814 O   0  0  0  0  0  0  0  0  0  0  0  0
   -2.3832   -1.2445    0.2964 N   0  0  0  0  0  0  0  0  0  0  0  0
   -3.1102   -0.8685   -0.2946 H   0  0  0  0  0  0  0  0  0  0  0  0
   -1.1292   -0.4875    0.3524 C   0  0  1  0  0  0  0  0  0  0  0  0
   -0.5898   -0.7762    1.2552 H   0  0  0  0  0  0  0  0  0  0  0  0
   -0.2608   -0.8470   -0.8656 C   0  0  0  0  0  0  0  0  0  0  0  0
   -0.9123   -1.0969   -1.7040 H   0  0  0  0  0  0  0  0  0  0  0  0
    0.3224    0.0289   -1.1547 H   0  0  0  0  0  0  0  0  0  0  0  0
    0.6742   -2.0176   -0.6308 C   0  0  0  0  0  0  0  0  0  0  0  0
    1.2938   -2.6627   -1.7199 C   0  0  0  0  0  0  0  0  0  0  0  0
    1.0831   -2.3403   -2.7312 H   0  0  0  0  0  0  0  0  0  0  0  0
    2.1928   -3.7232   -1.4943 C   0  0  0  0  0  0  0  0  0  0  0  0
    2.6643   -4.2159   -2.3307 H   0  0  0  0  0  0  0  0  0  0  0  0
    2.4757   -4.1373   -0.1744 C   0  0  0  0  0  0  0  0  0  0  0  0
    3.3434   -5.1572    0.0538 O   0  0  0  0  0  0  0  0  0  0  0  0
    3.6294   -5.5766   -0.7587 H   0  0  0  0  0  0  0  0  0  0  0  0
    1.8585   -3.4875    0.9145 C   0  0  0  0  0  0  0  0  0  0  0  0
    2.0795   -3.8161    1.9188 H   0  0  0  0  0  0  0  0  0  0  0  0
    0.9569   -2.4308    0.6855 C   0  0  0  0  0  0  0  0  0  0  0  0
    0.4760   -1.9381    1.5222 H   0  0  0  0  0  0  0  0  0  0  0  0
   -1.4018    1.0238    0.4329 C   0  0  0  0  0  0  0  0  0  0  0  0
   -2.2416    1.5423   -0.3033 O   0  0  0  0  0  0  0  0  0  0  0  0
   -0.6927    1.7304    1.3223 N   0  0  0  0  0  0  0  0  0  0  0  0
    0.0178    1.2410    1.8469 H   0  0  0  0  0  0  0  0  0  0  0  0
   -0.8259    3.1712    1.5254 C   0  0  0  0  0  0  0  0  0  0  0  0
   -1.8769    3.4302    1.6645 H   0  0  0  0  0  0  0  0  0  0  0  0
   -0.2598    3.4806    2.4054 H   0  0  0  0  0  0  0  0  0  0  0  0
   -0.4486    3.7020    0.6489 H   0  0  0  0  0  0  0  0  0  0  0  0
  5  6  2  0  0  0  0
  5  7  1  0  0  0  0
  2  3  1  0  0  0  0
  2  4  1  0  0  0  0
  2  5  1  0  0  0  0
  1  2  1  0  0  0  0
 26 27  2  0  0  0  0
 26 28  1  0  0  0  0
 24 25  1  0  0  0  0
 22 23  1  0  0  0  0
 22 24  2  0  0  0  0
 20 21  1  0  0  0  0
 19 20  1  0  0  0  0
 19 22  1  0  0  0  0
 17 18  1  0  0  0  0
 17 19  2  0  0  0  0
 15 16  1  0  0  0  0
 15 17  1  0  0  0  0
 14 15  2  0  0  0  0
 14 24  1  0  0  0  0
 11 12  1  0  0  0  0
 11 13  1  0  0  0  0
 11 14  1  0  0  0  0
  9 10  1  0  0  0  0
  9 11  1  0  0  0  0
  9 26  1  0  0  0  0
  7  8  1  0  0  0  0
  7  9  1  0  0  0  0
 30 31  1  0  0  0  0
 30 32  1  0  0  0  0
 30 33  1  0  0  0  0
 28 29  1  0  0  0  0
 28 30  1  0  0  0  0
M  END
$$$$
default_name
  -OEChem-02102213163D

 33 33  0     1  0  0  0  0  0999 V2000
   -4.0702   -3.8485    1.4554 H   0  0  0  0  0  0  0  0  0  0  0  0
   -4.0012   -2.9605    0.8284 C   0  0  0  0  0  0  0  0  0  0  0  0
   -4.7652   -2.2435    1.1234 H   0  0  0  0  0  0  0  0  0  0  0  0
   -4.1352   -3.2385   -0.2156 H   0  0  0  0  0  0  0  0  0  0  0  0
   -2.6362   -2.3395    1.0094 C   0  0  0  0  0  0  0  0  0  0  0  0
   -1.8292   -2.8395    1.7814 O   0  0  0  0  0  0  0  0  0  0  0  0
   -2.3832   -1.2445    0.2964 N   0  0  0  0  0  0  0  0  0  0  0  0
   -3.1102   -0.8685   -0.2946 H   0  0  0  0  0  0  0  0  0  0  0  0
   -1.1292   -0.4875    0.3524 C   0  0  1  0  0  0  0  0  0  0  0  0
   -0.5898   -0.7762    1.2552 H   0  0  0  0  0  0  0  0  0  0  0  0
   -0.2608   -0.8470   -0.8656 C   0  0  0  0  0  0  0  0  0  0  0  0
   -0.8838   -0.8352   -1.7609 H   0  0  0  0  0  0  0  0  0  0  0  0
    0.5063   -0.0810   -0.9911 H   0  0  0  0  0  0  0  0  0  0  0  0
    0.4001   -2.2085   -0.7699 C   0  0  0  0  0  0  0  0  0  0  0  0
    1.2261   -2.6732   -1.8130 C   0  0  0  0  0  0  0  0  0  0  0  0
    1.3704   -2.0692   -2.6992 H   0  0  0  0  0  0  0  0  0  0  0  0
    1.8701   -3.9209   -1.7015 C   0  0  0  0  0  0  0  0  0  0  0  0
    2.5006   -4.2743   -2.5028 H   0  0  0  0  0  0  0  0  0  0  0  0
    1.6901   -4.7046   -0.5409 C   0  0  0  0  0  0  0  0  0  0  0  0
    2.3091   -5.9079   -0.4225 O   0  0  0  0  0  0  0  0  0  0  0  0
    2.7667   -6.1592   -1.2259 H   0  0  0  0  0  0  0  0  0  0  0  0
    0.8671   -4.2358    0.5040 C   0  0  0  0  0  0  0  0  0  0  0  0
    0.7338   -4.8461    1.3845 H   0  0  0  0  0  0  0  0  0  0  0  0
    0.2211   -2.9904    0.3877 C   0  0  0  0  0  0  0  0  0  0  0  0
   -0.4184   -2.6350    1.1869 H   0  0  0  0  0  0  0  0  0  0  0  0
   -1.4018    1.0238    0.4329 C   0  0  0  0  0  0  0  0  0  0  0  0
   -2.2416    1.5423   -0.3033 O   0  0  0  0  0  0  0  0  0  0  0  0
   -0.6927    1.7304    1.3223 N   0  0  0  0  0  0  0  0  0  0  0  0
    0.0178    1.2410    1.8469 H   0  0  0  0  0  0  0  0  0  0  0  0
   -0.8259    3.1712    1.5254 C   0  0  0  0  0  0  0  0  0  0  0  0
   -1.8769    3.4302    1.6645 H   0  0  0  0  0  0  0  0  0  0  0  0
   -0.2598    3.4806    2.4054 H   0  0  0  0  0  0  0  0  0  0  0  0
   -0.4486    3.7020    0.6489 H   0  0  0  0  0  0  0  0  0  0  0  0
  5  6  2  0  0  0  0
  5  7  1  0  0  0  0
  2  3  1  0  0  0  0
  2  4  1  0  0  0  0
  2  5  1  0  0  0  0
  1  2  1  0  0  0  0
 26 27  2  0  0  0  0
 26 28  1  0  0  0  0
 24 25  1  0  0  0  0
 22 23  1  0  0  0  0
 22 24  2  0  0  0  0
 20 21  1  0  0  0  0
 19 20  1  0  0  0  0
 19 22  1  0  0  0  0
 17 18  1  0  0  0  0
 17 19  2  0  0  0  0
 15 16  1  0  0  0  0
 15 17  1  0  0  0  0
 14 15  2  0  0  0  0
 14 24  1  0  0  0  0
 11 12  1  0  0  0  0
 11 13  1  0  0  0  0
 11 14  1  0  0  0  0
  9 10  1  0  0  0  0
  9 11  1  0  0  0  0
  9 26  1  0  0  0  0
  7  8  1  0  0  0  0
  7  9  1  0  0  0  0
 30 31  1  0  0  0  0
 30 32  1  0  0  0  0
 30 33  1  0  0  0  0
 28 29  1  0  0  0  0
 28 30  1  0  0  0  0
M  END
$$$$
default_name
  -OEChem-02102213163D

 33 33  0     1  0  0  0  0  0999 V2000
   -4.0702   -3.8485    1.4554 H   0  0  0  0  0  0  0  0  0  0  0  0
   -4.0012   -2.9605    0.8284 C   0  0  0  0  0  0  0  0  0  0  0  0
   -4.7652   -2.2435    1.1234 H   0  0  0  0  0  0  0  0  0  0  0  0
   -4.1352   -3.2385   -0.2156 H   0  0  0  0  0  0  0  0  0  0  0  0
   -2.6362   -2.3395    1.0094 C   0  0  0  0  0  0  0  0  0  0  0  0
   -1.8292   -2.8395    1.7814 O   0  0  0  0  0  0  0  0  0  0  0  0
   -2.3832   -1.2445    0.2964 N   0  0  0  0  0  0  0  0  0  0  0  0
   -3.1102   -0.8685   -0.2946 H   0  0  0  0  0  0  0  0  0  0  0  0
   -1.1292   -0.4875    0.3524 C   0  0  1  0  0  0  0  0  0  0  0  0
   -0.5898   -0.7762    1.2552 H   0  0  0  0  0  0  0  0  0  0  0  0
   -0.2608   -0.8470   -0.8656 C   0  0  0  0  0  0  0  0  0  0  0  0
   -0.8838   -0.8352   -1.7609 H   0  0  0  0  0  0  0  0  0  0  0  0
    0.5063   -0.0810   -0.9911 H   0  0  0  0  0  0  0  0  0  0  0  0
    0.4001   -2.2085   -0.7699 C   0  0  0  0  0  0  0  0  0  0  0  0
    1.4585   -2.5480   -1.6364 C   0  0  0  0  0  0  0  0  0  0  0  0
    1.7860   -1.8458   -2.3918 H   0  0  0  0  0  0  0  0  0  0  0  0
    2.0959   -3.7983   -1.5168 C   0  0  0  0  0  0  0  0  0  0  0  0
    2.9050   -4.0555   -2.1830 H   0  0  0  0  0  0  0  0  0  0  0  0
    1.6755   -4.7105   -0.5244 C   0  0  0  0  0  0  0  0  0  0  0  0
    2.2857   -5.9176   -0.3991 O   0  0  0  0  0  0  0  0  0  0  0  0
    2.9241   -6.0736   -1.0963 H   0  0  0  0  0  0  0  0  0  0  0  0
    0.6195   -4.3672    0.3450 C   0  0  0  0  0  0  0  0  0  0  0  0
    0.3042   -5.0749    1.0968 H   0  0  0  0  0  0  0  0  0  0  0  0
   -0.0187   -3.1185    0.2199 C   0  0  0  0  0  0  0  0  0  0  0  0
   -0.8360   -2.8592    0.8822 H   0  0  0  0  0  0  0  0  0  0  0  0
   -1.4018    1.0238    0.4329 C   0  0  0  0  0  0  0  0  0  0  0  0
   -2.2416    1.5423   -0.3033 O   0  0  0  0  0  0  0  0  0  0  0  0
   -0.6927    1.7304    1.3223 N   0  0  0  0  0  0  0  0  0  0  0  0
    0.0178    1.2410    1.8469 H   0  0  0  0  0  0  0  0  0  0  0  0
   -0.8259    3.1712    1.5254 C   0  0  0  0  0  0  0  0  0  0  0  0
   -1.8769    3.4302    1.6645 H   0  0  0  0  0  0  0  0  0  0  0  0
   -0.2598    3.4806    2.4054 H   0  0  0  0  0  0  0  0  0  0  0  0
   -0.4486    3.7020    0.6489 H   0  0  0  0  0  0  0  0  0  0  0  0
  5  6  2  0  0  0  0
  5  7  1  0  0  0  0
  2  3  1  0  0  0  0
  2  4  1  0  0  0  0
  2  5  1  0  0  0  0
  1  2  1  0  0  0  0
 26 27  2  0  0  0  0
 26 28  1  0  0  0  0
 24 25  1  0  0  0  0
 22 23  1  0  0  0  0
 22 24  2  0  0  0  0
 20 21  1  0  0  0  0
 19 20  1  0  0  0  0
 19 22  1  0  0  0  0
 17 18  1  0  0  0  0
 17 19  2  0  0  0  0
 15 16  1  0  0  0  0
 15 17  1  0  0  0  0
 14 15  2  0  0  0  0
 14 24  1  0  0  0  0
 11 12  1  0  0  0  0
 11 13  1  0  0  0  0
 11 14  1  0  0  0  0
  9 10  1  0  0  0  0
  9 11  1  0  0  0  0
  9 26  1  0  0  0  0
  7  8  1  0  0  0  0
  7  9  1  0  0  0  0
 30 31  1  0  0  0  0
 30 32  1  0  0  0  0
 30 33  1  0  0  0  0
 28 29  1  0  0  0  0
 28 30  1  0  0  0  0
M  END
$$$$
default_name
  -OEChem-02102213163D

 33 33  0     1  0  0  0  0  0999 V2000
   -4.0702   -3.8485    1.4554 H   0  0  0  0  0  0  0  0  0  0  0  0
   -4.0012   -2.9605    0.8284 C   0  0  0  0  0  0  0  0  0  0  0  0
   -4.7652   -2.2435    1.1234 H   0  0  0  0  0  0  0  0  0  0  0  0
   -4.1352   -3.2385   -0.2156 H   0  0  0  0  0  0  0  0  0  0  0  0
   -2.6362   -2.3395    1.0094 C   0  0  0  0  0  0  0  0  0  0  0  0
   -1.8292   -2.8395    1.7814 O   0  0  0  0  0  0  0  0  0  0  0  0
   -2.3832   -1.2445    0.2964 N   0  0  0  0  0  0  0  0  0  0  0  0
   -3.1102   -0.8685   -0.2946 H   0  0  0  0  0  0  0  0  0  0  0  0
   -1.1292   -0.4875    0.3524 C   0  0  1  0  0  0  0  0  0  0  0  0
   -0.5898   -0.7762    1.2552 H   0  0  0  0  0  0  0  0  0  0  0  0
   -0.2608   -0.8470   -0.8656 C   0  0  0  0  0  0  0  0  0  0  0  0
   -0.8838   -0.8352   -1.7609 H   0  0  0  0  0  0  0  0  0  0  0  0
    0.5063   -0.0810   -0.9911 H   0  0  0  0  0  0  0  0  0  0  0  0
    0.4001   -2.2085   -0.7699 C   0  0  0  0  0  0  0  0  0  0  0  0
    1.6399   -2.4432   -1.3977 C   0  0  0  0  0  0  0  0  0  0  0  0
    2.1124   -1.6580   -1.9732 H   0  0  0  0  0  0  0  0  0  0  0  0
    2.2691   -3.6970   -1.2720 C   0  0  0  0  0  0  0  0  0  0  0  0
    3.2177   -3.8737   -1.7554 H   0  0  0  0  0  0  0  0  0  0  0  0
    1.6577   -4.7183   -0.5126 C   0  0  0  0  0  0  0  0  0  0  0  0
    2.2579   -5.9300   -0.3829 O   0  0  0  0  0  0  0  0  0  0  0  0
    3.0446   -6.0031   -0.9249 H   0  0  0  0  0  0  0  0  0  0  0  0
    0.4195   -4.4802    0.1190 C   0  0  0  0  0  0  0  0  0  0  0  0
   -0.0401   -5.2704    0.6933 H   0  0  0  0  0  0  0  0  0  0  0  0
   -0.2092   -3.2273   -0.0123 C   0  0  0  0  0  0  0  0  0  0  0  0
   -1.1650   -3.0481    0.4656 H   0  0  0  0  0  0  0  0  0  0  0  0
   -1.4018    1.0238    0.4329 C   0  0  0  0  0  0  0  0  0  0  0  0
   -2.2416    1.5423   -0.3033 O   0  0  0  0  0  0  0  0  0  0  0  0
   -0.6927    1.7304    1.3223 N   0  0  0  0  0  0  0  0  0  0  0  0
    0.0178    1.2410    1.8469 H   0  0  0  0  0  0  0  0  0  0  0  0
   -0.8259    3.1712    1.5254 C   0  0  0  0  0  0  0  0  0  0  0  0
   -1.8769    3.4302    1.6645 H   0  0  0  0  0  0  0  0  0  0  0  0
   -0.2598    3.4806    2.4054 H   0  0  0  0  0  0  0  0  0  0  0  0
   -0.4486    3.7020    0.6489 H   0  0  0  0  0  0  0  0  0  0  0  0
  5  6  2  0  0  0  0
  5  7  1  0  0  0  0
  2  3  1  0  0  0  0
  2  4  1  0  0  0  0
  2  5  1  0  0  0  0
  1  2  1  0  0  0  0
 26 27  2  0  0  0  0
 26 28  1  0  0  0  0
 24 25  1  0  0  0  0
 22 23  1  0  0  0  0
 22 24  2  0  0  0  0
 20 21  1  0  0  0  0
 19 20  1  0  0  0  0
 19 22  1  0  0  0  0
 17 18  1  0  0  0  0
 17 19  2  0  0  0  0
 15 16  1  0  0  0  0
 15 17  1  0  0  0  0
 14 15  2  0  0  0  0
 14 24  1  0  0  0  0
 11 12  1  0  0  0  0
 11 13  1  0  0  0  0
 11 14  1  0  0  0  0
  9 10  1  0  0  0  0
  9 11  1  0  0  0  0
  9 26  1  0  0  0  0
  7  8  1  0  0  0  0
  7  9  1  0  0  0  0
 30 31  1  0  0  0  0
 30 32  1  0  0  0  0
 30 33  1  0  0  0  0
 28 29  1  0  0  0  0
 28 30  1  0  0  0  0
M  END
$$$$
default_name
  -OEChem-02102213163D

 33 33  0     1  0  0  0  0  0999 V2000
   -4.0702   -3.8485    1.4554 H   0  0  0  0  0  0  0  0  0  0  0  0
   -4.0012   -2.9605    0.8284 C   0  0  0  0  0  0  0  0  0  0  0  0
   -4.7652   -2.2435    1.1234 H   0  0  0  0  0  0  0  0  0  0  0  0
   -4.1352   -3.2385   -0.2156 H   0  0  0  0  0  0  0  0  0  0  0  0
   -2.6362   -2.3395    1.0094 C   0  0  0  0  0  0  0  0  0  0  0  0
   -1.8292   -2.8395    1.7814 O   0  0  0  0  0  0  0  0  0  0  0  0
   -2.3832   -1.2445    0.2964 N   0  0  0  0  0  0  0  0  0  0  0  0
   -3.1102   -0.8685   -0.2946 H   0  0  0  0  0  0  0  0  0  0  0  0
   -1.1292   -0.4875    0.3524 C   0  0  1  0  0  0  0  0  0  0  0  0
   -0.5898   -0.7762    1.2552 H   0  0  0  0  0  0  0  0  0  0  0  0
   -0.2608   -0.8470   -0.8656 C   0  0  0  0  0  0  0  0  0  0  0  0
   -0.8838   -0.8352   -1.7609 H   0  0  0  0  0  0  0  0  0  0  0  0
    0.5063   -0.0810   -0.9911 H   0  0  0  0  0  0  0  0  0  0  0  0
    0.4001   -2.2085   -0.7699 C   0  0  0  0  0  0  0  0  0  0  0  0
    1.7579   -2.3659   -1.1131 C   0  0  0  0  0  0  0  0  0  0  0  0
    2.3273   -1.5184   -1.4719 H   0  0  0  0  0  0  0  0  0  0  0  0
    2.3779   -3.6239   -0.9840 C   0  0  0  0  0  0  0  0  0  0  0  0
    3.4174   -3.7412   -1.2492 H   0  0  0  0  0  0  0  0  0  0  0  0
    1.6379   -4.7275   -0.5062 C   0  0  0  0  0  0  0  0  0  0  0  0
    2.2274   -5.9442   -0.3753 O   0  0  0  0  0  0  0  0  0  0  0  0
    3.1200   -5.9523   -0.7233 H   0  0  0  0  0  0  0  0  0  0  0  0
    0.2806   -4.5671   -0.1585 C   0  0  0  0  0  0  0  0  0  0  0  0
   -0.2758   -5.4194    0.2014 H   0  0  0  0  0  0  0  0  0  0  0  0
   -0.3375   -3.3094   -0.2931 C   0  0  0  0  0  0  0  0  0  0  0  0
   -1.3828   -3.1890   -0.0346 H   0  0  0  0  0  0  0  0  0  0  0  0
   -1.4018    1.0238    0.4329 C   0  0  0  0  0  0  0  0  0  0  0  0
   -2.2416    1.5423   -0.3033 O   0  0  0  0  0  0  0  0  0  0  0  0
   -0.6927    1.7304    1.3223 N   0  0  0  0  0  0  0  0  0  0  0  0
    0.0178    1.2410    1.8469 H   0  0  0  0  0  0  0  0  0  0  0  0
   -0.8259    3.1712    1.5254 C   0  0  0  0  0  0  0  0  0  0  0  0
   -1.8769    3.4302    1.6645 H   0  0  0  0  0  0  0  0  0  0  0  0
   -0.2598    3.4806    2.4054 H   0  0  0  0  0  0  0  0  0  0  0  0
   -0.4486    3.7020    0.6489 H   0  0  0  0  0  0  0  0  0  0  0  0
  5  6  2  0  0  0  0
  5  7  1  0  0  0  0
  2  3  1  0  0  0  0
  2  4  1  0  0  0  0
  2  5  1  0  0  0  0
  1  2  1  0  0  0  0
 26 27  2  0  0  0  0
 26 28  1  0  0  0  0
 24 25  1  0  0  0  0
 22 23  1  0  0  0  0
 22 24  2  0  0  0  0
 20 21  1  0  0  0  0
 19 20  1  0  0  0  0
 19 22  1  0  0  0  0
 17 18  1  0  0  0  0
 17 19  2  0  0  0  0
 15 16  1  0  0  0  0
 15 17  1  0  0  0  0
 14 15  2  0  0  0  0
 14 24  1  0  0  0  0
 11 12  1  0  0  0  0
 11 13  1  0  0  0  0
 11 14  1  0  0  0  0
  9 10  1  0  0  0  0
  9 11  1  0  0  0  0
  9 26  1  0  0  0  0
  7  8  1  0  0  0  0
  7  9  1  0  0  0  0
 30 31  1  0  0  0  0
 30 32  1  0  0  0  0
 30 33  1  0  0  0  0
 28 29  1  0  0  0  0
 28 30  1  0  0  0  0
M  END
$$$$
default_name
  -OEChem-02102213163D

 33 33  0     1  0  0  0  0  0999 V2000
   -4.0702   -3.8485    1.4554 H   0  0  0  0  0  0  0  0  0  0  0  0
   -4.0012   -2.9605    0.8284 C   0  0  0  0  0  0  0  0  0  0  0  0
   -4.7652   -2.2435    1.1234 H   0  0  0  0  0  0  0  0  0  0  0  0
   -4.1352   -3.2385   -0.2156 H   0  0  0  0  0  0  0  0  0  0  0  0
   -2.6362   -2.3395    1.0094 C   0  0  0  0  0  0  0  0  0  0  0  0
   -1.8292   -2.8395    1.7814 O   0  0  0  0  0  0  0  0  0  0  0  0
   -2.3832   -1.2445    0.2964 N   0  0  0  0  0  0  0  0  0  0  0  0
   -3.1102   -0.8685   -0.2946 H   0  0  0  0  0  0  0  0  0  0  0  0
   -1.1292   -0.4875    0.3524 C   0  0  1  0  0  0  0  0  0  0  0  0
   -0.5898   -0.7762    1.2552 H   0  0  0  0  0  0  0  0  0  0  0  0
   -0.2608   -0.8470   -0.8656 C   0  0  0  0  0  0  0  0  0  0  0  0
   -0.8838   -0.8352   -1.7609 H   0  0  0  0  0  0  0  0  0  0  0  0
    0.5063   -0.0810   -0.9911 H   0  0  0  0  0  0  0  0  0  0  0  0
    0.4001   -2.2085   -0.7699 C   0  0  0  0  0  0  0  0  0  0  0  0
    1.8046   -2.3214   -0.8021 C   0  0  0  0  0  0  0  0  0  0  0  0
    2.4161   -1.4366   -0.9219 H   0  0  0  0  0  0  0  0  0  0  0  0
    2.4149   -3.5841   -0.6722 C   0  0  0  0  0  0  0  0  0  0  0  0
    3.4905   -3.6670   -0.6989 H   0  0  0  0  0  0  0  0  0  0  0  0
    1.6175   -4.7374   -0.5056 C   0  0  0  0  0  0  0  0  0  0  0  0
    2.1965   -5.9593   -0.3765 O   0  0  0  0  0  0  0  0  0  0  0  0
    3.1453   -5.9247   -0.5054 H   0  0  0  0  0  0  0  0  0  0  0  0
    0.2124   -4.6220   -0.4687 C   0  0  0  0  0  0  0  0  0  0  0  0
   -0.3867   -5.5116   -0.3452 H   0  0  0  0  0  0  0  0  0  0  0  0
   -0.3948   -3.3590   -0.6034 C   0  0  0  0  0  0  0  0  0  0  0  0
   -1.4747   -3.2723   -0.5842 H   0  0  0  0  0  0  0  0  0  0  0  0
   -1.4018    1.0238    0.4329 C   0  0  0  0  0  0  0  0  0  0  0  0
   -2.2416    1.5423   -0.3033 O   0  0  0  0  0  0  0  0  0  0  0  0
   -0.6927    1.7304    1.3223 N   0  0  0  0  0  0  0  0  0  0  0  0
    0.0178    1.2410    1.8469 H   0  0  0  0  0  0  0  0  0  0  0  0
   -0.8259    3.1712    1.5254 C   0  0  0  0  0  0  0  0  0  0  0  0
   -1.8769    3.4302    1.6645 H   0  0  0  0  0  0  0  0  0  0  0  0
   -0.2598    3.4806    2.4054 H   0  0  0  0  0  0  0  0  0  0  0  0
   -0.4486    3.7020    0.6489 H   0  0  0  0  0  0  0  0  0  0  0  0
  5  6  2  0  0  0  0
  5  7  1  0  0  0  0
  2  3  1  0  0  0  0
  2  4  1  0  0  0  0
  2  5  1  0  0  0  0
  1  2  1  0  0  0  0
 26 27  2  0  0  0  0
 26 28  1  0  0  0  0
 24 25  1  0  0  0  0
 22 23  1  0  0  0  0
 22 24  2  0  0  0  0
 20 21  1  0  0  0  0
 19 20  1  0  0  0  0
 19 22  1  0  0  0  0
 17 18  1  0  0  0  0
 17 19  2  0  0  0  0
 15 16  1  0  0  0  0
 15 17  1  0  0  0  0
 14 15  2  0  0  0  0
 14 24  1  0  0  0  0
 11 12  1  0  0  0  0
 11 13  1  0  0  0  0
 11 14  1  0  0  0  0
  9 10  1  0  0  0  0
  9 11  1  0  0  0  0
  9 26  1  0  0  0  0
  7  8  1  0  0  0  0
  7  9  1  0  0  0  0
 30 31  1  0  0  0  0
 30 32  1  0  0  0  0
 30 33  1  0  0  0  0
 28 29  1  0  0  0  0
 28 30  1  0  0  0  0
M  END
$$$$
default_name
  -OEChem-02102213163D

 33 33  0     1  0  0  0  0  0999 V2000
   -4.0702   -3.8485    1.4554 H   0  0  0  0  0  0  0  0  0  0  0  0
   -4.0012   -2.9605    0.8284 C   0  0  0  0  0  0  0  0  0  0  0  0
   -4.7652   -2.2435    1.1234 H   0  0  0  0  0  0  0  0  0  0  0  0
   -4.1352   -3.2385   -0.2156 H   0  0  0  0  0  0  0  0  0  0  0  0
   -2.6362   -2.3395    1.0094 C   0  0  0  0  0  0  0  0  0  0  0  0
   -1.8292   -2.8395    1.7814 O   0  0  0  0  0  0  0  0  0  0  0  0
   -2.3832   -1.2445    0.2964 N   0  0  0  0  0  0  0  0  0  0  0  0
   -3.1102   -0.8685   -0.2946 H   0  0  0  0  0  0  0  0  0  0  0  0
   -1.1292   -0.4875    0.3524 C   0  0  1  0  0  0  0  0  0  0  0  0
   -0.5898   -0.7762    1.2552 H   0  0  0  0  0  0  0  0  0  0  0  0
   -0.2608   -0.8470   -0.8656 C   0  0  0  0  0  0  0  0  0  0  0  0
   -0.8838   -0.8352   -1.7609 H   0  0  0  0  0  0  0  0  0  0  0  0
    0.5063   -0.0810   -0.9911 H   0  0  0  0  0  0  0  0  0  0  0  0
    0.4001   -2.2085   -0.7699 C   0  0  0  0  0  0  0  0  0  0  0  0
    1.7766   -2.3127   -0.4859 C   0  0  0  0  0  0  0  0  0  0  0  0
    2.3727   -1.4182   -0.3608 H   0  0  0  0  0  0  0  0  0  0  0  0
    2.3775   -3.5802   -0.3580 C   0  0  0  0  0  0  0  0  0  0  0  0
    3.4321   -3.6562   -0.1420 H   0  0  0  0  0  0  0  0  0  0  0  0
    1.5977   -4.7473   -0.5110 C   0  0  0  0  0  0  0  0  0  0  0  0
    2.1671   -5.9743   -0.3866 O   0  0  0  0  0  0  0  0  0  0  0  0
    3.1185   -5.9223   -0.2860 H   0  0  0  0  0  0  0  0  0  0  0  0
    0.2195   -4.6412   -0.7903 C   0  0  0  0  0  0  0  0  0  0  0  0
   -0.3652   -5.5409   -0.9094 H   0  0  0  0  0  0  0  0  0  0  0  0
   -0.3773   -3.3729   -0.9221 C   0  0  0  0  0  0  0  0  0  0  0  0
   -1.4343   -3.2921   -1.1458 H   0  0  0  0  0  0  0  0  0  0  0  0
   -1.4018    1.0238    0.4329 C   0  0  0  0  0  0  0  0  0  0  0  0
   -2.2416    1.5423   -0.3033 O   0  0  0  0  0  0  0  0  0  0  0  0
   -0.6927    1.7304    1.3223 N   0  0  0  0  0  0  0  0  0  0  0  0
    0.0178    1.2410    1.8469 H   0  0  0  0  0  0  0  0  0  0  0  0
   -0.8259    3.1712    1.5254 C   0  0  0  0  0  0  0  0  0  0  0  0
   -1.8769    3.4302    1.6645 H   0  0  0  0  0  0  0  0  0  0  0  0
   -0.2598    3.4806    2.4054 H   0  0  0  0  0  0  0  0  0  0  0  0
   -0.4486    3.7020    0.6489 H   0  0  0  0  0  0  0  0  0  0  0  0
  5  6  2  0  0  0  0
  5  7  1  0  0  0  0
  2  3  1  0  0  0  0
  2  4  1  0  0  0  0
  2  5  1  0  0  0  0
  1  2  1  0  0  0  0
 26 27  2  0  0  0  0
 26 28  1  0  0  0  0
 24 25  1  0  0  0  0
 22 23  1  0  0  0  0
 22 24  2  0  0  0  0
 20 21  1  0  0  0  0
 19 20  1  0  0  0  0
 19 22  1  0  0  0  0
 17 18  1  0  0  0  0
 17 19  2  0  0  0  0
 15 16  1  0  0  0  0
 15 17  1  0  0  0  0
 14 15  2  0  0  0  0
 14 24  1  0  0  0  0
 11 12  1  0  0  0  0
 11 13  1  0  0  0  0
 11 14  1  0  0  0  0
  9 10  1  0  0  0  0
  9 11  1  0  0  0  0
  9 26  1  0  0  0  0
  7  8  1  0  0  0  0
  7  9  1  0  0  0  0
 30 31  1  0  0  0  0
 30 32  1  0  0  0  0
 30 33  1  0  0  0  0
 28 29  1  0  0  0  0
 28 30  1  0  0  0  0
M  END
$$$$
default_name
  -OEChem-02102213163D

 33 33  0     1  0  0  0  0  0999 V2000
   -4.0702   -3.8485    1.4554 H   0  0  0  0  0  0  0  0  0  0  0  0
   -4.0012   -2.9605    0.8284 C   0  0  0  0  0  0  0  0  0  0  0  0
   -4.7652   -2.2435    1.1234 H   0  0  0  0  0  0  0  0  0  0  0  0
   -4.1352   -3.2385   -0.2156 H   0  0  0  0  0  0  0  0  0  0  0  0
   -2.6362   -2.3395    1.0094 C   0  0  0  0  0  0  0  0  0  0  0  0
   -1.8292   -2.8395    1.7814 O   0  0  0  0  0  0  0  0  0  0  0  0
   -2.3832   -1.2445    0.2964 N   0  0  0  0  0  0  0  0  0  0  0  0
   -3.1102   -0.8685   -0.2946 H   0  0  0  0  0  0  0  0  0  0  0  0
   -1.1292   -0.4875    0.3524 C   0  0  1  0  0  0  0  0  0  0  0  0
   -0.5898   -0.7762    1.2552 H   0  0  0  0  0  0  0  0  0  0  0  0
   -0.2608   -0.8470   -0.8656 C   0  0  0  0  0  0  0  0  0  0  0  0
   -0.8838   -0.8352   -1.7609 H   0  0  0  0  0  0  0  0  0  0  0  0
    0.5063   -0.0810   -0.9911 H   0  0  0  0  0  0  0  0  0  0  0  0
    0.4001   -2.2085   -0.7699 C   0  0  0  0  0  0  0  0  0  0  0  0
    1.6760   -2.3405   -0.1859 C   0  0  0  0  0  0  0  0  0  0  0  0
    2.2002   -1.4645    0.1731 H   0  0  0  0  0  0  0  0  0  0  0  0
    2.2682   -3.6124   -0.0627 C   0  0  0  0  0  0  0  0  0  0  0  0
    3.2460   -3.7096    0.3835 H   0  0  0  0  0  0  0  0  0  0  0  0
    1.5801   -4.7567   -0.5218 C   0  0  0  0  0  0  0  0  0  0  0  0
    2.1414   -5.9880   -0.4049 O   0  0  0  0  0  0  0  0  0  0  0  0
    3.0417   -5.9451   -0.0799 H   0  0  0  0  0  0  0  0  0  0  0  0
    0.3013   -4.6233   -1.1014 C   0  0  0  0  0  0  0  0  0  0  0  0
   -0.2130   -5.5051   -1.4527 H   0  0  0  0  0  0  0  0  0  0  0  0
   -0.2860   -3.3500   -1.2274 C   0  0  0  0  0  0  0  0  0  0  0  0
   -1.2645   -3.2473   -1.6812 H   0  0  0  0  0  0  0  0  0  0  0  0
   -1.4018    1.0238    0.4329 C   0  0  0  0  0  0  0  0  0  0  0  0
   -2.2416    1.5423   -0.3033 O   0  0  0  0  0  0  0  0  0  0  0  0
   -0.6927    1.7304    1.3223 N   0  0  0  0  0  0  0  0  0  0  0  0
    0.0178    1.2410    1.8469 H   0  0  0  0  0  0  0  0  0  0  0  0
   -0.8259    3.1712    1.5254 C   0  0  0  0  0  0  0  0  0  0  0  0
   -1.8769    3.4302    1.6645 H   0  0  0  0  0  0  0  0  0  0  0  0
   -0.2598    3.4806    2.4054 H   0  0  0  0  0  0  0  0  0  0  0  0
   -0.4486    3.7020    0.6489 H   0  0  0  0  0  0  0  0  0  0  0  0
  5  6  2  0  0  0  0
  5  7  1  0  0  0  0
  2  3  1  0  0  0  0
  2  4  1  0  0  0  0
  2  5  1  0  0  0  0
  1  2  1  0  0  0  0
 26 27  2  0  0  0  0
 26 28  1  0  0  0  0
 24 25  1  0  0  0  0
 22 23  1  0  0  0  0
 22 24  2  0  0  0  0
 20 21  1  0  0  0  0
 19 20  1  0  0  0  0
 19 22  1  0  0  0  0
 17 18  1  0  0  0  0
 17 19  2  0  0  0  0
 15 16  1  0  0  0  0
 15 17  1  0  0  0  0
 14 15  2  0  0  0  0
 14 24  1  0  0  0  0
 11 12  1  0  0  0  0
 11 13  1  0  0  0  0
 11 14  1  0  0  0  0
  9 10  1  0  0  0  0
  9 11  1  0  0  0  0
  9 26  1  0  0  0  0
  7  8  1  0  0  0  0
  7  9  1  0  0  0  0
 30 31  1  0  0  0  0
 30 32  1  0  0  0  0
 30 33  1  0  0  0  0
 28 29  1  0  0  0  0
 28 30  1  0  0  0  0
M  END
$$$$
default_name
  -OEChem-02102213163D

 33 33  0     1  0  0  0  0  0999 V2000
   -4.0702   -3.8485    1.4554 H   0  0  0  0  0  0  0  0  0  0  0  0
   -4.0012   -2.9605    0.8284 C   0  0  0  0  0  0  0  0  0  0  0  0
   -4.7652   -2.2435    1.1234 H   0  0  0  0  0  0  0  0  0  0  0  0
   -4.1352   -3.2385   -0.2156 H   0  0  0  0  0  0  0  0  0  0  0  0
   -2.6362   -2.3395    1.0094 C   0  0  0  0  0  0  0  0  0  0  0  0
   -1.8292   -2.8395    1.7814 O   0  0  0  0  0  0  0  0  0  0  0  0
   -2.3832   -1.2445    0.2964 N   0  0  0  0  0  0  0  0  0  0  0  0
   -3.1102   -0.8685   -0.2946 H   0  0  0  0  0  0  0  0  0  0  0  0
   -1.1292   -0.4875    0.3524 C   0  0  1  0  0  0  0  0  0  0  0  0
   -0.5898   -0.7762    1.2552 H   0  0  0  0  0  0  0  0  0  0  0  0
   -0.2608   -0.8470   -0.8656 C   0  0  0  0  0  0  0  0  0  0  0  0
   -0.8838   -0.8352   -1.7609 H   0  0  0  0  0  0  0  0  0  0  0  0
    0.5063   -0.0810   -0.9911 H   0  0  0  0  0  0  0  0  0  0  0  0
    0.4001   -2.2085   -0.7699 C   0  0  0  0  0  0  0  0  0  0  0  0
    1.5095   -2.4028    0.0773 C   0  0  0  0  0  0  0  0  0  0  0  0
    1.9102   -1.5722    0.6436 H   0  0  0  0  0  0  0  0  0  0  0  0
    2.0947   -3.6787    0.1935 C   0  0  0  0  0  0  0  0  0  0  0  0
    2.9451   -3.8235    0.8419 H   0  0  0  0  0  0  0  0  0  0  0  0
    1.5657   -4.7647   -0.5375 C   0  0  0  0  0  0  0  0  0  0  0  0
    2.1210   -5.9997   -0.4300 O   0  0  0  0  0  0  0  0  0  0  0  0
    2.9199   -5.9917    0.0987 H   0  0  0  0  0  0  0  0  0  0  0  0
    0.4524   -4.5696   -1.3810 C   0  0  0  0  0  0  0  0  0  0  0  0
    0.0598   -5.4068   -1.9381 H   0  0  0  0  0  0  0  0  0  0  0  0
   -0.1273   -3.2921   -1.4985 C   0  0  0  0  0  0  0  0  0  0  0  0
   -0.9769   -3.1409   -2.1538 H   0  0  0  0  0  0  0  0  0  0  0  0
   -1.4018    1.0238    0.4329 C   0  0  0  0  0  0  0  0  0  0  0  0
   -2.2416    1.5423   -0.3033 O   0  0  0  0  0  0  0  0  0  0  0  0
   -0.6927    1.7304    1.3223 N   0  0  0  0  0  0  0  0  0  0  0  0
    0.0178    1.2410    1.8469 H   0  0  0  0  0  0  0  0  0  0  0  0
   -0.8259    3.1712    1.5254 C   0  0  0  0  0  0  0  0  0  0  0  0
   -1.8769    3.4302    1.6645 H   0  0  0  0  0  0  0  0  0  0  0  0
   -0.2598    3.4806    2.4054 H   0  0  0  0  0  0  0  0  0  0  0  0
   -0.4486    3.7020    0.6489 H   0  0  0  0  0  0  0  0  0  0  0  0
  5  6  2  0  0  0  0
  5  7  1  0  0  0  0
  2  3  1  0  0  0  0
  2  4  1  0  0  0  0
  2  5  1  0  0  0  0
  1  2  1  0  0  0  0
 26 27  2  0  0  0  0
 26 28  1  0  0  0  0
 24 25  1  0  0  0  0
 22 23  1  0  0  0  0
 22 24  2  0  0  0  0
 20 21  1  0  0  0  0
 19 20  1  0  0  0  0
 19 22  1  0  0  0  0
 17 18  1  0  0  0  0
 17 19  2  0  0  0  0
 15 16  1  0  0  0  0
 15 17  1  0  0  0  0
 14 15  2  0  0  0  0
 14 24  1  0  0  0  0
 11 12  1  0  0  0  0
 11 13  1  0  0  0  0
 11 14  1  0  0  0  0
  9 10  1  0  0  0  0
  9 11  1  0  0  0  0
  9 26  1  0  0  0  0
  7  8  1  0  0  0  0
  7  9  1  0  0  0  0
 30 31  1  0  0  0  0
 30 32  1  0  0  0  0
 30 33  1  0  0  0  0
 28 29  1  0  0  0  0
 28 30  1  0  0  0  0
M  END
$$$$
default_name
  -OEChem-02102213163D

 33 33  0     1  0  0  0  0  0999 V2000
   -4.0702   -3.8485    1.4554 H   0  0  0  0  0  0  0  0  0  0  0  0
   -4.0012   -2.9605    0.8284 C   0  0  0  0  0  0  0  0  0  0  0  0
   -4.7652   -2.2435    1.1234 H   0  0  0  0  0  0  0  0  0  0  0  0
   -4.1352   -3.2385   -0.2156 H   0  0  0  0  0  0  0  0  0  0  0  0
   -2.6362   -2.3395    1.0094 C   0  0  0  0  0  0  0  0  0  0  0  0
   -1.8292   -2.8395    1.7814 O   0  0  0  0  0  0  0  0  0  0  0  0
   -2.3832   -1.2445    0.2964 N   0  0  0  0  0  0  0  0  0  0  0  0
   -3.1102   -0.8685   -0.2946 H   0  0  0  0  0  0  0  0  0  0  0  0
   -1.1292   -0.4875    0.3524 C   0  0  1  0  0  0  0  0  0  0  0  0
   -0.5898   -0.7762    1.2552 H   0  0  0  0  0  0  0  0  0  0  0  0
   -0.2608   -0.8470   -0.8656 C   0  0  0  0  0  0  0  0  0  0  0  0
   -0.8838   -0.8352   -1.7609 H   0  0  0  0  0  0  0  0  0  0  0  0
    0.5063   -0.0810   -0.9911 H   0  0  0  0  0  0  0  0  0  0  0  0
    0.4001   -2.2085   -0.7699 C   0  0  0  0  0  0  0  0  0  0  0  0
    1.2886   -2.4954    0.2858 C   0  0  0  0  0  0  0  0  0  0  0  0
    1.5225   -1.7340    1.0185 H   0  0  0  0  0  0  0  0  0  0  0  0
    1.8686   -3.7744    0.3931 C   0  0  0  0  0  0  0  0  0  0  0  0
    2.5497   -3.9901    1.2019 H   0  0  0  0  0  0  0  0  0  0  0  0
    1.5556   -4.7710   -0.5568 C   0  0  0  0  0  0  0  0  0  0  0  0
    2.1073   -6.0085   -0.4604 O   0  0  0  0  0  0  0  0  0  0  0  0
    2.7616   -6.0588    0.2376 H   0  0  0  0  0  0  0  0  0  0  0  0
    0.6624   -4.4837   -1.6098 C   0  0  0  0  0  0  0  0  0  0  0  0
    0.4344   -5.2527   -2.3324 H   0  0  0  0  0  0  0  0  0  0  0  0
    0.0880   -3.2029   -1.7170 C   0  0  0  0  0  0  0  0  0  0  0  0
   -0.5909   -2.9801   -2.5315 H   0  0  0  0  0  0  0  0  0  0  0  0
   -1.4018    1.0238    0.4329 C   0  0  0  0  0  0  0  0  0  0  0  0
   -2.2416    1.5423   -0.3033 O   0  0  0  0  0  0  0  0  0  0  0  0
   -0.6927    1.7304    1.3223 N   0  0  0  0  0  0  0  0  0  0  0  0
    0.0178    1.2410    1.8469 H   0  0  0  0  0  0  0  0  0  0  0  0
   -0.8259    3.1712    1.5254 C   0  0  0  0  0  0  0  0  0  0  0  0
   -1.8769    3.4302    1.6645 H   0  0  0  0  0  0  0  0  0  0  0  0
   -0.2598    3.4806    2.4054 H   0  0  0  0  0  0  0  0  0  0  0  0
   -0.4486    3.7020    0.6489 H   0  0  0  0  0  0  0  0  0  0  0  0
  5  6  2  0  0  0  0
  5  7  1  0  0  0  0
  2  3  1  0  0  0  0
  2  4  1  0  0  0  0
  2  5  1  0  0  0  0
  1  2  1  0  0  0  0
 26 27  2  0  0  0  0
 26 28  1  0  0  0  0
 24 25  1  0  0  0  0
 22 23  1  0  0  0  0
 22 24  2  0  0  0  0
 20 21  1  0  0  0  0
 19 20  1  0  0  0  0
 19 22  1  0  0  0  0
 17 18  1  0  0  0  0
 17 19  2  0  0  0  0
 15 16  1  0  0  0  0
 15 17  1  0  0  0  0
 14 15  2  0  0  0  0
 14 24  1  0  0  0  0
 11 12  1  0  0  0  0
 11 13  1  0  0  0  0
 11 14  1  0  0  0  0
  9 10  1  0  0  0  0
  9 11  1  0  0  0  0
  9 26  1  0  0  0  0
  7  8  1  0  0  0  0
  7  9  1  0  0  0  0
 30 31  1  0  0  0  0
 30 32  1  0  0  0  0
 30 33  1  0  0  0  0
 28 29  1  0  0  0  0
 28 30  1  0  0  0  0
M  END
$$$$
default_name
  -OEChem-02102213163D

 33 33  0     1  0  0  0  0  0999 V2000
   -4.0702   -3.8485    1.4554 H   0  0  0  0  0  0  0  0  0  0  0  0
   -4.0012   -2.9605    0.8284 C   0  0  0  0  0  0  0  0  0  0  0  0
   -4.7652   -2.2435    1.1234 H   0  0  0  0  0  0  0  0  0  0  0  0
   -4.1352   -3.2385   -0.2156 H   0  0  0  0  0  0  0  0  0  0  0  0
   -2.6362   -2.3395    1.0094 C   0  0  0  0  0  0  0  0  0  0  0  0
   -1.8292   -2.8395    1.7814 O   0  0  0  0  0  0  0  0  0  0  0  0
   -2.3832   -1.2445    0.2964 N   0  0  0  0  0  0  0  0  0  0  0  0
   -3.1102   -0.8685   -0.2946 H   0  0  0  0  0  0  0  0  0  0  0  0
   -1.1292   -0.4875    0.3524 C   0  0  1  0  0  0  0  0  0  0  0  0
   -0.5898   -0.7762    1.2552 H   0  0  0  0  0  0  0  0  0  0  0  0
   -0.2608   -0.8470   -0.8656 C   0  0  0  0  0  0  0  0  0  0  0  0
   -0.8838   -0.8352   -1.7609 H   0  0  0  0  0  0  0  0  0  0  0  0
    0.5063   -0.0810   -0.9911 H   0  0  0  0  0  0  0  0  0  0  0  0
    0.4001   -2.2085   -0.7699 C   0  0  0  0  0  0  0  0  0  0  0  0
    1.0283   -2.6119    0.4255 C   0  0  0  0  0  0  0  0  0  0  0  0
    1.0636   -1.9390    1.2723 H   0  0  0  0  0  0  0  0  0  0  0  0
    1.6053   -3.8931    0.5227 C   0  0  0  0  0  0  0  0  0  0  0  0
    2.0869   -4.1981    1.4390 H   0  0  0  0  0  0  0  0  0  0  0  0
    1.5504   -4.7751   -0.5786 C   0  0  0  0  0  0  0  0  0  0  0  0
    2.1013   -6.0138   -0.4940 O   0  0  0  0  0  0  0  0  0  0  0  0
    2.5775   -6.1418    0.3275 H   0  0  0  0  0  0  0  0  0  0  0  0
    0.9171   -4.3715   -1.7723 C   0  0  0  0  0  0  0  0  0  0  0  0
    0.8854   -5.0532   -2.6089 H   0  0  0  0  0  0  0  0  0  0  0  0
    0.3453   -3.0886   -1.8679 C   0  0  0  0  0  0  0  0  0  0  0  0
   -0.1330   -2.7758   -2.7885 H   0  0  0  0  0  0  0  0  0  0  0  0
   -1.4018    1.0238    0.4329 C   0  0  0  0  0  0  0  0  0  0  0  0
   -2.2416    1.5423   -0.3033 O   0  0  0  0  0  0  0  0  0  0  0  0
   -0.6927    1.7304    1.3223 N   0  0  0  0  0  0  0  0  0  0  0  0
    0.0178    1.2410    1.8469 H   0  0  0  0  0  0  0  0  0  0  0  0
   -0.8259    3.1712    1.5254 C   0  0  0  0  0  0  0  0  0  0  0  0
   -1.8769    3.4302    1.6645 H   0  0  0  0  0  0  0  0  0  0  0  0
   -0.2598    3.4806    2.4054 H   0  0  0  0  0  0  0  0  0  0  0  0
   -0.4486    3.7020    0.6489 H   0  0  0  0  0  0  0  0  0  0  0  0
  5  6  2  0  0  0  0
  5  7  1  0  0  0  0
  2  3  1  0  0  0  0
  2  4  1  0  0  0  0
  2  5  1  0  0  0  0
  1  2  1  0  0  0  0
 26 27  2  0  0  0  0
 26 28  1  0  0  0  0
 24 25  1  0  0  0  0
 22 23  1  0  0  0  0
 22 24  2  0  0  0  0
 20 21  1  0  0  0  0
 19 20  1  0  0  0  0
 19 22  1  0  0  0  0
 17 18  1  0  0  0  0
 17 19  2  0  0  0  0
 15 16  1  0  0  0  0
 15 17  1  0  0  0  0
 14 15  2  0  0  0  0
 14 24  1  0  0  0  0
 11 12  1  0  0  0  0
 11 13  1  0  0  0  0
 11 14  1  0  0  0  0
  9 10  1  0  0  0  0
  9 11  1  0  0  0  0
  9 26  1  0  0  0  0
  7  8  1  0  0  0  0
  7  9  1  0  0  0  0
 30 31  1  0  0  0  0
 30 32  1  0  0  0  0
 30 33  1  0  0  0  0
 28 29  1  0  0  0  0
 28 30  1  0  0  0  0
M  END
$$$$
default_name
  -OEChem-02102213163D

 33 33  0     1  0  0  0  0  0999 V2000
   -4.0702   -3.8485    1.4554 H   0  0  0  0  0  0  0  0  0  0  0  0
   -4.0012   -2.9605    0.8284 C   0  0  0  0  0  0  0  0  0  0  0  0
   -4.7652   -2.2435    1.1234 H   0  0  0  0  0  0  0  0  0  0  0  0
   -4.1352   -3.2385   -0.2156 H   0  0  0  0  0  0  0  0  0  0  0  0
   -2.6362   -2.3395    1.0094 C   0  0  0  0  0  0  0  0  0  0  0  0
   -1.8292   -2.8395    1.7814 O   0  0  0  0  0  0  0  0  0  0  0  0
   -2.3832   -1.2445    0.2964 N   0  0  0  0  0  0  0  0  0  0  0  0
   -3.1102   -0.8685   -0.2946 H   0  0  0  0  0  0  0  0  0  0  0  0
   -1.1292   -0.4875    0.3524 C   0  0  1  0  0  0  0  0  0  0  0  0
   -0.5898   -0.7762    1.2552 H   0  0  0  0  0  0  0  0  0  0  0  0
   -0.2608   -0.8470   -0.8656 C   0  0  0  0  0  0  0  0  0  0  0  0
   -0.8838   -0.8352   -1.7609 H   0  0  0  0  0  0  0  0  0  0  0  0
    0.5063   -0.0810   -0.9911 H   0  0  0  0  0  0  0  0  0  0  0  0
    0.4001   -2.2085   -0.7699 C   0  0  0  0  0  0  0  0  0  0  0  0
    0.7463   -2.7445    0.4868 C   0  0  0  0  0  0  0  0  0  0  0  0
    0.5646   -2.1731    1.3876 H   0  0  0  0  0  0  0  0  0  0  0  0
    1.3229   -4.0267    0.5732 C   0  0  0  0  0  0  0  0  0  0  0  0
    1.5881   -4.4333    1.5370 H   0  0  0  0  0  0  0  0  0  0  0  0
    1.5505   -4.7766   -0.6013 C   0  0  0  0  0  0  0  0  0  0  0  0
    2.1034   -6.0152   -0.5283 O   0  0  0  0  0  0  0  0  0  0  0  0
    2.3801   -6.2352    0.3622 H   0  0  0  0  0  0  0  0  0  0  0  0
    1.1990   -4.2407   -1.8575 C   0  0  0  0  0  0  0  0  0  0  0  0
    1.3820   -4.8219   -2.7487 H   0  0  0  0  0  0  0  0  0  0  0  0
    0.6270   -2.9570   -1.9410 C   0  0  0  0  0  0  0  0  0  0  0  0
    0.3658   -2.5421   -2.9072 H   0  0  0  0  0  0  0  0  0  0  0  0
   -1.4018    1.0238    0.4329 C   0  0  0  0  0  0  0  0  0  0  0  0
   -2.2416    1.5423   -0.3033 O   0  0  0  0  0  0  0  0  0  0  0  0
   -0.6927    1.7304    1.3223 N   0  0  0  0  0  0  0  0  0  0  0  0
    0.0178    1.2410    1.8469 H   0  0  0  0  0  0  0  0  0  0  0  0
   -0.8259    3.1712    1.5254 C   0  0  0  0  0  0  0  0  0  0  0  0
   -1.8769    3.4302    1.6645 H   0  0  0  0  0  0  0  0  0  0  0  0
   -0.2598    3.4806    2.4054 H   0  0  0  0  0  0  0  0  0  0  0  0
   -0.4486    3.7020    0.6489 H   0  0  0  0  0  0  0  0  0  0  0  0
  5  6  2  0  0  0  0
  5  7  1  0  0  0  0
  2  3  1  0  0  0  0
  2  4  1  0  0  0  0
  2  5  1  0  0  0  0
  1  2  1  0  0  0  0
 26 27  2  0  0  0  0
 26 28  1  0  0  0  0
 24 25  1  0  0  0  0
 22 23  1  0  0  0  0
 22 24  2  0  0  0  0
 20 21  1  0  0  0  0
 19 20  1  0  0  0  0
 19 22  1  0  0  0  0
 17 18  1  0  0  0  0
 17 19  2  0  0  0  0
 15 16  1  0  0  0  0
 15 17  1  0  0  0  0
 14 15  2  0  0  0  0
 14 24  1  0  0  0  0
 11 12  1  0  0  0  0
 11 13  1  0  0  0  0
 11 14  1  0  0  0  0
  9 10  1  0  0  0  0
  9 11  1  0  0  0  0
  9 26  1  0  0  0  0
  7  8  1  0  0  0  0
  7  9  1  0  0  0  0
 30 31  1  0  0  0  0
 30 32  1  0  0  0  0
 30 33  1  0  0  0  0
 28 29  1  0  0  0  0
 28 30  1  0  0  0  0
M  END
$$$$
default_name
  -OEChem-02102213163D

 33 33  0     1  0  0  0  0  0999 V2000
   -4.0702   -3.8485    1.4554 H   0  0  0  0  0  0  0  0  0  0  0  0
   -4.0012   -2.9605    0.8284 C   0  0  0  0  0  0  0  0  0  0  0  0
   -4.7652   -2.2435    1.1234 H   0  0  0  0  0  0  0  0  0  0  0  0
   -4.1352   -3.2385   -0.2156 H   0  0  0  0  0  0  0  0  0  0  0  0
   -2.6362   -2.3395    1.0094 C   0  0  0  0  0  0  0  0  0  0  0  0
   -1.8292   -2.8395    1.7814 O   0  0  0  0  0  0  0  0  0  0  0  0
   -2.3832   -1.2445    0.2964 N   0  0  0  0  0  0  0  0  0  0  0  0
   -3.1102   -0.8685   -0.2946 H   0  0  0  0  0  0  0  0  0  0  0  0
   -1.1292   -0.4875    0.3524 C   0  0  1  0  0  0  0  0  0  0  0  0
   -0.5898   -0.7762    1.2552 H   0  0  0  0  0  0  0  0  0  0  0  0
   -0.2608   -0.8470   -0.8656 C   0  0  0  0  0  0  0  0  0  0  0  0
   -0.8838   -0.8352   -1.7609 H   0  0  0  0  0  0  0  0  0  0  0  0
    0.5063   -0.0810   -0.9911 H   0  0  0  0  0  0  0  0  0  0  0  0
    0.4001   -2.2085   -0.7699 C   0  0  0  0  0  0  0  0  0  0  0  0
    0.4618   -2.8841    0.4654 C   0  0  0  0  0  0  0  0  0  0  0  0
    0.0597   -2.4204    1.3567 H   0  0  0  0  0  0  0  0  0  0  0  0
    1.0405   -4.1660    0.5413 C   0  0  0  0  0  0  0  0  0  0  0  0
    1.0875   -4.6797    1.4892 H   0  0  0  0  0  0  0  0  0  0  0  0
    1.5559   -4.7755   -0.6233 C   0  0  0  0  0  0  0  0  0  0  0  0
    2.1134   -6.0126   -0.5612 O   0  0  0  0  0  0  0  0  0  0  0  0
    2.1829   -6.3326    0.3392 H   0  0  0  0  0  0  0  0  0  0  0  0
    1.4889   -4.1000   -1.8595 C   0  0  0  0  0  0  0  0  0  0  0  0
    1.8904   -4.5747   -2.7422 H   0  0  0  0  0  0  0  0  0  0  0  0
    0.9140   -2.8170   -1.9313 C   0  0  0  0  0  0  0  0  0  0  0  0
    0.8713   -2.2948   -2.8797 H   0  0  0  0  0  0  0  0  0  0  0  0
   -1.4018    1.0238    0.4329 C   0  0  0  0  0  0  0  0  0  0  0  0
   -2.2416    1.5423   -0.3033 O   0  0  0  0  0  0  0  0  0  0  0  0
   -0.6927    1.7304    1.3223 N   0  0  0  0  0  0  0  0  0  0  0  0
    0.0178    1.2410    1.8469 H   0  0  0  0  0  0  0  0  0  0  0  0
   -0.8259    3.1712    1.5254 C   0  0  0  0  0  0  0  0  0  0  0  0
   -1.8769    3.4302    1.6645 H   0  0  0  0  0  0  0  0  0  0  0  0
   -0.2598    3.4806    2.4054 H   0  0  0  0  0  0  0  0  0  0  0  0
   -0.4486    3.7020    0.6489 H   0  0  0  0  0  0  0  0  0  0  0  0
  5  6  2  0  0  0  0
  5  7  1  0  0  0  0
  2  3  1  0  0  0  0
  2  4  1  0  0  0  0
  2  5  1  0  0  0  0
  1  2  1  0  0  0  0
 26 27  2  0  0  0  0
 26 28  1  0  0  0  0
 24 25  1  0  0  0  0
 22 23  1  0  0  0  0
 22 24  2  0  0  0  0
 20 21  1  0  0  0  0
 19 20  1  0  0  0  0
 19 22  1  0  0  0  0
 17 18  1  0  0  0  0
 17 19  2  0  0  0  0
 15 16  1  0  0  0  0
 15 17  1  0  0  0  0
 14 15  2  0  0  0  0
 14 24  1  0  0  0  0
 11 12  1  0  0  0  0
 11 13  1  0  0  0  0
 11 14  1  0  0  0  0
  9 10  1  0  0  0  0
  9 11  1  0  0  0  0
  9 26  1  0  0  0  0
  7  8  1  0  0  0  0
  7  9  1  0  0  0  0
 30 31  1  0  0  0  0
 30 32  1  0  0  0  0
 30 33  1  0  0  0  0
 28 29  1  0  0  0  0
 28 30  1  0  0  0  0
M  END
$$$$
default_name
  -OEChem-02102213163D

 33 33  0     1  0  0  0  0  0999 V2000
   -4.0702   -3.8485    1.4554 H   0  0  0  0  0  0  0  0  0  0  0  0
   -4.0012   -2.9605    0.8284 C   0  0  0  0  0  0  0  0  0  0  0  0
   -4.7652   -2.2435    1.1234 H   0  0  0  0  0  0  0  0  0  0  0  0
   -4.1352   -3.2385   -0.2156 H   0  0  0  0  0  0  0  0  0  0  0  0
   -2.6362   -2.3395    1.0094 C   0  0  0  0  0  0  0  0  0  0  0  0
   -1.8292   -2.8395    1.7814 O   0  0  0  0  0  0  0  0  0  0  0  0
   -2.3832   -1.2445    0.2964 N   0  0  0  0  0  0  0  0  0  0  0  0
   -3.1102   -0.8685   -0.2946 H   0  0  0  0  0  0  0  0  0  0  0  0
   -1.1292   -0.4875    0.3524 C   0  0  1  0  0  0  0  0  0  0  0  0
   -0.5898   -0.7762    1.2552 H   0  0  0  0  0  0  0  0  0  0  0  0
   -0.2608   -0.8470   -0.8656 C   0  0  0  0  0  0  0  0  0  0  0  0
   -0.8838   -0.8352   -1.7609 H   0  0  0  0  0  0  0  0  0  0  0  0
    0.5063   -0.0810   -0.9911 H   0  0  0  0  0  0  0  0  0  0  0  0
    0.4001   -2.2085   -0.7699 C   0  0  0  0  0  0  0  0  0  0  0  0
    0.1942   -3.0212    0.3630 C   0  0  0  0  0  0  0  0  0  0  0  0
   -0.4167   -2.6640    1.1816 H   0  0  0  0  0  0  0  0  0  0  0  0
    0.7775   -4.3016    0.4292 C   0  0  0  0  0  0  0  0  0  0  0  0
    0.6190   -4.9205    1.2989 H   0  0  0  0  0  0  0  0  0  0  0  0
    1.5663   -4.7719   -0.6433 C   0  0  0  0  0  0  0  0  0  0  0  0
    2.1306   -6.0063   -0.5903 O   0  0  0  0  0  0  0  0  0  0  0  0
    1.9993   -6.4272    0.2603 H   0  0  0  0  0  0  0  0  0  0  0  0
    1.7672   -3.9593   -1.7782 C   0  0  0  0  0  0  0  0  0  0  0  0
    2.3759   -4.3283   -2.5899 H   0  0  0  0  0  0  0  0  0  0  0  0
    1.1867   -2.6782   -1.8394 C   0  0  0  0  0  0  0  0  0  0  0  0
    1.3491   -2.0507   -2.7077 H   0  0  0  0  0  0  0  0  0  0  0  0
   -1.4018    1.0238    0.4329 C   0  0  0  0  0  0  0  0  0  0  0  0
   -2.2416    1.5423   -0.3033 O   0  0  0  0  0  0  0  0  0  0  0  0
   -0.6927    1.7304    1.3223 N   0  0  0  0  0  0  0  0  0  0  0  0
    0.0178    1.2410    1.8469 H   0  0  0  0  0  0  0  0  0  0  0  0
   -0.8259    3.1712    1.5254 C   0  0  0  0  0  0  0  0  0  0  0  0
   -1.8769    3.4302    1.6645 H   0  0  0  0  0  0  0  0  0  0  0  0
   -0.2598    3.4806    2.4054 H   0  0  0  0  0  0  0  0  0  0  0  0
   -0.4486    3.7020    0.6489 H   0  0  0  0  0  0  0  0  0  0  0  0
  5  6  2  0  0  0  0
  5  7  1  0  0  0  0
  2  3  1  0  0  0  0
  2  4  1  0  0  0  0
  2  5  1  0  0  0  0
  1  2  1  0  0  0  0
 26 27  2  0  0  0  0
 26 28  1  0  0  0  0
 24 25  1  0  0  0  0
 22 23  1  0  0  0  0
 22 24  2  0  0  0  0
 20 21  1  0  0  0  0
 19 20  1  0  0  0  0
 19 22  1  0  0  0  0
 17 18  1  0  0  0  0
 17 19  2  0  0  0  0
 15 16  1  0  0  0  0
 15 17  1  0  0  0  0
 14 15  2  0  0  0  0
 14 24  1  0  0  0  0
 11 12  1  0  0  0  0
 11 13  1  0  0  0  0
 11 14  1  0  0  0  0
  9 10  1  0  0  0  0
  9 11  1  0  0  0  0
  9 26  1  0  0  0  0
  7  8  1  0  0  0  0
  7  9  1  0  0  0  0
 30 31  1  0  0  0  0
 30 32  1  0  0  0  0
 30 33  1  0  0  0  0
 28 29  1  0  0  0  0
 28 30  1  0  0  0  0
M  END
$$$$
default_name
  -OEChem-02102213163D

 33 33  0     1  0  0  0  0  0999 V2000
   -4.0702   -3.8485    1.4554 H   0  0  0  0  0  0  0  0  0  0  0  0
   -4.0012   -2.9605    0.8284 C   0  0  0  0  0  0  0  0  0  0  0  0
   -4.7652   -2.2435    1.1234 H   0  0  0  0  0  0  0  0  0  0  0  0
   -4.1352   -3.2385   -0.2156 H   0  0  0  0  0  0  0  0  0  0  0  0
   -2.6362   -2.3395    1.0094 C   0  0  0  0  0  0  0  0  0  0  0  0
   -1.8292   -2.8395    1.7814 O   0  0  0  0  0  0  0  0  0  0  0  0
   -2.3832   -1.2445    0.2964 N   0  0  0  0  0  0  0  0  0  0  0  0
   -3.1102   -0.8685   -0.2946 H   0  0  0  0  0  0  0  0  0  0  0  0
   -1.1292   -0.4875    0.3524 C   0  0  1  0  0  0  0  0  0  0  0  0
   -0.5898   -0.7762    1.2552 H   0  0  0  0  0  0  0  0  0  0  0  0
   -0.2608   -0.8470   -0.8656 C   0  0  0  0  0  0  0  0  0  0  0  0
   -0.8838   -0.8352   -1.7609 H   0  0  0  0  0  0  0  0  0  0  0  0
    0.5063   -0.0810   -0.9911 H   0  0  0  0  0  0  0  0  0  0  0  0
    0.4001   -2.2085   -0.7699 C   0  0  0  0  0  0  0  0  0  0  0  0
   -0.0382   -3.1464    0.1864 C   0  0  0  0  0  0  0  0  0  0  0  0
   -0.8323   -2.8873    0.8743 H   0  0  0  0  0  0  0  0  0  0  0  0
    0.5516   -4.4242    0.2445 C   0  0  0  0  0  0  0  0  0  0  0  0
    0.2146   -5.1393    0.9791 H   0  0  0  0  0  0  0  0  0  0  0  0
    1.5808   -4.7660   -0.6597 C   0  0  0  0  0  0  0  0  0  0  0  0
    2.1540   -5.9966   -0.6138 O   0  0  0  0  0  0  0  0  0  0  0  0
    1.8419   -6.5127    0.1307 H   0  0  0  0  0  0  0  0  0  0  0  0
    2.0148   -3.8279   -1.6192 C   0  0  0  0  0  0  0  0  0  0  0  0
    2.8055   -4.0995   -2.3022 H   0  0  0  0  0  0  0  0  0  0  0  0
    1.4264   -2.5500   -1.6717 C   0  0  0  0  0  0  0  0  0  0  0  0
    1.7667   -1.8266   -2.4031 H   0  0  0  0  0  0  0  0  0  0  0  0
   -1.4018    1.0238    0.4329 C   0  0  0  0  0  0  0  0  0  0  0  0
   -2.2416    1.5423   -0.3033 O   0  0  0  0  0  0  0  0  0  0  0  0
   -0.6927    1.7304    1.3223 N   0  0  0  0  0  0  0  0  0  0  0  0
    0.0178    1.2410    1.8469 H   0  0  0  0  0  0  0  0  0  0  0  0
   -0.8259    3.1712    1.5254 C   0  0  0  0  0  0  0  0  0  0  0  0
   -1.8769    3.4302    1.6645 H   0  0  0  0  0  0  0  0  0  0  0  0
   -0.2598    3.4806    2.4054 H   0  0  0  0  0  0  0  0  0  0  0  0
   -0.4486    3.7020    0.6489 H   0  0  0  0  0  0  0  0  0  0  0  0
  5  6  2  0  0  0  0
  5  7  1  0  0  0  0
  2  3  1  0  0  0  0
  2  4  1  0  0  0  0
  2  5  1  0  0  0  0
  1  2  1  0  0  0  0
 26 27  2  0  0  0  0
 26 28  1  0  0  0  0
 24 25  1  0  0  0  0
 22 23  1  0  0  0  0
 22 24  2  0  0  0  0
 20 21  1  0  0  0  0
 19 20  1  0  0  0  0
 19 22  1  0  0  0  0
 17 18  1  0  0  0  0
 17 19  2  0  0  0  0
 15 16  1  0  0  0  0
 15 17  1  0  0  0  0
 14 15  2  0  0  0  0
 14 24  1  0  0  0  0
 11 12  1  0  0  0  0
 11 13  1  0  0  0  0
 11 14  1  0  0  0  0
  9 10  1  0  0  0  0
  9 11  1  0  0  0  0
  9 26  1  0  0  0  0
  7  8  1  0  0  0  0
  7  9  1  0  0  0  0
 30 31  1  0  0  0  0
 30 32  1  0  0  0  0
 30 33  1  0  0  0  0
 28 29  1  0  0  0  0
 28 30  1  0  0  0  0
M  END
$$$$
default_name
  -OEChem-02102213163D

 33 33  0     1  0  0  0  0  0999 V2000
   -4.0702   -3.8485    1.4554 H   0  0  0  0  0  0  0  0  0  0  0  0
   -4.0012   -2.9605    0.8284 C   0  0  0  0  0  0  0  0  0  0  0  0
   -4.7652   -2.2435    1.1234 H   0  0  0  0  0  0  0  0  0  0  0  0
   -4.1352   -3.2385   -0.2156 H   0  0  0  0  0  0  0  0  0  0  0  0
   -2.6362   -2.3395    1.0094 C   0  0  0  0  0  0  0  0  0  0  0  0
   -1.8292   -2.8395    1.7814 O   0  0  0  0  0  0  0  0  0  0  0  0
   -2.3832   -1.2445    0.2964 N   0  0  0  0  0  0  0  0  0  0  0  0
   -3.1102   -0.8685   -0.2946 H   0  0  0  0  0  0  0  0  0  0  0  0
   -1.1292   -0.4875    0.3524 C   0  0  1  0  0  0  0  0  0  0  0  0
   -0.5898   -0.7762    1.2552 H   0  0  0  0  0  0  0  0  0  0  0  0
   -0.2608   -0.8470   -0.8656 C   0  0  0  0  0  0  0  0  0  0  0  0
   -0.8838   -0.8352   -1.7609 H   0  0  0  0  0  0  0  0  0  0  0  0
    0.5063   -0.0810   -0.9911 H   0  0  0  0  0  0  0  0  0  0  0  0
    0.4001   -2.2085   -0.7699 C   0  0  0  0  0  0  0  0  0  0  0  0
   -0.2196   -3.2513   -0.0523 C   0  0  0  0  0  0  0  0  0  0  0  0
   -1.1587   -3.0752    0.4557 H   0  0  0  0  0  0  0  0  0  0  0  0
    0.3784   -4.5255   -0.0002 C   0  0  0  0  0  0  0  0  0  0  0  0
   -0.0981   -5.3212    0.5515 H   0  0  0  0  0  0  0  0  0  0  0  0
    1.5986   -4.7582   -0.6715 C   0  0  0  0  0  0  0  0  0  0  0  0
    2.1818   -5.9842   -0.6299 O   0  0  0  0  0  0  0  0  0  0  0  0
    1.7214   -6.5833   -0.0407 H   0  0  0  0  0  0  0  0  0  0  0  0
    2.2148   -3.7149   -1.3932 C   0  0  0  0  0  0  0  0  0  0  0  0
    3.1498   -3.9040   -1.8987 H   0  0  0  0  0  0  0  0  0  0  0  0
    1.6169   -2.4412   -1.4395 C   0  0  0  0  0  0  0  0  0  0  0  0
    2.0956   -1.6376   -1.9865 H   0  0  0  0  0  0  0  0  0  0  0  0
   -1.4018    1.0238    0.4329 C   0  0  0  0  0  0  0  0  0  0  0  0
   -2.2416    1.5423   -0.3033 O   0  0  0  0  0  0  0  0  0  0  0  0
   -0.6927    1.7304    1.3223 N   0  0  0  0  0  0  0  0  0  0  0  0
    0.0178    1.2410    1.8469 H   0  0  0  0  0  0  0  0  0  0  0  0
   -0.8259    3.1712    1.5254 C   0  0  0  0  0  0  0  0  0  0  0  0
   -1.8769    3.4302    1.6645 H   0  0  0  0  0  0  0  0  0  0  0  0
   -0.2598    3.4806    2.4054 H   0  0  0  0  0  0  0  0  0  0  0  0
   -0.4486    3.7020    0.6489 H   0  0  0  0  0  0  0  0  0  0  0  0
  5  6  2  0  0  0  0
  5  7  1  0  0  0  0
  2  3  1  0  0  0  0
  2  4  1  0  0  0  0
  2  5  1  0  0  0  0
  1  2  1  0  0  0  0
 26 27  2  0  0  0  0
 26 28  1  0  0  0  0
 24 25  1  0  0  0  0
 22 23  1  0  0  0  0
 22 24  2  0  0  0  0
 20 21  1  0  0  0  0
 19 20  1  0  0  0  0
 19 22  1  0  0  0  0
 17 18  1  0  0  0  0
 17 19  2  0  0  0  0
 15 16  1  0  0  0  0
 15 17  1  0  0  0  0
 14 15  2  0  0  0  0
 14 24  1  0  0  0  0
 11 12  1  0  0  0  0
 11 13  1  0  0  0  0
 11 14  1  0  0  0  0
  9 10  1  0  0  0  0
  9 11  1  0  0  0  0
  9 26  1  0  0  0  0
  7  8  1  0  0  0  0
  7  9  1  0  0  0  0
 30 31  1  0  0  0  0
 30 32  1  0  0  0  0
 30 33  1  0  0  0  0
 28 29  1  0  0  0  0
 28 30  1  0  0  0  0
M  END
$$$$
default_name
  -OEChem-02102213163D

 33 33  0     1  0  0  0  0  0999 V2000
   -4.0702   -3.8485    1.4554 H   0  0  0  0  0  0  0  0  0  0  0  0
   -4.0012   -2.9605    0.8284 C   0  0  0  0  0  0  0  0  0  0  0  0
   -4.7652   -2.2435    1.1234 H   0  0  0  0  0  0  0  0  0  0  0  0
   -4.1352   -3.2385   -0.2156 H   0  0  0  0  0  0  0  0  0  0  0  0
   -2.6362   -2.3395    1.0094 C   0  0  0  0  0  0  0  0  0  0  0  0
   -1.8292   -2.8395    1.7814 O   0  0  0  0  0  0  0  0  0  0  0  0
   -2.3832   -1.2445    0.2964 N   0  0  0  0  0  0  0  0  0  0  0  0
   -3.1102   -0.8685   -0.2946 H   0  0  0  0  0  0  0  0  0  0  0  0
   -1.1292   -0.4875    0.3524 C   0  0  1  0  0  0  0  0  0  0  0  0
   -0.5898   -0.7762    1.2552 H   0  0  0  0  0  0  0  0  0  0  0  0
   -0.2608   -0.8470   -0.8656 C   0  0  0  0  0  0  0  0  0  0  0  0
   -0.8838   -0.8352   -1.7609 H   0  0  0  0  0  0  0  0  0  0  0  0
    0.5063   -0.0810   -0.9911 H   0  0  0  0  0  0  0  0  0  0  0  0
    0.4001   -2.2085   -0.7699 C   0  0  0  0  0  0  0  0  0  0  0  0
   -0.3376   -3.3286   -0.3368 C   0  0  0  0  0  0  0  0  0  0  0  0
   -1.3736   -3.2147   -0.0456 H   0  0  0  0  0  0  0  0  0  0  0  0
    0.2696   -4.5985   -0.2883 C   0  0  0  0  0  0  0  0  0  0  0  0
   -0.2978   -5.4537    0.0453 H   0  0  0  0  0  0  0  0  0  0  0  0
    1.6184   -4.7490   -0.6779 C   0  0  0  0  0  0  0  0  0  0  0  0
    2.2122   -5.9700   -0.6376 O   0  0  0  0  0  0  0  0  0  0  0  0
    1.6460   -6.6341   -0.2422 H   0  0  0  0  0  0  0  0  0  0  0  0
    2.3536   -3.6280   -1.1157 C   0  0  0  0  0  0  0  0  0  0  0  0
    3.3855   -3.7551   -1.4068 H   0  0  0  0  0  0  0  0  0  0  0  0
    1.7452   -2.3592   -1.1587 C   0  0  0  0  0  0  0  0  0  0  0  0
    2.3135   -1.4967   -1.4863 H   0  0  0  0  0  0  0  0  0  0  0  0
   -1.4018    1.0238    0.4329 C   0  0  0  0  0  0  0  0  0  0  0  0
   -2.2416    1.5423   -0.3033 O   0  0  0  0  0  0  0  0  0  0  0  0
   -0.6927    1.7304    1.3223 N   0  0  0  0  0  0  0  0  0  0  0  0
    0.0178    1.2410    1.8469 H   0  0  0  0  0  0  0  0  0  0  0  0
   -0.8259    3.1712    1.5254 C   0  0  0  0  0  0  0  0  0  0  0  0
   -1.8769    3.4302    1.6645 H   0  0  0  0  0  0  0  0  0  0  0  0
   -0.2598    3.4806    2.4054 H   0  0  0  0  0  0  0  0  0  0  0  0
   -0.4486    3.7020    0.6489 H   0  0  0  0  0  0  0  0  0  0  0  0
  5  6  2  0  0  0  0
  5  7  1  0  0  0  0
  2  3  1  0  0  0  0
  2  4  1  0  0  0  0
  2  5  1  0  0  0  0
  1  2  1  0  0  0  0
 26 27  2  0  0  0  0
 26 28  1  0  0  0  0
 24 25  1  0  0  0  0
 22 23  1  0  0  0  0
 22 24  2  0  0  0  0
 20 21  1  0  0  0  0
 19 20  1  0  0  0  0
 19 22  1  0  0  0  0
 17 18  1  0  0  0  0
 17 19  2  0  0  0  0
 15 16  1  0  0  0  0
 15 17  1  0  0  0  0
 14 15  2  0  0  0  0
 14 24  1  0  0  0  0
 11 12  1  0  0  0  0
 11 13  1  0  0  0  0
 11 14  1  0  0  0  0
  9 10  1  0  0  0  0
  9 11  1  0  0  0  0
  9 26  1  0  0  0  0
  7  8  1  0  0  0  0
  7  9  1  0  0  0  0
 30 31  1  0  0  0  0
 30 32  1  0  0  0  0
 30 33  1  0  0  0  0
 28 29  1  0  0  0  0
 28 30  1  0  0  0  0
M  END
$$$$
default_name
  -OEChem-02102213163D

 33 33  0     1  0  0  0  0  0999 V2000
   -4.0702   -3.8485    1.4554 H   0  0  0  0  0  0  0  0  0  0  0  0
   -4.0012   -2.9605    0.8284 C   0  0  0  0  0  0  0  0  0  0  0  0
   -4.7652   -2.2435    1.1234 H   0  0  0  0  0  0  0  0  0  0  0  0
   -4.1352   -3.2385   -0.2156 H   0  0  0  0  0  0  0  0  0  0  0  0
   -2.6362   -2.3395    1.0094 C   0  0  0  0  0  0  0  0  0  0  0  0
   -1.8292   -2.8395    1.7814 O   0  0  0  0  0  0  0  0  0  0  0  0
   -2.3832   -1.2445    0.2964 N   0  0  0  0  0  0  0  0  0  0  0  0
   -3.1102   -0.8685   -0.2946 H   0  0  0  0  0  0  0  0  0  0  0  0
   -1.1292   -0.4875    0.3524 C   0  0  1  0  0  0  0  0  0  0  0  0
   -0.5898   -0.7762    1.2552 H   0  0  0  0  0  0  0  0  0  0  0  0
   -0.2608   -0.8470   -0.8656 C   0  0  0  0  0  0  0  0  0  0  0  0
   -0.8838   -0.8352   -1.7609 H   0  0  0  0  0  0  0  0  0  0  0  0
    0.5063   -0.0810   -0.9911 H   0  0  0  0  0  0  0  0  0  0  0  0
    0.4001   -2.2085   -0.7699 C   0  0  0  0  0  0  0  0  0  0  0  0
   -0.3842   -3.3731   -0.6478 C   0  0  0  0  0  0  0  0  0  0  0  0
   -1.4624   -3.2965   -0.5956 H   0  0  0  0  0  0  0  0  0  0  0  0
    0.2327   -4.6384   -0.6001 C   0  0  0  0  0  0  0  0  0  0  0  0
   -0.3709   -5.5279   -0.5050 H   0  0  0  0  0  0  0  0  0  0  0  0
    1.6389   -4.7391   -0.6785 C   0  0  0  0  0  0  0  0  0  0  0  0
    2.2432   -5.9549   -0.6363 O   0  0  0  0  0  0  0  0  0  0  0  0
    1.6207   -6.6616   -0.4601 H   0  0  0  0  0  0  0  0  0  0  0  0
    2.4219   -3.5731   -0.8056 C   0  0  0  0  0  0  0  0  0  0  0  0
    3.4964   -3.6628   -0.8602 H   0  0  0  0  0  0  0  0  0  0  0  0
    1.8025   -2.3095   -0.8484 C   0  0  0  0  0  0  0  0  0  0  0  0
    2.4053   -1.4135   -0.9367 H   0  0  0  0  0  0  0  0  0  0  0  0
   -1.4018    1.0238    0.4329 C   0  0  0  0  0  0  0  0  0  0  0  0
   -2.2416    1.5423   -0.3033 O   0  0  0  0  0  0  0  0  0  0  0  0
   -0.6927    1.7304    1.3223 N   0  0  0  0  0  0  0  0  0  0  0  0
    0.0178    1.2410    1.8469 H   0  0  0  0  0  0  0  0  0  0  0  0
   -0.8259    3.1712    1.5254 C   0  0  0  0  0  0  0  0  0  0  0  0
   -1.8769    3.4302    1.6645 H   0  0  0  0  0  0  0  0  0  0  0  0
   -0.2598    3.4806    2.4054 H   0  0  0  0  0  0  0  0  0  0  0  0
   -0.4486    3.7020    0.6489 H   0  0  0  0  0  0  0  0  0  0  0  0
  5  6  2  0  0  0  0
  5  7  1  0  0  0  0
  2  3  1  0  0  0  0
  2  4  1  0  0  0  0
  2  5  1  0  0  0  0
  1  2  1  0  0  0  0
 26 27  2  0  0  0  0
 26 28  1  0  0  0  0
 24 25  1  0  0  0  0
 22 23  1  0  0  0  0
 22 24  2  0  0  0  0
 20 21  1  0  0  0  0
 19 20  1  0  0  0  0
 19 22  1  0  0  0  0
 17 18  1  0  0  0  0
 17 19  2  0  0  0  0
 15 16  1  0  0  0  0
 15 17  1  0  0  0  0
 14 15  2  0  0  0  0
 14 24  1  0  0  0  0
 11 12  1  0  0  0  0
 11 13  1  0  0  0  0
 11 14  1  0  0  0  0
  9 10  1  0  0  0  0
  9 11  1  0  0  0  0
  9 26  1  0  0  0  0
  7  8  1  0  0  0  0
  7  9  1  0  0  0  0
 30 31  1  0  0  0  0
 30 32  1  0  0  0  0
 30 33  1  0  0  0  0
 28 29  1  0  0  0  0
 28 30  1  0  0  0  0
M  END
$$$$
default_name
  -OEChem-02102213163D

 33 33  0     1  0  0  0  0  0999 V2000
   -4.0702   -3.8485    1.4554 H   0  0  0  0  0  0  0  0  0  0  0  0
   -4.0012   -2.9605    0.8284 C   0  0  0  0  0  0  0  0  0  0  0  0
   -4.7652   -2.2435    1.1234 H   0  0  0  0  0  0  0  0  0  0  0  0
   -4.1352   -3.2385   -0.2156 H   0  0  0  0  0  0  0  0  0  0  0  0
   -2.6362   -2.3395    1.0094 C   0  0  0  0  0  0  0  0  0  0  0  0
   -1.8292   -2.8395    1.7814 O   0  0  0  0  0  0  0  0  0  0  0  0
   -2.3832   -1.2445    0.2964 N   0  0  0  0  0  0  0  0  0  0  0  0
   -3.1102   -0.8685   -0.2946 H   0  0  0  0  0  0  0  0  0  0  0  0
   -1.1292   -0.4875    0.3524 C   0  0  1  0  0  0  0  0  0  0  0  0
   -0.5898   -0.7762    1.2552 H   0  0  0  0  0  0  0  0  0  0  0  0
   -0.2608   -0.8470   -0.8656 C   0  0  0  0  0  0  0  0  0  0  0  0
   -0.8838   -0.8352   -1.7609 H   0  0  0  0  0  0  0  0  0  0  0  0
    0.5063   -0.0810   -0.9911 H   0  0  0  0  0  0  0  0  0  0  0  0
    0.4001   -2.2085   -0.7699 C   0  0  0  0  0  0  0  0  0  0  0  0
   -0.3563   -3.3817   -0.9641 C   0  0  0  0  0  0  0  0  0  0  0  0
   -1.4191   -3.3149   -1.1567 H   0  0  0  0  0  0  0  0  0  0  0  0
    0.2701   -4.6423   -0.9143 C   0  0  0  0  0  0  0  0  0  0  0  0
   -0.3125   -5.5386   -1.0619 H   0  0  0  0  0  0  0  0  0  0  0  0
    1.6586   -4.7292   -0.6732 C   0  0  0  0  0  0  0  0  0  0  0  0
    2.2725   -5.9399   -0.6262 O   0  0  0  0  0  0  0  0  0  0  0  0
    1.6475   -6.6641   -0.6796 H   0  0  0  0  0  0  0  0  0  0  0  0
    2.4148   -3.5539   -0.4839 C   0  0  0  0  0  0  0  0  0  0  0  0
    3.4749   -3.6336   -0.2960 H   0  0  0  0  0  0  0  0  0  0  0  0
    1.7850   -2.2956   -0.5297 C   0  0  0  0  0  0  0  0  0  0  0  0
    2.3650   -1.3936   -0.3750 H   0  0  0  0  0  0  0  0  0  0  0  0
   -1.4018    1.0238    0.4329 C   0  0  0  0  0  0  0  0  0  0  0  0
   -2.2416    1.5423   -0.3033 O   0  0  0  0  0  0  0  0  0  0  0  0
   -0.6927    1.7304    1.3223 N   0  0  0  0  0  0  0  0  0  0  0  0
    0.0178    1.2410    1.8469 H   0  0  0  0  0  0  0  0  0  0  0  0
   -0.8259    3.1712    1.5254 C   0  0  0  0  0  0  0  0  0  0  0  0
   -1.8769    3.4302    1.6645 H   0  0  0  0  0  0  0  0  0  0  0  0
   -0.2598    3.4806    2.4054 H   0  0  0  0  0  0  0  0  0  0  0  0
   -0.4486    3.7020    0.6489 H   0  0  0  0  0  0  0  0  0  0  0  0
  5  6  2  0  0  0  0
  5  7  1  0  0  0  0
  2  3  1  0  0  0  0
  2  4  1  0  0  0  0
  2  5  1  0  0  0  0
  1  2  1  0  0  0  0
 26 27  2  0  0  0  0
 26 28  1  0  0  0  0
 24 25  1  0  0  0  0
 22 23  1  0  0  0  0
 22 24  2  0  0  0  0
 20 21  1  0  0  0  0
 19 20  1  0  0  0  0
 19 22  1  0  0  0  0
 17 18  1  0  0  0  0
 17 19  2  0  0  0  0
 15 16  1  0  0  0  0
 15 17  1  0  0  0  0
 14 15  2  0  0  0  0
 14 24  1  0  0  0  0
 11 12  1  0  0  0  0
 11 13  1  0  0  0  0
 11 14  1  0  0  0  0
  9 10  1  0  0  0  0
  9 11  1  0  0  0  0
  9 26  1  0  0  0  0
  7  8  1  0  0  0  0
  7  9  1  0  0  0  0
 30 31  1  0  0  0  0
 30 32  1  0  0  0  0
 30 33  1  0  0  0  0
 28 29  1  0  0  0  0
 28 30  1  0  0  0  0
M  END
$$$$
default_name
  -OEChem-02102213163D

 33 33  0     1  0  0  0  0  0999 V2000
   -4.0702   -3.8485    1.4554 H   0  0  0  0  0  0  0  0  0  0  0  0
   -4.0012   -2.9605    0.8284 C   0  0  0  0  0  0  0  0  0  0  0  0
   -4.7652   -2.2435    1.1234 H   0  0  0  0  0  0  0  0  0  0  0  0
   -4.1352   -3.2385   -0.2156 H   0  0  0  0  0  0  0  0  0  0  0  0
   -2.6362   -2.3395    1.0094 C   0  0  0  0  0  0  0  0  0  0  0  0
   -1.8292   -2.8395    1.7814 O   0  0  0  0  0  0  0  0  0  0  0  0
   -2.3832   -1.2445    0.2964 N   0  0  0  0  0  0  0  0  0  0  0  0
   -3.1102   -0.8685   -0.2946 H   0  0  0  0  0  0  0  0  0  0  0  0
   -1.1292   -0.4875    0.3524 C   0  0  1  0  0  0  0  0  0  0  0  0
   -0.5898   -0.7762    1.2552 H   0  0  0  0  0  0  0  0  0  0  0  0
   -0.2608   -0.8470   -0.8656 C   0  0  0  0  0  0  0  0  0  0  0  0
   -0.8838   -0.8352   -1.7609 H   0  0  0  0  0  0  0  0  0  0  0  0
    0.5063   -0.0810   -0.9911 H   0  0  0  0  0  0  0  0  0  0  0  0
    0.4001   -2.2085   -0.7699 C   0  0  0  0  0  0  0  0  0  0  0  0
   -0.2557   -3.3540   -1.2640 C   0  0  0  0  0  0  0  0  0  0  0  0
   -1.2465   -3.2687   -1.6906 H   0  0  0  0  0  0  0  0  0  0  0  0
    0.3793   -4.6100   -1.2096 C   0  0  0  0  0  0  0  0  0  0  0  0
   -0.1264   -5.4853   -1.5875 H   0  0  0  0  0  0  0  0  0  0  0  0
    1.6762   -4.7198   -0.6623 C   0  0  0  0  0  0  0  0  0  0  0  0
    2.2983   -5.9261   -0.6079 O   0  0  0  0  0  0  0  0  0  0  0  0
    1.7243   -6.6413   -0.8857 H   0  0  0  0  0  0  0  0  0  0  0  0
    2.3329   -3.5718   -0.1728 C   0  0  0  0  0  0  0  0  0  0  0  0
    3.3227   -3.6693    0.2473 H   0  0  0  0  0  0  0  0  0  0  0  0
    1.6938   -2.3185   -0.2244 C   0  0  0  0  0  0  0  0  0  0  0  0
    2.1952   -1.4384    0.1604 H   0  0  0  0  0  0  0  0  0  0  0  0
   -1.4018    1.0238    0.4329 C   0  0  0  0  0  0  0  0  0  0  0  0
   -2.2416    1.5423   -0.3033 O   0  0  0  0  0  0  0  0  0  0  0  0
   -0.6927    1.7304    1.3223 N   0  0  0  0  0  0  0  0  0  0  0  0
    0.0178    1.2410    1.8469 H   0  0  0  0  0  0  0  0  0  0  0  0
   -0.8259    3.1712    1.5254 C   0  0  0  0  0  0  0  0  0  0  0  0
   -1.8769    3.4302    1.6645 H   0  0  0  0  0  0  0  0  0  0  0  0
   -0.2598    3.4806    2.4054 H   0  0  0  0  0  0  0  0  0  0  0  0
   -0.4486    3.7020    0.6489 H   0  0  0  0  0  0  0  0  0  0  0  0
  5  6  2  0  0  0  0
  5  7  1  0  0  0  0
  2  3  1  0  0  0  0
  2  4  1  0  0  0  0
  2  5  1  0  0  0  0
  1  2  1  0  0  0  0
 26 27  2  0  0  0  0
 26 28  1  0  0  0  0
 24 25  1  0  0  0  0
 22 23  1  0  0  0  0
 22 24  2  0  0  0  0
 20 21  1  0  0  0  0
 19 20  1  0  0  0  0
 19 22  1  0  0  0  0
 17 18  1  0  0  0  0
 17 19  2  0  0  0  0
 15 16  1  0  0  0  0
 15 17  1  0  0  0  0
 14 15  2  0  0  0  0
 14 24  1  0  0  0  0
 11 12  1  0  0  0  0
 11 13  1  0  0  0  0
 11 14  1  0  0  0  0
  9 10  1  0  0  0  0
  9 11  1  0  0  0  0
  9 26  1  0  0  0  0
  7  8  1  0  0  0  0
  7  9  1  0  0  0  0
 30 31  1  0  0  0  0
 30 32  1  0  0  0  0
 30 33  1  0  0  0  0
 28 29  1  0  0  0  0
 28 30  1  0  0  0  0
M  END
$$$$
default_name
  -OEChem-02102213163D

 33 33  0     1  0  0  0  0  0999 V2000
   -4.0702   -3.8485    1.4554 H   0  0  0  0  0  0  0  0  0  0  0  0
   -4.0012   -2.9605    0.8284 C   0  0  0  0  0  0  0  0  0  0  0  0
   -4.7652   -2.2435    1.1234 H   0  0  0  0  0  0  0  0  0  0  0  0
   -4.1352   -3.2385   -0.2156 H   0  0  0  0  0  0  0  0  0  0  0  0
   -2.6362   -2.3395    1.0094 C   0  0  0  0  0  0  0  0  0  0  0  0
   -1.8292   -2.8395    1.7814 O   0  0  0  0  0  0  0  0  0  0  0  0
   -2.3832   -1.2445    0.2964 N   0  0  0  0  0  0  0  0  0  0  0  0
   -3.1102   -0.8685   -0.2946 H   0  0  0  0  0  0  0  0  0  0  0  0
   -1.1292   -0.4875    0.3524 C   0  0  1  0  0  0  0  0  0  0  0  0
   -0.5898   -0.7762    1.2552 H   0  0  0  0  0  0  0  0  0  0  0  0
   -0.2608   -0.8470   -0.8656 C   0  0  0  0  0  0  0  0  0  0  0  0
   -0.8838   -0.8352   -1.7609 H   0  0  0  0  0  0  0  0  0  0  0  0
    0.5063   -0.0810   -0.9911 H   0  0  0  0  0  0  0  0  0  0  0  0
    0.4001   -2.2085   -0.7699 C   0  0  0  0  0  0  0  0  0  0  0  0
   -0.0892   -3.2917   -1.5272 C   0  0  0  0  0  0  0  0  0  0  0  0
   -0.9565   -3.1609   -2.1611 H   0  0  0  0  0  0  0  0  0  0  0  0
    0.5529   -4.5438   -1.4658 C   0  0  0  0  0  0  0  0  0  0  0  0
    0.1745   -5.3714   -2.0459 H   0  0  0  0  0  0  0  0  0  0  0  0
    1.6906   -4.7118   -0.6467 C   0  0  0  0  0  0  0  0  0  0  0  0
    2.3187   -5.9145   -0.5828 O   0  0  0  0  0  0  0  0  0  0  0  0
    1.8461   -6.5947   -1.0642 H   0  0  0  0  0  0  0  0  0  0  0  0
    2.1818   -3.6255    0.1068 C   0  0  0  0  0  0  0  0  0  0  0  0
    3.0499   -3.7676    0.7327 H   0  0  0  0  0  0  0  0  0  0  0  0
    1.5351   -2.3764    0.0467 C   0  0  0  0  0  0  0  0  0  0  0  0
    1.9075   -1.5448    0.6330 H   0  0  0  0  0  0  0  0  0  0  0  0
   -1.4018    1.0238    0.4329 C   0  0  0  0  0  0  0  0  0  0  0  0
   -2.2416    1.5423   -0.3033 O   0  0  0  0  0  0  0  0  0  0  0  0
   -0.6927    1.7304    1.3223 N   0  0  0  0  0  0  0  0  0  0  0  0
    0.0178    1.2410    1.8469 H   0  0  0  0  0  0  0  0  0  0  0  0
   -0.8259    3.1712    1.5254 C   0  0  0  0  0  0  0  0  0  0  0  0
   -1.8769    3.4302    1.6645 H   0  0  0  0  0  0  0  0  0  0  0  0
   -0.2598    3.4806    2.4054 H   0  0  0  0  0  0  0  0  0  0  0  0
   -0.4486    3.7020    0.6489 H   0  0  0  0  0  0  0  0  0  0  0  0
  5  6  2  0  0  0  0
  5  7  1  0  0  0  0
  2  3  1  0  0  0  0
  2  4  1  0  0  0  0
  2  5  1  0  0  0  0
  1  2  1  0  0  0  0
 26 27  2  0  0  0  0
 26 28  1  0  0  0  0
 24 25  1  0  0  0  0
 22 23  1  0  0  0  0
 22 24  2  0  0  0  0
 20 21  1  0  0  0  0
 19 20  1  0  0  0  0
 19 22  1  0  0  0  0
 17 18  1  0  0  0  0
 17 19  2  0  0  0  0
 15 16  1  0  0  0  0
 15 17  1  0  0  0  0
 14 15  2  0  0  0  0
 14 24  1  0  0  0  0
 11 12  1  0  0  0  0
 11 13  1  0  0  0  0
 11 14  1  0  0  0  0
  9 10  1  0  0  0  0
  9 11  1  0  0  0  0
  9 26  1  0  0  0  0
  7  8  1  0  0  0  0
  7  9  1  0  0  0  0
 30 31  1  0  0  0  0
 30 32  1  0  0  0  0
 30 33  1  0  0  0  0
 28 29  1  0  0  0  0
 28 30  1  0  0  0  0
M  END
$$$$
default_name
  -OEChem-02102213163D

 33 33  0     1  0  0  0  0  0999 V2000
   -4.0702   -3.8485    1.4554 H   0  0  0  0  0  0  0  0  0  0  0  0
   -4.0012   -2.9605    0.8284 C   0  0  0  0  0  0  0  0  0  0  0  0
   -4.7652   -2.2435    1.1234 H   0  0  0  0  0  0  0  0  0  0  0  0
   -4.1352   -3.2385   -0.2156 H   0  0  0  0  0  0  0  0  0  0  0  0
   -2.6362   -2.3395    1.0094 C   0  0  0  0  0  0  0  0  0  0  0  0
   -1.8292   -2.8395    1.7814 O   0  0  0  0  0  0  0  0  0  0  0  0
   -2.3832   -1.2445    0.2964 N   0  0  0  0  0  0  0  0  0  0  0  0
   -3.1102   -0.8685   -0.2946 H   0  0  0  0  0  0  0  0  0  0  0  0
   -1.1292   -0.4875    0.3524 C   0  0  1  0  0  0  0  0  0  0  0  0
   -0.5898   -0.7762    1.2552 H   0  0  0  0  0  0  0  0  0  0  0  0
   -0.2608   -0.8470   -0.8656 C   0  0  0  0  0  0  0  0  0  0  0  0
   -0.8838   -0.8352   -1.7609 H   0  0  0  0  0  0  0  0  0  0  0  0
    0.5063   -0.0810   -0.9911 H   0  0  0  0  0  0  0  0  0  0  0  0
    0.4001   -2.2085   -0.7699 C   0  0  0  0  0  0  0  0  0  0  0  0
    0.1317   -3.1991   -1.7358 C   0  0  0  0  0  0  0  0  0  0  0  0
   -0.5688   -2.9991   -2.5360 H   0  0  0  0  0  0  0  0  0  0  0  0
    0.7790   -4.4480   -1.6654 C   0  0  0  0  0  0  0  0  0  0  0  0
    0.5699   -5.2048   -2.4059 H   0  0  0  0  0  0  0  0  0  0  0  0
    1.7008   -4.7055   -0.6273 C   0  0  0  0  0  0  0  0  0  0  0  0
    2.3324   -5.9057   -0.5524 O   0  0  0  0  0  0  0  0  0  0  0  0
    2.0044   -6.5276   -1.2032 H   0  0  0  0  0  0  0  0  0  0  0  0
    1.9718   -3.7114    0.3356 C   0  0  0  0  0  0  0  0  0  0  0  0
    2.6753   -3.9217    1.1271 H   0  0  0  0  0  0  0  0  0  0  0  0
    1.3198   -2.4656    0.2652 C   0  0  0  0  0  0  0  0  0  0  0  0
    1.5216   -1.7056    1.0107 H   0  0  0  0  0  0  0  0  0  0  0  0
   -1.4018    1.0238    0.4329 C   0  0  0  0  0  0  0  0  0  0  0  0
   -2.2416    1.5423   -0.3033 O   0  0  0  0  0  0  0  0  0  0  0  0
   -0.6927    1.7304    1.3223 N   0  0  0  0  0  0  0  0  0  0  0  0
    0.0178    1.2410    1.8469 H   0  0  0  0  0  0  0  0  0  0  0  0
   -0.8259    3.1712    1.5254 C   0  0  0  0  0  0  0  0  0  0  0  0
   -1.8769    3.4302    1.6645 H   0  0  0  0  0  0  0  0  0  0  0  0
   -0.2598    3.4806    2.4054 H   0  0  0  0  0  0  0  0  0  0  0  0
   -0.4486    3.7020    0.6489 H   0  0  0  0  0  0  0  0  0  0  0  0
  5  6  2  0  0  0  0
  5  7  1  0  0  0  0
  2  3  1  0  0  0  0
  2  4  1  0  0  0  0
  2  5  1  0  0  0  0
  1  2  1  0  0  0  0
 26 27  2  0  0  0  0
 26 28  1  0  0  0  0
 24 25  1  0  0  0  0
 22 23  1  0  0  0  0
 22 24  2  0  0  0  0
 20 21  1  0  0  0  0
 19 20  1  0  0  0  0
 19 22  1  0  0  0  0
 17 18  1  0  0  0  0
 17 19  2  0  0  0  0
 15 16  1  0  0  0  0
 15 17  1  0  0  0  0
 14 15  2  0  0  0  0
 14 24  1  0  0  0  0
 11 12  1  0  0  0  0
 11 13  1  0  0  0  0
 11 14  1  0  0  0  0
  9 10  1  0  0  0  0
  9 11  1  0  0  0  0
  9 26  1  0  0  0  0
  7  8  1  0  0  0  0
  7  9  1  0  0  0  0
 30 31  1  0  0  0  0
 30 32  1  0  0  0  0
 30 33  1  0  0  0  0
 28 29  1  0  0  0  0
 28 30  1  0  0  0  0
M  END
$$$$
default_name
  -OEChem-02102213163D

 33 33  0     1  0  0  0  0  0999 V2000
   -4.0702   -3.8485    1.4554 H   0  0  0  0  0  0  0  0  0  0  0  0
   -4.0012   -2.9605    0.8284 C   0  0  0  0  0  0  0  0  0  0  0  0
   -4.7652   -2.2435    1.1234 H   0  0  0  0  0  0  0  0  0  0  0  0
   -4.1352   -3.2385   -0.2156 H   0  0  0  0  0  0  0  0  0  0  0  0
   -2.6362   -2.3395    1.0094 C   0  0  0  0  0  0  0  0  0  0  0  0
   -1.8292   -2.8395    1.7814 O   0  0  0  0  0  0  0  0  0  0  0  0
   -2.3832   -1.2445    0.2964 N   0  0  0  0  0  0  0  0  0  0  0  0
   -3.1102   -0.8685   -0.2946 H   0  0  0  0  0  0  0  0  0  0  0  0
   -1.1292   -0.4875    0.3524 C   0  0  1  0  0  0  0  0  0  0  0  0
   -0.5898   -0.7762    1.2552 H   0  0  0  0  0  0  0  0  0  0  0  0
   -0.2608   -0.8470   -0.8656 C   0  0  0  0  0  0  0  0  0  0  0  0
   -0.8838   -0.8352   -1.7609 H   0  0  0  0  0  0  0  0  0  0  0  0
    0.5063   -0.0810   -0.9911 H   0  0  0  0  0  0  0  0  0  0  0  0
    0.4001   -2.2085   -0.7699 C   0  0  0  0  0  0  0  0  0  0  0  0
    0.3921   -3.0825   -1.8755 C   0  0  0  0  0  0  0  0  0  0  0  0
   -0.1099   -2.7941   -2.7898 H   0  0  0  0  0  0  0  0  0  0  0  0
    1.0422   -4.3293   -1.7949 C   0  0  0  0  0  0  0  0  0  0  0  0
    1.0327   -4.9967   -2.6429 H   0  0  0  0  0  0  0  0  0  0  0  0
    1.7059   -4.7014   -0.6055 C   0  0  0  0  0  0  0  0  0  0  0  0
    2.3384   -5.9004   -0.5189 O   0  0  0  0  0  0  0  0  0  0  0  0
    2.1885   -6.4445   -1.2931 H   0  0  0  0  0  0  0  0  0  0  0  0
    1.7172   -3.8235    0.4981 C   0  0  0  0  0  0  0  0  0  0  0  0
    2.2243   -4.1212    1.4036 H   0  0  0  0  0  0  0  0  0  0  0  0
    1.0625   -2.5799    0.4161 C   0  0  0  0  0  0  0  0  0  0  0  0
    1.0636   -1.9099    1.2676 H   0  0  0  0  0  0  0  0  0  0  0  0
   -1.4018    1.0238    0.4329 C   0  0  0  0  0  0  0  0  0  0  0  0
   -2.2416    1.5423   -0.3033 O   0  0  0  0  0  0  0  0  0  0  0  0
   -0.6927    1.7304    1.3223 N   0  0  0  0  0  0  0  0  0  0  0  0
    0.0178    1.2410    1.8469 H   0  0  0  0  0  0  0  0  0  0  0  0
   -0.8259    3.1712    1.5254 C   0  0  0  0  0  0  0  0  0  0  0  0
   -1.8769    3.4302    1.6645 H   0  0  0  0  0  0  0  0  0  0  0  0
   -0.2598    3.4806    2.4054 H   0  0  0  0  0  0  0  0  0  0  0  0
   -0.4486    3.7020    0.6489 H   0  0  0  0  0  0  0  0  0  0  0  0
  5  6  2  0  0  0  0
  5  7  1  0  0  0  0
  2  3  1  0  0  0  0
  2  4  1  0  0  0  0
  2  5  1  0  0  0  0
  1  2  1  0  0  0  0
 26 27  2  0  0  0  0
 26 28  1  0  0  0  0
 24 25  1  0  0  0  0
 22 23  1  0  0  0  0
 22 24  2  0  0  0  0
 20 21  1  0  0  0  0
 19 20  1  0  0  0  0
 19 22  1  0  0  0  0
 17 18  1  0  0  0  0
 17 19  2  0  0  0  0
 15 16  1  0  0  0  0
 15 17  1  0  0  0  0
 14 15  2  0  0  0  0
 14 24  1  0  0  0  0
 11 12  1  0  0  0  0
 11 13  1  0  0  0  0
 11 14  1  0  0  0  0
  9 10  1  0  0  0  0
  9 11  1  0  0  0  0
  9 26  1  0  0  0  0
  7  8  1  0  0  0  0
  7  9  1  0  0  0  0
 30 31  1  0  0  0  0
 30 32  1  0  0  0  0
 30 33  1  0  0  0  0
 28 29  1  0  0  0  0
 28 30  1  0  0  0  0
M  END
$$$$
default_name
  -OEChem-02102213163D

 33 33  0     1  0  0  0  0  0999 V2000
   -4.0702   -3.8485    1.4554 H   0  0  0  0  0  0  0  0  0  0  0  0
   -4.0012   -2.9605    0.8284 C   0  0  0  0  0  0  0  0  0  0  0  0
   -4.7652   -2.2435    1.1234 H   0  0  0  0  0  0  0  0  0  0  0  0
   -4.1352   -3.2385   -0.2156 H   0  0  0  0  0  0  0  0  0  0  0  0
   -2.6362   -2.3395    1.0094 C   0  0  0  0  0  0  0  0  0  0  0  0
   -1.8292   -2.8395    1.7814 O   0  0  0  0  0  0  0  0  0  0  0  0
   -2.3832   -1.2445    0.2964 N   0  0  0  0  0  0  0  0  0  0  0  0
   -3.1102   -0.8685   -0.2946 H   0  0  0  0  0  0  0  0  0  0  0  0
   -1.1292   -0.4875    0.3524 C   0  0  1  0  0  0  0  0  0  0  0  0
   -0.5898   -0.7762    1.2552 H   0  0  0  0  0  0  0  0  0  0  0  0
   -0.2608   -0.8470   -0.8656 C   0  0  0  0  0  0  0  0  0  0  0  0
   -0.8838   -0.8352   -1.7609 H   0  0  0  0  0  0  0  0  0  0  0  0
    0.5063   -0.0810   -0.9911 H   0  0  0  0  0  0  0  0  0  0  0  0
    0.4001   -2.2085   -0.7699 C   0  0  0  0  0  0  0  0  0  0  0  0
    0.6741   -2.9499   -1.9367 C   0  0  0  0  0  0  0  0  0  0  0  0
    0.3890   -2.5600   -2.9051 H   0  0  0  0  0  0  0  0  0  0  0  0
    1.3247   -4.1958   -1.8455 C   0  0  0  0  0  0  0  0  0  0  0  0
    1.5315   -4.7615   -2.7409 H   0  0  0  0  0  0  0  0  0  0  0  0
    1.7058   -4.6999   -0.5829 C   0  0  0  0  0  0  0  0  0  0  0  0
    2.3363   -5.8990   -0.4845 O   0  0  0  0  0  0  0  0  0  0  0  0
    2.3859   -6.3512   -1.3277 H   0  0  0  0  0  0  0  0  0  0  0  0
    1.4353   -3.9544    0.5833 C   0  0  0  0  0  0  0  0  0  0  0  0
    1.7277   -4.3525    1.5433 H   0  0  0  0  0  0  0  0  0  0  0  0
    0.7807   -2.7115    0.4892 C   0  0  0  0  0  0  0  0  0  0  0  0
    0.5649   -2.1436    1.3864 H   0  0  0  0  0  0  0  0  0  0  0  0
   -1.4018    1.0238    0.4329 C   0  0  0  0  0  0  0  0  0  0  0  0
   -2.2416    1.5423   -0.3033 O   0  0  0  0  0  0  0  0  0  0  0  0
   -0.6927    1.7304    1.3223 N   0  0  0  0  0  0  0  0  0  0  0  0
    0.0178    1.2410    1.8469 H   0  0  0  0  0  0  0  0  0  0  0  0
   -0.8259    3.1712    1.5254 C   0  0  0  0  0  0  0  0  0  0  0  0
   -1.8769    3.4302    1.6645 H   0  0  0  0  0  0  0  0  0  0  0  0
   -0.2598    3.4806    2.4054 H   0  0  0  0  0  0  0  0  0  0  0  0
   -0.4486    3.7020    0.6489 H   0  0  0  0  0  0  0  0  0  0  0  0
  5  6  2  0  0  0  0
  5  7  1  0  0  0  0
  2  3  1  0  0  0  0
  2  4  1  0  0  0  0
  2  5  1  0  0  0  0
  1  2  1  0  0  0  0
 26 27  2  0  0  0  0
 26 28  1  0  0  0  0
 24 25  1  0  0  0  0
 22 23  1  0  0  0  0
 22 24  2  0  0  0  0
 20 21  1  0  0  0  0
 19 20  1  0  0  0  0
 19 22  1  0  0  0  0
 17 18  1  0  0  0  0
 17 19  2  0  0  0  0
 15 16  1  0  0  0  0
 15 17  1  0  0  0  0
 14 15  2  0  0  0  0
 14 24  1  0  0  0  0
 11 12  1  0  0  0  0
 11 13  1  0  0  0  0
 11 14  1  0  0  0  0
  9 10  1  0  0  0  0
  9 11  1  0  0  0  0
  9 26  1  0  0  0  0
  7  8  1  0  0  0  0
  7  9  1  0  0  0  0
 30 31  1  0  0  0  0
 30 32  1  0  0  0  0
 30 33  1  0  0  0  0
 28 29  1  0  0  0  0
 28 30  1  0  0  0  0
M  END
$$$$
default_name
  -OEChem-02102213163D

 33 33  0     1  0  0  0  0  0999 V2000
   -4.0702   -3.8485    1.4554 H   0  0  0  0  0  0  0  0  0  0  0  0
   -4.0012   -2.9605    0.8284 C   0  0  0  0  0  0  0  0  0  0  0  0
   -4.7652   -2.2435    1.1234 H   0  0  0  0  0  0  0  0  0  0  0  0
   -4.1352   -3.2385   -0.2156 H   0  0  0  0  0  0  0  0  0  0  0  0
   -2.6362   -2.3395    1.0094 C   0  0  0  0  0  0  0  0  0  0  0  0
   -1.8292   -2.8395    1.7814 O   0  0  0  0  0  0  0  0  0  0  0  0
   -2.3832   -1.2445    0.2964 N   0  0  0  0  0  0  0  0  0  0  0  0
   -3.1102   -0.8685   -0.2946 H   0  0  0  0  0  0  0  0  0  0  0  0
   -1.1292   -0.4875    0.3524 C   0  0  1  0  0  0  0  0  0  0  0  0
   -0.5898   -0.7762    1.2552 H   0  0  0  0  0  0  0  0  0  0  0  0
   -0.2608   -0.8470   -0.8656 C   0  0  0  0  0  0  0  0  0  0  0  0
   -0.8838   -0.8352   -1.7609 H   0  0  0  0  0  0  0  0  0  0  0  0
    0.5063   -0.0810   -0.9911 H   0  0  0  0  0  0  0  0  0  0  0  0
    0.4001   -2.2085   -0.7699 C   0  0  0  0  0  0  0  0  0  0  0  0
    0.9586   -2.8103   -1.9154 C   0  0  0  0  0  0  0  0  0  0  0  0
    0.8939   -2.3128   -2.8742 H   0  0  0  0  0  0  0  0  0  0  0  0
    1.6070   -4.0565   -1.8136 C   0  0  0  0  0  0  0  0  0  0  0  0
    2.0321   -4.5151   -2.6931 H   0  0  0  0  0  0  0  0  0  0  0  0
    1.7004   -4.7010   -0.5608 C   0  0  0  0  0  0  0  0  0  0  0  0
    2.3263   -5.9016   -0.4516 O   0  0  0  0  0  0  0  0  0  0  0  0
    2.5831   -6.2538   -1.3048 H   0  0  0  0  0  0  0  0  0  0  0  0
    1.1453   -4.0950    0.5853 C   0  0  0  0  0  0  0  0  0  0  0  0
    1.2193   -4.5997    1.5368 H   0  0  0  0  0  0  0  0  0  0  0  0
    0.4938   -2.8515    0.4795 C   0  0  0  0  0  0  0  0  0  0  0  0
    0.0594   -2.3910    1.3589 H   0  0  0  0  0  0  0  0  0  0  0  0
   -1.4018    1.0238    0.4329 C   0  0  0  0  0  0  0  0  0  0  0  0
   -2.2416    1.5423   -0.3033 O   0  0  0  0  0  0  0  0  0  0  0  0
   -0.6927    1.7304    1.3223 N   0  0  0  0  0  0  0  0  0  0  0  0
    0.0178    1.2410    1.8469 H   0  0  0  0  0  0  0  0  0  0  0  0
   -0.8259    3.1712    1.5254 C   0  0  0  0  0  0  0  0  0  0  0  0
   -1.8769    3.4302    1.6645 H   0  0  0  0  0  0  0  0  0  0  0  0
   -0.2598    3.4806    2.4054 H   0  0  0  0  0  0  0  0  0  0  0  0
   -0.4486    3.7020    0.6489 H   0  0  0  0  0  0  0  0  0  0  0  0
  5  6  2  0  0  0  0
  5  7  1  0  0  0  0
  2  3  1  0  0  0  0
  2  4  1  0  0  0  0
  2  5  1  0  0  0  0
  1  2  1  0  0  0  0
 26 27  2  0  0  0  0
 26 28  1  0  0  0  0
 24 25  1  0  0  0  0
 22 23  1  0  0  0  0
 22 24  2  0  0  0  0
 20 21  1  0  0  0  0
 19 20  1  0  0  0  0
 19 22  1  0  0  0  0
 17 18  1  0  0  0  0
 17 19  2  0  0  0  0
 15 16  1  0  0  0  0
 15 17  1  0  0  0  0
 14 15  2  0  0  0  0
 14 24  1  0  0  0  0
 11 12  1  0  0  0  0
 11 13  1  0  0  0  0
 11 14  1  0  0  0  0
  9 10  1  0  0  0  0
  9 11  1  0  0  0  0
  9 26  1  0  0  0  0
  7  8  1  0  0  0  0
  7  9  1  0  0  0  0
 30 31  1  0  0  0  0
 30 32  1  0  0  0  0
 30 33  1  0  0  0  0
 28 29  1  0  0  0  0
 28 30  1  0  0  0  0
M  END
$$$$
default_name
  -OEChem-02102213163D

 33 33  0     1  0  0  0  0  0999 V2000
   -4.0702   -3.8485    1.4554 H   0  0  0  0  0  0  0  0  0  0  0  0
   -4.0012   -2.9605    0.8284 C   0  0  0  0  0  0  0  0  0  0  0  0
   -4.7652   -2.2435    1.1234 H   0  0  0  0  0  0  0  0  0  0  0  0
   -4.1352   -3.2385   -0.2156 H   0  0  0  0  0  0  0  0  0  0  0  0
   -2.6362   -2.3395    1.0094 C   0  0  0  0  0  0  0  0  0  0  0  0
   -1.8292   -2.8395    1.7814 O   0  0  0  0  0  0  0  0  0  0  0  0
   -2.3832   -1.2445    0.2964 N   0  0  0  0  0  0  0  0  0  0  0  0
   -3.1102   -0.8685   -0.2946 H   0  0  0  0  0  0  0  0  0  0  0  0
   -1.1292   -0.4875    0.3524 C   0  0  1  0  0  0  0  0  0  0  0  0
   -0.5898   -0.7762    1.2552 H   0  0  0  0  0  0  0  0  0  0  0  0
   -0.2608   -0.8470   -0.8656 C   0  0  0  0  0  0  0  0  0  0  0  0
   -0.7992   -0.5800   -1.7759 H   0  0  0  0  0  0  0  0  0  0  0  0
    0.6515   -0.2488   -0.8380 H   0  0  0  0  0  0  0  0  0  0  0  0
    0.1047   -2.3164   -0.9487 C   0  0  0  0  0  0  0  0  0  0  0  0
    0.8973   -2.7933   -2.0119 C   0  0  0  0  0  0  0  0  0  0  0  0
    1.2264   -2.1150   -2.7883 H   0  0  0  0  0  0  0  0  0  0  0  0
    1.2679   -4.1512   -2.0629 C   0  0  0  0  0  0  0  0  0  0  0  0
    1.8736   -4.5133   -2.8793 H   0  0  0  0  0  0  0  0  0  0  0  0
    0.8471   -5.0342   -1.0446 C   0  0  0  0  0  0  0  0  0  0  0  0
    1.2016   -6.3449   -1.0831 O   0  0  0  0  0  0  0  0  0  0  0  0
    1.6591   -6.5716   -1.8938 H   0  0  0  0  0  0  0  0  0  0  0  0
    0.0580   -4.5543    0.0212 C   0  0  0  0  0  0  0  0  0  0  0  0
   -0.2611   -5.2401    0.7915 H   0  0  0  0  0  0  0  0  0  0  0  0
   -0.3145   -3.1974    0.0669 C   0  0  0  0  0  0  0  0  0  0  0  0
   -0.9285   -2.8313    0.8812 H   0  0  0  0  0  0  0  0  0  0  0  0
   -1.4018    1.0238    0.4329 C   0  0  0  0  0  0  0  0  0  0  0  0
   -2.2416    1.5423   -0.3033 O   0  0  0  0  0  0  0  0  0  0  0  0
   -0.6927    1.7304    1.3223 N   0  0  0  0  0  0  0  0  0  0  0  0
    0.0178    1.2410    1.8469 H   0  0  0  0  0  0  0  0  0  0  0  0
   -0.8259    3.1712    1.5254 C   0  0  0  0  0  0  0  0  0  0  0  0
   -1.8769    3.4302    1.6645 H   0  0  0  0  0  0  0  0  0  0  0  0
   -0.2598    3.4806    2.4054 H   0  0  0  0  0  0  0  0  0  0  0  0
   -0.4486    3.7020    0.6489 H   0  0  0  0  0  0  0  0  0  0  0  0
  5  6  2  0  0  0  0
  5  7  1  0  0  0  0
  2  3  1  0  0  0  0
  2  4  1  0  0  0  0
  2  5  1  0  0  0  0
  1  2  1  0  0  0  0
 26 27  2  0  0  0  0
 26 28  1  0  0  0  0
 24 25  1  0  0  0  0
 22 23  1  0  0  0  0
 22 24  2  0  0  0  0
 20 21  1  0  0  0  0
 19 20  1  0  0  0  0
 19 22  1  0  0  0  0
 17 18  1  0  0  0  0
 17 19  2  0  0  0  0
 15 16  1  0  0  0  0
 15 17  1  0  0  0  0
 14 15  2  0  0  0  0
 14 24  1  0  0  0  0
 11 12  1  0  0  0  0
 11 13  1  0  0  0  0
 11 14  1  0  0  0  0
  9 10  1  0  0  0  0
  9 11  1  0  0  0  0
  9 26  1  0  0  0  0
  7  8  1  0  0  0  0
  7  9  1  0  0  0  0
 30 31  1  0  0  0  0
 30 32  1  0  0  0  0
 30 33  1  0  0  0  0
 28 29  1  0  0  0  0
 28 30  1  0  0  0  0
M  END
$$$$
default_name
  -OEChem-02102213163D

 33 33  0     1  0  0  0  0  0999 V2000
   -4.0702   -3.8485    1.4554 H   0  0  0  0  0  0  0  0  0  0  0  0
   -4.0012   -2.9605    0.8284 C   0  0  0  0  0  0  0  0  0  0  0  0
   -4.7652   -2.2435    1.1234 H   0  0  0  0  0  0  0  0  0  0  0  0
   -4.1352   -3.2385   -0.2156 H   0  0  0  0  0  0  0  0  0  0  0  0
   -2.6362   -2.3395    1.0094 C   0  0  0  0  0  0  0  0  0  0  0  0
   -1.8292   -2.8395    1.7814 O   0  0  0  0  0  0  0  0  0  0  0  0
   -2.3832   -1.2445    0.2964 N   0  0  0  0  0  0  0  0  0  0  0  0
   -3.1102   -0.8685   -0.2946 H   0  0  0  0  0  0  0  0  0  0  0  0
   -1.1292   -0.4875    0.3524 C   0  0  1  0  0  0  0  0  0  0  0  0
   -0.5898   -0.7762    1.2552 H   0  0  0  0  0  0  0  0  0  0  0  0
   -0.2608   -0.8470   -0.8656 C   0  0  0  0  0  0  0  0  0  0  0  0
   -0.7992   -0.5800   -1.7759 H   0  0  0  0  0  0  0  0  0  0  0  0
    0.6515   -0.2488   -0.8380 H   0  0  0  0  0  0  0  0  0  0  0  0
    0.1047   -2.3164   -0.9487 C   0  0  0  0  0  0  0  0  0  0  0  0
    1.1360   -2.7455   -1.8080 C   0  0  0  0  0  0  0  0  0  0  0  0
    1.6539   -2.0289   -2.4320 H   0  0  0  0  0  0  0  0  0  0  0  0
    1.4990   -4.1057   -1.8516 C   0  0  0  0  0  0  0  0  0  0  0  0
    2.2882   -4.4309   -2.5119 H   0  0  0  0  0  0  0  0  0  0  0  0
    0.8305   -5.0392   -1.0299 C   0  0  0  0  0  0  0  0  0  0  0  0
    1.1751   -6.3527   -1.0625 O   0  0  0  0  0  0  0  0  0  0  0  0
    1.8201   -6.5399   -1.7457 H   0  0  0  0  0  0  0  0  0  0  0  0
   -0.1981   -4.6073   -0.1670 C   0  0  0  0  0  0  0  0  0  0  0  0
   -0.7048   -5.3313    0.4531 H   0  0  0  0  0  0  0  0  0  0  0  0
   -0.5617   -3.2478   -0.1291 C   0  0  0  0  0  0  0  0  0  0  0  0
   -1.3583   -2.9182    0.5273 H   0  0  0  0  0  0  0  0  0  0  0  0
   -1.4018    1.0238    0.4329 C   0  0  0  0  0  0  0  0  0  0  0  0
   -2.2416    1.5423   -0.3033 O   0  0  0  0  0  0  0  0  0  0  0  0
   -0.6927    1.7304    1.3223 N   0  0  0  0  0  0  0  0  0  0  0  0
    0.0178    1.2410    1.8469 H   0  0  0  0  0  0  0  0  0  0  0  0
   -0.8259    3.1712    1.5254 C   0  0  0  0  0  0  0  0  0  0  0  0
   -1.8769    3.4302    1.6645 H   0  0  0  0  0  0  0  0  0  0  0  0
   -0.2598    3.4806    2.4054 H   0  0  0  0  0  0  0  0  0  0  0  0
   -0.4486    3.7020    0.6489 H   0  0  0  0  0  0  0  0  0  0  0  0
  5  6  2  0  0  0  0
  5  7  1  0  0  0  0
  2  3  1  0  0  0  0
  2  4  1  0  0  0  0
  2  5  1  0  0  0  0
  1  2  1  0  0  0  0
 26 27  2  0  0  0  0
 26 28  1  0  0  0  0
 24 25  1  0  0  0  0
 22 23  1  0  0  0  0
 22 24  2  0  0  0  0
 20 21  1  0  0  0  0
 19 20  1  0  0  0  0
 19 22  1  0  0  0  0
 17 18  1  0  0  0  0
 17 19  2  0  0  0  0
 15 16  1  0  0  0  0
 15 17  1  0  0  0  0
 14 15  2  0  0  0  0
 14 24  1  0  0  0  0
 11 12  1  0  0  0  0
 11 13  1  0  0  0  0
 11 14  1  0  0  0  0
  9 10  1  0  0  0  0
  9 11  1  0  0  0  0
  9 26  1  0  0  0  0
  7  8  1  0  0  0  0
  7  9  1  0  0  0  0
 30 31  1  0  0  0  0
 30 32  1  0  0  0  0
 30 33  1  0  0  0  0
 28 29  1  0  0  0  0
 28 30  1  0  0  0  0
M  END
$$$$
default_name
  -OEChem-02102213163D

 33 33  0     1  0  0  0  0  0999 V2000
   -4.0702   -3.8485    1.4554 H   0  0  0  0  0  0  0  0  0  0  0  0
   -4.0012   -2.9605    0.8284 C   0  0  0  0  0  0  0  0  0  0  0  0
   -4.7652   -2.2435    1.1234 H   0  0  0  0  0  0  0  0  0  0  0  0
   -4.1352   -3.2385   -0.2156 H   0  0  0  0  0  0  0  0  0  0  0  0
   -2.6362   -2.3395    1.0094 C   0  0  0  0  0  0  0  0  0  0  0  0
   -1.8292   -2.8395    1.7814 O   0  0  0  0  0  0  0  0  0  0  0  0
   -2.3832   -1.2445    0.2964 N   0  0  0  0  0  0  0  0  0  0  0  0
   -3.1102   -0.8685   -0.2946 H   0  0  0  0  0  0  0  0  0  0  0  0
   -1.1292   -0.4875    0.3524 C   0  0  1  0  0  0  0  0  0  0  0  0
   -0.5898   -0.7762    1.2552 H   0  0  0  0  0  0  0  0  0  0  0  0
   -0.2608   -0.8470   -0.8656 C   0  0  0  0  0  0  0  0  0  0  0  0
   -0.7992   -0.5800   -1.7759 H   0  0  0  0  0  0  0  0  0  0  0  0
    0.6515   -0.2488   -0.8380 H   0  0  0  0  0  0  0  0  0  0  0  0
    0.1047   -2.3164   -0.9487 C   0  0  0  0  0  0  0  0  0  0  0  0
    1.3162   -2.7154   -1.5481 C   0  0  0  0  0  0  0  0  0  0  0  0
    1.9786   -1.9739   -1.9753 H   0  0  0  0  0  0  0  0  0  0  0  0
    1.6700   -4.0781   -1.5867 C   0  0  0  0  0  0  0  0  0  0  0  0
    2.5977   -4.3802   -2.0479 H   0  0  0  0  0  0  0  0  0  0  0  0
    0.8106   -5.0447   -1.0203 C   0  0  0  0  0  0  0  0  0  0  0  0
    1.1442   -6.3611   -1.0497 O   0  0  0  0  0  0  0  0  0  0  0  0
    1.9390   -6.5208   -1.5603 H   0  0  0  0  0  0  0  0  0  0  0  0
   -0.3990   -4.6432   -0.4164 C   0  0  0  0  0  0  0  0  0  0  0  0
   -1.0498   -5.3920    0.0093 H   0  0  0  0  0  0  0  0  0  0  0  0
   -0.7520   -3.2808   -0.3835 C   0  0  0  0  0  0  0  0  0  0  0  0
   -1.6859   -2.9740    0.0723 H   0  0  0  0  0  0  0  0  0  0  0  0
   -1.4018    1.0238    0.4329 C   0  0  0  0  0  0  0  0  0  0  0  0
   -2.2416    1.5423   -0.3033 O   0  0  0  0  0  0  0  0  0  0  0  0
   -0.6927    1.7304    1.3223 N   0  0  0  0  0  0  0  0  0  0  0  0
    0.0178    1.2410    1.8469 H   0  0  0  0  0  0  0  0  0  0  0  0
   -0.8259    3.1712    1.5254 C   0  0  0  0  0  0  0  0  0  0  0  0
   -1.8769    3.4302    1.6645 H   0  0  0  0  0  0  0  0  0  0  0  0
   -0.2598    3.4806    2.4054 H   0  0  0  0  0  0  0  0  0  0  0  0
   -0.4486    3.7020    0.6489 H   0  0  0  0  0  0  0  0  0  0  0  0
  5  6  2  0  0  0  0
  5  7  1  0  0  0  0
  2  3  1  0  0  0  0
  2  4  1  0  0  0  0
  2  5  1  0  0  0  0
  1  2  1  0  0  0  0
 26 27  2  0  0  0  0
 26 28  1  0  0  0  0
 24 25  1  0  0  0  0
 22 23  1  0  0  0  0
 22 24  2  0  0  0  0
 20 21  1  0  0  0  0
 19 20  1  0  0  0  0
 19 22  1  0  0  0  0
 17 18  1  0  0  0  0
 17 19  2  0  0  0  0
 15 16  1  0  0  0  0
 15 17  1  0  0  0  0
 14 15  2  0  0  0  0
 14 24  1  0  0  0  0
 11 12  1  0  0  0  0
 11 13  1  0  0  0  0
 11 14  1  0  0  0  0
  9 10  1  0  0  0  0
  9 11  1  0  0  0  0
  9 26  1  0  0  0  0
  7  8  1  0  0  0  0
  7  9  1  0  0  0  0
 30 31  1  0  0  0  0
 30 32  1  0  0  0  0
 30 33  1  0  0  0  0
 28 29  1  0  0  0  0
 28 30  1  0  0  0  0
M  END
$$$$
default_name
  -OEChem-02102213163D

 33 33  0     1  0  0  0  0  0999 V2000
   -4.0702   -3.8485    1.4554 H   0  0  0  0  0  0  0  0  0  0  0  0
   -4.0012   -2.9605    0.8284 C   0  0  0  0  0  0  0  0  0  0  0  0
   -4.7652   -2.2435    1.1234 H   0  0  0  0  0  0  0  0  0  0  0  0
   -4.1352   -3.2385   -0.2156 H   0  0  0  0  0  0  0  0  0  0  0  0
   -2.6362   -2.3395    1.0094 C   0  0  0  0  0  0  0  0  0  0  0  0
   -1.8292   -2.8395    1.7814 O   0  0  0  0  0  0  0  0  0  0  0  0
   -2.3832   -1.2445    0.2964 N   0  0  0  0  0  0  0  0  0  0  0  0
   -3.1102   -0.8685   -0.2946 H   0  0  0  0  0  0  0  0  0  0  0  0
   -1.1292   -0.4875    0.3524 C   0  0  1  0  0  0  0  0  0  0  0  0
   -0.5898   -0.7762    1.2552 H   0  0  0  0  0  0  0  0  0  0  0  0
   -0.2608   -0.8470   -0.8656 C   0  0  0  0  0  0  0  0  0  0  0  0
   -0.7992   -0.5800   -1.7759 H   0  0  0  0  0  0  0  0  0  0  0  0
    0.6515   -0.2488   -0.8380 H   0  0  0  0  0  0  0  0  0  0  0  0
    0.1047   -2.3164   -0.9487 C   0  0  0  0  0  0  0  0  0  0  0  0
    1.4254   -2.7050   -1.2501 C   0  0  0  0  0  0  0  0  0  0  0  0
    2.1785   -1.9540   -1.4494 H   0  0  0  0  0  0  0  0  0  0  0  0
    1.7691   -4.0705   -1.2862 C   0  0  0  0  0  0  0  0  0  0  0  0
    2.7810   -4.3645   -1.5189 H   0  0  0  0  0  0  0  0  0  0  0  0
    0.7890   -5.0503   -1.0162 C   0  0  0  0  0  0  0  0  0  0  0  0
    1.1110   -6.3696   -1.0457 O   0  0  0  0  0  0  0  0  0  0  0  0
    2.0077   -6.5157   -1.3502 H   0  0  0  0  0  0  0  0  0  0  0  0
   -0.5310   -4.6594   -0.7100 C   0  0  0  0  0  0  0  0  0  0  0  0
   -1.2726   -5.4181   -0.5096 H   0  0  0  0  0  0  0  0  0  0  0  0
   -0.8725   -3.2940   -0.6791 C   0  0  0  0  0  0  0  0  0  0  0  0
   -1.8890   -2.9948   -0.4528 H   0  0  0  0  0  0  0  0  0  0  0  0
   -1.4018    1.0238    0.4329 C   0  0  0  0  0  0  0  0  0  0  0  0
   -2.2416    1.5423   -0.3033 O   0  0  0  0  0  0  0  0  0  0  0  0
   -0.6927    1.7304    1.3223 N   0  0  0  0  0  0  0  0  0  0  0  0
    0.0178    1.2410    1.8469 H   0  0  0  0  0  0  0  0  0  0  0  0
   -0.8259    3.1712    1.5254 C   0  0  0  0  0  0  0  0  0  0  0  0
   -1.8769    3.4302    1.6645 H   0  0  0  0  0  0  0  0  0  0  0  0
   -0.2598    3.4806    2.4054 H   0  0  0  0  0  0  0  0  0  0  0  0
   -0.4486    3.7020    0.6489 H   0  0  0  0  0  0  0  0  0  0  0  0
  5  6  2  0  0  0  0
  5  7  1  0  0  0  0
  2  3  1  0  0  0  0
  2  4  1  0  0  0  0
  2  5  1  0  0  0  0
  1  2  1  0  0  0  0
 26 27  2  0  0  0  0
 26 28  1  0  0  0  0
 24 25  1  0  0  0  0
 22 23  1  0  0  0  0
 22 24  2  0  0  0  0
 20 21  1  0  0  0  0
 19 20  1  0  0  0  0
 19 22  1  0  0  0  0
 17 18  1  0  0  0  0
 17 19  2  0  0  0  0
 15 16  1  0  0  0  0
 15 17  1  0  0  0  0
 14 15  2  0  0  0  0
 14 24  1  0  0  0  0
 11 12  1  0  0  0  0
 11 13  1  0  0  0  0
 11 14  1  0  0  0  0
  9 10  1  0  0  0  0
  9 11  1  0  0  0  0
  9 26  1  0  0  0  0
  7  8  1  0  0  0  0
  7  9  1  0  0  0  0
 30 31  1  0  0  0  0
 30 32  1  0  0  0  0
 30 33  1  0  0  0  0
 28 29  1  0  0  0  0
 28 30  1  0  0  0  0
M  END
$$$$
default_name
  -OEChem-02102213163D

 33 33  0     1  0  0  0  0  0999 V2000
   -4.0702   -3.8485    1.4554 H   0  0  0  0  0  0  0  0  0  0  0  0
   -4.0012   -2.9605    0.8284 C   0  0  0  0  0  0  0  0  0  0  0  0
   -4.7652   -2.2435    1.1234 H   0  0  0  0  0  0  0  0  0  0  0  0
   -4.1352   -3.2385   -0.2156 H   0  0  0  0  0  0  0  0  0  0  0  0
   -2.6362   -2.3395    1.0094 C   0  0  0  0  0  0  0  0  0  0  0  0
   -1.8292   -2.8395    1.7814 O   0  0  0  0  0  0  0  0  0  0  0  0
   -2.3832   -1.2445    0.2964 N   0  0  0  0  0  0  0  0  0  0  0  0
   -3.1102   -0.8685   -0.2946 H   0  0  0  0  0  0  0  0  0  0  0  0
   -1.1292   -0.4875    0.3524 C   0  0  1  0  0  0  0  0  0  0  0  0
   -0.5898   -0.7762    1.2552 H   0  0  0  0  0  0  0  0  0  0  0  0
   -0.2608   -0.8470   -0.8656 C   0  0  0  0  0  0  0  0  0  0  0  0
   -0.7992   -0.5800   -1.7759 H   0  0  0  0  0  0  0  0  0  0  0  0
    0.6515   -0.2488   -0.8380 H   0  0  0  0  0  0  0  0  0  0  0  0
    0.1047   -2.3164   -0.9487 C   0  0  0  0  0  0  0  0  0  0  0  0
    1.4563   -2.7152   -0.9342 C   0  0  0  0  0  0  0  0  0  0  0  0
    2.2400   -1.9703   -0.8899 H   0  0  0  0  0  0  0  0  0  0  0  0
    1.7896   -4.0832   -0.9707 C   0  0  0  0  0  0  0  0  0  0  0  0
    2.8257   -4.3850   -0.9610 H   0  0  0  0  0  0  0  0  0  0  0  0
    0.7670   -5.0557   -1.0181 C   0  0  0  0  0  0  0  0  0  0  0  0
    1.0779   -6.3775   -1.0506 O   0  0  0  0  0  0  0  0  0  0  0  0
    2.0213   -6.5247   -1.1297 H   0  0  0  0  0  0  0  0  0  0  0  0
   -0.5852   -4.6550   -1.0276 C   0  0  0  0  0  0  0  0  0  0  0  0
   -1.3580   -5.4078   -1.0684 H   0  0  0  0  0  0  0  0  0  0  0  0
   -0.9150   -3.2867   -0.9956 C   0  0  0  0  0  0  0  0  0  0  0  0
   -1.9538   -2.9793   -1.0123 H   0  0  0  0  0  0  0  0  0  0  0  0
   -1.4018    1.0238    0.4329 C   0  0  0  0  0  0  0  0  0  0  0  0
   -2.2416    1.5423   -0.3033 O   0  0  0  0  0  0  0  0  0  0  0  0
   -0.6927    1.7304    1.3223 N   0  0  0  0  0  0  0  0  0  0  0  0
    0.0178    1.2410    1.8469 H   0  0  0  0  0  0  0  0  0  0  0  0
   -0.8259    3.1712    1.5254 C   0  0  0  0  0  0  0  0  0  0  0  0
   -1.8769    3.4302    1.6645 H   0  0  0  0  0  0  0  0  0  0  0  0
   -0.2598    3.4806    2.4054 H   0  0  0  0  0  0  0  0  0  0  0  0
   -0.4486    3.7020    0.6489 H   0  0  0  0  0  0  0  0  0  0  0  0
  5  6  2  0  0  0  0
  5  7  1  0  0  0  0
  2  3  1  0  0  0  0
  2  4  1  0  0  0  0
  2  5  1  0  0  0  0
  1  2  1  0  0  0  0
 26 27  2  0  0  0  0
 26 28  1  0  0  0  0
 24 25  1  0  0  0  0
 22 23  1  0  0  0  0
 22 24  2  0  0  0  0
 20 21  1  0  0  0  0
 19 20  1  0  0  0  0
 19 22  1  0  0  0  0
 17 18  1  0  0  0  0
 17 19  2  0  0  0  0
 15 16  1  0  0  0  0
 15 17  1  0  0  0  0
 14 15  2  0  0  0  0
 14 24  1  0  0  0  0
 11 12  1  0  0  0  0
 11 13  1  0  0  0  0
 11 14  1  0  0  0  0
  9 10  1  0  0  0  0
  9 11  1  0  0  0  0
  9 26  1  0  0  0  0
  7  8  1  0  0  0  0
  7  9  1  0  0  0  0
 30 31  1  0  0  0  0
 30 32  1  0  0  0  0
 30 33  1  0  0  0  0
 28 29  1  0  0  0  0
 28 30  1  0  0  0  0
M  END
$$$$
default_name
  -OEChem-02102213163D

 33 33  0     1  0  0  0  0  0999 V2000
   -4.0702   -3.8485    1.4554 H   0  0  0  0  0  0  0  0  0  0  0  0
   -4.0012   -2.9605    0.8284 C   0  0  0  0  0  0  0  0  0  0  0  0
   -4.7652   -2.2435    1.1234 H   0  0  0  0  0  0  0  0  0  0  0  0
   -4.1352   -3.2385   -0.2156 H   0  0  0  0  0  0  0  0  0  0  0  0
   -2.6362   -2.3395    1.0094 C   0  0  0  0  0  0  0  0  0  0  0  0
   -1.8292   -2.8395    1.7814 O   0  0  0  0  0  0  0  0  0  0  0  0
   -2.3832   -1.2445    0.2964 N   0  0  0  0  0  0  0  0  0  0  0  0
   -3.1102   -0.8685   -0.2946 H   0  0  0  0  0  0  0  0  0  0  0  0
   -1.1292   -0.4875    0.3524 C   0  0  1  0  0  0  0  0  0  0  0  0
   -0.5898   -0.7762    1.2552 H   0  0  0  0  0  0  0  0  0  0  0  0
   -0.2608   -0.8470   -0.8656 C   0  0  0  0  0  0  0  0  0  0  0  0
   -0.7992   -0.5800   -1.7759 H   0  0  0  0  0  0  0  0  0  0  0  0
    0.6515   -0.2488   -0.8380 H   0  0  0  0  0  0  0  0  0  0  0  0
    0.1047   -2.3164   -0.9487 C   0  0  0  0  0  0  0  0  0  0  0  0
    1.4068   -2.7452   -0.6219 C   0  0  0  0  0  0  0  0  0  0  0  0
    2.1589   -2.0219   -0.3351 H   0  0  0  0  0  0  0  0  0  0  0  0
    1.7300   -4.1155   -0.6616 C   0  0  0  0  0  0  0  0  0  0  0  0
    2.7286   -4.4401   -0.4122 H   0  0  0  0  0  0  0  0  0  0  0  0
    0.7461   -5.0604   -1.0258 C   0  0  0  0  0  0  0  0  0  0  0  0
    1.0470   -6.3845   -1.0642 O   0  0  0  0  0  0  0  0  0  0  0  0
    1.9791   -6.5475   -0.9139 H   0  0  0  0  0  0  0  0  0  0  0  0
   -0.5578   -4.6300   -1.3477 C   0  0  0  0  0  0  0  0  0  0  0  0
   -1.3002   -5.3617   -1.6289 H   0  0  0  0  0  0  0  0  0  0  0  0
   -0.8765   -3.2592   -1.3116 C   0  0  0  0  0  0  0  0  0  0  0  0
   -1.8759   -2.9285   -1.5680 H   0  0  0  0  0  0  0  0  0  0  0  0
   -1.4018    1.0238    0.4329 C   0  0  0  0  0  0  0  0  0  0  0  0
   -2.2416    1.5423   -0.3033 O   0  0  0  0  0  0  0  0  0  0  0  0
   -0.6927    1.7304    1.3223 N   0  0  0  0  0  0  0  0  0  0  0  0
    0.0178    1.2410    1.8469 H   0  0  0  0  0  0  0  0  0  0  0  0
   -0.8259    3.1712    1.5254 C   0  0  0  0  0  0  0  0  0  0  0  0
   -1.8769    3.4302    1.6645 H   0  0  0  0  0  0  0  0  0  0  0  0
   -0.2598    3.4806    2.4054 H   0  0  0  0  0  0  0  0  0  0  0  0
   -0.4486    3.7020    0.6489 H   0  0  0  0  0  0  0  0  0  0  0  0
  5  6  2  0  0  0  0
  5  7  1  0  0  0  0
  2  3  1  0  0  0  0
  2  4  1  0  0  0  0
  2  5  1  0  0  0  0
  1  2  1  0  0  0  0
 26 27  2  0  0  0  0
 26 28  1  0  0  0  0
 24 25  1  0  0  0  0
 22 23  1  0  0  0  0
 22 24  2  0  0  0  0
 20 21  1  0  0  0  0
 19 20  1  0  0  0  0
 19 22  1  0  0  0  0
 17 18  1  0  0  0  0
 17 19  2  0  0  0  0
 15 16  1  0  0  0  0
 15 17  1  0  0  0  0
 14 15  2  0  0  0  0
 14 24  1  0  0  0  0
 11 12  1  0  0  0  0
 11 13  1  0  0  0  0
 11 14  1  0  0  0  0
  9 10  1  0  0  0  0
  9 11  1  0  0  0  0
  9 26  1  0  0  0  0
  7  8  1  0  0  0  0
  7  9  1  0  0  0  0
 30 31  1  0  0  0  0
 30 32  1  0  0  0  0
 30 33  1  0  0  0  0
 28 29  1  0  0  0  0
 28 30  1  0  0  0  0
M  END
$$$$
default_name
  -OEChem-02102213163D

 33 33  0     1  0  0  0  0  0999 V2000
   -4.0702   -3.8485    1.4554 H   0  0  0  0  0  0  0  0  0  0  0  0
   -4.0012   -2.9605    0.8284 C   0  0  0  0  0  0  0  0  0  0  0  0
   -4.7652   -2.2435    1.1234 H   0  0  0  0  0  0  0  0  0  0  0  0
   -4.1352   -3.2385   -0.2156 H   0  0  0  0  0  0  0  0  0  0  0  0
   -2.6362   -2.3395    1.0094 C   0  0  0  0  0  0  0  0  0  0  0  0
   -1.8292   -2.8395    1.7814 O   0  0  0  0  0  0  0  0  0  0  0  0
   -2.3832   -1.2445    0.2964 N   0  0  0  0  0  0  0  0  0  0  0  0
   -3.1102   -0.8685   -0.2946 H   0  0  0  0  0  0  0  0  0  0  0  0
   -1.1292   -0.4875    0.3524 C   0  0  1  0  0  0  0  0  0  0  0  0
   -0.5898   -0.7762    1.2552 H   0  0  0  0  0  0  0  0  0  0  0  0
   -0.2608   -0.8470   -0.8656 C   0  0  0  0  0  0  0  0  0  0  0  0
   -0.7992   -0.5800   -1.7759 H   0  0  0  0  0  0  0  0  0  0  0  0
    0.6515   -0.2488   -0.8380 H   0  0  0  0  0  0  0  0  0  0  0  0
    0.1047   -2.3164   -0.9487 C   0  0  0  0  0  0  0  0  0  0  0  0
    1.2803   -2.7929   -0.3345 C   0  0  0  0  0  0  0  0  0  0  0  0
    1.9406   -2.1051    0.1772 H   0  0  0  0  0  0  0  0  0  0  0  0
    1.5945   -4.1652   -0.3799 C   0  0  0  0  0  0  0  0  0  0  0  0
    2.4963   -4.5263    0.0901 H   0  0  0  0  0  0  0  0  0  0  0  0
    0.7278   -5.0642   -1.0387 C   0  0  0  0  0  0  0  0  0  0  0  0
    1.0204   -6.3899   -1.0855 O   0  0  0  0  0  0  0  0  0  0  0  0
    1.8838   -6.5823   -0.7174 H   0  0  0  0  0  0  0  0  0  0  0  0
   -0.4507   -4.5864   -1.6485 C   0  0  0  0  0  0  0  0  0  0  0  0
   -1.1031   -5.2830   -2.1530 H   0  0  0  0  0  0  0  0  0  0  0  0
   -0.7597   -3.2136   -1.6054 C   0  0  0  0  0  0  0  0  0  0  0  0
   -1.6605   -2.8458   -2.0821 H   0  0  0  0  0  0  0  0  0  0  0  0
   -1.4018    1.0238    0.4329 C   0  0  0  0  0  0  0  0  0  0  0  0
   -2.2416    1.5423   -0.3033 O   0  0  0  0  0  0  0  0  0  0  0  0
   -0.6927    1.7304    1.3223 N   0  0  0  0  0  0  0  0  0  0  0  0
    0.0178    1.2410    1.8469 H   0  0  0  0  0  0  0  0  0  0  0  0
   -0.8259    3.1712    1.5254 C   0  0  0  0  0  0  0  0  0  0  0  0
   -1.8769    3.4302    1.6645 H   0  0  0  0  0  0  0  0  0  0  0  0
   -0.2598    3.4806    2.4054 H   0  0  0  0  0  0  0  0  0  0  0  0
   -0.4486    3.7020    0.6489 H   0  0  0  0  0  0  0  0  0  0  0  0
  5  6  2  0  0  0  0
  5  7  1  0  0  0  0
  2  3  1  0  0  0  0
  2  4  1  0  0  0  0
  2  5  1  0  0  0  0
  1  2  1  0  0  0  0
 26 27  2  0  0  0  0
 26 28  1  0  0  0  0
 24 25  1  0  0  0  0
 22 23  1  0  0  0  0
 22 24  2  0  0  0  0
 20 21  1  0  0  0  0
 19 20  1  0  0  0  0
 19 22  1  0  0  0  0
 17 18  1  0  0  0  0
 17 19  2  0  0  0  0
 15 16  1  0  0  0  0
 15 17  1  0  0  0  0
 14 15  2  0  0  0  0
 14 24  1  0  0  0  0
 11 12  1  0  0  0  0
 11 13  1  0  0  0  0
 11 14  1  0  0  0  0
  9 10  1  0  0  0  0
  9 11  1  0  0  0  0
  9 26  1  0  0  0  0
  7  8  1  0  0  0  0
  7  9  1  0  0  0  0
 30 31  1  0  0  0  0
 30 32  1  0  0  0  0
 30 33  1  0  0  0  0
 28 29  1  0  0  0  0
 28 30  1  0  0  0  0
M  END
$$$$
default_name
  -OEChem-02102213163D

 33 33  0     1  0  0  0  0  0999 V2000
   -4.0702   -3.8485    1.4554 H   0  0  0  0  0  0  0  0  0  0  0  0
   -4.0012   -2.9605    0.8284 C   0  0  0  0  0  0  0  0  0  0  0  0
   -4.7652   -2.2435    1.1234 H   0  0  0  0  0  0  0  0  0  0  0  0
   -4.1352   -3.2385   -0.2156 H   0  0  0  0  0  0  0  0  0  0  0  0
   -2.6362   -2.3395    1.0094 C   0  0  0  0  0  0  0  0  0  0  0  0
   -1.8292   -2.8395    1.7814 O   0  0  0  0  0  0  0  0  0  0  0  0
   -2.3832   -1.2445    0.2964 N   0  0  0  0  0  0  0  0  0  0  0  0
   -3.1102   -0.8685   -0.2946 H   0  0  0  0  0  0  0  0  0  0  0  0
   -1.1292   -0.4875    0.3524 C   0  0  1  0  0  0  0  0  0  0  0  0
   -0.5898   -0.7762    1.2552 H   0  0  0  0  0  0  0  0  0  0  0  0
   -0.2608   -0.8470   -0.8656 C   0  0  0  0  0  0  0  0  0  0  0  0
   -0.7992   -0.5800   -1.7759 H   0  0  0  0  0  0  0  0  0  0  0  0
    0.6515   -0.2488   -0.8380 H   0  0  0  0  0  0  0  0  0  0  0  0
    0.1047   -2.3164   -0.9487 C   0  0  0  0  0  0  0  0  0  0  0  0
    1.0853   -2.8552   -0.0917 C   0  0  0  0  0  0  0  0  0  0  0  0
    1.6002   -2.2144    0.6121 H   0  0  0  0  0  0  0  0  0  0  0  0
    1.3923   -4.2288   -0.1449 C   0  0  0  0  0  0  0  0  0  0  0  0
    2.1448   -4.6376    0.5117 H   0  0  0  0  0  0  0  0  0  0  0  0
    0.7133   -5.0669   -1.0560 C   0  0  0  0  0  0  0  0  0  0  0  0
    1.0001   -6.3934   -1.1131 O   0  0  0  0  0  0  0  0  0  0  0  0
    1.7421   -6.6268   -0.5537 H   0  0  0  0  0  0  0  0  0  0  0  0
   -0.2711   -4.5270   -1.9094 C   0  0  0  0  0  0  0  0  0  0  0  0
   -0.7803   -5.1772   -2.6048 H   0  0  0  0  0  0  0  0  0  0  0  0
   -0.5725   -3.1528   -1.8570 C   0  0  0  0  0  0  0  0  0  0  0  0
   -1.3224   -2.7370   -2.5195 H   0  0  0  0  0  0  0  0  0  0  0  0
   -1.4018    1.0238    0.4329 C   0  0  0  0  0  0  0  0  0  0  0  0
   -2.2416    1.5423   -0.3033 O   0  0  0  0  0  0  0  0  0  0  0  0
   -0.6927    1.7304    1.3223 N   0  0  0  0  0  0  0  0  0  0  0  0
    0.0178    1.2410    1.8469 H   0  0  0  0  0  0  0  0  0  0  0  0
   -0.8259    3.1712    1.5254 C   0  0  0  0  0  0  0  0  0  0  0  0
   -1.8769    3.4302    1.6645 H   0  0  0  0  0  0  0  0  0  0  0  0
   -0.2598    3.4806    2.4054 H   0  0  0  0  0  0  0  0  0  0  0  0
   -0.4486    3.7020    0.6489 H   0  0  0  0  0  0  0  0  0  0  0  0
  5  6  2  0  0  0  0
  5  7  1  0  0  0  0
  2  3  1  0  0  0  0
  2  4  1  0  0  0  0
  2  5  1  0  0  0  0
  1  2  1  0  0  0  0
 26 27  2  0  0  0  0
 26 28  1  0  0  0  0
 24 25  1  0  0  0  0
 22 23  1  0  0  0  0
 22 24  2  0  0  0  0
 20 21  1  0  0  0  0
 19 20  1  0  0  0  0
 19 22  1  0  0  0  0
 17 18  1  0  0  0  0
 17 19  2  0  0  0  0
 15 16  1  0  0  0  0
 15 17  1  0  0  0  0
 14 15  2  0  0  0  0
 14 24  1  0  0  0  0
 11 12  1  0  0  0  0
 11 13  1  0  0  0  0
 11 14  1  0  0  0  0
  9 10  1  0  0  0  0
  9 11  1  0  0  0  0
  9 26  1  0  0  0  0
  7  8  1  0  0  0  0
  7  9  1  0  0  0  0
 30 31  1  0  0  0  0
 30 32  1  0  0  0  0
 30 33  1  0  0  0  0
 28 29  1  0  0  0  0
 28 30  1  0  0  0  0
M  END
$$$$
default_name
  -OEChem-02102213163D

 33 33  0     1  0  0  0  0  0999 V2000
   -4.0702   -3.8485    1.4554 H   0  0  0  0  0  0  0  0  0  0  0  0
   -4.0012   -2.9605    0.8284 C   0  0  0  0  0  0  0  0  0  0  0  0
   -4.7652   -2.2435    1.1234 H   0  0  0  0  0  0  0  0  0  0  0  0
   -4.1352   -3.2385   -0.2156 H   0  0  0  0  0  0  0  0  0  0  0  0
   -2.6362   -2.3395    1.0094 C   0  0  0  0  0  0  0  0  0  0  0  0
   -1.8292   -2.8395    1.7814 O   0  0  0  0  0  0  0  0  0  0  0  0
   -2.3832   -1.2445    0.2964 N   0  0  0  0  0  0  0  0  0  0  0  0
   -3.1102   -0.8685   -0.2946 H   0  0  0  0  0  0  0  0  0  0  0  0
   -1.1292   -0.4875    0.3524 C   0  0  1  0  0  0  0  0  0  0  0  0
   -0.5898   -0.7762    1.2552 H   0  0  0  0  0  0  0  0  0  0  0  0
   -0.2608   -0.8470   -0.8656 C   0  0  0  0  0  0  0  0  0  0  0  0
   -0.7992   -0.5800   -1.7759 H   0  0  0  0  0  0  0  0  0  0  0  0
    0.6515   -0.2488   -0.8380 H   0  0  0  0  0  0  0  0  0  0  0  0
    0.1047   -2.3164   -0.9487 C   0  0  0  0  0  0  0  0  0  0  0  0
    0.8351   -2.9277    0.0901 C   0  0  0  0  0  0  0  0  0  0  0  0
    1.1607   -2.3423    0.9400 H   0  0  0  0  0  0  0  0  0  0  0  0
    1.1371   -4.3020    0.0274 C   0  0  0  0  0  0  0  0  0  0  0  0
    1.6980   -4.7664    0.8238 H   0  0  0  0  0  0  0  0  0  0  0  0
    0.7036   -5.0681   -1.0766 C   0  0  0  0  0  0  0  0  0  0  0  0
    0.9872   -6.3947   -1.1450 O   0  0  0  0  0  0  0  0  0  0  0  0
    1.5634   -6.6780   -0.4339 H   0  0  0  0  0  0  0  0  0  0  0  0
   -0.0315   -4.4559   -2.1128 C   0  0  0  0  0  0  0  0  0  0  0  0
   -0.3536   -5.0513   -2.9537 H   0  0  0  0  0  0  0  0  0  0  0  0
   -0.3278   -3.0810   -2.0494 C   0  0  0  0  0  0  0  0  0  0  0  0
   -0.8846   -2.6094   -2.8503 H   0  0  0  0  0  0  0  0  0  0  0  0
   -1.4018    1.0238    0.4329 C   0  0  0  0  0  0  0  0  0  0  0  0
   -2.2416    1.5423   -0.3033 O   0  0  0  0  0  0  0  0  0  0  0  0
   -0.6927    1.7304    1.3223 N   0  0  0  0  0  0  0  0  0  0  0  0
    0.0178    1.2410    1.8469 H   0  0  0  0  0  0  0  0  0  0  0  0
   -0.8259    3.1712    1.5254 C   0  0  0  0  0  0  0  0  0  0  0  0
   -1.8769    3.4302    1.6645 H   0  0  0  0  0  0  0  0  0  0  0  0
   -0.2598    3.4806    2.4054 H   0  0  0  0  0  0  0  0  0  0  0  0
   -0.4486    3.7020    0.6489 H   0  0  0  0  0  0  0  0  0  0  0  0
  5  6  2  0  0  0  0
  5  7  1  0  0  0  0
  2  3  1  0  0  0  0
  2  4  1  0  0  0  0
  2  5  1  0  0  0  0
  1  2  1  0  0  0  0
 26 27  2  0  0  0  0
 26 28  1  0  0  0  0
 24 25  1  0  0  0  0
 22 23  1  0  0  0  0
 22 24  2  0  0  0  0
 20 21  1  0  0  0  0
 19 20  1  0  0  0  0
 19 22  1  0  0  0  0
 17 18  1  0  0  0  0
 17 19  2  0  0  0  0
 15 16  1  0  0  0  0
 15 17  1  0  0  0  0
 14 15  2  0  0  0  0
 14 24  1  0  0  0  0
 11 12  1  0  0  0  0
 11 13  1  0  0  0  0
 11 14  1  0  0  0  0
  9 10  1  0  0  0  0
  9 11  1  0  0  0  0
  9 26  1  0  0  0  0
  7  8  1  0  0  0  0
  7  9  1  0  0  0  0
 30 31  1  0  0  0  0
 30 32  1  0  0  0  0
 30 33  1  0  0  0  0
 28 29  1  0  0  0  0
 28 30  1  0  0  0  0
M  END
$$$$
default_name
  -OEChem-02102213163D

 33 33  0     1  0  0  0  0  0999 V2000
   -4.0702   -3.8485    1.4554 H   0  0  0  0  0  0  0  0  0  0  0  0
   -4.0012   -2.9605    0.8284 C   0  0  0  0  0  0  0  0  0  0  0  0
   -4.7652   -2.2435    1.1234 H   0  0  0  0  0  0  0  0  0  0  0  0
   -4.1352   -3.2385   -0.2156 H   0  0  0  0  0  0  0  0  0  0  0  0
   -2.6362   -2.3395    1.0094 C   0  0  0  0  0  0  0  0  0  0  0  0
   -1.8292   -2.8395    1.7814 O   0  0  0  0  0  0  0  0  0  0  0  0
   -2.3832   -1.2445    0.2964 N   0  0  0  0  0  0  0  0  0  0  0  0
   -3.1102   -0.8685   -0.2946 H   0  0  0  0  0  0  0  0  0  0  0  0
   -1.1292   -0.4875    0.3524 C   0  0  1  0  0  0  0  0  0  0  0  0
   -0.5898   -0.7762    1.2552 H   0  0  0  0  0  0  0  0  0  0  0  0
   -0.2608   -0.8470   -0.8656 C   0  0  0  0  0  0  0  0  0  0  0  0
   -0.7992   -0.5800   -1.7759 H   0  0  0  0  0  0  0  0  0  0  0  0
    0.6515   -0.2488   -0.8380 H   0  0  0  0  0  0  0  0  0  0  0  0
    0.1047   -2.3164   -0.9487 C   0  0  0  0  0  0  0  0  0  0  0  0
    0.5469   -3.0055    0.1985 C   0  0  0  0  0  0  0  0  0  0  0  0
    0.6521   -2.4800    1.1386 H   0  0  0  0  0  0  0  0  0  0  0  0
    0.8464   -4.3798    0.1252 C   0  0  0  0  0  0  0  0  0  0  0  0
    1.1863   -4.9039    1.0052 H   0  0  0  0  0  0  0  0  0  0  0  0
    0.6994   -5.0679   -1.0989 C   0  0  0  0  0  0  0  0  0  0  0  0
    0.9828   -6.3939   -1.1792 O   0  0  0  0  0  0  0  0  0  0  0  0
    1.3601   -6.7324   -0.3661 H   0  0  0  0  0  0  0  0  0  0  0  0
    0.2521   -4.3779   -2.2446 C   0  0  0  0  0  0  0  0  0  0  0  0
    0.1478   -4.9140   -3.1759 H   0  0  0  0  0  0  0  0  0  0  0  0
   -0.0421   -3.0032   -2.1693 C   0  0  0  0  0  0  0  0  0  0  0  0
   -0.3769   -2.4717   -3.0522 H   0  0  0  0  0  0  0  0  0  0  0  0
   -1.4018    1.0238    0.4329 C   0  0  0  0  0  0  0  0  0  0  0  0
   -2.2416    1.5423   -0.3033 O   0  0  0  0  0  0  0  0  0  0  0  0
   -0.6927    1.7304    1.3223 N   0  0  0  0  0  0  0  0  0  0  0  0
    0.0178    1.2410    1.8469 H   0  0  0  0  0  0  0  0  0  0  0  0
   -0.8259    3.1712    1.5254 C   0  0  0  0  0  0  0  0  0  0  0  0
   -1.8769    3.4302    1.6645 H   0  0  0  0  0  0  0  0  0  0  0  0
   -0.2598    3.4806    2.4054 H   0  0  0  0  0  0  0  0  0  0  0  0
   -0.4486    3.7020    0.6489 H   0  0  0  0  0  0  0  0  0  0  0  0
  5  6  2  0  0  0  0
  5  7  1  0  0  0  0
  2  3  1  0  0  0  0
  2  4  1  0  0  0  0
  2  5  1  0  0  0  0
  1  2  1  0  0  0  0
 26 27  2  0  0  0  0
 26 28  1  0  0  0  0
 24 25  1  0  0  0  0
 22 23  1  0  0  0  0
 22 24  2  0  0  0  0
 20 21  1  0  0  0  0
 19 20  1  0  0  0  0
 19 22  1  0  0  0  0
 17 18  1  0  0  0  0
 17 19  2  0  0  0  0
 15 16  1  0  0  0  0
 15 17  1  0  0  0  0
 14 15  2  0  0  0  0
 14 24  1  0  0  0  0
 11 12  1  0  0  0  0
 11 13  1  0  0  0  0
 11 14  1  0  0  0  0
  9 10  1  0  0  0  0
  9 11  1  0  0  0  0
  9 26  1  0  0  0  0
  7  8  1  0  0  0  0
  7  9  1  0  0  0  0
 30 31  1  0  0  0  0
 30 32  1  0  0  0  0
 30 33  1  0  0  0  0
 28 29  1  0  0  0  0
 28 30  1  0  0  0  0
M  END
$$$$
default_name
  -OEChem-02102213163D

 33 33  0     1  0  0  0  0  0999 V2000
   -4.0702   -3.8485    1.4554 H   0  0  0  0  0  0  0  0  0  0  0  0
   -4.0012   -2.9605    0.8284 C   0  0  0  0  0  0  0  0  0  0  0  0
   -4.7652   -2.2435    1.1234 H   0  0  0  0  0  0  0  0  0  0  0  0
   -4.1352   -3.2385   -0.2156 H   0  0  0  0  0  0  0  0  0  0  0  0
   -2.6362   -2.3395    1.0094 C   0  0  0  0  0  0  0  0  0  0  0  0
   -1.8292   -2.8395    1.7814 O   0  0  0  0  0  0  0  0  0  0  0  0
   -2.3832   -1.2445    0.2964 N   0  0  0  0  0  0  0  0  0  0  0  0
   -3.1102   -0.8685   -0.2946 H   0  0  0  0  0  0  0  0  0  0  0  0
   -1.1292   -0.4875    0.3524 C   0  0  1  0  0  0  0  0  0  0  0  0
   -0.5898   -0.7762    1.2552 H   0  0  0  0  0  0  0  0  0  0  0  0
   -0.2608   -0.8470   -0.8656 C   0  0  0  0  0  0  0  0  0  0  0  0
   -0.7992   -0.5800   -1.7759 H   0  0  0  0  0  0  0  0  0  0  0  0
    0.6515   -0.2488   -0.8380 H   0  0  0  0  0  0  0  0  0  0  0  0
    0.1047   -2.3164   -0.9487 C   0  0  0  0  0  0  0  0  0  0  0  0
    0.2402   -3.0833    0.2260 C   0  0  0  0  0  0  0  0  0  0  0  0
    0.1091   -2.6182    1.1942 H   0  0  0  0  0  0  0  0  0  0  0  0
    0.5400   -4.4570    0.1420 C   0  0  0  0  0  0  0  0  0  0  0  0
    0.6446   -5.0408    1.0435 H   0  0  0  0  0  0  0  0  0  0  0  0
    0.7009   -5.0662   -1.1215 C   0  0  0  0  0  0  0  0  0  0  0  0
    0.9872   -6.3909   -1.2132 O   0  0  0  0  0  0  0  0  0  0  0  0
    1.1460   -6.7863   -0.3551 H   0  0  0  0  0  0  0  0  0  0  0  0
    0.5601   -4.2983   -2.2960 C   0  0  0  0  0  0  0  0  0  0  0  0
    0.6898   -4.7747   -3.2562 H   0  0  0  0  0  0  0  0  0  0  0  0
    0.2650   -2.9246   -2.2087 C   0  0  0  0  0  0  0  0  0  0  0  0
    0.1661   -2.3333   -3.1112 H   0  0  0  0  0  0  0  0  0  0  0  0
   -1.4018    1.0238    0.4329 C   0  0  0  0  0  0  0  0  0  0  0  0
   -2.2416    1.5423   -0.3033 O   0  0  0  0  0  0  0  0  0  0  0  0
   -0.6927    1.7304    1.3223 N   0  0  0  0  0  0  0  0  0  0  0  0
    0.0178    1.2410    1.8469 H   0  0  0  0  0  0  0  0  0  0  0  0
   -0.8259    3.1712    1.5254 C   0  0  0  0  0  0  0  0  0  0  0  0
   -1.8769    3.4302    1.6645 H   0  0  0  0  0  0  0  0  0  0  0  0
   -0.2598    3.4806    2.4054 H   0  0  0  0  0  0  0  0  0  0  0  0
   -0.4486    3.7020    0.6489 H   0  0  0  0  0  0  0  0  0  0  0  0
  5  6  2  0  0  0  0
  5  7  1  0  0  0  0
  2  3  1  0  0  0  0
  2  4  1  0  0  0  0
  2  5  1  0  0  0  0
  1  2  1  0  0  0  0
 26 27  2  0  0  0  0
 26 28  1  0  0  0  0
 24 25  1  0  0  0  0
 22 23  1  0  0  0  0
 22 24  2  0  0  0  0
 20 21  1  0  0  0  0
 19 20  1  0  0  0  0
 19 22  1  0  0  0  0
 17 18  1  0  0  0  0
 17 19  2  0  0  0  0
 15 16  1  0  0  0  0
 15 17  1  0  0  0  0
 14 15  2  0  0  0  0
 14 24  1  0  0  0  0
 11 12  1  0  0  0  0
 11 13  1  0  0  0  0
 11 14  1  0  0  0  0
  9 10  1  0  0  0  0
  9 11  1  0  0  0  0
  9 26  1  0  0  0  0
  7  8  1  0  0  0  0
  7  9  1  0  0  0  0
 30 31  1  0  0  0  0
 30 32  1  0  0  0  0
 30 33  1  0  0  0  0
 28 29  1  0  0  0  0
 28 30  1  0  0  0  0
M  END
$$$$
default_name
  -OEChem-02102213163D

 33 33  0     1  0  0  0  0  0999 V2000
   -4.0702   -3.8485    1.4554 H   0  0  0  0  0  0  0  0  0  0  0  0
   -4.0012   -2.9605    0.8284 C   0  0  0  0  0  0  0  0  0  0  0  0
   -4.7652   -2.2435    1.1234 H   0  0  0  0  0  0  0  0  0  0  0  0
   -4.1352   -3.2385   -0.2156 H   0  0  0  0  0  0  0  0  0  0  0  0
   -2.6362   -2.3395    1.0094 C   0  0  0  0  0  0  0  0  0  0  0  0
   -1.8292   -2.8395    1.7814 O   0  0  0  0  0  0  0  0  0  0  0  0
   -2.3832   -1.2445    0.2964 N   0  0  0  0  0  0  0  0  0  0  0  0
   -3.1102   -0.8685   -0.2946 H   0  0  0  0  0  0  0  0  0  0  0  0
   -1.1292   -0.4875    0.3524 C   0  0  1  0  0  0  0  0  0  0  0  0
   -0.5898   -0.7762    1.2552 H   0  0  0  0  0  0  0  0  0  0  0  0
   -0.2608   -0.8470   -0.8656 C   0  0  0  0  0  0  0  0  0  0  0  0
   -0.7992   -0.5800   -1.7759 H   0  0  0  0  0  0  0  0  0  0  0  0
    0.6515   -0.2488   -0.8380 H   0  0  0  0  0  0  0  0  0  0  0  0
    0.1047   -2.3164   -0.9487 C   0  0  0  0  0  0  0  0  0  0  0  0
   -0.0640   -3.1559    0.1708 C   0  0  0  0  0  0  0  0  0  0  0  0
   -0.4313   -2.7475    1.1032 H   0  0  0  0  0  0  0  0  0  0  0  0
    0.2386   -4.5282    0.0765 C   0  0  0  0  0  0  0  0  0  0  0  0
    0.1098   -5.1678    0.9361 H   0  0  0  0  0  0  0  0  0  0  0  0
    0.7081   -5.0632   -1.1429 C   0  0  0  0  0  0  0  0  0  0  0  0
    1.0000   -6.3859   -1.2449 O   0  0  0  0  0  0  0  0  0  0  0  0
    0.9356   -6.8360   -0.4015 H   0  0  0  0  0  0  0  0  0  0  0  0
    0.8716   -4.2227   -2.2635 C   0  0  0  0  0  0  0  0  0  0  0  0
    1.2355   -4.6427   -3.1891 H   0  0  0  0  0  0  0  0  0  0  0  0
    0.5726   -2.8505   -2.1648 C   0  0  0  0  0  0  0  0  0  0  0  0
    0.7073   -2.2036   -3.0235 H   0  0  0  0  0  0  0  0  0  0  0  0
   -1.4018    1.0238    0.4329 C   0  0  0  0  0  0  0  0  0  0  0  0
   -2.2416    1.5423   -0.3033 O   0  0  0  0  0  0  0  0  0  0  0  0
   -0.6927    1.7304    1.3223 N   0  0  0  0  0  0  0  0  0  0  0  0
    0.0178    1.2410    1.8469 H   0  0  0  0  0  0  0  0  0  0  0  0
   -0.8259    3.1712    1.5254 C   0  0  0  0  0  0  0  0  0  0  0  0
   -1.8769    3.4302    1.6645 H   0  0  0  0  0  0  0  0  0  0  0  0
   -0.2598    3.4806    2.4054 H   0  0  0  0  0  0  0  0  0  0  0  0
   -0.4486    3.7020    0.6489 H   0  0  0  0  0  0  0  0  0  0  0  0
  5  6  2  0  0  0  0
  5  7  1  0  0  0  0
  2  3  1  0  0  0  0
  2  4  1  0  0  0  0
  2  5  1  0  0  0  0
  1  2  1  0  0  0  0
 26 27  2  0  0  0  0
 26 28  1  0  0  0  0
 24 25  1  0  0  0  0
 22 23  1  0  0  0  0
 22 24  2  0  0  0  0
 20 21  1  0  0  0  0
 19 20  1  0  0  0  0
 19 22  1  0  0  0  0
 17 18  1  0  0  0  0
 17 19  2  0  0  0  0
 15 16  1  0  0  0  0
 15 17  1  0  0  0  0
 14 15  2  0  0  0  0
 14 24  1  0  0  0  0
 11 12  1  0  0  0  0
 11 13  1  0  0  0  0
 11 14  1  0  0  0  0
  9 10  1  0  0  0  0
  9 11  1  0  0  0  0
  9 26  1  0  0  0  0
  7  8  1  0  0  0  0
  7  9  1  0  0  0  0
 30 31  1  0  0  0  0
 30 32  1  0  0  0  0
 30 33  1  0  0  0  0
 28 29  1  0  0  0  0
 28 30  1  0  0  0  0
M  END
$$$$
default_name
  -OEChem-02102213163D

 33 33  0     1  0  0  0  0  0999 V2000
   -4.0702   -3.8485    1.4554 H   0  0  0  0  0  0  0  0  0  0  0  0
   -4.0012   -2.9605    0.8284 C   0  0  0  0  0  0  0  0  0  0  0  0
   -4.7652   -2.2435    1.1234 H   0  0  0  0  0  0  0  0  0  0  0  0
   -4.1352   -3.2385   -0.2156 H   0  0  0  0  0  0  0  0  0  0  0  0
   -2.6362   -2.3395    1.0094 C   0  0  0  0  0  0  0  0  0  0  0  0
   -1.8292   -2.8395    1.7814 O   0  0  0  0  0  0  0  0  0  0  0  0
   -2.3832   -1.2445    0.2964 N   0  0  0  0  0  0  0  0  0  0  0  0
   -3.1102   -0.8685   -0.2946 H   0  0  0  0  0  0  0  0  0  0  0  0
   -1.1292   -0.4875    0.3524 C   0  0  1  0  0  0  0  0  0  0  0  0
   -0.5898   -0.7762    1.2552 H   0  0  0  0  0  0  0  0  0  0  0  0
   -0.2608   -0.8470   -0.8656 C   0  0  0  0  0  0  0  0  0  0  0  0
   -0.7992   -0.5800   -1.7759 H   0  0  0  0  0  0  0  0  0  0  0  0
    0.6515   -0.2488   -0.8380 H   0  0  0  0  0  0  0  0  0  0  0  0
    0.1047   -2.3164   -0.9487 C   0  0  0  0  0  0  0  0  0  0  0  0
   -0.3451   -3.2182    0.0366 C   0  0  0  0  0  0  0  0  0  0  0  0
   -0.9323   -2.8590    0.8716 H   0  0  0  0  0  0  0  0  0  0  0  0
   -0.0370   -4.5887   -0.0667 C   0  0  0  0  0  0  0  0  0  0  0  0
   -0.3817   -5.2761    0.6904 H   0  0  0  0  0  0  0  0  0  0  0  0
    0.7204   -5.0591   -1.1616 C   0  0  0  0  0  0  0  0  0  0  0  0
    1.0203   -6.3793   -1.2719 O   0  0  0  0  0  0  0  0  0  0  0  0
    0.7433   -6.8781   -0.5022 H   0  0  0  0  0  0  0  0  0  0  0  0
    1.1655   -4.1561   -2.1492 C   0  0  0  0  0  0  0  0  0  0  0  0
    1.7476   -4.5272   -2.9792 H   0  0  0  0  0  0  0  0  0  0  0  0
    0.8598   -2.7861   -2.0406 C   0  0  0  0  0  0  0  0  0  0  0  0
    1.2100   -2.0915   -2.7949 H   0  0  0  0  0  0  0  0  0  0  0  0
   -1.4018    1.0238    0.4329 C   0  0  0  0  0  0  0  0  0  0  0  0
   -2.2416    1.5423   -0.3033 O   0  0  0  0  0  0  0  0  0  0  0  0
   -0.6927    1.7304    1.3223 N   0  0  0  0  0  0  0  0  0  0  0  0
    0.0178    1.2410    1.8469 H   0  0  0  0  0  0  0  0  0  0  0  0
   -0.8259    3.1712    1.5254 C   0  0  0  0  0  0  0  0  0  0  0  0
   -1.8769    3.4302    1.6645 H   0  0  0  0  0  0  0  0  0  0  0  0
   -0.2598    3.4806    2.4054 H   0  0  0  0  0  0  0  0  0  0  0  0
   -0.4486    3.7020    0.6489 H   0  0  0  0  0  0  0  0  0  0  0  0
  5  6  2  0  0  0  0
  5  7  1  0  0  0  0
  2  3  1  0  0  0  0
  2  4  1  0  0  0  0
  2  5  1  0  0  0  0
  1  2  1  0  0  0  0
 26 27  2  0  0  0  0
 26 28  1  0  0  0  0
 24 25  1  0  0  0  0
 22 23  1  0  0  0  0
 22 24  2  0  0  0  0
 20 21  1  0  0  0  0
 19 20  1  0  0  0  0
 19 22  1  0  0  0  0
 17 18  1  0  0  0  0
 17 19  2  0  0  0  0
 15 16  1  0  0  0  0
 15 17  1  0  0  0  0
 14 15  2  0  0  0  0
 14 24  1  0  0  0  0
 11 12  1  0  0  0  0
 11 13  1  0  0  0  0
 11 14  1  0  0  0  0
  9 10  1  0  0  0  0
  9 11  1  0  0  0  0
  9 26  1  0  0  0  0
  7  8  1  0  0  0  0
  7  9  1  0  0  0  0
 30 31  1  0  0  0  0
 30 32  1  0  0  0  0
 30 33  1  0  0  0  0
 28 29  1  0  0  0  0
 28 30  1  0  0  0  0
M  END
$$$$
default_name
  -OEChem-02102213163D

 33 33  0     1  0  0  0  0  0999 V2000
   -4.0702   -3.8485    1.4554 H   0  0  0  0  0  0  0  0  0  0  0  0
   -4.0012   -2.9605    0.8284 C   0  0  0  0  0  0  0  0  0  0  0  0
   -4.7652   -2.2435    1.1234 H   0  0  0  0  0  0  0  0  0  0  0  0
   -4.1352   -3.2385   -0.2156 H   0  0  0  0  0  0  0  0  0  0  0  0
   -2.6362   -2.3395    1.0094 C   0  0  0  0  0  0  0  0  0  0  0  0
   -1.8292   -2.8395    1.7814 O   0  0  0  0  0  0  0  0  0  0  0  0
   -2.3832   -1.2445    0.2964 N   0  0  0  0  0  0  0  0  0  0  0  0
   -3.1102   -0.8685   -0.2946 H   0  0  0  0  0  0  0  0  0  0  0  0
   -1.1292   -0.4875    0.3524 C   0  0  1  0  0  0  0  0  0  0  0  0
   -0.5898   -0.7762    1.2552 H   0  0  0  0  0  0  0  0  0  0  0  0
   -0.2608   -0.8470   -0.8656 C   0  0  0  0  0  0  0  0  0  0  0  0
   -0.7992   -0.5800   -1.7759 H   0  0  0  0  0  0  0  0  0  0  0  0
    0.6515   -0.2488   -0.8380 H   0  0  0  0  0  0  0  0  0  0  0  0
    0.1047   -2.3164   -0.9487 C   0  0  0  0  0  0  0  0  0  0  0  0
   -0.5838   -3.2660   -0.1673 C   0  0  0  0  0  0  0  0  0  0  0  0
   -1.3597   -2.9451    0.5154 H   0  0  0  0  0  0  0  0  0  0  0  0
   -0.2682   -4.6342   -0.2780 C   0  0  0  0  0  0  0  0  0  0  0  0
   -0.7963   -5.3585    0.3230 H   0  0  0  0  0  0  0  0  0  0  0  0
    0.7371   -5.0542   -1.1762 C   0  0  0  0  0  0  0  0  0  0  0  0
    1.0468   -6.3716   -1.2925 O   0  0  0  0  0  0  0  0  0  0  0  0
    0.5822   -6.9098   -0.6503 H   0  0  0  0  0  0  0  0  0  0  0  0
    1.4216   -4.1030   -1.9609 C   0  0  0  0  0  0  0  0  0  0  0  0
    2.1912   -4.4360   -2.6408 H   0  0  0  0  0  0  0  0  0  0  0  0
    1.1070   -2.7357   -1.8446 C   0  0  0  0  0  0  0  0  0  0  0  0
    1.6397   -2.0046   -2.4410 H   0  0  0  0  0  0  0  0  0  0  0  0
   -1.4018    1.0238    0.4329 C   0  0  0  0  0  0  0  0  0  0  0  0
   -2.2416    1.5423   -0.3033 O   0  0  0  0  0  0  0  0  0  0  0  0
   -0.6927    1.7304    1.3223 N   0  0  0  0  0  0  0  0  0  0  0  0
    0.0178    1.2410    1.8469 H   0  0  0  0  0  0  0  0  0  0  0  0
   -0.8259    3.1712    1.5254 C   0  0  0  0  0  0  0  0  0  0  0  0
   -1.8769    3.4302    1.6645 H   0  0  0  0  0  0  0  0  0  0  0  0
   -0.2598    3.4806    2.4054 H   0  0  0  0  0  0  0  0  0  0  0  0
   -0.4486    3.7020    0.6489 H   0  0  0  0  0  0  0  0  0  0  0  0
  5  6  2  0  0  0  0
  5  7  1  0  0  0  0
  2  3  1  0  0  0  0
  2  4  1  0  0  0  0
  2  5  1  0  0  0  0
  1  2  1  0  0  0  0
 26 27  2  0  0  0  0
 26 28  1  0  0  0  0
 24 25  1  0  0  0  0
 22 23  1  0  0  0  0
 22 24  2  0  0  0  0
 20 21  1  0  0  0  0
 19 20  1  0  0  0  0
 19 22  1  0  0  0  0
 17 18  1  0  0  0  0
 17 19  2  0  0  0  0
 15 16  1  0  0  0  0
 15 17  1  0  0  0  0
 14 15  2  0  0  0  0
 14 24  1  0  0  0  0
 11 12  1  0  0  0  0
 11 13  1  0  0  0  0
 11 14  1  0  0  0  0
  9 10  1  0  0  0  0
  9 11  1  0  0  0  0
  9 26  1  0  0  0  0
  7  8  1  0  0  0  0
  7  9  1  0  0  0  0
 30 31  1  0  0  0  0
 30 32  1  0  0  0  0
 30 33  1  0  0  0  0
 28 29  1  0  0  0  0
 28 30  1  0  0  0  0
M  END
$$$$
default_name
  -OEChem-02102213163D

 33 33  0     1  0  0  0  0  0999 V2000
   -4.0702   -3.8485    1.4554 H   0  0  0  0  0  0  0  0  0  0  0  0
   -4.0012   -2.9605    0.8284 C   0  0  0  0  0  0  0  0  0  0  0  0
   -4.7652   -2.2435    1.1234 H   0  0  0  0  0  0  0  0  0  0  0  0
   -4.1352   -3.2385   -0.2156 H   0  0  0  0  0  0  0  0  0  0  0  0
   -2.6362   -2.3395    1.0094 C   0  0  0  0  0  0  0  0  0  0  0  0
   -1.8292   -2.8395    1.7814 O   0  0  0  0  0  0  0  0  0  0  0  0
   -2.3832   -1.2445    0.2964 N   0  0  0  0  0  0  0  0  0  0  0  0
   -3.1102   -0.8685   -0.2946 H   0  0  0  0  0  0  0  0  0  0  0  0
   -1.1292   -0.4875    0.3524 C   0  0  1  0  0  0  0  0  0  0  0  0
   -0.5898   -0.7762    1.2552 H   0  0  0  0  0  0  0  0  0  0  0  0
   -0.2608   -0.8470   -0.8656 C   0  0  0  0  0  0  0  0  0  0  0  0
   -0.7992   -0.5800   -1.7759 H   0  0  0  0  0  0  0  0  0  0  0  0
    0.6515   -0.2488   -0.8380 H   0  0  0  0  0  0  0  0  0  0  0  0
    0.1047   -2.3164   -0.9487 C   0  0  0  0  0  0  0  0  0  0  0  0
   -0.7639   -3.2962   -0.4272 C   0  0  0  0  0  0  0  0  0  0  0  0
   -1.6844   -3.0001    0.0587 H   0  0  0  0  0  0  0  0  0  0  0  0
   -0.4391   -4.6618   -0.5429 C   0  0  0  0  0  0  0  0  0  0  0  0
   -1.1058   -5.4092   -0.1411 H   0  0  0  0  0  0  0  0  0  0  0  0
    0.7569   -5.0487   -1.1859 C   0  0  0  0  0  0  0  0  0  0  0  0
    1.0777   -6.3632   -1.3052 O   0  0  0  0  0  0  0  0  0  0  0  0
    0.4633   -6.9289   -0.8357 H   0  0  0  0  0  0  0  0  0  0  0  0
    1.6225   -4.0671   -1.7115 C   0  0  0  0  0  0  0  0  0  0  0  0
    2.5362   -4.3753   -2.1971 H   0  0  0  0  0  0  0  0  0  0  0  0
    1.2973   -2.7028   -1.5902 C   0  0  0  0  0  0  0  0  0  0  0  0
    1.9673   -1.9489   -1.9860 H   0  0  0  0  0  0  0  0  0  0  0  0
   -1.4018    1.0238    0.4329 C   0  0  0  0  0  0  0  0  0  0  0  0
   -2.2416    1.5423   -0.3033 O   0  0  0  0  0  0  0  0  0  0  0  0
   -0.6927    1.7304    1.3223 N   0  0  0  0  0  0  0  0  0  0  0  0
    0.0178    1.2410    1.8469 H   0  0  0  0  0  0  0  0  0  0  0  0
   -0.8259    3.1712    1.5254 C   0  0  0  0  0  0  0  0  0  0  0  0
   -1.8769    3.4302    1.6645 H   0  0  0  0  0  0  0  0  0  0  0  0
   -0.2598    3.4806    2.4054 H   0  0  0  0  0  0  0  0  0  0  0  0
   -0.4486    3.7020    0.6489 H   0  0  0  0  0  0  0  0  0  0  0  0
  5  6  2  0  0  0  0
  5  7  1  0  0  0  0
  2  3  1  0  0  0  0
  2  4  1  0  0  0  0
  2  5  1  0  0  0  0
  1  2  1  0  0  0  0
 26 27  2  0  0  0  0
 26 28  1  0  0  0  0
 24 25  1  0  0  0  0
 22 23  1  0  0  0  0
 22 24  2  0  0  0  0
 20 21  1  0  0  0  0
 19 20  1  0  0  0  0
 19 22  1  0  0  0  0
 17 18  1  0  0  0  0
 17 19  2  0  0  0  0
 15 16  1  0  0  0  0
 15 17  1  0  0  0  0
 14 15  2  0  0  0  0
 14 24  1  0  0  0  0
 11 12  1  0  0  0  0
 11 13  1  0  0  0  0
 11 14  1  0  0  0  0
  9 10  1  0  0  0  0
  9 11  1  0  0  0  0
  9 26  1  0  0  0  0
  7  8  1  0  0  0  0
  7  9  1  0  0  0  0
 30 31  1  0  0  0  0
 30 32  1  0  0  0  0
 30 33  1  0  0  0  0
 28 29  1  0  0  0  0
 28 30  1  0  0  0  0
M  END
$$$$
default_name
  -OEChem-02102213163D

 33 33  0     1  0  0  0  0  0999 V2000
   -4.0702   -3.8485    1.4554 H   0  0  0  0  0  0  0  0  0  0  0  0
   -4.0012   -2.9605    0.8284 C   0  0  0  0  0  0  0  0  0  0  0  0
   -4.7652   -2.2435    1.1234 H   0  0  0  0  0  0  0  0  0  0  0  0
   -4.1352   -3.2385   -0.2156 H   0  0  0  0  0  0  0  0  0  0  0  0
   -2.6362   -2.3395    1.0094 C   0  0  0  0  0  0  0  0  0  0  0  0
   -1.8292   -2.8395    1.7814 O   0  0  0  0  0  0  0  0  0  0  0  0
   -2.3832   -1.2445    0.2964 N   0  0  0  0  0  0  0  0  0  0  0  0
   -3.1102   -0.8685   -0.2946 H   0  0  0  0  0  0  0  0  0  0  0  0
   -1.1292   -0.4875    0.3524 C   0  0  1  0  0  0  0  0  0  0  0  0
   -0.5898   -0.7762    1.2552 H   0  0  0  0  0  0  0  0  0  0  0  0
   -0.2608   -0.8470   -0.8656 C   0  0  0  0  0  0  0  0  0  0  0  0
   -0.7992   -0.5800   -1.7759 H   0  0  0  0  0  0  0  0  0  0  0  0
    0.6515   -0.2488   -0.8380 H   0  0  0  0  0  0  0  0  0  0  0  0
    0.1047   -2.3164   -0.9487 C   0  0  0  0  0  0  0  0  0  0  0  0
   -0.8732   -3.3065   -0.7252 C   0  0  0  0  0  0  0  0  0  0  0  0
   -1.8844   -3.0201   -0.4673 H   0  0  0  0  0  0  0  0  0  0  0  0
   -0.5382   -4.6694   -0.8434 C   0  0  0  0  0  0  0  0  0  0  0  0
   -1.2891   -5.4249   -0.6700 H   0  0  0  0  0  0  0  0  0  0  0  0
    0.7786   -5.0431   -1.1899 C   0  0  0  0  0  0  0  0  0  0  0  0
    1.1109   -6.3547   -1.3093 O   0  0  0  0  0  0  0  0  0  0  0  0
    0.3947   -6.9341   -1.0458 H   0  0  0  0  0  0  0  0  0  0  0  0
    1.7546   -4.0509   -1.4180 C   0  0  0  0  0  0  0  0  0  0  0  0
    2.7590   -4.3492   -1.6781 H   0  0  0  0  0  0  0  0  0  0  0  0
    1.4178   -2.6895   -1.2946 C   0  0  0  0  0  0  0  0  0  0  0  0
    2.1705   -1.9281   -1.4609 H   0  0  0  0  0  0  0  0  0  0  0  0
   -1.4018    1.0238    0.4329 C   0  0  0  0  0  0  0  0  0  0  0  0
   -2.2416    1.5423   -0.3033 O   0  0  0  0  0  0  0  0  0  0  0  0
   -0.6927    1.7304    1.3223 N   0  0  0  0  0  0  0  0  0  0  0  0
    0.0178    1.2410    1.8469 H   0  0  0  0  0  0  0  0  0  0  0  0
   -0.8259    3.1712    1.5254 C   0  0  0  0  0  0  0  0  0  0  0  0
   -1.8769    3.4302    1.6645 H   0  0  0  0  0  0  0  0  0  0  0  0
   -0.2598    3.4806    2.4054 H   0  0  0  0  0  0  0  0  0  0  0  0
   -0.4486    3.7020    0.6489 H   0  0  0  0  0  0  0  0  0  0  0  0
  5  6  2  0  0  0  0
  5  7  1  0  0  0  0
  2  3  1  0  0  0  0
  2  4  1  0  0  0  0
  2  5  1  0  0  0  0
  1  2  1  0  0  0  0
 26 27  2  0  0  0  0
 26 28  1  0  0  0  0
 24 25  1  0  0  0  0
 22 23  1  0  0  0  0
 22 24  2  0  0  0  0
 20 21  1  0  0  0  0
 19 20  1  0  0  0  0
 19 22  1  0  0  0  0
 17 18  1  0  0  0  0
 17 19  2  0  0  0  0
 15 16  1  0  0  0  0
 15 17  1  0  0  0  0
 14 15  2  0  0  0  0
 14 24  1  0  0  0  0
 11 12  1  0  0  0  0
 11 13  1  0  0  0  0
 11 14  1  0  0  0  0
  9 10  1  0  0  0  0
  9 11  1  0  0  0  0
  9 26  1  0  0  0  0
  7  8  1  0  0  0  0
  7  9  1  0  0  0  0
 30 31  1  0  0  0  0
 30 32  1  0  0  0  0
 30 33  1  0  0  0  0
 28 29  1  0  0  0  0
 28 30  1  0  0  0  0
M  END
$$$$
default_name
  -OEChem-02102213163D

 33 33  0     1  0  0  0  0  0999 V2000
   -4.0702   -3.8485    1.4554 H   0  0  0  0  0  0  0  0  0  0  0  0
   -4.0012   -2.9605    0.8284 C   0  0  0  0  0  0  0  0  0  0  0  0
   -4.7652   -2.2435    1.1234 H   0  0  0  0  0  0  0  0  0  0  0  0
   -4.1352   -3.2385   -0.2156 H   0  0  0  0  0  0  0  0  0  0  0  0
   -2.6362   -2.3395    1.0094 C   0  0  0  0  0  0  0  0  0  0  0  0
   -1.8292   -2.8395    1.7814 O   0  0  0  0  0  0  0  0  0  0  0  0
   -2.3832   -1.2445    0.2964 N   0  0  0  0  0  0  0  0  0  0  0  0
   -3.1102   -0.8685   -0.2946 H   0  0  0  0  0  0  0  0  0  0  0  0
   -1.1292   -0.4875    0.3524 C   0  0  1  0  0  0  0  0  0  0  0  0
   -0.5898   -0.7762    1.2552 H   0  0  0  0  0  0  0  0  0  0  0  0
   -0.2608   -0.8470   -0.8656 C   0  0  0  0  0  0  0  0  0  0  0  0
   -0.7992   -0.5800   -1.7759 H   0  0  0  0  0  0  0  0  0  0  0  0
    0.6515   -0.2488   -0.8380 H   0  0  0  0  0  0  0  0  0  0  0  0
    0.1047   -2.3164   -0.9487 C   0  0  0  0  0  0  0  0  0  0  0  0
   -0.9041   -3.2963   -1.0411 C   0  0  0  0  0  0  0  0  0  0  0  0
   -1.9458   -3.0037   -1.0267 H   0  0  0  0  0  0  0  0  0  0  0  0
   -0.5587   -4.6567   -1.1589 C   0  0  0  0  0  0  0  0  0  0  0  0
   -1.3337   -5.4044   -1.2279 H   0  0  0  0  0  0  0  0  0  0  0  0
    0.8006   -5.0377   -1.1881 C   0  0  0  0  0  0  0  0  0  0  0  0
    1.1440   -6.3467   -1.3043 O   0  0  0  0  0  0  0  0  0  0  0  0
    0.3811   -6.9250   -1.2663 H   0  0  0  0  0  0  0  0  0  0  0  0
    1.8087   -4.0554   -1.1004 C   0  0  0  0  0  0  0  0  0  0  0  0
    2.8444   -4.3596   -1.1193 H   0  0  0  0  0  0  0  0  0  0  0  0
    1.4602   -2.6969   -0.9781 C   0  0  0  0  0  0  0  0  0  0  0  0
    2.2353   -1.9436   -0.9014 H   0  0  0  0  0  0  0  0  0  0  0  0
   -1.4018    1.0238    0.4329 C   0  0  0  0  0  0  0  0  0  0  0  0
   -2.2416    1.5423   -0.3033 O   0  0  0  0  0  0  0  0  0  0  0  0
   -0.6927    1.7304    1.3223 N   0  0  0  0  0  0  0  0  0  0  0  0
    0.0178    1.2410    1.8469 H   0  0  0  0  0  0  0  0  0  0  0  0
   -0.8259    3.1712    1.5254 C   0  0  0  0  0  0  0  0  0  0  0  0
   -1.8769    3.4302    1.6645 H   0  0  0  0  0  0  0  0  0  0  0  0
   -0.2598    3.4806    2.4054 H   0  0  0  0  0  0  0  0  0  0  0  0
   -0.4486    3.7020    0.6489 H   0  0  0  0  0  0  0  0  0  0  0  0
  5  6  2  0  0  0  0
  5  7  1  0  0  0  0
  2  3  1  0  0  0  0
  2  4  1  0  0  0  0
  2  5  1  0  0  0  0
  1  2  1  0  0  0  0
 26 27  2  0  0  0  0
 26 28  1  0  0  0  0
 24 25  1  0  0  0  0
 22 23  1  0  0  0  0
 22 24  2  0  0  0  0
 20 21  1  0  0  0  0
 19 20  1  0  0  0  0
 19 22  1  0  0  0  0
 17 18  1  0  0  0  0
 17 19  2  0  0  0  0
 15 16  1  0  0  0  0
 15 17  1  0  0  0  0
 14 15  2  0  0  0  0
 14 24  1  0  0  0  0
 11 12  1  0  0  0  0
 11 13  1  0  0  0  0
 11 14  1  0  0  0  0
  9 10  1  0  0  0  0
  9 11  1  0  0  0  0
  9 26  1  0  0  0  0
  7  8  1  0  0  0  0
  7  9  1  0  0  0  0
 30 31  1  0  0  0  0
 30 32  1  0  0  0  0
 30 33  1  0  0  0  0
 28 29  1  0  0  0  0
 28 30  1  0  0  0  0
M  END
$$$$
default_name
  -OEChem-02102213163D

 33 33  0     1  0  0  0  0  0999 V2000
   -4.0702   -3.8485    1.4554 H   0  0  0  0  0  0  0  0  0  0  0  0
   -4.0012   -2.9605    0.8284 C   0  0  0  0  0  0  0  0  0  0  0  0
   -4.7652   -2.2435    1.1234 H   0  0  0  0  0  0  0  0  0  0  0  0
   -4.1352   -3.2385   -0.2156 H   0  0  0  0  0  0  0  0  0  0  0  0
   -2.6362   -2.3395    1.0094 C   0  0  0  0  0  0  0  0  0  0  0  0
   -1.8292   -2.8395    1.7814 O   0  0  0  0  0  0  0  0  0  0  0  0
   -2.3832   -1.2445    0.2964 N   0  0  0  0  0  0  0  0  0  0  0  0
   -3.1102   -0.8685   -0.2946 H   0  0  0  0  0  0  0  0  0  0  0  0
   -1.1292   -0.4875    0.3524 C   0  0  1  0  0  0  0  0  0  0  0  0
   -0.5898   -0.7762    1.2552 H   0  0  0  0  0  0  0  0  0  0  0  0
   -0.2608   -0.8470   -0.8656 C   0  0  0  0  0  0  0  0  0  0  0  0
   -0.7992   -0.5800   -1.7759 H   0  0  0  0  0  0  0  0  0  0  0  0
    0.6515   -0.2488   -0.8380 H   0  0  0  0  0  0  0  0  0  0  0  0
    0.1047   -2.3164   -0.9487 C   0  0  0  0  0  0  0  0  0  0  0  0
   -0.8546   -3.2663   -1.3534 C   0  0  0  0  0  0  0  0  0  0  0  0
   -1.8647   -2.9522   -1.5815 H   0  0  0  0  0  0  0  0  0  0  0  0
   -0.4991   -4.6244   -1.4681 C   0  0  0  0  0  0  0  0  0  0  0  0
   -1.2366   -5.3492   -1.7768 H   0  0  0  0  0  0  0  0  0  0  0  0
    0.8214   -5.0329   -1.1804 C   0  0  0  0  0  0  0  0  0  0  0  0
    1.1749   -6.3398   -1.2908 O   0  0  0  0  0  0  0  0  0  0  0  0
    0.4233   -6.9023   -1.4821 H   0  0  0  0  0  0  0  0  0  0  0  0
    1.7813   -4.0803   -0.7802 C   0  0  0  0  0  0  0  0  0  0  0  0
    2.7866   -4.4057   -0.5588 H   0  0  0  0  0  0  0  0  0  0  0  0
    1.4218   -2.7243   -0.6622 C   0  0  0  0  0  0  0  0  0  0  0  0
    2.1574   -1.9944   -0.3457 H   0  0  0  0  0  0  0  0  0  0  0  0
   -1.4018    1.0238    0.4329 C   0  0  0  0  0  0  0  0  0  0  0  0
   -2.2416    1.5423   -0.3033 O   0  0  0  0  0  0  0  0  0  0  0  0
   -0.6927    1.7304    1.3223 N   0  0  0  0  0  0  0  0  0  0  0  0
    0.0178    1.2410    1.8469 H   0  0  0  0  0  0  0  0  0  0  0  0
   -0.8259    3.1712    1.5254 C   0  0  0  0  0  0  0  0  0  0  0  0
   -1.8769    3.4302    1.6645 H   0  0  0  0  0  0  0  0  0  0  0  0
   -0.2598    3.4806    2.4054 H   0  0  0  0  0  0  0  0  0  0  0  0
   -0.4486    3.7020    0.6489 H   0  0  0  0  0  0  0  0  0  0  0  0
  5  6  2  0  0  0  0
  5  7  1  0  0  0  0
  2  3  1  0  0  0  0
  2  4  1  0  0  0  0
  2  5  1  0  0  0  0
  1  2  1  0  0  0  0
 26 27  2  0  0  0  0
 26 28  1  0  0  0  0
 24 25  1  0  0  0  0
 22 23  1  0  0  0  0
 22 24  2  0  0  0  0
 20 21  1  0  0  0  0
 19 20  1  0  0  0  0
 19 22  1  0  0  0  0
 17 18  1  0  0  0  0
 17 19  2  0  0  0  0
 15 16  1  0  0  0  0
 15 17  1  0  0  0  0
 14 15  2  0  0  0  0
 14 24  1  0  0  0  0
 11 12  1  0  0  0  0
 11 13  1  0  0  0  0
 11 14  1  0  0  0  0
  9 10  1  0  0  0  0
  9 11  1  0  0  0  0
  9 26  1  0  0  0  0
  7  8  1  0  0  0  0
  7  9  1  0  0  0  0
 30 31  1  0  0  0  0
 30 32  1  0  0  0  0
 30 33  1  0  0  0  0
 28 29  1  0  0  0  0
 28 30  1  0  0  0  0
M  END
$$$$
default_name
  -OEChem-02102213163D

 33 33  0     1  0  0  0  0  0999 V2000
   -4.0702   -3.8485    1.4554 H   0  0  0  0  0  0  0  0  0  0  0  0
   -4.0012   -2.9605    0.8284 C   0  0  0  0  0  0  0  0  0  0  0  0
   -4.7652   -2.2435    1.1234 H   0  0  0  0  0  0  0  0  0  0  0  0
   -4.1352   -3.2385   -0.2156 H   0  0  0  0  0  0  0  0  0  0  0  0
   -2.6362   -2.3395    1.0094 C   0  0  0  0  0  0  0  0  0  0  0  0
   -1.8292   -2.8395    1.7814 O   0  0  0  0  0  0  0  0  0  0  0  0
   -2.3832   -1.2445    0.2964 N   0  0  0  0  0  0  0  0  0  0  0  0
   -3.1102   -0.8685   -0.2946 H   0  0  0  0  0  0  0  0  0  0  0  0
   -1.1292   -0.4875    0.3524 C   0  0  1  0  0  0  0  0  0  0  0  0
   -0.5898   -0.7762    1.2552 H   0  0  0  0  0  0  0  0  0  0  0  0
   -0.2608   -0.8470   -0.8656 C   0  0  0  0  0  0  0  0  0  0  0  0
   -0.7992   -0.5800   -1.7759 H   0  0  0  0  0  0  0  0  0  0  0  0
    0.6515   -0.2488   -0.8380 H   0  0  0  0  0  0  0  0  0  0  0  0
    0.1047   -2.3164   -0.9487 C   0  0  0  0  0  0  0  0  0  0  0  0
   -0.7280   -3.2186   -1.6408 C   0  0  0  0  0  0  0  0  0  0  0  0
   -1.6465   -2.8689   -2.0938 H   0  0  0  0  0  0  0  0  0  0  0  0
   -0.3636   -4.5748   -1.7497 C   0  0  0  0  0  0  0  0  0  0  0  0
   -1.0044   -5.2631   -2.2791 H   0  0  0  0  0  0  0  0  0  0  0  0
    0.8397   -5.0291   -1.1675 C   0  0  0  0  0  0  0  0  0  0  0  0
    1.2015   -6.3344   -1.2695 O   0  0  0  0  0  0  0  0  0  0  0  0
    0.5185   -6.8675   -1.6786 H   0  0  0  0  0  0  0  0  0  0  0  0
    1.6742   -4.1240   -0.4794 C   0  0  0  0  0  0  0  0  0  0  0  0
    2.5896   -4.4843   -0.0348 H   0  0  0  0  0  0  0  0  0  0  0  0
    1.3050   -2.7700   -0.3684 C   0  0  0  0  0  0  0  0  0  0  0  0
    1.9420   -2.0770    0.1683 H   0  0  0  0  0  0  0  0  0  0  0  0
   -1.4018    1.0238    0.4329 C   0  0  0  0  0  0  0  0  0  0  0  0
   -2.2416    1.5423   -0.3033 O   0  0  0  0  0  0  0  0  0  0  0  0
   -0.6927    1.7304    1.3223 N   0  0  0  0  0  0  0  0  0  0  0  0
    0.0178    1.2410    1.8469 H   0  0  0  0  0  0  0  0  0  0  0  0
   -0.8259    3.1712    1.5254 C   0  0  0  0  0  0  0  0  0  0  0  0
   -1.8769    3.4302    1.6645 H   0  0  0  0  0  0  0  0  0  0  0  0
   -0.2598    3.4806    2.4054 H   0  0  0  0  0  0  0  0  0  0  0  0
   -0.4486    3.7020    0.6489 H   0  0  0  0  0  0  0  0  0  0  0  0
  5  6  2  0  0  0  0
  5  7  1  0  0  0  0
  2  3  1  0  0  0  0
  2  4  1  0  0  0  0
  2  5  1  0  0  0  0
  1  2  1  0  0  0  0
 26 27  2  0  0  0  0
 26 28  1  0  0  0  0
 24 25  1  0  0  0  0
 22 23  1  0  0  0  0
 22 24  2  0  0  0  0
 20 21  1  0  0  0  0
 19 20  1  0  0  0  0
 19 22  1  0  0  0  0
 17 18  1  0  0  0  0
 17 19  2  0  0  0  0
 15 16  1  0  0  0  0
 15 17  1  0  0  0  0
 14 15  2  0  0  0  0
 14 24  1  0  0  0  0
 11 12  1  0  0  0  0
 11 13  1  0  0  0  0
 11 14  1  0  0  0  0
  9 10  1  0  0  0  0
  9 11  1  0  0  0  0
  9 26  1  0  0  0  0
  7  8  1  0  0  0  0
  7  9  1  0  0  0  0
 30 31  1  0  0  0  0
 30 32  1  0  0  0  0
 30 33  1  0  0  0  0
 28 29  1  0  0  0  0
 28 30  1  0  0  0  0
M  END
$$$$
default_name
  -OEChem-02102213163D

 33 33  0     1  0  0  0  0  0999 V2000
   -4.0702   -3.8485    1.4554 H   0  0  0  0  0  0  0  0  0  0  0  0
   -4.0012   -2.9605    0.8284 C   0  0  0  0  0  0  0  0  0  0  0  0
   -4.7652   -2.2435    1.1234 H   0  0  0  0  0  0  0  0  0  0  0  0
   -4.1352   -3.2385   -0.2156 H   0  0  0  0  0  0  0  0  0  0  0  0
   -2.6362   -2.3395    1.0094 C   0  0  0  0  0  0  0  0  0  0  0  0
   -1.8292   -2.8395    1.7814 O   0  0  0  0  0  0  0  0  0  0  0  0
   -2.3832   -1.2445    0.2964 N   0  0  0  0  0  0  0  0  0  0  0  0
   -3.1102   -0.8685   -0.2946 H   0  0  0  0  0  0  0  0  0  0  0  0
   -1.1292   -0.4875    0.3524 C   0  0  1  0  0  0  0  0  0  0  0  0
   -0.5898   -0.7762    1.2552 H   0  0  0  0  0  0  0  0  0  0  0  0
   -0.2608   -0.8470   -0.8656 C   0  0  0  0  0  0  0  0  0  0  0  0
   -0.7992   -0.5800   -1.7759 H   0  0  0  0  0  0  0  0  0  0  0  0
    0.6515   -0.2488   -0.8380 H   0  0  0  0  0  0  0  0  0  0  0  0
    0.1047   -2.3164   -0.9487 C   0  0  0  0  0  0  0  0  0  0  0  0
   -0.5330   -3.1563   -1.8836 C   0  0  0  0  0  0  0  0  0  0  0  0
   -1.3060   -2.7596   -2.5288 H   0  0  0  0  0  0  0  0  0  0  0  0
   -0.1614   -4.5112   -1.9847 C   0  0  0  0  0  0  0  0  0  0  0  0
   -0.6529   -5.1518   -2.7007 H   0  0  0  0  0  0  0  0  0  0  0  0
    0.8542   -5.0265   -1.1501 C   0  0  0  0  0  0  0  0  0  0  0  0
    1.2219   -6.3309   -1.2419 O   0  0  0  0  0  0  0  0  0  0  0  0
    0.6603   -6.8230   -1.8423 H   0  0  0  0  0  0  0  0  0  0  0  0
    1.4947   -4.1834   -0.2185 C   0  0  0  0  0  0  0  0  0  0  0  0
    2.2667   -4.5902    0.4171 H   0  0  0  0  0  0  0  0  0  0  0  0
    1.1178   -2.8308   -0.1167 C   0  0  0  0  0  0  0  0  0  0  0  0
    1.6039   -2.1859    0.6057 H   0  0  0  0  0  0  0  0  0  0  0  0
   -1.4018    1.0238    0.4329 C   0  0  0  0  0  0  0  0  0  0  0  0
   -2.2416    1.5423   -0.3033 O   0  0  0  0  0  0  0  0  0  0  0  0
   -0.6927    1.7304    1.3223 N   0  0  0  0  0  0  0  0  0  0  0  0
    0.0178    1.2410    1.8469 H   0  0  0  0  0  0  0  0  0  0  0  0
   -0.8259    3.1712    1.5254 C   0  0  0  0  0  0  0  0  0  0  0  0
   -1.8769    3.4302    1.6645 H   0  0  0  0  0  0  0  0  0  0  0  0
   -0.2598    3.4806    2.4054 H   0  0  0  0  0  0  0  0  0  0  0  0
   -0.4486    3.7020    0.6489 H   0  0  0  0  0  0  0  0  0  0  0  0
  5  6  2  0  0  0  0
  5  7  1  0  0  0  0
  2  3  1  0  0  0  0
  2  4  1  0  0  0  0
  2  5  1  0  0  0  0
  1  2  1  0  0  0  0
 26 27  2  0  0  0  0
 26 28  1  0  0  0  0
 24 25  1  0  0  0  0
 22 23  1  0  0  0  0
 22 24  2  0  0  0  0
 20 21  1  0  0  0  0
 19 20  1  0  0  0  0
 19 22  1  0  0  0  0
 17 18  1  0  0  0  0
 17 19  2  0  0  0  0
 15 16  1  0  0  0  0
 15 17  1  0  0  0  0
 14 15  2  0  0  0  0
 14 24  1  0  0  0  0
 11 12  1  0  0  0  0
 11 13  1  0  0  0  0
 11 14  1  0  0  0  0
  9 10  1  0  0  0  0
  9 11  1  0  0  0  0
  9 26  1  0  0  0  0
  7  8  1  0  0  0  0
  7  9  1  0  0  0  0
 30 31  1  0  0  0  0
 30 32  1  0  0  0  0
 30 33  1  0  0  0  0
 28 29  1  0  0  0  0
 28 30  1  0  0  0  0
M  END
$$$$
default_name
  -OEChem-02102213163D

 33 33  0     1  0  0  0  0  0999 V2000
   -4.0702   -3.8485    1.4554 H   0  0  0  0  0  0  0  0  0  0  0  0
   -4.0012   -2.9605    0.8284 C   0  0  0  0  0  0  0  0  0  0  0  0
   -4.7652   -2.2435    1.1234 H   0  0  0  0  0  0  0  0  0  0  0  0
   -4.1352   -3.2385   -0.2156 H   0  0  0  0  0  0  0  0  0  0  0  0
   -2.6362   -2.3395    1.0094 C   0  0  0  0  0  0  0  0  0  0  0  0
   -1.8292   -2.8395    1.7814 O   0  0  0  0  0  0  0  0  0  0  0  0
   -2.3832   -1.2445    0.2964 N   0  0  0  0  0  0  0  0  0  0  0  0
   -3.1102   -0.8685   -0.2946 H   0  0  0  0  0  0  0  0  0  0  0  0
   -1.1292   -0.4875    0.3524 C   0  0  1  0  0  0  0  0  0  0  0  0
   -0.5898   -0.7762    1.2552 H   0  0  0  0  0  0  0  0  0  0  0  0
   -0.2608   -0.8470   -0.8656 C   0  0  0  0  0  0  0  0  0  0  0  0
   -0.7992   -0.5800   -1.7759 H   0  0  0  0  0  0  0  0  0  0  0  0
    0.6515   -0.2488   -0.8380 H   0  0  0  0  0  0  0  0  0  0  0  0
    0.1047   -2.3164   -0.9487 C   0  0  0  0  0  0  0  0  0  0  0  0
   -0.2829   -3.0838   -2.0654 C   0  0  0  0  0  0  0  0  0  0  0  0
   -0.8665   -2.6318   -2.8567 H   0  0  0  0  0  0  0  0  0  0  0  0
    0.0937   -4.4380   -2.1570 C   0  0  0  0  0  0  0  0  0  0  0  0
   -0.2061   -5.0230   -3.0128 H   0  0  0  0  0  0  0  0  0  0  0  0
    0.8639   -5.0252   -1.1296 C   0  0  0  0  0  0  0  0  0  0  0  0
    1.2347   -6.3295   -1.2099 O   0  0  0  0  0  0  0  0  0  0  0  0
    0.8389   -6.7718   -1.9621 H   0  0  0  0  0  0  0  0  0  0  0  0
    1.2550   -4.2545   -0.0152 C   0  0  0  0  0  0  0  0  0  0  0  0
    1.8400   -4.7161    0.7660 H   0  0  0  0  0  0  0  0  0  0  0  0
    0.8731   -2.9025    0.0757 C   0  0  0  0  0  0  0  0  0  0  0  0
    1.1661   -2.3135    0.9366 H   0  0  0  0  0  0  0  0  0  0  0  0
   -1.4018    1.0238    0.4329 C   0  0  0  0  0  0  0  0  0  0  0  0
   -2.2416    1.5423   -0.3033 O   0  0  0  0  0  0  0  0  0  0  0  0
   -0.6927    1.7304    1.3223 N   0  0  0  0  0  0  0  0  0  0  0  0
    0.0178    1.2410    1.8469 H   0  0  0  0  0  0  0  0  0  0  0  0
   -0.8259    3.1712    1.5254 C   0  0  0  0  0  0  0  0  0  0  0  0
   -1.8769    3.4302    1.6645 H   0  0  0  0  0  0  0  0  0  0  0  0
   -0.2598    3.4806    2.4054 H   0  0  0  0  0  0  0  0  0  0  0  0
   -0.4486    3.7020    0.6489 H   0  0  0  0  0  0  0  0  0  0  0  0
  5  6  2  0  0  0  0
  5  7  1  0  0  0  0
  2  3  1  0  0  0  0
  2  4  1  0  0  0  0
  2  5  1  0  0  0  0
  1  2  1  0  0  0  0
 26 27  2  0  0  0  0
 26 28  1  0  0  0  0
 24 25  1  0  0  0  0
 22 23  1  0  0  0  0
 22 24  2  0  0  0  0
 20 21  1  0  0  0  0
 19 20  1  0  0  0  0
 19 22  1  0  0  0  0
 17 18  1  0  0  0  0
 17 19  2  0  0  0  0
 15 16  1  0  0  0  0
 15 17  1  0  0  0  0
 14 15  2  0  0  0  0
 14 24  1  0  0  0  0
 11 12  1  0  0  0  0
 11 13  1  0  0  0  0
 11 14  1  0  0  0  0
  9 10  1  0  0  0  0
  9 11  1  0  0  0  0
  9 26  1  0  0  0  0
  7  8  1  0  0  0  0
  7  9  1  0  0  0  0
 30 31  1  0  0  0  0
 30 32  1  0  0  0  0
 30 33  1  0  0  0  0
 28 29  1  0  0  0  0
 28 30  1  0  0  0  0
M  END
$$$$
default_name
  -OEChem-02102213163D

 33 33  0     1  0  0  0  0  0999 V2000
   -4.0702   -3.8485    1.4554 H   0  0  0  0  0  0  0  0  0  0  0  0
   -4.0012   -2.9605    0.8284 C   0  0  0  0  0  0  0  0  0  0  0  0
   -4.7652   -2.2435    1.1234 H   0  0  0  0  0  0  0  0  0  0  0  0
   -4.1352   -3.2385   -0.2156 H   0  0  0  0  0  0  0  0  0  0  0  0
   -2.6362   -2.3395    1.0094 C   0  0  0  0  0  0  0  0  0  0  0  0
   -1.8292   -2.8395    1.7814 O   0  0  0  0  0  0  0  0  0  0  0  0
   -2.3832   -1.2445    0.2964 N   0  0  0  0  0  0  0  0  0  0  0  0
   -3.1102   -0.8685   -0.2946 H   0  0  0  0  0  0  0  0  0  0  0  0
   -1.1292   -0.4875    0.3524 C   0  0  1  0  0  0  0  0  0  0  0  0
   -0.5898   -0.7762    1.2552 H   0  0  0  0  0  0  0  0  0  0  0  0
   -0.2608   -0.8470   -0.8656 C   0  0  0  0  0  0  0  0  0  0  0  0
   -0.7992   -0.5800   -1.7759 H   0  0  0  0  0  0  0  0  0  0  0  0
    0.6515   -0.2488   -0.8380 H   0  0  0  0  0  0  0  0  0  0  0  0
    0.1047   -2.3164   -0.9487 C   0  0  0  0  0  0  0  0  0  0  0  0
    0.0053   -3.0060   -2.1738 C   0  0  0  0  0  0  0  0  0  0  0  0
   -0.3579   -2.4940   -3.0552 H   0  0  0  0  0  0  0  0  0  0  0  0
    0.3845   -4.3601   -2.2549 C   0  0  0  0  0  0  0  0  0  0  0  0
    0.3056   -4.8855   -3.1942 H   0  0  0  0  0  0  0  0  0  0  0  0
    0.8681   -5.0255   -1.1073 C   0  0  0  0  0  0  0  0  0  0  0  0
    1.2391   -6.3304   -1.1758 O   0  0  0  0  0  0  0  0  0  0  0  0
    1.0423   -6.7174   -2.0299 H   0  0  0  0  0  0  0  0  0  0  0  0
    0.9715   -4.3325    0.1167 C   0  0  0  0  0  0  0  0  0  0  0  0
    1.3386   -4.8533    0.9882 H   0  0  0  0  0  0  0  0  0  0  0  0
    0.5874   -2.9804    0.1956 C   0  0  0  0  0  0  0  0  0  0  0  0
    0.6584   -2.4512    1.1385 H   0  0  0  0  0  0  0  0  0  0  0  0
   -1.4018    1.0238    0.4329 C   0  0  0  0  0  0  0  0  0  0  0  0
   -2.2416    1.5423   -0.3033 O   0  0  0  0  0  0  0  0  0  0  0  0
   -0.6927    1.7304    1.3223 N   0  0  0  0  0  0  0  0  0  0  0  0
    0.0178    1.2410    1.8469 H   0  0  0  0  0  0  0  0  0  0  0  0
   -0.8259    3.1712    1.5254 C   0  0  0  0  0  0  0  0  0  0  0  0
   -1.8769    3.4302    1.6645 H   0  0  0  0  0  0  0  0  0  0  0  0
   -0.2598    3.4806    2.4054 H   0  0  0  0  0  0  0  0  0  0  0  0
   -0.4486    3.7020    0.6489 H   0  0  0  0  0  0  0  0  0  0  0  0
  5  6  2  0  0  0  0
  5  7  1  0  0  0  0
  2  3  1  0  0  0  0
  2  4  1  0  0  0  0
  2  5  1  0  0  0  0
  1  2  1  0  0  0  0
 26 27  2  0  0  0  0
 26 28  1  0  0  0  0
 24 25  1  0  0  0  0
 22 23  1  0  0  0  0
 22 24  2  0  0  0  0
 20 21  1  0  0  0  0
 19 20  1  0  0  0  0
 19 22  1  0  0  0  0
 17 18  1  0  0  0  0
 17 19  2  0  0  0  0
 15 16  1  0  0  0  0
 15 17  1  0  0  0  0
 14 15  2  0  0  0  0
 14 24  1  0  0  0  0
 11 12  1  0  0  0  0
 11 13  1  0  0  0  0
 11 14  1  0  0  0  0
  9 10  1  0  0  0  0
  9 11  1  0  0  0  0
  9 26  1  0  0  0  0
  7  8  1  0  0  0  0
  7  9  1  0  0  0  0
 30 31  1  0  0  0  0
 30 32  1  0  0  0  0
 30 33  1  0  0  0  0
 28 29  1  0  0  0  0
 28 30  1  0  0  0  0
M  END
$$$$
default_name
  -OEChem-02102213163D

 33 33  0     1  0  0  0  0  0999 V2000
   -4.0702   -3.8485    1.4554 H   0  0  0  0  0  0  0  0  0  0  0  0
   -4.0012   -2.9605    0.8284 C   0  0  0  0  0  0  0  0  0  0  0  0
   -4.7652   -2.2435    1.1234 H   0  0  0  0  0  0  0  0  0  0  0  0
   -4.1352   -3.2385   -0.2156 H   0  0  0  0  0  0  0  0  0  0  0  0
   -2.6362   -2.3395    1.0094 C   0  0  0  0  0  0  0  0  0  0  0  0
   -1.8292   -2.8395    1.7814 O   0  0  0  0  0  0  0  0  0  0  0  0
   -2.3832   -1.2445    0.2964 N   0  0  0  0  0  0  0  0  0  0  0  0
   -3.1102   -0.8685   -0.2946 H   0  0  0  0  0  0  0  0  0  0  0  0
   -1.1292   -0.4875    0.3524 C   0  0  1  0  0  0  0  0  0  0  0  0
   -0.5898   -0.7762    1.2552 H   0  0  0  0  0  0  0  0  0  0  0  0
   -0.2608   -0.8470   -0.8656 C   0  0  0  0  0  0  0  0  0  0  0  0
   -0.7992   -0.5800   -1.7759 H   0  0  0  0  0  0  0  0  0  0  0  0
    0.6515   -0.2488   -0.8380 H   0  0  0  0  0  0  0  0  0  0  0  0
    0.1047   -2.3164   -0.9487 C   0  0  0  0  0  0  0  0  0  0  0  0
    0.3120   -2.9282   -2.2013 C   0  0  0  0  0  0  0  0  0  0  0  0
    0.1851   -2.3558   -3.1109 H   0  0  0  0  0  0  0  0  0  0  0  0
    0.6909   -4.2829   -2.2716 C   0  0  0  0  0  0  0  0  0  0  0  0
    0.8473   -4.7486   -3.2325 H   0  0  0  0  0  0  0  0  0  0  0  0
    0.8666   -5.0271   -1.0846 C   0  0  0  0  0  0  0  0  0  0  0  0
    1.2347   -6.3334   -1.1417 O   0  0  0  0  0  0  0  0  0  0  0  0
    1.2564   -6.6635   -2.0409 H   0  0  0  0  0  0  0  0  0  0  0  0
    0.6634   -4.4120    0.1681 C   0  0  0  0  0  0  0  0  0  0  0  0
    0.7966   -4.9927    1.0684 H   0  0  0  0  0  0  0  0  0  0  0  0
    0.2803   -3.0590    0.2350 C   0  0  0  0  0  0  0  0  0  0  0  0
    0.1154   -2.5896    1.1975 H   0  0  0  0  0  0  0  0  0  0  0  0
   -1.4018    1.0238    0.4329 C   0  0  0  0  0  0  0  0  0  0  0  0
   -2.2416    1.5423   -0.3033 O   0  0  0  0  0  0  0  0  0  0  0  0
   -0.6927    1.7304    1.3223 N   0  0  0  0  0  0  0  0  0  0  0  0
    0.0178    1.2410    1.8469 H   0  0  0  0  0  0  0  0  0  0  0  0
   -0.8259    3.1712    1.5254 C   0  0  0  0  0  0  0  0  0  0  0  0
   -1.8769    3.4302    1.6645 H   0  0  0  0  0  0  0  0  0  0  0  0
   -0.2598    3.4806    2.4054 H   0  0  0  0  0  0  0  0  0  0  0  0
   -0.4486    3.7020    0.6489 H   0  0  0  0  0  0  0  0  0  0  0  0
  5  6  2  0  0  0  0
  5  7  1  0  0  0  0
  2  3  1  0  0  0  0
  2  4  1  0  0  0  0
  2  5  1  0  0  0  0
  1  2  1  0  0  0  0
 26 27  2  0  0  0  0
 26 28  1  0  0  0  0
 24 25  1  0  0  0  0
 22 23  1  0  0  0  0
 22 24  2  0  0  0  0
 20 21  1  0  0  0  0
 19 20  1  0  0  0  0
 19 22  1  0  0  0  0
 17 18  1  0  0  0  0
 17 19  2  0  0  0  0
 15 16  1  0  0  0  0
 15 17  1  0  0  0  0
 14 15  2  0  0  0  0
 14 24  1  0  0  0  0
 11 12  1  0  0  0  0
 11 13  1  0  0  0  0
 11 14  1  0  0  0  0
  9 10  1  0  0  0  0
  9 11  1  0  0  0  0
  9 26  1  0  0  0  0
  7  8  1  0  0  0  0
  7  9  1  0  0  0  0
 30 31  1  0  0  0  0
 30 32  1  0  0  0  0
 30 33  1  0  0  0  0
 28 29  1  0  0  0  0
 28 30  1  0  0  0  0
M  END
$$$$
default_name
  -OEChem-02102213163D

 33 33  0     1  0  0  0  0  0999 V2000
   -4.0702   -3.8485    1.4554 H   0  0  0  0  0  0  0  0  0  0  0  0
   -4.0012   -2.9605    0.8284 C   0  0  0  0  0  0  0  0  0  0  0  0
   -4.7652   -2.2435    1.1234 H   0  0  0  0  0  0  0  0  0  0  0  0
   -4.1352   -3.2385   -0.2156 H   0  0  0  0  0  0  0  0  0  0  0  0
   -2.6362   -2.3395    1.0094 C   0  0  0  0  0  0  0  0  0  0  0  0
   -1.8292   -2.8395    1.7814 O   0  0  0  0  0  0  0  0  0  0  0  0
   -2.3832   -1.2445    0.2964 N   0  0  0  0  0  0  0  0  0  0  0  0
   -3.1102   -0.8685   -0.2946 H   0  0  0  0  0  0  0  0  0  0  0  0
   -1.1292   -0.4875    0.3524 C   0  0  1  0  0  0  0  0  0  0  0  0
   -0.5898   -0.7762    1.2552 H   0  0  0  0  0  0  0  0  0  0  0  0
   -0.2608   -0.8470   -0.8656 C   0  0  0  0  0  0  0  0  0  0  0  0
   -0.7992   -0.5800   -1.7759 H   0  0  0  0  0  0  0  0  0  0  0  0
    0.6515   -0.2488   -0.8380 H   0  0  0  0  0  0  0  0  0  0  0  0
    0.1047   -2.3164   -0.9487 C   0  0  0  0  0  0  0  0  0  0  0  0
    0.6163   -2.8556   -2.1461 C   0  0  0  0  0  0  0  0  0  0  0  0
    0.7255   -2.2266   -3.0198 H   0  0  0  0  0  0  0  0  0  0  0  0
    0.9922   -4.2117   -2.2061 C   0  0  0  0  0  0  0  0  0  0  0  0
    1.3822   -4.6216   -3.1251 H   0  0  0  0  0  0  0  0  0  0  0  0
    0.8594   -5.0301   -1.0633 C   0  0  0  0  0  0  0  0  0  0  0  0
    1.2220   -6.3383   -1.1101 O   0  0  0  0  0  0  0  0  0  0  0  0
    1.4668   -6.6138   -1.9945 H   0  0  0  0  0  0  0  0  0  0  0  0
    0.3519   -4.4877    0.1355 C   0  0  0  0  0  0  0  0  0  0  0  0
    0.2510   -5.1246    1.0013 H   0  0  0  0  0  0  0  0  0  0  0  0
   -0.0273   -3.1330    0.1911 C   0  0  0  0  0  0  0  0  0  0  0  0
   -0.4259   -2.7193    1.1098 H   0  0  0  0  0  0  0  0  0  0  0  0
   -1.4018    1.0238    0.4329 C   0  0  0  0  0  0  0  0  0  0  0  0
   -2.2416    1.5423   -0.3033 O   0  0  0  0  0  0  0  0  0  0  0  0
   -0.6927    1.7304    1.3223 N   0  0  0  0  0  0  0  0  0  0  0  0
    0.0178    1.2410    1.8469 H   0  0  0  0  0  0  0  0  0  0  0  0
   -0.8259    3.1712    1.5254 C   0  0  0  0  0  0  0  0  0  0  0  0
   -1.8769    3.4302    1.6645 H   0  0  0  0  0  0  0  0  0  0  0  0
   -0.2598    3.4806    2.4054 H   0  0  0  0  0  0  0  0  0  0  0  0
   -0.4486    3.7020    0.6489 H   0  0  0  0  0  0  0  0  0  0  0  0
  5  6  2  0  0  0  0
  5  7  1  0  0  0  0
  2  3  1  0  0  0  0
  2  4  1  0  0  0  0
  2  5  1  0  0  0  0
  1  2  1  0  0  0  0
 26 27  2  0  0  0  0
 26 28  1  0  0  0  0
 24 25  1  0  0  0  0
 22 23  1  0  0  0  0
 22 24  2  0  0  0  0
 20 21  1  0  0  0  0
 19 20  1  0  0  0  0
 19 22  1  0  0  0  0
 17 18  1  0  0  0  0
 17 19  2  0  0  0  0
 15 16  1  0  0  0  0
 15 17  1  0  0  0  0
 14 15  2  0  0  0  0
 14 24  1  0  0  0  0
 11 12  1  0  0  0  0
 11 13  1  0  0  0  0
 11 14  1  0  0  0  0
  9 10  1  0  0  0  0
  9 11  1  0  0  0  0
  9 26  1  0  0  0  0
  7  8  1  0  0  0  0
  7  9  1  0  0  0  0
 30 31  1  0  0  0  0
 30 32  1  0  0  0  0
 30 33  1  0  0  0  0
 28 29  1  0  0  0  0
 28 30  1  0  0  0  0
M  END
$$$$
default_name
  -OEChem-02102213163D

 33 33  0     1  0  0  0  0  0999 V2000
   -4.0702   -3.8485    1.4554 H   0  0  0  0  0  0  0  0  0  0  0  0
   -4.0012   -2.9605    0.8284 C   0  0  0  0  0  0  0  0  0  0  0  0
   -4.7652   -2.2435    1.1234 H   0  0  0  0  0  0  0  0  0  0  0  0
   -4.1352   -3.2385   -0.2156 H   0  0  0  0  0  0  0  0  0  0  0  0
   -2.6362   -2.3395    1.0094 C   0  0  0  0  0  0  0  0  0  0  0  0
   -1.8292   -2.8395    1.7814 O   0  0  0  0  0  0  0  0  0  0  0  0
   -2.3832   -1.2445    0.2964 N   0  0  0  0  0  0  0  0  0  0  0  0
   -3.1102   -0.8685   -0.2946 H   0  0  0  0  0  0  0  0  0  0  0  0
   -1.1292   -0.4875    0.3524 C   0  0  1  0  0  0  0  0  0  0  0  0
   -0.5898   -0.7762    1.2552 H   0  0  0  0  0  0  0  0  0  0  0  0
   -0.2608   -0.8470   -0.8656 C   0  0  0  0  0  0  0  0  0  0  0  0
   -0.6642   -0.3486   -1.7480 H   0  0  0  0  0  0  0  0  0  0  0  0
    0.7481   -0.4629   -0.7059 H   0  0  0  0  0  0  0  0  0  0  0  0
   -0.1920   -2.3340   -1.1550 C   0  0  0  0  0  0  0  0  0  0  0  0
    0.5672   -2.8129   -2.2416 C   0  0  0  0  0  0  0  0  0  0  0  0
    1.0834   -2.1168   -2.8898 H   0  0  0  0  0  0  0  0  0  0  0  0
    0.6608   -4.1975   -2.4820 C   0  0  0  0  0  0  0  0  0  0  0  0
    1.2418   -4.5606   -3.3159 H   0  0  0  0  0  0  0  0  0  0  0  0
   -0.0042   -5.1063   -1.6303 C   0  0  0  0  0  0  0  0  0  0  0  0
    0.0823   -6.4436   -1.8520 O   0  0  0  0  0  0  0  0  0  0  0  0
    0.5451   -6.6455   -2.6663 H   0  0  0  0  0  0  0  0  0  0  0  0
   -0.7595   -4.6256   -0.5406 C   0  0  0  0  0  0  0  0  0  0  0  0
   -1.2670   -5.3302    0.1009 H   0  0  0  0  0  0  0  0  0  0  0  0
   -0.8549   -3.2408   -0.3056 C   0  0  0  0  0  0  0  0  0  0  0  0
   -1.4429   -2.8718    0.5263 H   0  0  0  0  0  0  0  0  0  0  0  0
   -1.4018    1.0238    0.4329 C   0  0  0  0  0  0  0  0  0  0  0  0
   -2.2416    1.5423   -0.3033 O   0  0  0  0  0  0  0  0  0  0  0  0
   -0.6927    1.7304    1.3223 N   0  0  0  0  0  0  0  0  0  0  0  0
    0.0178    1.2410    1.8469 H   0  0  0  0  0  0  0  0  0  0  0  0
   -0.8259    3.1712    1.5254 C   0  0  0  0  0  0  0  0  0  0  0  0
   -1.8769    3.4302    1.6645 H   0  0  0  0  0  0  0  0  0  0  0  0
   -0.2598    3.4806    2.4054 H   0  0  0  0  0  0  0  0  0  0  0  0
   -0.4486    3.7020    0.6489 H   0  0  0  0  0  0  0  0  0  0  0  0
  5  6  2  0  0  0  0
  5  7  1  0  0  0  0
  2  3  1  0  0  0  0
  2  4  1  0  0  0  0
  2  5  1  0  0  0  0
  1  2  1  0  0  0  0
 26 27  2  0  0  0  0
 26 28  1  0  0  0  0
 24 25  1  0  0  0  0
 22 23  1  0  0  0  0
 22 24  2  0  0  0  0
 20 21  1  0  0  0  0
 19 20  1  0  0  0  0
 19 22  1  0  0  0  0
 17 18  1  0  0  0  0
 17 19  2  0  0  0  0
 15 16  1  0  0  0  0
 15 17  1  0  0  0  0
 14 15  2  0  0  0  0
 14 24  1  0  0  0  0
 11 12  1  0  0  0  0
 11 13  1  0  0  0  0
 11 14  1  0  0  0  0
  9 10  1  0  0  0  0
  9 11  1  0  0  0  0
  9 26  1  0  0  0  0
  7  8  1  0  0  0  0
  7  9  1  0  0  0  0
 30 31  1  0  0  0  0
 30 32  1  0  0  0  0
 30 33  1  0  0  0  0
 28 29  1  0  0  0  0
 28 30  1  0  0  0  0
M  END
$$$$
default_name
  -OEChem-02102213163D

 33 33  0     1  0  0  0  0  0999 V2000
   -4.0702   -3.8485    1.4554 H   0  0  0  0  0  0  0  0  0  0  0  0
   -4.0012   -2.9605    0.8284 C   0  0  0  0  0  0  0  0  0  0  0  0
   -4.7652   -2.2435    1.1234 H   0  0  0  0  0  0  0  0  0  0  0  0
   -4.1352   -3.2385   -0.2156 H   0  0  0  0  0  0  0  0  0  0  0  0
   -2.6362   -2.3395    1.0094 C   0  0  0  0  0  0  0  0  0  0  0  0
   -1.8292   -2.8395    1.7814 O   0  0  0  0  0  0  0  0  0  0  0  0
   -2.3832   -1.2445    0.2964 N   0  0  0  0  0  0  0  0  0  0  0  0
   -3.1102   -0.8685   -0.2946 H   0  0  0  0  0  0  0  0  0  0  0  0
   -1.1292   -0.4875    0.3524 C   0  0  1  0  0  0  0  0  0  0  0  0
   -0.5898   -0.7762    1.2552 H   0  0  0  0  0  0  0  0  0  0  0  0
   -0.2608   -0.8470   -0.8656 C   0  0  0  0  0  0  0  0  0  0  0  0
   -0.6642   -0.3486   -1.7480 H   0  0  0  0  0  0  0  0  0  0  0  0
    0.7481   -0.4629   -0.7059 H   0  0  0  0  0  0  0  0  0  0  0  0
   -0.1920   -2.3340   -1.1550 C   0  0  0  0  0  0  0  0  0  0  0  0
    0.7945   -2.8451   -2.0221 C   0  0  0  0  0  0  0  0  0  0  0  0
    1.4912   -2.1728   -2.5056 H   0  0  0  0  0  0  0  0  0  0  0  0
    0.8798   -4.2314   -2.2560 C   0  0  0  0  0  0  0  0  0  0  0  0
    1.6355   -4.6191   -2.9218 H   0  0  0  0  0  0  0  0  0  0  0  0
   -0.0226   -5.1097   -1.6174 C   0  0  0  0  0  0  0  0  0  0  0  0
    0.0533   -6.4485   -1.8341 O   0  0  0  0  0  0  0  0  0  0  0  0
    0.6976   -6.6693   -2.5080 H   0  0  0  0  0  0  0  0  0  0  0  0
   -1.0060   -4.5970   -0.7462 C   0  0  0  0  0  0  0  0  0  0  0  0
   -1.6930   -5.2783   -0.2672 H   0  0  0  0  0  0  0  0  0  0  0  0
   -1.0916   -3.2104   -0.5180 C   0  0  0  0  0  0  0  0  0  0  0  0
   -1.8533   -2.8164    0.1443 H   0  0  0  0  0  0  0  0  0  0  0  0
   -1.4018    1.0238    0.4329 C   0  0  0  0  0  0  0  0  0  0  0  0
   -2.2416    1.5423   -0.3033 O   0  0  0  0  0  0  0  0  0  0  0  0
   -0.6927    1.7304    1.3223 N   0  0  0  0  0  0  0  0  0  0  0  0
    0.0178    1.2410    1.8469 H   0  0  0  0  0  0  0  0  0  0  0  0
   -0.8259    3.1712    1.5254 C   0  0  0  0  0  0  0  0  0  0  0  0
   -1.8769    3.4302    1.6645 H   0  0  0  0  0  0  0  0  0  0  0  0
   -0.2598    3.4806    2.4054 H   0  0  0  0  0  0  0  0  0  0  0  0
   -0.4486    3.7020    0.6489 H   0  0  0  0  0  0  0  0  0  0  0  0
  5  6  2  0  0  0  0
  5  7  1  0  0  0  0
  2  3  1  0  0  0  0
  2  4  1  0  0  0  0
  2  5  1  0  0  0  0
  1  2  1  0  0  0  0
 26 27  2  0  0  0  0
 26 28  1  0  0  0  0
 24 25  1  0  0  0  0
 22 23  1  0  0  0  0
 22 24  2  0  0  0  0
 20 21  1  0  0  0  0
 19 20  1  0  0  0  0
 19 22  1  0  0  0  0
 17 18  1  0  0  0  0
 17 19  2  0  0  0  0
 15 16  1  0  0  0  0
 15 17  1  0  0  0  0
 14 15  2  0  0  0  0
 14 24  1  0  0  0  0
 11 12  1  0  0  0  0
 11 13  1  0  0  0  0
 11 14  1  0  0  0  0
  9 10  1  0  0  0  0
  9 11  1  0  0  0  0
  9 26  1  0  0  0  0
  7  8  1  0  0  0  0
  7  9  1  0  0  0  0
 30 31  1  0  0  0  0
 30 32  1  0  0  0  0
 30 33  1  0  0  0  0
 28 29  1  0  0  0  0
 28 30  1  0  0  0  0
M  END
$$$$
default_name
  -OEChem-02102213163D

 33 33  0     1  0  0  0  0  0999 V2000
   -4.0702   -3.8485    1.4554 H   0  0  0  0  0  0  0  0  0  0  0  0
   -4.0012   -2.9605    0.8284 C   0  0  0  0  0  0  0  0  0  0  0  0
   -4.7652   -2.2435    1.1234 H   0  0  0  0  0  0  0  0  0  0  0  0
   -4.1352   -3.2385   -0.2156 H   0  0  0  0  0  0  0  0  0  0  0  0
   -2.6362   -2.3395    1.0094 C   0  0  0  0  0  0  0  0  0  0  0  0
   -1.8292   -2.8395    1.7814 O   0  0  0  0  0  0  0  0  0  0  0  0
   -2.3832   -1.2445    0.2964 N   0  0  0  0  0  0  0  0  0  0  0  0
   -3.1102   -0.8685   -0.2946 H   0  0  0  0  0  0  0  0  0  0  0  0
   -1.1292   -0.4875    0.3524 C   0  0  1  0  0  0  0  0  0  0  0  0
   -0.5898   -0.7762    1.2552 H   0  0  0  0  0  0  0  0  0  0  0  0
   -0.2608   -0.8470   -0.8656 C   0  0  0  0  0  0  0  0  0  0  0  0
   -0.6642   -0.3486   -1.7480 H   0  0  0  0  0  0  0  0  0  0  0  0
    0.7481   -0.4629   -0.7059 H   0  0  0  0  0  0  0  0  0  0  0  0
   -0.1920   -2.3340   -1.1550 C   0  0  0  0  0  0  0  0  0  0  0  0
    0.9568   -2.8900   -1.7528 C   0  0  0  0  0  0  0  0  0  0  0  0
    1.7848   -2.2514   -2.0316 H   0  0  0  0  0  0  0  0  0  0  0  0
    1.0322   -4.2776   -1.9826 C   0  0  0  0  0  0  0  0  0  0  0  0
    1.9128   -4.6996   -2.4420 H   0  0  0  0  0  0  0  0  0  0  0  0
   -0.0438   -5.1122   -1.6095 C   0  0  0  0  0  0  0  0  0  0  0  0
    0.0205   -6.4519   -1.8242 O   0  0  0  0  0  0  0  0  0  0  0  0
    0.8035   -6.7016   -2.3166 H   0  0  0  0  0  0  0  0  0  0  0  0
   -1.1906   -4.5548   -1.0069 C   0  0  0  0  0  0  0  0  0  0  0  0
   -2.0086   -5.2027   -0.7302 H   0  0  0  0  0  0  0  0  0  0  0  0
   -1.2649   -3.1669   -0.7828 C   0  0  0  0  0  0  0  0  0  0  0  0
   -2.1501   -2.7382   -0.3283 H   0  0  0  0  0  0  0  0  0  0  0  0
   -1.4018    1.0238    0.4329 C   0  0  0  0  0  0  0  0  0  0  0  0
   -2.2416    1.5423   -0.3033 O   0  0  0  0  0  0  0  0  0  0  0  0
   -0.6927    1.7304    1.3223 N   0  0  0  0  0  0  0  0  0  0  0  0
    0.0178    1.2410    1.8469 H   0  0  0  0  0  0  0  0  0  0  0  0
   -0.8259    3.1712    1.5254 C   0  0  0  0  0  0  0  0  0  0  0  0
   -1.8769    3.4302    1.6645 H   0  0  0  0  0  0  0  0  0  0  0  0
   -0.2598    3.4806    2.4054 H   0  0  0  0  0  0  0  0  0  0  0  0
   -0.4486    3.7020    0.6489 H   0  0  0  0  0  0  0  0  0  0  0  0
  5  6  2  0  0  0  0
  5  7  1  0  0  0  0
  2  3  1  0  0  0  0
  2  4  1  0  0  0  0
  2  5  1  0  0  0  0
  1  2  1  0  0  0  0
 26 27  2  0  0  0  0
 26 28  1  0  0  0  0
 24 25  1  0  0  0  0
 22 23  1  0  0  0  0
 22 24  2  0  0  0  0
 20 21  1  0  0  0  0
 19 20  1  0  0  0  0
 19 22  1  0  0  0  0
 17 18  1  0  0  0  0
 17 19  2  0  0  0  0
 15 16  1  0  0  0  0
 15 17  1  0  0  0  0
 14 15  2  0  0  0  0
 14 24  1  0  0  0  0
 11 12  1  0  0  0  0
 11 13  1  0  0  0  0
 11 14  1  0  0  0  0
  9 10  1  0  0  0  0
  9 11  1  0  0  0  0
  9 26  1  0  0  0  0
  7  8  1  0  0  0  0
  7  9  1  0  0  0  0
 30 31  1  0  0  0  0
 30 32  1  0  0  0  0
 30 33  1  0  0  0  0
 28 29  1  0  0  0  0
 28 30  1  0  0  0  0
M  END
$$$$
default_name
  -OEChem-02102213163D

 33 33  0     1  0  0  0  0  0999 V2000
   -4.0702   -3.8485    1.4554 H   0  0  0  0  0  0  0  0  0  0  0  0
   -4.0012   -2.9605    0.8284 C   0  0  0  0  0  0  0  0  0  0  0  0
   -4.7652   -2.2435    1.1234 H   0  0  0  0  0  0  0  0  0  0  0  0
   -4.1352   -3.2385   -0.2156 H   0  0  0  0  0  0  0  0  0  0  0  0
   -2.6362   -2.3395    1.0094 C   0  0  0  0  0  0  0  0  0  0  0  0
   -1.8292   -2.8395    1.7814 O   0  0  0  0  0  0  0  0  0  0  0  0
   -2.3832   -1.2445    0.2964 N   0  0  0  0  0  0  0  0  0  0  0  0
   -3.1102   -0.8685   -0.2946 H   0  0  0  0  0  0  0  0  0  0  0  0
   -1.1292   -0.4875    0.3524 C   0  0  1  0  0  0  0  0  0  0  0  0
   -0.5898   -0.7762    1.2552 H   0  0  0  0  0  0  0  0  0  0  0  0
   -0.2608   -0.8470   -0.8656 C   0  0  0  0  0  0  0  0  0  0  0  0
   -0.6642   -0.3486   -1.7480 H   0  0  0  0  0  0  0  0  0  0  0  0
    0.7481   -0.4629   -0.7059 H   0  0  0  0  0  0  0  0  0  0  0  0
   -0.1920   -2.3340   -1.1550 C   0  0  0  0  0  0  0  0  0  0  0  0
    1.0430   -2.9445   -1.4521 C   0  0  0  0  0  0  0  0  0  0  0  0
    1.9443   -2.3475   -1.5002 H   0  0  0  0  0  0  0  0  0  0  0  0
    1.1078   -4.3329   -1.6803 C   0  0  0  0  0  0  0  0  0  0  0  0
    2.0550   -4.7968   -1.9090 H   0  0  0  0  0  0  0  0  0  0  0  0
   -0.0664   -5.1137   -1.6074 C   0  0  0  0  0  0  0  0  0  0  0  0
   -0.0139   -6.4538   -1.8229 O   0  0  0  0  0  0  0  0  0  0  0  0
    0.8556   -6.7403   -2.1053 H   0  0  0  0  0  0  0  0  0  0  0  0
   -1.3006   -4.5018   -1.3052 C   0  0  0  0  0  0  0  0  0  0  0  0
   -2.1921   -5.1088   -1.2566 H   0  0  0  0  0  0  0  0  0  0  0  0
   -1.3628   -3.1132   -1.0821 C   0  0  0  0  0  0  0  0  0  0  0  0
   -2.3129   -2.6424   -0.8591 H   0  0  0  0  0  0  0  0  0  0  0  0
   -1.4018    1.0238    0.4329 C   0  0  0  0  0  0  0  0  0  0  0  0
   -2.2416    1.5423   -0.3033 O   0  0  0  0  0  0  0  0  0  0  0  0
   -0.6927    1.7304    1.3223 N   0  0  0  0  0  0  0  0  0  0  0  0
    0.0178    1.2410    1.8469 H   0  0  0  0  0  0  0  0  0  0  0  0
   -0.8259    3.1712    1.5254 C   0  0  0  0  0  0  0  0  0  0  0  0
   -1.8769    3.4302    1.6645 H   0  0  0  0  0  0  0  0  0  0  0  0
   -0.2598    3.4806    2.4054 H   0  0  0  0  0  0  0  0  0  0  0  0
   -0.4486    3.7020    0.6489 H   0  0  0  0  0  0  0  0  0  0  0  0
  5  6  2  0  0  0  0
  5  7  1  0  0  0  0
  2  3  1  0  0  0  0
  2  4  1  0  0  0  0
  2  5  1  0  0  0  0
  1  2  1  0  0  0  0
 26 27  2  0  0  0  0
 26 28  1  0  0  0  0
 24 25  1  0  0  0  0
 22 23  1  0  0  0  0
 22 24  2  0  0  0  0
 20 21  1  0  0  0  0
 19 20  1  0  0  0  0
 19 22  1  0  0  0  0
 17 18  1  0  0  0  0
 17 19  2  0  0  0  0
 15 16  1  0  0  0  0
 15 17  1  0  0  0  0
 14 15  2  0  0  0  0
 14 24  1  0  0  0  0
 11 12  1  0  0  0  0
 11 13  1  0  0  0  0
 11 14  1  0  0  0  0
  9 10  1  0  0  0  0
  9 11  1  0  0  0  0
  9 26  1  0  0  0  0
  7  8  1  0  0  0  0
  7  9  1  0  0  0  0
 30 31  1  0  0  0  0
 30 32  1  0  0  0  0
 30 33  1  0  0  0  0
 28 29  1  0  0  0  0
 28 30  1  0  0  0  0
M  END
$$$$
default_name
  -OEChem-02102213163D

 33 33  0     1  0  0  0  0  0999 V2000
   -4.0702   -3.8485    1.4554 H   0  0  0  0  0  0  0  0  0  0  0  0
   -4.0012   -2.9605    0.8284 C   0  0  0  0  0  0  0  0  0  0  0  0
   -4.7652   -2.2435    1.1234 H   0  0  0  0  0  0  0  0  0  0  0  0
   -4.1352   -3.2385   -0.2156 H   0  0  0  0  0  0  0  0  0  0  0  0
   -2.6362   -2.3395    1.0094 C   0  0  0  0  0  0  0  0  0  0  0  0
   -1.8292   -2.8395    1.7814 O   0  0  0  0  0  0  0  0  0  0  0  0
   -2.3832   -1.2445    0.2964 N   0  0  0  0  0  0  0  0  0  0  0  0
   -3.1102   -0.8685   -0.2946 H   0  0  0  0  0  0  0  0  0  0  0  0
   -1.1292   -0.4875    0.3524 C   0  0  1  0  0  0  0  0  0  0  0  0
   -0.5898   -0.7762    1.2552 H   0  0  0  0  0  0  0  0  0  0  0  0
   -0.2608   -0.8470   -0.8656 C   0  0  0  0  0  0  0  0  0  0  0  0
   -0.6642   -0.3486   -1.7480 H   0  0  0  0  0  0  0  0  0  0  0  0
    0.7481   -0.4629   -0.7059 H   0  0  0  0  0  0  0  0  0  0  0  0
   -0.1920   -2.3340   -1.1550 C   0  0  0  0  0  0  0  0  0  0  0  0
    1.0473   -3.0050   -1.1403 C   0  0  0  0  0  0  0  0  0  0  0  0
    1.9587   -2.4544   -0.9476 H   0  0  0  0  0  0  0  0  0  0  0  0
    1.1014   -4.3936   -1.3698 C   0  0  0  0  0  0  0  0  0  0  0  0
    2.0522   -4.9039   -1.3593 H   0  0  0  0  0  0  0  0  0  0  0  0
   -0.0888   -5.1140   -1.6110 C   0  0  0  0  0  0  0  0  0  0  0  0
   -0.0475   -6.4538   -1.8305 O   0  0  0  0  0  0  0  0  0  0  0  0
    0.8505   -6.7828   -1.8883 H   0  0  0  0  0  0  0  0  0  0  0  0
   -1.3285   -4.4417   -1.6205 C   0  0  0  0  0  0  0  0  0  0  0  0
   -2.2311   -5.0027   -1.8106 H   0  0  0  0  0  0  0  0  0  0  0  0
   -1.3788   -3.0529   -1.3954 C   0  0  0  0  0  0  0  0  0  0  0  0
   -2.3307   -2.5356   -1.4120 H   0  0  0  0  0  0  0  0  0  0  0  0
   -1.4018    1.0238    0.4329 C   0  0  0  0  0  0  0  0  0  0  0  0
   -2.2416    1.5423   -0.3033 O   0  0  0  0  0  0  0  0  0  0  0  0
   -0.6927    1.7304    1.3223 N   0  0  0  0  0  0  0  0  0  0  0  0
    0.0178    1.2410    1.8469 H   0  0  0  0  0  0  0  0  0  0  0  0
   -0.8259    3.1712    1.5254 C   0  0  0  0  0  0  0  0  0  0  0  0
   -1.8769    3.4302    1.6645 H   0  0  0  0  0  0  0  0  0  0  0  0
   -0.2598    3.4806    2.4054 H   0  0  0  0  0  0  0  0  0  0  0  0
   -0.4486    3.7020    0.6489 H   0  0  0  0  0  0  0  0  0  0  0  0
  5  6  2  0  0  0  0
  5  7  1  0  0  0  0
  2  3  1  0  0  0  0
  2  4  1  0  0  0  0
  2  5  1  0  0  0  0
  1  2  1  0  0  0  0
 26 27  2  0  0  0  0
 26 28  1  0  0  0  0
 24 25  1  0  0  0  0
 22 23  1  0  0  0  0
 22 24  2  0  0  0  0
 20 21  1  0  0  0  0
 19 20  1  0  0  0  0
 19 22  1  0  0  0  0
 17 18  1  0  0  0  0
 17 19  2  0  0  0  0
 15 16  1  0  0  0  0
 15 17  1  0  0  0  0
 14 15  2  0  0  0  0
 14 24  1  0  0  0  0
 11 12  1  0  0  0  0
 11 13  1  0  0  0  0
 11 14  1  0  0  0  0
  9 10  1  0  0  0  0
  9 11  1  0  0  0  0
  9 26  1  0  0  0  0
  7  8  1  0  0  0  0
  7  9  1  0  0  0  0
 30 31  1  0  0  0  0
 30 32  1  0  0  0  0
 30 33  1  0  0  0  0
 28 29  1  0  0  0  0
 28 30  1  0  0  0  0
M  END
$$$$
default_name
  -OEChem-02102213163D

 33 33  0     1  0  0  0  0  0999 V2000
   -4.0702   -3.8485    1.4554 H   0  0  0  0  0  0  0  0  0  0  0  0
   -4.0012   -2.9605    0.8284 C   0  0  0  0  0  0  0  0  0  0  0  0
   -4.7652   -2.2435    1.1234 H   0  0  0  0  0  0  0  0  0  0  0  0
   -4.1352   -3.2385   -0.2156 H   0  0  0  0  0  0  0  0  0  0  0  0
   -2.6362   -2.3395    1.0094 C   0  0  0  0  0  0  0  0  0  0  0  0
   -1.8292   -2.8395    1.7814 O   0  0  0  0  0  0  0  0  0  0  0  0
   -2.3832   -1.2445    0.2964 N   0  0  0  0  0  0  0  0  0  0  0  0
   -3.1102   -0.8685   -0.2946 H   0  0  0  0  0  0  0  0  0  0  0  0
   -1.1292   -0.4875    0.3524 C   0  0  1  0  0  0  0  0  0  0  0  0
   -0.5898   -0.7762    1.2552 H   0  0  0  0  0  0  0  0  0  0  0  0
   -0.2608   -0.8470   -0.8656 C   0  0  0  0  0  0  0  0  0  0  0  0
   -0.6642   -0.3486   -1.7480 H   0  0  0  0  0  0  0  0  0  0  0  0
    0.7481   -0.4629   -0.7059 H   0  0  0  0  0  0  0  0  0  0  0  0
   -0.1920   -2.3340   -1.1550 C   0  0  0  0  0  0  0  0  0  0  0  0
    0.9692   -3.0673   -0.8388 C   0  0  0  0  0  0  0  0  0  0  0  0
    1.8271   -2.5648   -0.4114 H   0  0  0  0  0  0  0  0  0  0  0  0
    1.0133   -4.4556   -1.0722 C   0  0  0  0  0  0  0  0  0  0  0  0
    1.9047   -5.0137   -0.8303 H   0  0  0  0  0  0  0  0  0  0  0  0
   -0.1096   -5.1131   -1.6203 C   0  0  0  0  0  0  0  0  0  0  0  0
   -0.0781   -6.4522   -1.8464 O   0  0  0  0  0  0  0  0  0  0  0  0
    0.7883   -6.8261   -1.6806 H   0  0  0  0  0  0  0  0  0  0  0  0
   -1.2725   -4.3786   -1.9316 C   0  0  0  0  0  0  0  0  0  0  0  0
   -2.1230   -4.8919   -2.3543 H   0  0  0  0  0  0  0  0  0  0  0  0
   -1.3118   -2.9903   -1.7014 C   0  0  0  0  0  0  0  0  0  0  0  0
   -2.2024   -2.4250   -1.9494 H   0  0  0  0  0  0  0  0  0  0  0  0
   -1.4018    1.0238    0.4329 C   0  0  0  0  0  0  0  0  0  0  0  0
   -2.2416    1.5423   -0.3033 O   0  0  0  0  0  0  0  0  0  0  0  0
   -0.6927    1.7304    1.3223 N   0  0  0  0  0  0  0  0  0  0  0  0
    0.0178    1.2410    1.8469 H   0  0  0  0  0  0  0  0  0  0  0  0
   -0.8259    3.1712    1.5254 C   0  0  0  0  0  0  0  0  0  0  0  0
   -1.8769    3.4302    1.6645 H   0  0  0  0  0  0  0  0  0  0  0  0
   -0.2598    3.4806    2.4054 H   0  0  0  0  0  0  0  0  0  0  0  0
   -0.4486    3.7020    0.6489 H   0  0  0  0  0  0  0  0  0  0  0  0
  5  6  2  0  0  0  0
  5  7  1  0  0  0  0
  2  3  1  0  0  0  0
  2  4  1  0  0  0  0
  2  5  1  0  0  0  0
  1  2  1  0  0  0  0
 26 27  2  0  0  0  0
 26 28  1  0  0  0  0
 24 25  1  0  0  0  0
 22 23  1  0  0  0  0
 22 24  2  0  0  0  0
 20 21  1  0  0  0  0
 19 20  1  0  0  0  0
 19 22  1  0  0  0  0
 17 18  1  0  0  0  0
 17 19  2  0  0  0  0
 15 16  1  0  0  0  0
 15 17  1  0  0  0  0
 14 15  2  0  0  0  0
 14 24  1  0  0  0  0
 11 12  1  0  0  0  0
 11 13  1  0  0  0  0
 11 14  1  0  0  0  0
  9 10  1  0  0  0  0
  9 11  1  0  0  0  0
  9 26  1  0  0  0  0
  7  8  1  0  0  0  0
  7  9  1  0  0  0  0
 30 31  1  0  0  0  0
 30 32  1  0  0  0  0
 30 33  1  0  0  0  0
 28 29  1  0  0  0  0
 28 30  1  0  0  0  0
M  END
$$$$
default_name
  -OEChem-02102213163D

 33 33  0     1  0  0  0  0  0999 V2000
   -4.0702   -3.8485    1.4554 H   0  0  0  0  0  0  0  0  0  0  0  0
   -4.0012   -2.9605    0.8284 C   0  0  0  0  0  0  0  0  0  0  0  0
   -4.7652   -2.2435    1.1234 H   0  0  0  0  0  0  0  0  0  0  0  0
   -4.1352   -3.2385   -0.2156 H   0  0  0  0  0  0  0  0  0  0  0  0
   -2.6362   -2.3395    1.0094 C   0  0  0  0  0  0  0  0  0  0  0  0
   -1.8292   -2.8395    1.7814 O   0  0  0  0  0  0  0  0  0  0  0  0
   -2.3832   -1.2445    0.2964 N   0  0  0  0  0  0  0  0  0  0  0  0
   -3.1102   -0.8685   -0.2946 H   0  0  0  0  0  0  0  0  0  0  0  0
   -1.1292   -0.4875    0.3524 C   0  0  1  0  0  0  0  0  0  0  0  0
   -0.5898   -0.7762    1.2552 H   0  0  0  0  0  0  0  0  0  0  0  0
   -0.2608   -0.8470   -0.8656 C   0  0  0  0  0  0  0  0  0  0  0  0
   -0.6642   -0.3486   -1.7480 H   0  0  0  0  0  0  0  0  0  0  0  0
    0.7481   -0.4629   -0.7059 H   0  0  0  0  0  0  0  0  0  0  0  0
   -0.1920   -2.3340   -1.1550 C   0  0  0  0  0  0  0  0  0  0  0  0
    0.8143   -3.1272   -0.5681 C   0  0  0  0  0  0  0  0  0  0  0  0
    1.5585   -2.6713    0.0718 H   0  0  0  0  0  0  0  0  0  0  0  0
    0.8497   -4.5147   -0.8078 C   0  0  0  0  0  0  0  0  0  0  0  0
    1.6226   -5.1187   -0.3580 H   0  0  0  0  0  0  0  0  0  0  0  0
   -0.1272   -5.1112   -1.6345 C   0  0  0  0  0  0  0  0  0  0  0  0
   -0.1035   -6.4489   -1.8694 O   0  0  0  0  0  0  0  0  0  0  0  0
    0.6734   -6.8673   -1.4963 H   0  0  0  0  0  0  0  0  0  0  0  0
   -1.1364   -4.3167   -2.2170 C   0  0  0  0  0  0  0  0  0  0  0  0
   -1.8751   -4.7838   -2.8508 H   0  0  0  0  0  0  0  0  0  0  0  0
   -1.1664   -2.9294   -1.9792 C   0  0  0  0  0  0  0  0  0  0  0  0
   -1.9365   -2.3183   -2.4346 H   0  0  0  0  0  0  0  0  0  0  0  0
   -1.4018    1.0238    0.4329 C   0  0  0  0  0  0  0  0  0  0  0  0
   -2.2416    1.5423   -0.3033 O   0  0  0  0  0  0  0  0  0  0  0  0
   -0.6927    1.7304    1.3223 N   0  0  0  0  0  0  0  0  0  0  0  0
    0.0178    1.2410    1.8469 H   0  0  0  0  0  0  0  0  0  0  0  0
   -0.8259    3.1712    1.5254 C   0  0  0  0  0  0  0  0  0  0  0  0
   -1.8769    3.4302    1.6645 H   0  0  0  0  0  0  0  0  0  0  0  0
   -0.2598    3.4806    2.4054 H   0  0  0  0  0  0  0  0  0  0  0  0
   -0.4486    3.7020    0.6489 H   0  0  0  0  0  0  0  0  0  0  0  0
  5  6  2  0  0  0  0
  5  7  1  0  0  0  0
  2  3  1  0  0  0  0
  2  4  1  0  0  0  0
  2  5  1  0  0  0  0
  1  2  1  0  0  0  0
 26 27  2  0  0  0  0
 26 28  1  0  0  0  0
 24 25  1  0  0  0  0
 22 23  1  0  0  0  0
 22 24  2  0  0  0  0
 20 21  1  0  0  0  0
 19 20  1  0  0  0  0
 19 22  1  0  0  0  0
 17 18  1  0  0  0  0
 17 19  2  0  0  0  0
 15 16  1  0  0  0  0
 15 17  1  0  0  0  0
 14 15  2  0  0  0  0
 14 24  1  0  0  0  0
 11 12  1  0  0  0  0
 11 13  1  0  0  0  0
 11 14  1  0  0  0  0
  9 10  1  0  0  0  0
  9 11  1  0  0  0  0
  9 26  1  0  0  0  0
  7  8  1  0  0  0  0
  7  9  1  0  0  0  0
 30 31  1  0  0  0  0
 30 32  1  0  0  0  0
 30 33  1  0  0  0  0
 28 29  1  0  0  0  0
 28 30  1  0  0  0  0
M  END
$$$$
default_name
  -OEChem-02102213163D

 33 33  0     1  0  0  0  0  0999 V2000
   -4.0702   -3.8485    1.4554 H   0  0  0  0  0  0  0  0  0  0  0  0
   -4.0012   -2.9605    0.8284 C   0  0  0  0  0  0  0  0  0  0  0  0
   -4.7652   -2.2435    1.1234 H   0  0  0  0  0  0  0  0  0  0  0  0
   -4.1352   -3.2385   -0.2156 H   0  0  0  0  0  0  0  0  0  0  0  0
   -2.6362   -2.3395    1.0094 C   0  0  0  0  0  0  0  0  0  0  0  0
   -1.8292   -2.8395    1.7814 O   0  0  0  0  0  0  0  0  0  0  0  0
   -2.3832   -1.2445    0.2964 N   0  0  0  0  0  0  0  0  0  0  0  0
   -3.1102   -0.8685   -0.2946 H   0  0  0  0  0  0  0  0  0  0  0  0
   -1.1292   -0.4875    0.3524 C   0  0  1  0  0  0  0  0  0  0  0  0
   -0.5898   -0.7762    1.2552 H   0  0  0  0  0  0  0  0  0  0  0  0
   -0.2608   -0.8470   -0.8656 C   0  0  0  0  0  0  0  0  0  0  0  0
   -0.6642   -0.3486   -1.7480 H   0  0  0  0  0  0  0  0  0  0  0  0
    0.7481   -0.4629   -0.7059 H   0  0  0  0  0  0  0  0  0  0  0  0
   -0.1920   -2.3340   -1.1550 C   0  0  0  0  0  0  0  0  0  0  0  0
    0.5930   -3.1805   -0.3466 C   0  0  0  0  0  0  0  0  0  0  0  0
    1.1711   -2.7666    0.4692 H   0  0  0  0  0  0  0  0  0  0  0  0
    0.6216   -4.5667   -0.5946 C   0  0  0  0  0  0  0  0  0  0  0  0
    1.2250   -5.2118    0.0254 H   0  0  0  0  0  0  0  0  0  0  0  0
   -0.1406   -5.1083   -1.6526 C   0  0  0  0  0  0  0  0  0  0  0  0
   -0.1220   -6.4441   -1.8981 O   0  0  0  0  0  0  0  0  0  0  0  0
    0.5136   -6.9036   -1.3478 H   0  0  0  0  0  0  0  0  0  0  0  0
   -0.9294   -4.2603   -2.4575 C   0  0  0  0  0  0  0  0  0  0  0  0
   -1.5043   -4.6858   -3.2662 H   0  0  0  0  0  0  0  0  0  0  0  0
   -0.9523   -2.8746   -2.2099 C   0  0  0  0  0  0  0  0  0  0  0  0
   -1.5513   -2.2226   -2.8345 H   0  0  0  0  0  0  0  0  0  0  0  0
   -1.4018    1.0238    0.4329 C   0  0  0  0  0  0  0  0  0  0  0  0
   -2.2416    1.5423   -0.3033 O   0  0  0  0  0  0  0  0  0  0  0  0
   -0.6927    1.7304    1.3223 N   0  0  0  0  0  0  0  0  0  0  0  0
    0.0178    1.2410    1.8469 H   0  0  0  0  0  0  0  0  0  0  0  0
   -0.8259    3.1712    1.5254 C   0  0  0  0  0  0  0  0  0  0  0  0
   -1.8769    3.4302    1.6645 H   0  0  0  0  0  0  0  0  0  0  0  0
   -0.2598    3.4806    2.4054 H   0  0  0  0  0  0  0  0  0  0  0  0
   -0.4486    3.7020    0.6489 H   0  0  0  0  0  0  0  0  0  0  0  0
  5  6  2  0  0  0  0
  5  7  1  0  0  0  0
  2  3  1  0  0  0  0
  2  4  1  0  0  0  0
  2  5  1  0  0  0  0
  1  2  1  0  0  0  0
 26 27  2  0  0  0  0
 26 28  1  0  0  0  0
 24 25  1  0  0  0  0
 22 23  1  0  0  0  0
 22 24  2  0  0  0  0
 20 21  1  0  0  0  0
 19 20  1  0  0  0  0
 19 22  1  0  0  0  0
 17 18  1  0  0  0  0
 17 19  2  0  0  0  0
 15 16  1  0  0  0  0
 15 17  1  0  0  0  0
 14 15  2  0  0  0  0
 14 24  1  0  0  0  0
 11 12  1  0  0  0  0
 11 13  1  0  0  0  0
 11 14  1  0  0  0  0
  9 10  1  0  0  0  0
  9 11  1  0  0  0  0
  9 26  1  0  0  0  0
  7  8  1  0  0  0  0
  7  9  1  0  0  0  0
 30 31  1  0  0  0  0
 30 32  1  0  0  0  0
 30 33  1  0  0  0  0
 28 29  1  0  0  0  0
 28 30  1  0  0  0  0
M  END
$$$$
default_name
  -OEChem-02102213163D

 33 33  0     1  0  0  0  0  0999 V2000
   -4.0702   -3.8485    1.4554 H   0  0  0  0  0  0  0  0  0  0  0  0
   -4.0012   -2.9605    0.8284 C   0  0  0  0  0  0  0  0  0  0  0  0
   -4.7652   -2.2435    1.1234 H   0  0  0  0  0  0  0  0  0  0  0  0
   -4.1352   -3.2385   -0.2156 H   0  0  0  0  0  0  0  0  0  0  0  0
   -2.6362   -2.3395    1.0094 C   0  0  0  0  0  0  0  0  0  0  0  0
   -1.8292   -2.8395    1.7814 O   0  0  0  0  0  0  0  0  0  0  0  0
   -2.3832   -1.2445    0.2964 N   0  0  0  0  0  0  0  0  0  0  0  0
   -3.1102   -0.8685   -0.2946 H   0  0  0  0  0  0  0  0  0  0  0  0
   -1.1292   -0.4875    0.3524 C   0  0  1  0  0  0  0  0  0  0  0  0
   -0.5898   -0.7762    1.2552 H   0  0  0  0  0  0  0  0  0  0  0  0
   -0.2608   -0.8470   -0.8656 C   0  0  0  0  0  0  0  0  0  0  0  0
   -0.6642   -0.3486   -1.7480 H   0  0  0  0  0  0  0  0  0  0  0  0
    0.7481   -0.4629   -0.7059 H   0  0  0  0  0  0  0  0  0  0  0  0
   -0.1920   -2.3340   -1.1550 C   0  0  0  0  0  0  0  0  0  0  0  0
    0.3203   -3.2237   -0.1895 C   0  0  0  0  0  0  0  0  0  0  0  0
    0.6913   -2.8442    0.7535 H   0  0  0  0  0  0  0  0  0  0  0  0
    0.3447   -4.6082   -0.4473 C   0  0  0  0  0  0  0  0  0  0  0  0
    0.7391   -5.2865    0.2937 H   0  0  0  0  0  0  0  0  0  0  0  0
   -0.1487   -5.1046   -1.6735 C   0  0  0  0  0  0  0  0  0  0  0  0
   -0.1324   -6.4383   -1.9305 O   0  0  0  0  0  0  0  0  0  0  0  0
    0.3198   -6.9325   -1.2454 H   0  0  0  0  0  0  0  0  0  0  0  0
   -0.6656   -4.2133   -2.6365 C   0  0  0  0  0  0  0  0  0  0  0  0
   -1.0359   -4.6045   -3.5721 H   0  0  0  0  0  0  0  0  0  0  0  0
   -0.6843   -2.8295   -2.3778 C   0  0  0  0  0  0  0  0  0  0  0  0
   -1.0730   -2.1445   -3.1219 H   0  0  0  0  0  0  0  0  0  0  0  0
   -1.4018    1.0238    0.4329 C   0  0  0  0  0  0  0  0  0  0  0  0
   -2.2416    1.5423   -0.3033 O   0  0  0  0  0  0  0  0  0  0  0  0
   -0.6927    1.7304    1.3223 N   0  0  0  0  0  0  0  0  0  0  0  0
    0.0178    1.2410    1.8469 H   0  0  0  0  0  0  0  0  0  0  0  0
   -0.8259    3.1712    1.5254 C   0  0  0  0  0  0  0  0  0  0  0  0
   -1.8769    3.4302    1.6645 H   0  0  0  0  0  0  0  0  0  0  0  0
   -0.2598    3.4806    2.4054 H   0  0  0  0  0  0  0  0  0  0  0  0
   -0.4486    3.7020    0.6489 H   0  0  0  0  0  0  0  0  0  0  0  0
  5  6  2  0  0  0  0
  5  7  1  0  0  0  0
  2  3  1  0  0  0  0
  2  4  1  0  0  0  0
  2  5  1  0  0  0  0
  1  2  1  0  0  0  0
 26 27  2  0  0  0  0
 26 28  1  0  0  0  0
 24 25  1  0  0  0  0
 22 23  1  0  0  0  0
 22 24  2  0  0  0  0
 20 21  1  0  0  0  0
 19 20  1  0  0  0  0
 19 22  1  0  0  0  0
 17 18  1  0  0  0  0
 17 19  2  0  0  0  0
 15 16  1  0  0  0  0
 15 17  1  0  0  0  0
 14 15  2  0  0  0  0
 14 24  1  0  0  0  0
 11 12  1  0  0  0  0
 11 13  1  0  0  0  0
 11 14  1  0  0  0  0
  9 10  1  0  0  0  0
  9 11  1  0  0  0  0
  9 26  1  0  0  0  0
  7  8  1  0  0  0  0
  7  9  1  0  0  0  0
 30 31  1  0  0  0  0
 30 32  1  0  0  0  0
 30 33  1  0  0  0  0
 28 29  1  0  0  0  0
 28 30  1  0  0  0  0
M  END
$$$$
default_name
  -OEChem-02102213163D

 33 33  0     1  0  0  0  0  0999 V2000
   -4.0702   -3.8485    1.4554 H   0  0  0  0  0  0  0  0  0  0  0  0
   -4.0012   -2.9605    0.8284 C   0  0  0  0  0  0  0  0  0  0  0  0
   -4.7652   -2.2435    1.1234 H   0  0  0  0  0  0  0  0  0  0  0  0
   -4.1352   -3.2385   -0.2156 H   0  0  0  0  0  0  0  0  0  0  0  0
   -2.6362   -2.3395    1.0094 C   0  0  0  0  0  0  0  0  0  0  0  0
   -1.8292   -2.8395    1.7814 O   0  0  0  0  0  0  0  0  0  0  0  0
   -2.3832   -1.2445    0.2964 N   0  0  0  0  0  0  0  0  0  0  0  0
   -3.1102   -0.8685   -0.2946 H   0  0  0  0  0  0  0  0  0  0  0  0
   -1.1292   -0.4875    0.3524 C   0  0  1  0  0  0  0  0  0  0  0  0
   -0.5898   -0.7762    1.2552 H   0  0  0  0  0  0  0  0  0  0  0  0
   -0.2608   -0.8470   -0.8656 C   0  0  0  0  0  0  0  0  0  0  0  0
   -0.6642   -0.3486   -1.7480 H   0  0  0  0  0  0  0  0  0  0  0  0
    0.7481   -0.4629   -0.7059 H   0  0  0  0  0  0  0  0  0  0  0  0
   -0.1920   -2.3340   -1.1550 C   0  0  0  0  0  0  0  0  0  0  0  0
    0.0150   -3.2538   -0.1075 C   0  0  0  0  0  0  0  0  0  0  0  0
    0.1519   -2.8987    0.9055 H   0  0  0  0  0  0  0  0  0  0  0  0
    0.0377   -4.6364   -0.3757 C   0  0  0  0  0  0  0  0  0  0  0  0
    0.1980   -5.3378    0.4287 H   0  0  0  0  0  0  0  0  0  0  0  0
   -0.1511   -5.1004   -1.6958 C   0  0  0  0  0  0  0  0  0  0  0  0
   -0.1339   -6.4318   -1.9643 O   0  0  0  0  0  0  0  0  0  0  0  0
    0.1052   -6.9520   -1.1961 H   0  0  0  0  0  0  0  0  0  0  0  0
   -0.3631   -4.1787   -2.7420 C   0  0  0  0  0  0  0  0  0  0  0  0
   -0.5018   -4.5456   -3.7478 H   0  0  0  0  0  0  0  0  0  0  0  0
   -0.3806   -2.7973   -2.4714 C   0  0  0  0  0  0  0  0  0  0  0  0
   -0.5342   -2.0894   -3.2772 H   0  0  0  0  0  0  0  0  0  0  0  0
   -1.4018    1.0238    0.4329 C   0  0  0  0  0  0  0  0  0  0  0  0
   -2.2416    1.5423   -0.3033 O   0  0  0  0  0  0  0  0  0  0  0  0
   -0.6927    1.7304    1.3223 N   0  0  0  0  0  0  0  0  0  0  0  0
    0.0178    1.2410    1.8469 H   0  0  0  0  0  0  0  0  0  0  0  0
   -0.8259    3.1712    1.5254 C   0  0  0  0  0  0  0  0  0  0  0  0
   -1.8769    3.4302    1.6645 H   0  0  0  0  0  0  0  0  0  0  0  0
   -0.2598    3.4806    2.4054 H   0  0  0  0  0  0  0  0  0  0  0  0
   -0.4486    3.7020    0.6489 H   0  0  0  0  0  0  0  0  0  0  0  0
  5  6  2  0  0  0  0
  5  7  1  0  0  0  0
  2  3  1  0  0  0  0
  2  4  1  0  0  0  0
  2  5  1  0  0  0  0
  1  2  1  0  0  0  0
 26 27  2  0  0  0  0
 26 28  1  0  0  0  0
 24 25  1  0  0  0  0
 22 23  1  0  0  0  0
 22 24  2  0  0  0  0
 20 21  1  0  0  0  0
 19 20  1  0  0  0  0
 19 22  1  0  0  0  0
 17 18  1  0  0  0  0
 17 19  2  0  0  0  0
 15 16  1  0  0  0  0
 15 17  1  0  0  0  0
 14 15  2  0  0  0  0
 14 24  1  0  0  0  0
 11 12  1  0  0  0  0
 11 13  1  0  0  0  0
 11 14  1  0  0  0  0
  9 10  1  0  0  0  0
  9 11  1  0  0  0  0
  9 26  1  0  0  0  0
  7  8  1  0  0  0  0
  7  9  1  0  0  0  0
 30 31  1  0  0  0  0
 30 32  1  0  0  0  0
 30 33  1  0  0  0  0
 28 29  1  0  0  0  0
 28 30  1  0  0  0  0
M  END
$$$$
default_name
  -OEChem-02102213163D

 33 33  0     1  0  0  0  0  0999 V2000
   -4.0702   -3.8485    1.4554 H   0  0  0  0  0  0  0  0  0  0  0  0
   -4.0012   -2.9605    0.8284 C   0  0  0  0  0  0  0  0  0  0  0  0
   -4.7652   -2.2435    1.1234 H   0  0  0  0  0  0  0  0  0  0  0  0
   -4.1352   -3.2385   -0.2156 H   0  0  0  0  0  0  0  0  0  0  0  0
   -2.6362   -2.3395    1.0094 C   0  0  0  0  0  0  0  0  0  0  0  0
   -1.8292   -2.8395    1.7814 O   0  0  0  0  0  0  0  0  0  0  0  0
   -2.3832   -1.2445    0.2964 N   0  0  0  0  0  0  0  0  0  0  0  0
   -3.1102   -0.8685   -0.2946 H   0  0  0  0  0  0  0  0  0  0  0  0
   -1.1292   -0.4875    0.3524 C   0  0  1  0  0  0  0  0  0  0  0  0
   -0.5898   -0.7762    1.2552 H   0  0  0  0  0  0  0  0  0  0  0  0
   -0.2608   -0.8470   -0.8656 C   0  0  0  0  0  0  0  0  0  0  0  0
   -0.6642   -0.3486   -1.7480 H   0  0  0  0  0  0  0  0  0  0  0  0
    0.7481   -0.4629   -0.7059 H   0  0  0  0  0  0  0  0  0  0  0  0
   -0.1920   -2.3340   -1.1550 C   0  0  0  0  0  0  0  0  0  0  0  0
   -0.3022   -3.2688   -0.1061 C   0  0  0  0  0  0  0  0  0  0  0  0
   -0.4104   -2.9266    0.9148 H   0  0  0  0  0  0  0  0  0  0  0  0
   -0.2784   -4.6492   -0.3847 C   0  0  0  0  0  0  0  0  0  0  0  0
   -0.3615   -5.3622    0.4211 H   0  0  0  0  0  0  0  0  0  0  0  0
   -0.1476   -5.0959   -1.7178 C   0  0  0  0  0  0  0  0  0  0  0  0
   -0.1265   -6.4250   -1.9972 O   0  0  0  0  0  0  0  0  0  0  0  0
   -0.1156   -6.9609   -1.2031 H   0  0  0  0  0  0  0  0  0  0  0  0
   -0.0423   -4.1591   -2.7667 C   0  0  0  0  0  0  0  0  0  0  0  0
    0.0616   -4.5130   -3.7813 H   0  0  0  0  0  0  0  0  0  0  0  0
   -0.0619   -2.7800   -2.4844 C   0  0  0  0  0  0  0  0  0  0  0  0
    0.0283   -2.0609   -3.2899 H   0  0  0  0  0  0  0  0  0  0  0  0
   -1.4018    1.0238    0.4329 C   0  0  0  0  0  0  0  0  0  0  0  0
   -2.2416    1.5423   -0.3033 O   0  0  0  0  0  0  0  0  0  0  0  0
   -0.6927    1.7304    1.3223 N   0  0  0  0  0  0  0  0  0  0  0  0
    0.0178    1.2410    1.8469 H   0  0  0  0  0  0  0  0  0  0  0  0
   -0.8259    3.1712    1.5254 C   0  0  0  0  0  0  0  0  0  0  0  0
   -1.8769    3.4302    1.6645 H   0  0  0  0  0  0  0  0  0  0  0  0
   -0.2598    3.4806    2.4054 H   0  0  0  0  0  0  0  0  0  0  0  0
   -0.4486    3.7020    0.6489 H   0  0  0  0  0  0  0  0  0  0  0  0
  5  6  2  0  0  0  0
  5  7  1  0  0  0  0
  2  3  1  0  0  0  0
  2  4  1  0  0  0  0
  2  5  1  0  0  0  0
  1  2  1  0  0  0  0
 26 27  2  0  0  0  0
 26 28  1  0  0  0  0
 24 25  1  0  0  0  0
 22 23  1  0  0  0  0
 22 24  2  0  0  0  0
 20 21  1  0  0  0  0
 19 20  1  0  0  0  0
 19 22  1  0  0  0  0
 17 18  1  0  0  0  0
 17 19  2  0  0  0  0
 15 16  1  0  0  0  0
 15 17  1  0  0  0  0
 14 15  2  0  0  0  0
 14 24  1  0  0  0  0
 11 12  1  0  0  0  0
 11 13  1  0  0  0  0
 11 14  1  0  0  0  0
  9 10  1  0  0  0  0
  9 11  1  0  0  0  0
  9 26  1  0  0  0  0
  7  8  1  0  0  0  0
  7  9  1  0  0  0  0
 30 31  1  0  0  0  0
 30 32  1  0  0  0  0
 30 33  1  0  0  0  0
 28 29  1  0  0  0  0
 28 30  1  0  0  0  0
M  END
$$$$
default_name
  -OEChem-02102213163D

 33 33  0     1  0  0  0  0  0999 V2000
   -4.0702   -3.8485    1.4554 H   0  0  0  0  0  0  0  0  0  0  0  0
   -4.0012   -2.9605    0.8284 C   0  0  0  0  0  0  0  0  0  0  0  0
   -4.7652   -2.2435    1.1234 H   0  0  0  0  0  0  0  0  0  0  0  0
   -4.1352   -3.2385   -0.2156 H   0  0  0  0  0  0  0  0  0  0  0  0
   -2.6362   -2.3395    1.0094 C   0  0  0  0  0  0  0  0  0  0  0  0
   -1.8292   -2.8395    1.7814 O   0  0  0  0  0  0  0  0  0  0  0  0
   -2.3832   -1.2445    0.2964 N   0  0  0  0  0  0  0  0  0  0  0  0
   -3.1102   -0.8685   -0.2946 H   0  0  0  0  0  0  0  0  0  0  0  0
   -1.1292   -0.4875    0.3524 C   0  0  1  0  0  0  0  0  0  0  0  0
   -0.5898   -0.7762    1.2552 H   0  0  0  0  0  0  0  0  0  0  0  0
   -0.2608   -0.8470   -0.8656 C   0  0  0  0  0  0  0  0  0  0  0  0
   -0.6642   -0.3486   -1.7480 H   0  0  0  0  0  0  0  0  0  0  0  0
    0.7481   -0.4629   -0.7059 H   0  0  0  0  0  0  0  0  0  0  0  0
   -0.1920   -2.3340   -1.1550 C   0  0  0  0  0  0  0  0  0  0  0  0
   -0.6098   -3.2676   -0.1854 C   0  0  0  0  0  0  0  0  0  0  0  0
   -0.9572   -2.9258    0.7808 H   0  0  0  0  0  0  0  0  0  0  0  0
   -0.5820   -4.6459   -0.4739 C   0  0  0  0  0  0  0  0  0  0  0  0
   -0.9012   -5.3581    0.2715 H   0  0  0  0  0  0  0  0  0  0  0  0
   -0.1384   -5.0915   -1.7381 C   0  0  0  0  0  0  0  0  0  0  0  0
   -0.1106   -6.4185   -2.0271 O   0  0  0  0  0  0  0  0  0  0  0  0
   -0.3276   -6.9585   -1.2660 H   0  0  0  0  0  0  0  0  0  0  0  0
    0.2747   -4.1557   -2.7089 C   0  0  0  0  0  0  0  0  0  0  0  0
    0.6160   -4.5090   -3.6703 H   0  0  0  0  0  0  0  0  0  0  0  0
    0.2501   -2.7789   -2.4159 C   0  0  0  0  0  0  0  0  0  0  0  0
    0.5764   -2.0610   -3.1590 H   0  0  0  0  0  0  0  0  0  0  0  0
   -1.4018    1.0238    0.4329 C   0  0  0  0  0  0  0  0  0  0  0  0
   -2.2416    1.5423   -0.3033 O   0  0  0  0  0  0  0  0  0  0  0  0
   -0.6927    1.7304    1.3223 N   0  0  0  0  0  0  0  0  0  0  0  0
    0.0178    1.2410    1.8469 H   0  0  0  0  0  0  0  0  0  0  0  0
   -0.8259    3.1712    1.5254 C   0  0  0  0  0  0  0  0  0  0  0  0
   -1.8769    3.4302    1.6645 H   0  0  0  0  0  0  0  0  0  0  0  0
   -0.2598    3.4806    2.4054 H   0  0  0  0  0  0  0  0  0  0  0  0
   -0.4486    3.7020    0.6489 H   0  0  0  0  0  0  0  0  0  0  0  0
  5  6  2  0  0  0  0
  5  7  1  0  0  0  0
  2  3  1  0  0  0  0
  2  4  1  0  0  0  0
  2  5  1  0  0  0  0
  1  2  1  0  0  0  0
 26 27  2  0  0  0  0
 26 28  1  0  0  0  0
 24 25  1  0  0  0  0
 22 23  1  0  0  0  0
 22 24  2  0  0  0  0
 20 21  1  0  0  0  0
 19 20  1  0  0  0  0
 19 22  1  0  0  0  0
 17 18  1  0  0  0  0
 17 19  2  0  0  0  0
 15 16  1  0  0  0  0
 15 17  1  0  0  0  0
 14 15  2  0  0  0  0
 14 24  1  0  0  0  0
 11 12  1  0  0  0  0
 11 13  1  0  0  0  0
 11 14  1  0  0  0  0
  9 10  1  0  0  0  0
  9 11  1  0  0  0  0
  9 26  1  0  0  0  0
  7  8  1  0  0  0  0
  7  9  1  0  0  0  0
 30 31  1  0  0  0  0
 30 32  1  0  0  0  0
 30 33  1  0  0  0  0
 28 29  1  0  0  0  0
 28 30  1  0  0  0  0
M  END
$$$$
default_name
  -OEChem-02102213163D

 33 33  0     1  0  0  0  0  0999 V2000
   -4.0702   -3.8485    1.4554 H   0  0  0  0  0  0  0  0  0  0  0  0
   -4.0012   -2.9605    0.8284 C   0  0  0  0  0  0  0  0  0  0  0  0
   -4.7652   -2.2435    1.1234 H   0  0  0  0  0  0  0  0  0  0  0  0
   -4.1352   -3.2385   -0.2156 H   0  0  0  0  0  0  0  0  0  0  0  0
   -2.6362   -2.3395    1.0094 C   0  0  0  0  0  0  0  0  0  0  0  0
   -1.8292   -2.8395    1.7814 O   0  0  0  0  0  0  0  0  0  0  0  0
   -2.3832   -1.2445    0.2964 N   0  0  0  0  0  0  0  0  0  0  0  0
   -3.1102   -0.8685   -0.2946 H   0  0  0  0  0  0  0  0  0  0  0  0
   -1.1292   -0.4875    0.3524 C   0  0  1  0  0  0  0  0  0  0  0  0
   -0.5898   -0.7762    1.2552 H   0  0  0  0  0  0  0  0  0  0  0  0
   -0.2608   -0.8470   -0.8656 C   0  0  0  0  0  0  0  0  0  0  0  0
   -0.6642   -0.3486   -1.7480 H   0  0  0  0  0  0  0  0  0  0  0  0
    0.7481   -0.4629   -0.7059 H   0  0  0  0  0  0  0  0  0  0  0  0
   -0.1920   -2.3340   -1.1550 C   0  0  0  0  0  0  0  0  0  0  0  0
   -0.8866   -3.2503   -0.3400 C   0  0  0  0  0  0  0  0  0  0  0  0
   -1.4514   -2.8964    0.5125 H   0  0  0  0  0  0  0  0  0  0  0  0
   -0.8525   -4.6267   -0.6370 C   0  0  0  0  0  0  0  0  0  0  0  0
   -1.3843   -5.3256   -0.0099 H   0  0  0  0  0  0  0  0  0  0  0  0
   -0.1241   -5.0875   -1.7553 C   0  0  0  0  0  0  0  0  0  0  0  0
   -0.0874   -6.4126   -2.0519 O   0  0  0  0  0  0  0  0  0  0  0  0
   -0.5162   -6.9449   -1.3805 H   0  0  0  0  0  0  0  0  0  0  0  0
    0.5664   -4.1687   -2.5726 C   0  0  0  0  0  0  0  0  0  0  0  0
    1.1234   -4.5338   -3.4223 H   0  0  0  0  0  0  0  0  0  0  0  0
    0.5341   -2.7941   -2.2705 C   0  0  0  0  0  0  0  0  0  0  0  0
    1.0725   -2.0897   -2.8935 H   0  0  0  0  0  0  0  0  0  0  0  0
   -1.4018    1.0238    0.4329 C   0  0  0  0  0  0  0  0  0  0  0  0
   -2.2416    1.5423   -0.3033 O   0  0  0  0  0  0  0  0  0  0  0  0
   -0.6927    1.7304    1.3223 N   0  0  0  0  0  0  0  0  0  0  0  0
    0.0178    1.2410    1.8469 H   0  0  0  0  0  0  0  0  0  0  0  0
   -0.8259    3.1712    1.5254 C   0  0  0  0  0  0  0  0  0  0  0  0
   -1.8769    3.4302    1.6645 H   0  0  0  0  0  0  0  0  0  0  0  0
   -0.2598    3.4806    2.4054 H   0  0  0  0  0  0  0  0  0  0  0  0
   -0.4486    3.7020    0.6489 H   0  0  0  0  0  0  0  0  0  0  0  0
  5  6  2  0  0  0  0
  5  7  1  0  0  0  0
  2  3  1  0  0  0  0
  2  4  1  0  0  0  0
  2  5  1  0  0  0  0
  1  2  1  0  0  0  0
 26 27  2  0  0  0  0
 26 28  1  0  0  0  0
 24 25  1  0  0  0  0
 22 23  1  0  0  0  0
 22 24  2  0  0  0  0
 20 21  1  0  0  0  0
 19 20  1  0  0  0  0
 19 22  1  0  0  0  0
 17 18  1  0  0  0  0
 17 19  2  0  0  0  0
 15 16  1  0  0  0  0
 15 17  1  0  0  0  0
 14 15  2  0  0  0  0
 14 24  1  0  0  0  0
 11 12  1  0  0  0  0
 11 13  1  0  0  0  0
 11 14  1  0  0  0  0
  9 10  1  0  0  0  0
  9 11  1  0  0  0  0
  9 26  1  0  0  0  0
  7  8  1  0  0  0  0
  7  9  1  0  0  0  0
 30 31  1  0  0  0  0
 30 32  1  0  0  0  0
 30 33  1  0  0  0  0
 28 29  1  0  0  0  0
 28 30  1  0  0  0  0
M  END
$$$$
default_name
  -OEChem-02102213163D

 33 33  0     1  0  0  0  0  0999 V2000
   -4.0702   -3.8485    1.4554 H   0  0  0  0  0  0  0  0  0  0  0  0
   -4.0012   -2.9605    0.8284 C   0  0  0  0  0  0  0  0  0  0  0  0
   -4.7652   -2.2435    1.1234 H   0  0  0  0  0  0  0  0  0  0  0  0
   -4.1352   -3.2385   -0.2156 H   0  0  0  0  0  0  0  0  0  0  0  0
   -2.6362   -2.3395    1.0094 C   0  0  0  0  0  0  0  0  0  0  0  0
   -1.8292   -2.8395    1.7814 O   0  0  0  0  0  0  0  0  0  0  0  0
   -2.3832   -1.2445    0.2964 N   0  0  0  0  0  0  0  0  0  0  0  0
   -3.1102   -0.8685   -0.2946 H   0  0  0  0  0  0  0  0  0  0  0  0
   -1.1292   -0.4875    0.3524 C   0  0  1  0  0  0  0  0  0  0  0  0
   -0.5898   -0.7762    1.2552 H   0  0  0  0  0  0  0  0  0  0  0  0
   -0.2608   -0.8470   -0.8656 C   0  0  0  0  0  0  0  0  0  0  0  0
   -0.6642   -0.3486   -1.7480 H   0  0  0  0  0  0  0  0  0  0  0  0
    0.7481   -0.4629   -0.7059 H   0  0  0  0  0  0  0  0  0  0  0  0
   -0.1920   -2.3340   -1.1550 C   0  0  0  0  0  0  0  0  0  0  0  0
   -1.1140   -3.2181   -0.5595 C   0  0  0  0  0  0  0  0  0  0  0  0
   -1.8592   -2.8405    0.1283 H   0  0  0  0  0  0  0  0  0  0  0  0
   -1.0715   -4.5928   -0.8630 C   0  0  0  0  0  0  0  0  0  0  0  0
   -1.7780   -5.2672   -0.4039 H   0  0  0  0  0  0  0  0  0  0  0  0
   -0.1057   -5.0842   -1.7683 C   0  0  0  0  0  0  0  0  0  0  0  0
   -0.0584   -6.4078   -2.0698 O   0  0  0  0  0  0  0  0  0  0  0  0
   -0.6687   -6.9211   -1.5388 H   0  0  0  0  0  0  0  0  0  0  0  0
    0.8129   -4.1973   -2.3670 C   0  0  0  0  0  0  0  0  0  0  0  0
    1.5495   -4.5857   -3.0542 H   0  0  0  0  0  0  0  0  0  0  0  0
    0.7708   -2.8244   -2.0581 C   0  0  0  0  0  0  0  0  0  0  0  0
    1.4829   -2.1451   -2.5114 H   0  0  0  0  0  0  0  0  0  0  0  0
   -1.4018    1.0238    0.4329 C   0  0  0  0  0  0  0  0  0  0  0  0
   -2.2416    1.5423   -0.3033 O   0  0  0  0  0  0  0  0  0  0  0  0
   -0.6927    1.7304    1.3223 N   0  0  0  0  0  0  0  0  0  0  0  0
    0.0178    1.2410    1.8469 H   0  0  0  0  0  0  0  0  0  0  0  0
   -0.8259    3.1712    1.5254 C   0  0  0  0  0  0  0  0  0  0  0  0
   -1.8769    3.4302    1.6645 H   0  0  0  0  0  0  0  0  0  0  0  0
   -0.2598    3.4806    2.4054 H   0  0  0  0  0  0  0  0  0  0  0  0
   -0.4486    3.7020    0.6489 H   0  0  0  0  0  0  0  0  0  0  0  0
  5  6  2  0  0  0  0
  5  7  1  0  0  0  0
  2  3  1  0  0  0  0
  2  4  1  0  0  0  0
  2  5  1  0  0  0  0
  1  2  1  0  0  0  0
 26 27  2  0  0  0  0
 26 28  1  0  0  0  0
 24 25  1  0  0  0  0
 22 23  1  0  0  0  0
 22 24  2  0  0  0  0
 20 21  1  0  0  0  0
 19 20  1  0  0  0  0
 19 22  1  0  0  0  0
 17 18  1  0  0  0  0
 17 19  2  0  0  0  0
 15 16  1  0  0  0  0
 15 17  1  0  0  0  0
 14 15  2  0  0  0  0
 14 24  1  0  0  0  0
 11 12  1  0  0  0  0
 11 13  1  0  0  0  0
 11 14  1  0  0  0  0
  9 10  1  0  0  0  0
  9 11  1  0  0  0  0
  9 26  1  0  0  0  0
  7  8  1  0  0  0  0
  7  9  1  0  0  0  0
 30 31  1  0  0  0  0
 30 32  1  0  0  0  0
 30 33  1  0  0  0  0
 28 29  1  0  0  0  0
 28 30  1  0  0  0  0
M  END
$$$$
default_name
  -OEChem-02102213163D

 33 33  0     1  0  0  0  0  0999 V2000
   -4.0702   -3.8485    1.4554 H   0  0  0  0  0  0  0  0  0  0  0  0
   -4.0012   -2.9605    0.8284 C   0  0  0  0  0  0  0  0  0  0  0  0
   -4.7652   -2.2435    1.1234 H   0  0  0  0  0  0  0  0  0  0  0  0
   -4.1352   -3.2385   -0.2156 H   0  0  0  0  0  0  0  0  0  0  0  0
   -2.6362   -2.3395    1.0094 C   0  0  0  0  0  0  0  0  0  0  0  0
   -1.8292   -2.8395    1.7814 O   0  0  0  0  0  0  0  0  0  0  0  0
   -2.3832   -1.2445    0.2964 N   0  0  0  0  0  0  0  0  0  0  0  0
   -3.1102   -0.8685   -0.2946 H   0  0  0  0  0  0  0  0  0  0  0  0
   -1.1292   -0.4875    0.3524 C   0  0  1  0  0  0  0  0  0  0  0  0
   -0.5898   -0.7762    1.2552 H   0  0  0  0  0  0  0  0  0  0  0  0
   -0.2608   -0.8470   -0.8656 C   0  0  0  0  0  0  0  0  0  0  0  0
   -0.6642   -0.3486   -1.7480 H   0  0  0  0  0  0  0  0  0  0  0  0
    0.7481   -0.4629   -0.7059 H   0  0  0  0  0  0  0  0  0  0  0  0
   -0.1920   -2.3340   -1.1550 C   0  0  0  0  0  0  0  0  0  0  0  0
   -1.2763   -3.1732   -0.8288 C   0  0  0  0  0  0  0  0  0  0  0  0
   -2.1529   -2.7618   -0.3456 H   0  0  0  0  0  0  0  0  0  0  0  0
   -1.2239   -4.5467   -1.1365 C   0  0  0  0  0  0  0  0  0  0  0  0
   -2.0553   -5.1866   -0.8838 H   0  0  0  0  0  0  0  0  0  0  0  0
   -0.0845   -5.0817   -1.7761 C   0  0  0  0  0  0  0  0  0  0  0  0
   -0.0255   -6.4043   -2.0797 O   0  0  0  0  0  0  0  0  0  0  0  0
   -0.7746   -6.8888   -1.7302 H   0  0  0  0  0  0  0  0  0  0  0  0
    0.9975   -4.2395   -2.1063 C   0  0  0  0  0  0  0  0  0  0  0  0
    1.8650   -4.6612   -2.5912 H   0  0  0  0  0  0  0  0  0  0  0  0
    0.9441   -2.8680   -1.7933 C   0  0  0  0  0  0  0  0  0  0  0  0
    1.7796   -2.2233   -2.0389 H   0  0  0  0  0  0  0  0  0  0  0  0
   -1.4018    1.0238    0.4329 C   0  0  0  0  0  0  0  0  0  0  0  0
   -2.2416    1.5423   -0.3033 O   0  0  0  0  0  0  0  0  0  0  0  0
   -0.6927    1.7304    1.3223 N   0  0  0  0  0  0  0  0  0  0  0  0
    0.0178    1.2410    1.8469 H   0  0  0  0  0  0  0  0  0  0  0  0
   -0.8259    3.1712    1.5254 C   0  0  0  0  0  0  0  0  0  0  0  0
   -1.8769    3.4302    1.6645 H   0  0  0  0  0  0  0  0  0  0  0  0
   -0.2598    3.4806    2.4054 H   0  0  0  0  0  0  0  0  0  0  0  0
   -0.4486    3.7020    0.6489 H   0  0  0  0  0  0  0  0  0  0  0  0
  5  6  2  0  0  0  0
  5  7  1  0  0  0  0
  2  3  1  0  0  0  0
  2  4  1  0  0  0  0
  2  5  1  0  0  0  0
  1  2  1  0  0  0  0
 26 27  2  0  0  0  0
 26 28  1  0  0  0  0
 24 25  1  0  0  0  0
 22 23  1  0  0  0  0
 22 24  2  0  0  0  0
 20 21  1  0  0  0  0
 19 20  1  0  0  0  0
 19 22  1  0  0  0  0
 17 18  1  0  0  0  0
 17 19  2  0  0  0  0
 15 16  1  0  0  0  0
 15 17  1  0  0  0  0
 14 15  2  0  0  0  0
 14 24  1  0  0  0  0
 11 12  1  0  0  0  0
 11 13  1  0  0  0  0
 11 14  1  0  0  0  0
  9 10  1  0  0  0  0
  9 11  1  0  0  0  0
  9 26  1  0  0  0  0
  7  8  1  0  0  0  0
  7  9  1  0  0  0  0
 30 31  1  0  0  0  0
 30 32  1  0  0  0  0
 30 33  1  0  0  0  0
 28 29  1  0  0  0  0
 28 30  1  0  0  0  0
M  END
$$$$
default_name
  -OEChem-02102213163D

 33 33  0     1  0  0  0  0  0999 V2000
   -4.0702   -3.8485    1.4554 H   0  0  0  0  0  0  0  0  0  0  0  0
   -4.0012   -2.9605    0.8284 C   0  0  0  0  0  0  0  0  0  0  0  0
   -4.7652   -2.2435    1.1234 H   0  0  0  0  0  0  0  0  0  0  0  0
   -4.1352   -3.2385   -0.2156 H   0  0  0  0  0  0  0  0  0  0  0  0
   -2.6362   -2.3395    1.0094 C   0  0  0  0  0  0  0  0  0  0  0  0
   -1.8292   -2.8395    1.7814 O   0  0  0  0  0  0  0  0  0  0  0  0
   -2.3832   -1.2445    0.2964 N   0  0  0  0  0  0  0  0  0  0  0  0
   -3.1102   -0.8685   -0.2946 H   0  0  0  0  0  0  0  0  0  0  0  0
   -1.1292   -0.4875    0.3524 C   0  0  1  0  0  0  0  0  0  0  0  0
   -0.5898   -0.7762    1.2552 H   0  0  0  0  0  0  0  0  0  0  0  0
   -0.2608   -0.8470   -0.8656 C   0  0  0  0  0  0  0  0  0  0  0  0
   -0.6642   -0.3486   -1.7480 H   0  0  0  0  0  0  0  0  0  0  0  0
    0.7481   -0.4629   -0.7059 H   0  0  0  0  0  0  0  0  0  0  0  0
   -0.1920   -2.3340   -1.1550 C   0  0  0  0  0  0  0  0  0  0  0  0
   -1.3625   -3.1186   -1.1295 C   0  0  0  0  0  0  0  0  0  0  0  0
   -2.3123   -2.6658   -0.8770 H   0  0  0  0  0  0  0  0  0  0  0  0
   -1.2995   -4.4913   -1.4387 C   0  0  0  0  0  0  0  0  0  0  0  0
   -2.1975   -5.0894   -1.4167 H   0  0  0  0  0  0  0  0  0  0  0  0
   -0.0619   -5.0802   -1.7783 C   0  0  0  0  0  0  0  0  0  0  0  0
    0.0088   -6.4025   -2.0809 O   0  0  0  0  0  0  0  0  0  0  0  0
   -0.8267   -6.8501   -1.9415 H   0  0  0  0  0  0  0  0  0  0  0  0
    1.1075   -4.2925   -1.8080 C   0  0  0  0  0  0  0  0  0  0  0  0
    2.0485   -4.7552   -2.0648 H   0  0  0  0  0  0  0  0  0  0  0  0
    1.0420   -2.9217   -1.4940 C   0  0  0  0  0  0  0  0  0  0  0  0
    1.9425   -2.3191   -1.5080 H   0  0  0  0  0  0  0  0  0  0  0  0
   -1.4018    1.0238    0.4329 C   0  0  0  0  0  0  0  0  0  0  0  0
   -2.2416    1.5423   -0.3033 O   0  0  0  0  0  0  0  0  0  0  0  0
   -0.6927    1.7304    1.3223 N   0  0  0  0  0  0  0  0  0  0  0  0
    0.0178    1.2410    1.8469 H   0  0  0  0  0  0  0  0  0  0  0  0
   -0.8259    3.1712    1.5254 C   0  0  0  0  0  0  0  0  0  0  0  0
   -1.8769    3.4302    1.6645 H   0  0  0  0  0  0  0  0  0  0  0  0
   -0.2598    3.4806    2.4054 H   0  0  0  0  0  0  0  0  0  0  0  0
   -0.4486    3.7020    0.6489 H   0  0  0  0  0  0  0  0  0  0  0  0
  5  6  2  0  0  0  0
  5  7  1  0  0  0  0
  2  3  1  0  0  0  0
  2  4  1  0  0  0  0
  2  5  1  0  0  0  0
  1  2  1  0  0  0  0
 26 27  2  0  0  0  0
 26 28  1  0  0  0  0
 24 25  1  0  0  0  0
 22 23  1  0  0  0  0
 22 24  2  0  0  0  0
 20 21  1  0  0  0  0
 19 20  1  0  0  0  0
 19 22  1  0  0  0  0
 17 18  1  0  0  0  0
 17 19  2  0  0  0  0
 15 16  1  0  0  0  0
 15 17  1  0  0  0  0
 14 15  2  0  0  0  0
 14 24  1  0  0  0  0
 11 12  1  0  0  0  0
 11 13  1  0  0  0  0
 11 14  1  0  0  0  0
  9 10  1  0  0  0  0
  9 11  1  0  0  0  0
  9 26  1  0  0  0  0
  7  8  1  0  0  0  0
  7  9  1  0  0  0  0
 30 31  1  0  0  0  0
 30 32  1  0  0  0  0
 30 33  1  0  0  0  0
 28 29  1  0  0  0  0
 28 30  1  0  0  0  0
M  END
$$$$
default_name
  -OEChem-02102213163D

 33 33  0     1  0  0  0  0  0999 V2000
   -4.0702   -3.8485    1.4554 H   0  0  0  0  0  0  0  0  0  0  0  0
   -4.0012   -2.9605    0.8284 C   0  0  0  0  0  0  0  0  0  0  0  0
   -4.7652   -2.2435    1.1234 H   0  0  0  0  0  0  0  0  0  0  0  0
   -4.1352   -3.2385   -0.2156 H   0  0  0  0  0  0  0  0  0  0  0  0
   -2.6362   -2.3395    1.0094 C   0  0  0  0  0  0  0  0  0  0  0  0
   -1.8292   -2.8395    1.7814 O   0  0  0  0  0  0  0  0  0  0  0  0
   -2.3832   -1.2445    0.2964 N   0  0  0  0  0  0  0  0  0  0  0  0
   -3.1102   -0.8685   -0.2946 H   0  0  0  0  0  0  0  0  0  0  0  0
   -1.1292   -0.4875    0.3524 C   0  0  1  0  0  0  0  0  0  0  0  0
   -0.5898   -0.7762    1.2552 H   0  0  0  0  0  0  0  0  0  0  0  0
   -0.2608   -0.8470   -0.8656 C   0  0  0  0  0  0  0  0  0  0  0  0
   -0.6642   -0.3486   -1.7480 H   0  0  0  0  0  0  0  0  0  0  0  0
    0.7481   -0.4629   -0.7059 H   0  0  0  0  0  0  0  0  0  0  0  0
   -0.1920   -2.3340   -1.1550 C   0  0  0  0  0  0  0  0  0  0  0  0
   -1.3667   -3.0581   -1.4413 C   0  0  0  0  0  0  0  0  0  0  0  0
   -2.3268   -2.5589   -1.4296 H   0  0  0  0  0  0  0  0  0  0  0  0
   -1.2930   -4.4306   -1.7493 C   0  0  0  0  0  0  0  0  0  0  0  0
   -2.1947   -4.9823   -1.9665 H   0  0  0  0  0  0  0  0  0  0  0  0
   -0.0395   -5.0799   -1.7746 C   0  0  0  0  0  0  0  0  0  0  0  0
    0.0425   -6.4024   -2.0733 O   0  0  0  0  0  0  0  0  0  0  0  0
   -0.8216   -6.8076   -2.1584 H   0  0  0  0  0  0  0  0  0  0  0  0
    1.1355   -4.3526   -1.4927 C   0  0  0  0  0  0  0  0  0  0  0  0
    2.0876   -4.8612   -1.5109 H   0  0  0  0  0  0  0  0  0  0  0  0
    1.0581   -2.9819   -1.1807 C   0  0  0  0  0  0  0  0  0  0  0  0
    1.9603   -2.4259   -0.9551 H   0  0  0  0  0  0  0  0  0  0  0  0
   -1.4018    1.0238    0.4329 C   0  0  0  0  0  0  0  0  0  0  0  0
   -2.2416    1.5423   -0.3033 O   0  0  0  0  0  0  0  0  0  0  0  0
   -0.6927    1.7304    1.3223 N   0  0  0  0  0  0  0  0  0  0  0  0
    0.0178    1.2410    1.8469 H   0  0  0  0  0  0  0  0  0  0  0  0
   -0.8259    3.1712    1.5254 C   0  0  0  0  0  0  0  0  0  0  0  0
   -1.8769    3.4302    1.6645 H   0  0  0  0  0  0  0  0  0  0  0  0
   -0.2598    3.4806    2.4054 H   0  0  0  0  0  0  0  0  0  0  0  0
   -0.4486    3.7020    0.6489 H   0  0  0  0  0  0  0  0  0  0  0  0
  5  6  2  0  0  0  0
  5  7  1  0  0  0  0
  2  3  1  0  0  0  0
  2  4  1  0  0  0  0
  2  5  1  0  0  0  0
  1  2  1  0  0  0  0
 26 27  2  0  0  0  0
 26 28  1  0  0  0  0
 24 25  1  0  0  0  0
 22 23  1  0  0  0  0
 22 24  2  0  0  0  0
 20 21  1  0  0  0  0
 19 20  1  0  0  0  0
 19 22  1  0  0  0  0
 17 18  1  0  0  0  0
 17 19  2  0  0  0  0
 15 16  1  0  0  0  0
 15 17  1  0  0  0  0
 14 15  2  0  0  0  0
 14 24  1  0  0  0  0
 11 12  1  0  0  0  0
 11 13  1  0  0  0  0
 11 14  1  0  0  0  0
  9 10  1  0  0  0  0
  9 11  1  0  0  0  0
  9 26  1  0  0  0  0
  7  8  1  0  0  0  0
  7  9  1  0  0  0  0
 30 31  1  0  0  0  0
 30 32  1  0  0  0  0
 30 33  1  0  0  0  0
 28 29  1  0  0  0  0
 28 30  1  0  0  0  0
M  END
$$$$
default_name
  -OEChem-02102213163D

 33 33  0     1  0  0  0  0  0999 V2000
   -4.0702   -3.8485    1.4554 H   0  0  0  0  0  0  0  0  0  0  0  0
   -4.0012   -2.9605    0.8284 C   0  0  0  0  0  0  0  0  0  0  0  0
   -4.7652   -2.2435    1.1234 H   0  0  0  0  0  0  0  0  0  0  0  0
   -4.1352   -3.2385   -0.2156 H   0  0  0  0  0  0  0  0  0  0  0  0
   -2.6362   -2.3395    1.0094 C   0  0  0  0  0  0  0  0  0  0  0  0
   -1.8292   -2.8395    1.7814 O   0  0  0  0  0  0  0  0  0  0  0  0
   -2.3832   -1.2445    0.2964 N   0  0  0  0  0  0  0  0  0  0  0  0
   -3.1102   -0.8685   -0.2946 H   0  0  0  0  0  0  0  0  0  0  0  0
   -1.1292   -0.4875    0.3524 C   0  0  1  0  0  0  0  0  0  0  0  0
   -0.5898   -0.7762    1.2552 H   0  0  0  0  0  0  0  0  0  0  0  0
   -0.2608   -0.8470   -0.8656 C   0  0  0  0  0  0  0  0  0  0  0  0
   -0.6642   -0.3486   -1.7480 H   0  0  0  0  0  0  0  0  0  0  0  0
    0.7481   -0.4629   -0.7059 H   0  0  0  0  0  0  0  0  0  0  0  0
   -0.1920   -2.3340   -1.1550 C   0  0  0  0  0  0  0  0  0  0  0  0
   -1.2887   -2.9959   -1.7428 C   0  0  0  0  0  0  0  0  0  0  0  0
   -2.1952   -2.4484   -1.9658 H   0  0  0  0  0  0  0  0  0  0  0  0
   -1.2050   -4.3686   -2.0469 C   0  0  0  0  0  0  0  0  0  0  0  0
   -2.0473   -4.8725   -2.4955 H   0  0  0  0  0  0  0  0  0  0  0  0
   -0.0187   -5.0807   -1.7653 C   0  0  0  0  0  0  0  0  0  0  0  0
    0.0730   -6.4041   -2.0575 O   0  0  0  0  0  0  0  0  0  0  0  0
   -0.7594   -6.7643   -2.3662 H   0  0  0  0  0  0  0  0  0  0  0  0
    1.0794   -4.4157   -1.1817 C   0  0  0  0  0  0  0  0  0  0  0  0
    1.9795   -4.9721   -0.9671 H   0  0  0  0  0  0  0  0  0  0  0  0
    0.9911   -3.0446   -0.8747 C   0  0  0  0  0  0  0  0  0  0  0  0
    1.8319   -2.5365   -0.4177 H   0  0  0  0  0  0  0  0  0  0  0  0
   -1.4018    1.0238    0.4329 C   0  0  0  0  0  0  0  0  0  0  0  0
   -2.2416    1.5423   -0.3033 O   0  0  0  0  0  0  0  0  0  0  0  0
   -0.6927    1.7304    1.3223 N   0  0  0  0  0  0  0  0  0  0  0  0
    0.0178    1.2410    1.8469 H   0  0  0  0  0  0  0  0  0  0  0  0
   -0.8259    3.1712    1.5254 C   0  0  0  0  0  0  0  0  0  0  0  0
   -1.8769    3.4302    1.6645 H   0  0  0  0  0  0  0  0  0  0  0  0
   -0.2598    3.4806    2.4054 H   0  0  0  0  0  0  0  0  0  0  0  0
   -0.4486    3.7020    0.6489 H   0  0  0  0  0  0  0  0  0  0  0  0
  5  6  2  0  0  0  0
  5  7  1  0  0  0  0
  2  3  1  0  0  0  0
  2  4  1  0  0  0  0
  2  5  1  0  0  0  0
  1  2  1  0  0  0  0
 26 27  2  0  0  0  0
 26 28  1  0  0  0  0
 24 25  1  0  0  0  0
 22 23  1  0  0  0  0
 22 24  2  0  0  0  0
 20 21  1  0  0  0  0
 19 20  1  0  0  0  0
 19 22  1  0  0  0  0
 17 18  1  0  0  0  0
 17 19  2  0  0  0  0
 15 16  1  0  0  0  0
 15 17  1  0  0  0  0
 14 15  2  0  0  0  0
 14 24  1  0  0  0  0
 11 12  1  0  0  0  0
 11 13  1  0  0  0  0
 11 14  1  0  0  0  0
  9 10  1  0  0  0  0
  9 11  1  0  0  0  0
  9 26  1  0  0  0  0
  7  8  1  0  0  0  0
  7  9  1  0  0  0  0
 30 31  1  0  0  0  0
 30 32  1  0  0  0  0
 30 33  1  0  0  0  0
 28 29  1  0  0  0  0
 28 30  1  0  0  0  0
M  END
$$$$
default_name
  -OEChem-02102213163D

 33 33  0     1  0  0  0  0  0999 V2000
   -4.0702   -3.8485    1.4554 H   0  0  0  0  0  0  0  0  0  0  0  0
   -4.0012   -2.9605    0.8284 C   0  0  0  0  0  0  0  0  0  0  0  0
   -4.7652   -2.2435    1.1234 H   0  0  0  0  0  0  0  0  0  0  0  0
   -4.1352   -3.2385   -0.2156 H   0  0  0  0  0  0  0  0  0  0  0  0
   -2.6362   -2.3395    1.0094 C   0  0  0  0  0  0  0  0  0  0  0  0
   -1.8292   -2.8395    1.7814 O   0  0  0  0  0  0  0  0  0  0  0  0
   -2.3832   -1.2445    0.2964 N   0  0  0  0  0  0  0  0  0  0  0  0
   -3.1102   -0.8685   -0.2946 H   0  0  0  0  0  0  0  0  0  0  0  0
   -1.1292   -0.4875    0.3524 C   0  0  1  0  0  0  0  0  0  0  0  0
   -0.5898   -0.7762    1.2552 H   0  0  0  0  0  0  0  0  0  0  0  0
   -0.2608   -0.8470   -0.8656 C   0  0  0  0  0  0  0  0  0  0  0  0
   -0.6642   -0.3486   -1.7480 H   0  0  0  0  0  0  0  0  0  0  0  0
    0.7481   -0.4629   -0.7059 H   0  0  0  0  0  0  0  0  0  0  0  0
   -0.1920   -2.3340   -1.1550 C   0  0  0  0  0  0  0  0  0  0  0  0
   -1.1338   -2.9360   -2.0135 C   0  0  0  0  0  0  0  0  0  0  0  0
   -1.9265   -2.3419   -2.4491 H   0  0  0  0  0  0  0  0  0  0  0  0
   -1.0414   -4.3095   -2.3112 C   0  0  0  0  0  0  0  0  0  0  0  0
   -1.7651   -4.7675   -2.9678 H   0  0  0  0  0  0  0  0  0  0  0  0
   -0.0011   -5.0826   -1.7512 C   0  0  0  0  0  0  0  0  0  0  0  0
    0.0984   -6.4074   -2.0344 O   0  0  0  0  0  0  0  0  0  0  0  0
   -0.6445   -6.7231   -2.5505 H   0  0  0  0  0  0  0  0  0  0  0  0
    0.9433   -4.4776   -0.8962 C   0  0  0  0  0  0  0  0  0  0  0  0
    1.7316   -5.0802   -0.4706 H   0  0  0  0  0  0  0  0  0  0  0  0
    0.8456   -3.1054   -0.5969 C   0  0  0  0  0  0  0  0  0  0  0  0
    1.5661   -2.6432    0.0674 H   0  0  0  0  0  0  0  0  0  0  0  0
   -1.4018    1.0238    0.4329 C   0  0  0  0  0  0  0  0  0  0  0  0
   -2.2416    1.5423   -0.3033 O   0  0  0  0  0  0  0  0  0  0  0  0
   -0.6927    1.7304    1.3223 N   0  0  0  0  0  0  0  0  0  0  0  0
    0.0178    1.2410    1.8469 H   0  0  0  0  0  0  0  0  0  0  0  0
   -0.8259    3.1712    1.5254 C   0  0  0  0  0  0  0  0  0  0  0  0
   -1.8769    3.4302    1.6645 H   0  0  0  0  0  0  0  0  0  0  0  0
   -0.2598    3.4806    2.4054 H   0  0  0  0  0  0  0  0  0  0  0  0
   -0.4486    3.7020    0.6489 H   0  0  0  0  0  0  0  0  0  0  0  0
  5  6  2  0  0  0  0
  5  7  1  0  0  0  0
  2  3  1  0  0  0  0
  2  4  1  0  0  0  0
  2  5  1  0  0  0  0
  1  2  1  0  0  0  0
 26 27  2  0  0  0  0
 26 28  1  0  0  0  0
 24 25  1  0  0  0  0
 22 23  1  0  0  0  0
 22 24  2  0  0  0  0
 20 21  1  0  0  0  0
 19 20  1  0  0  0  0
 19 22  1  0  0  0  0
 17 18  1  0  0  0  0
 17 19  2  0  0  0  0
 15 16  1  0  0  0  0
 15 17  1  0  0  0  0
 14 15  2  0  0  0  0
 14 24  1  0  0  0  0
 11 12  1  0  0  0  0
 11 13  1  0  0  0  0
 11 14  1  0  0  0  0
  9 10  1  0  0  0  0
  9 11  1  0  0  0  0
  9 26  1  0  0  0  0
  7  8  1  0  0  0  0
  7  9  1  0  0  0  0
 30 31  1  0  0  0  0
 30 32  1  0  0  0  0
 30 33  1  0  0  0  0
 28 29  1  0  0  0  0
 28 30  1  0  0  0  0
M  END
$$$$
default_name
  -OEChem-02102213163D

 33 33  0     1  0  0  0  0  0999 V2000
   -4.0702   -3.8485    1.4554 H   0  0  0  0  0  0  0  0  0  0  0  0
   -4.0012   -2.9605    0.8284 C   0  0  0  0  0  0  0  0  0  0  0  0
   -4.7652   -2.2435    1.1234 H   0  0  0  0  0  0  0  0  0  0  0  0
   -4.1352   -3.2385   -0.2156 H   0  0  0  0  0  0  0  0  0  0  0  0
   -2.6362   -2.3395    1.0094 C   0  0  0  0  0  0  0  0  0  0  0  0
   -1.8292   -2.8395    1.7814 O   0  0  0  0  0  0  0  0  0  0  0  0
   -2.3832   -1.2445    0.2964 N   0  0  0  0  0  0  0  0  0  0  0  0
   -3.1102   -0.8685   -0.2946 H   0  0  0  0  0  0  0  0  0  0  0  0
   -1.1292   -0.4875    0.3524 C   0  0  1  0  0  0  0  0  0  0  0  0
   -0.5898   -0.7762    1.2552 H   0  0  0  0  0  0  0  0  0  0  0  0
   -0.2608   -0.8470   -0.8656 C   0  0  0  0  0  0  0  0  0  0  0  0
   -0.6642   -0.3486   -1.7480 H   0  0  0  0  0  0  0  0  0  0  0  0
    0.7481   -0.4629   -0.7059 H   0  0  0  0  0  0  0  0  0  0  0  0
   -0.1920   -2.3340   -1.1550 C   0  0  0  0  0  0  0  0  0  0  0  0
   -0.9124   -2.8826   -2.2349 C   0  0  0  0  0  0  0  0  0  0  0  0
   -1.5391   -2.2467   -2.8464 H   0  0  0  0  0  0  0  0  0  0  0  0
   -0.8133   -4.2575   -2.5244 C   0  0  0  0  0  0  0  0  0  0  0  0
   -1.3676   -4.6745   -3.3511 H   0  0  0  0  0  0  0  0  0  0  0  0
    0.0123   -5.0856   -1.7330 C   0  0  0  0  0  0  0  0  0  0  0  0
    0.1169   -6.4121   -2.0058 O   0  0  0  0  0  0  0  0  0  0  0  0
   -0.4847   -6.6868   -2.6989 H   0  0  0  0  0  0  0  0  0  0  0  0
    0.7363   -4.5340   -0.6557 C   0  0  0  0  0  0  0  0  0  0  0  0
    1.3608   -5.1782   -0.0553 H   0  0  0  0  0  0  0  0  0  0  0  0
    0.6315   -3.1602   -0.3662 C   0  0  0  0  0  0  0  0  0  0  0  0
    1.1809   -2.7389    0.4674 H   0  0  0  0  0  0  0  0  0  0  0  0
   -1.4018    1.0238    0.4329 C   0  0  0  0  0  0  0  0  0  0  0  0
   -2.2416    1.5423   -0.3033 O   0  0  0  0  0  0  0  0  0  0  0  0
   -0.6927    1.7304    1.3223 N   0  0  0  0  0  0  0  0  0  0  0  0
    0.0178    1.2410    1.8469 H   0  0  0  0  0  0  0  0  0  0  0  0
   -0.8259    3.1712    1.5254 C   0  0  0  0  0  0  0  0  0  0  0  0
   -1.8769    3.4302    1.6645 H   0  0  0  0  0  0  0  0  0  0  0  0
   -0.2598    3.4806    2.4054 H   0  0  0  0  0  0  0  0  0  0  0  0
   -0.4486    3.7020    0.6489 H   0  0  0  0  0  0  0  0  0  0  0  0
  5  6  2  0  0  0  0
  5  7  1  0  0  0  0
  2  3  1  0  0  0  0
  2  4  1  0  0  0  0
  2  5  1  0  0  0  0
  1  2  1  0  0  0  0
 26 27  2  0  0  0  0
 26 28  1  0  0  0  0
 24 25  1  0  0  0  0
 22 23  1  0  0  0  0
 22 24  2  0  0  0  0
 20 21  1  0  0  0  0
 19 20  1  0  0  0  0
 19 22  1  0  0  0  0
 17 18  1  0  0  0  0
 17 19  2  0  0  0  0
 15 16  1  0  0  0  0
 15 17  1  0  0  0  0
 14 15  2  0  0  0  0
 14 24  1  0  0  0  0
 11 12  1  0  0  0  0
 11 13  1  0  0  0  0
 11 14  1  0  0  0  0
  9 10  1  0  0  0  0
  9 11  1  0  0  0  0
  9 26  1  0  0  0  0
  7  8  1  0  0  0  0
  7  9  1  0  0  0  0
 30 31  1  0  0  0  0
 30 32  1  0  0  0  0
 30 33  1  0  0  0  0
 28 29  1  0  0  0  0
 28 30  1  0  0  0  0
M  END
$$$$
default_name
  -OEChem-02102213163D

 33 33  0     1  0  0  0  0  0999 V2000
   -4.0702   -3.8485    1.4554 H   0  0  0  0  0  0  0  0  0  0  0  0
   -4.0012   -2.9605    0.8284 C   0  0  0  0  0  0  0  0  0  0  0  0
   -4.7652   -2.2435    1.1234 H   0  0  0  0  0  0  0  0  0  0  0  0
   -4.1352   -3.2385   -0.2156 H   0  0  0  0  0  0  0  0  0  0  0  0
   -2.6362   -2.3395    1.0094 C   0  0  0  0  0  0  0  0  0  0  0  0
   -1.8292   -2.8395    1.7814 O   0  0  0  0  0  0  0  0  0  0  0  0
   -2.3832   -1.2445    0.2964 N   0  0  0  0  0  0  0  0  0  0  0  0
   -3.1102   -0.8685   -0.2946 H   0  0  0  0  0  0  0  0  0  0  0  0
   -1.1292   -0.4875    0.3524 C   0  0  1  0  0  0  0  0  0  0  0  0
   -0.5898   -0.7762    1.2552 H   0  0  0  0  0  0  0  0  0  0  0  0
   -0.2608   -0.8470   -0.8656 C   0  0  0  0  0  0  0  0  0  0  0  0
   -0.6642   -0.3486   -1.7480 H   0  0  0  0  0  0  0  0  0  0  0  0
    0.7481   -0.4629   -0.7059 H   0  0  0  0  0  0  0  0  0  0  0  0
   -0.1920   -2.3340   -1.1550 C   0  0  0  0  0  0  0  0  0  0  0  0
   -0.6398   -2.8394   -2.3921 C   0  0  0  0  0  0  0  0  0  0  0  0
   -1.0594   -2.1691   -3.1308 H   0  0  0  0  0  0  0  0  0  0  0  0
   -0.5364   -4.2160   -2.6718 C   0  0  0  0  0  0  0  0  0  0  0  0
   -0.8817   -4.5998   -3.6194 H   0  0  0  0  0  0  0  0  0  0  0  0
    0.0204   -5.0893   -1.7121 C   0  0  0  0  0  0  0  0  0  0  0  0
    0.1273   -6.4179   -1.9734 O   0  0  0  0  0  0  0  0  0  0  0  0
   -0.2909   -6.6579   -2.8013 H   0  0  0  0  0  0  0  0  0  0  0  0
    0.4725   -4.5810   -0.4767 C   0  0  0  0  0  0  0  0  0  0  0  0
    0.8923   -5.2594    0.2507 H   0  0  0  0  0  0  0  0  0  0  0  0
    0.3635   -3.2053   -0.1983 C   0  0  0  0  0  0  0  0  0  0  0  0
    0.7026   -2.8170    0.7548 H   0  0  0  0  0  0  0  0  0  0  0  0
   -1.4018    1.0238    0.4329 C   0  0  0  0  0  0  0  0  0  0  0  0
   -2.2416    1.5423   -0.3033 O   0  0  0  0  0  0  0  0  0  0  0  0
   -0.6927    1.7304    1.3223 N   0  0  0  0  0  0  0  0  0  0  0  0
    0.0178    1.2410    1.8469 H   0  0  0  0  0  0  0  0  0  0  0  0
   -0.8259    3.1712    1.5254 C   0  0  0  0  0  0  0  0  0  0  0  0
   -1.8769    3.4302    1.6645 H   0  0  0  0  0  0  0  0  0  0  0  0
   -0.2598    3.4806    2.4054 H   0  0  0  0  0  0  0  0  0  0  0  0
   -0.4486    3.7020    0.6489 H   0  0  0  0  0  0  0  0  0  0  0  0
  5  6  2  0  0  0  0
  5  7  1  0  0  0  0
  2  3  1  0  0  0  0
  2  4  1  0  0  0  0
  2  5  1  0  0  0  0
  1  2  1  0  0  0  0
 26 27  2  0  0  0  0
 26 28  1  0  0  0  0
 24 25  1  0  0  0  0
 22 23  1  0  0  0  0
 22 24  2  0  0  0  0
 20 21  1  0  0  0  0
 19 20  1  0  0  0  0
 19 22  1  0  0  0  0
 17 18  1  0  0  0  0
 17 19  2  0  0  0  0
 15 16  1  0  0  0  0
 15 17  1  0  0  0  0
 14 15  2  0  0  0  0
 14 24  1  0  0  0  0
 11 12  1  0  0  0  0
 11 13  1  0  0  0  0
 11 14  1  0  0  0  0
  9 10  1  0  0  0  0
  9 11  1  0  0  0  0
  9 26  1  0  0  0  0
  7  8  1  0  0  0  0
  7  9  1  0  0  0  0
 30 31  1  0  0  0  0
 30 32  1  0  0  0  0
 30 33  1  0  0  0  0
 28 29  1  0  0  0  0
 28 30  1  0  0  0  0
M  END
$$$$
default_name
  -OEChem-02102213163D

 33 33  0     1  0  0  0  0  0999 V2000
   -4.0702   -3.8485    1.4554 H   0  0  0  0  0  0  0  0  0  0  0  0
   -4.0012   -2.9605    0.8284 C   0  0  0  0  0  0  0  0  0  0  0  0
   -4.7652   -2.2435    1.1234 H   0  0  0  0  0  0  0  0  0  0  0  0
   -4.1352   -3.2385   -0.2156 H   0  0  0  0  0  0  0  0  0  0  0  0
   -2.6362   -2.3395    1.0094 C   0  0  0  0  0  0  0  0  0  0  0  0
   -1.8292   -2.8395    1.7814 O   0  0  0  0  0  0  0  0  0  0  0  0
   -2.3832   -1.2445    0.2964 N   0  0  0  0  0  0  0  0  0  0  0  0
   -3.1102   -0.8685   -0.2946 H   0  0  0  0  0  0  0  0  0  0  0  0
   -1.1292   -0.4875    0.3524 C   0  0  1  0  0  0  0  0  0  0  0  0
   -0.5898   -0.7762    1.2552 H   0  0  0  0  0  0  0  0  0  0  0  0
   -0.2608   -0.8470   -0.8656 C   0  0  0  0  0  0  0  0  0  0  0  0
   -0.6642   -0.3486   -1.7480 H   0  0  0  0  0  0  0  0  0  0  0  0
    0.7481   -0.4629   -0.7059 H   0  0  0  0  0  0  0  0  0  0  0  0
   -0.1920   -2.3340   -1.1550 C   0  0  0  0  0  0  0  0  0  0  0  0
   -0.3345   -2.8093   -2.4741 C   0  0  0  0  0  0  0  0  0  0  0  0
   -0.5200   -2.1145   -3.2828 H   0  0  0  0  0  0  0  0  0  0  0  0
   -0.2294   -4.1878   -2.7434 C   0  0  0  0  0  0  0  0  0  0  0  0
   -0.3406   -4.5485   -3.7544 H   0  0  0  0  0  0  0  0  0  0  0  0
    0.0228   -5.0935   -1.6899 C   0  0  0  0  0  0  0  0  0  0  0  0
    0.1288   -6.4244   -1.9396 O   0  0  0  0  0  0  0  0  0  0  0  0
   -0.0763   -6.6383   -2.8507 H   0  0  0  0  0  0  0  0  0  0  0  0
    0.1700   -4.6156   -0.3712 C   0  0  0  0  0  0  0  0  0  0  0  0
    0.3582   -5.3183    0.4264 H   0  0  0  0  0  0  0  0  0  0  0  0
    0.0598   -3.2376   -0.1046 C   0  0  0  0  0  0  0  0  0  0  0  0
    0.1638   -2.8721    0.9101 H   0  0  0  0  0  0  0  0  0  0  0  0
   -1.4018    1.0238    0.4329 C   0  0  0  0  0  0  0  0  0  0  0  0
   -2.2416    1.5423   -0.3033 O   0  0  0  0  0  0  0  0  0  0  0  0
   -0.6927    1.7304    1.3223 N   0  0  0  0  0  0  0  0  0  0  0  0
    0.0178    1.2410    1.8469 H   0  0  0  0  0  0  0  0  0  0  0  0
   -0.8259    3.1712    1.5254 C   0  0  0  0  0  0  0  0  0  0  0  0
   -1.8769    3.4302    1.6645 H   0  0  0  0  0  0  0  0  0  0  0  0
   -0.2598    3.4806    2.4054 H   0  0  0  0  0  0  0  0  0  0  0  0
   -0.4486    3.7020    0.6489 H   0  0  0  0  0  0  0  0  0  0  0  0
  5  6  2  0  0  0  0
  5  7  1  0  0  0  0
  2  3  1  0  0  0  0
  2  4  1  0  0  0  0
  2  5  1  0  0  0  0
  1  2  1  0  0  0  0
 26 27  2  0  0  0  0
 26 28  1  0  0  0  0
 24 25  1  0  0  0  0
 22 23  1  0  0  0  0
 22 24  2  0  0  0  0
 20 21  1  0  0  0  0
 19 20  1  0  0  0  0
 19 22  1  0  0  0  0
 17 18  1  0  0  0  0
 17 19  2  0  0  0  0
 15 16  1  0  0  0  0
 15 17  1  0  0  0  0
 14 15  2  0  0  0  0
 14 24  1  0  0  0  0
 11 12  1  0  0  0  0
 11 13  1  0  0  0  0
 11 14  1  0  0  0  0
  9 10  1  0  0  0  0
  9 11  1  0  0  0  0
  9 26  1  0  0  0  0
  7  8  1  0  0  0  0
  7  9  1  0  0  0  0
 30 31  1  0  0  0  0
 30 32  1  0  0  0  0
 30 33  1  0  0  0  0
 28 29  1  0  0  0  0
 28 30  1  0  0  0  0
M  END
$$$$
default_name
  -OEChem-02102213163D

 33 33  0     1  0  0  0  0  0999 V2000
   -4.0702   -3.8485    1.4554 H   0  0  0  0  0  0  0  0  0  0  0  0
   -4.0012   -2.9605    0.8284 C   0  0  0  0  0  0  0  0  0  0  0  0
   -4.7652   -2.2435    1.1234 H   0  0  0  0  0  0  0  0  0  0  0  0
   -4.1352   -3.2385   -0.2156 H   0  0  0  0  0  0  0  0  0  0  0  0
   -2.6362   -2.3395    1.0094 C   0  0  0  0  0  0  0  0  0  0  0  0
   -1.8292   -2.8395    1.7814 O   0  0  0  0  0  0  0  0  0  0  0  0
   -2.3832   -1.2445    0.2964 N   0  0  0  0  0  0  0  0  0  0  0  0
   -3.1102   -0.8685   -0.2946 H   0  0  0  0  0  0  0  0  0  0  0  0
   -1.1292   -0.4875    0.3524 C   0  0  1  0  0  0  0  0  0  0  0  0
   -0.5898   -0.7762    1.2552 H   0  0  0  0  0  0  0  0  0  0  0  0
   -0.2608   -0.8470   -0.8656 C   0  0  0  0  0  0  0  0  0  0  0  0
   -0.6642   -0.3486   -1.7480 H   0  0  0  0  0  0  0  0  0  0  0  0
    0.7481   -0.4629   -0.7059 H   0  0  0  0  0  0  0  0  0  0  0  0
   -0.1920   -2.3340   -1.1550 C   0  0  0  0  0  0  0  0  0  0  0  0
   -0.0172   -2.7944   -2.4755 C   0  0  0  0  0  0  0  0  0  0  0  0
    0.0423   -2.0867   -3.2921 H   0  0  0  0  0  0  0  0  0  0  0  0
    0.0867   -4.1750   -2.7343 C   0  0  0  0  0  0  0  0  0  0  0  0
    0.2189   -4.5240   -3.7469 H   0  0  0  0  0  0  0  0  0  0  0  0
    0.0193   -5.0979   -1.6679 C   0  0  0  0  0  0  0  0  0  0  0  0
    0.1214   -6.4312   -1.9066 O   0  0  0  0  0  0  0  0  0  0  0  0
    0.1445   -6.6295   -2.8437 H   0  0  0  0  0  0  0  0  0  0  0  0
   -0.1507   -4.6352   -0.3465 C   0  0  0  0  0  0  0  0  0  0  0  0
   -0.2052   -5.3509    0.4599 H   0  0  0  0  0  0  0  0  0  0  0  0
   -0.2589   -3.2549   -0.0917 C   0  0  0  0  0  0  0  0  0  0  0  0
   -0.3988   -2.9006    0.9227 H   0  0  0  0  0  0  0  0  0  0  0  0
   -1.4018    1.0238    0.4329 C   0  0  0  0  0  0  0  0  0  0  0  0
   -2.2416    1.5423   -0.3033 O   0  0  0  0  0  0  0  0  0  0  0  0
   -0.6927    1.7304    1.3223 N   0  0  0  0  0  0  0  0  0  0  0  0
    0.0178    1.2410    1.8469 H   0  0  0  0  0  0  0  0  0  0  0  0
   -0.8259    3.1712    1.5254 C   0  0  0  0  0  0  0  0  0  0  0  0
   -1.8769    3.4302    1.6645 H   0  0  0  0  0  0  0  0  0  0  0  0
   -0.2598    3.4806    2.4054 H   0  0  0  0  0  0  0  0  0  0  0  0
   -0.4486    3.7020    0.6489 H   0  0  0  0  0  0  0  0  0  0  0  0
  5  6  2  0  0  0  0
  5  7  1  0  0  0  0
  2  3  1  0  0  0  0
  2  4  1  0  0  0  0
  2  5  1  0  0  0  0
  1  2  1  0  0  0  0
 26 27  2  0  0  0  0
 26 28  1  0  0  0  0
 24 25  1  0  0  0  0
 22 23  1  0  0  0  0
 22 24  2  0  0  0  0
 20 21  1  0  0  0  0
 19 20  1  0  0  0  0
 19 22  1  0  0  0  0
 17 18  1  0  0  0  0
 17 19  2  0  0  0  0
 15 16  1  0  0  0  0
 15 17  1  0  0  0  0
 14 15  2  0  0  0  0
 14 24  1  0  0  0  0
 11 12  1  0  0  0  0
 11 13  1  0  0  0  0
 11 14  1  0  0  0  0
  9 10  1  0  0  0  0
  9 11  1  0  0  0  0
  9 26  1  0  0  0  0
  7  8  1  0  0  0  0
  7  9  1  0  0  0  0
 30 31  1  0  0  0  0
 30 32  1  0  0  0  0
 30 33  1  0  0  0  0
 28 29  1  0  0  0  0
 28 30  1  0  0  0  0
M  END
$$$$
default_name
  -OEChem-02102213163D

 33 33  0     1  0  0  0  0  0999 V2000
   -4.0702   -3.8485    1.4554 H   0  0  0  0  0  0  0  0  0  0  0  0
   -4.0012   -2.9605    0.8284 C   0  0  0  0  0  0  0  0  0  0  0  0
   -4.7652   -2.2435    1.1234 H   0  0  0  0  0  0  0  0  0  0  0  0
   -4.1352   -3.2385   -0.2156 H   0  0  0  0  0  0  0  0  0  0  0  0
   -2.6362   -2.3395    1.0094 C   0  0  0  0  0  0  0  0  0  0  0  0
   -1.8292   -2.8395    1.7814 O   0  0  0  0  0  0  0  0  0  0  0  0
   -2.3832   -1.2445    0.2964 N   0  0  0  0  0  0  0  0  0  0  0  0
   -3.1102   -0.8685   -0.2946 H   0  0  0  0  0  0  0  0  0  0  0  0
   -1.1292   -0.4875    0.3524 C   0  0  1  0  0  0  0  0  0  0  0  0
   -0.5898   -0.7762    1.2552 H   0  0  0  0  0  0  0  0  0  0  0  0
   -0.2608   -0.8470   -0.8656 C   0  0  0  0  0  0  0  0  0  0  0  0
   -0.6642   -0.3486   -1.7480 H   0  0  0  0  0  0  0  0  0  0  0  0
    0.7481   -0.4629   -0.7059 H   0  0  0  0  0  0  0  0  0  0  0  0
   -0.1920   -2.3340   -1.1550 C   0  0  0  0  0  0  0  0  0  0  0  0
    0.2903   -2.7956   -2.3962 C   0  0  0  0  0  0  0  0  0  0  0  0
    0.5892   -2.0875   -3.1580 H   0  0  0  0  0  0  0  0  0  0  0  0
    0.3903   -4.1783   -2.6452 C   0  0  0  0  0  0  0  0  0  0  0  0
    0.7586   -4.5282   -3.5973 H   0  0  0  0  0  0  0  0  0  0  0  0
    0.0101   -5.1023   -1.6476 C   0  0  0  0  0  0  0  0  0  0  0  0
    0.1055   -6.4378   -1.8768 O   0  0  0  0  0  0  0  0  0  0  0  0
    0.3564   -6.6319   -2.7808 H   0  0  0  0  0  0  0  0  0  0  0  0
   -0.4677   -4.6386   -0.4043 C   0  0  0  0  0  0  0  0  0  0  0  0
   -0.7595   -5.3550    0.3489 H   0  0  0  0  0  0  0  0  0  0  0  0
   -0.5709   -3.2560   -0.1602 C   0  0  0  0  0  0  0  0  0  0  0  0
   -0.9468   -2.9005    0.7918 H   0  0  0  0  0  0  0  0  0  0  0  0
   -1.4018    1.0238    0.4329 C   0  0  0  0  0  0  0  0  0  0  0  0
   -2.2416    1.5423   -0.3033 O   0  0  0  0  0  0  0  0  0  0  0  0
   -0.6927    1.7304    1.3223 N   0  0  0  0  0  0  0  0  0  0  0  0
    0.0178    1.2410    1.8469 H   0  0  0  0  0  0  0  0  0  0  0  0
   -0.8259    3.1712    1.5254 C   0  0  0  0  0  0  0  0  0  0  0  0
   -1.8769    3.4302    1.6645 H   0  0  0  0  0  0  0  0  0  0  0  0
   -0.2598    3.4806    2.4054 H   0  0  0  0  0  0  0  0  0  0  0  0
   -0.4486    3.7020    0.6489 H   0  0  0  0  0  0  0  0  0  0  0  0
  5  6  2  0  0  0  0
  5  7  1  0  0  0  0
  2  3  1  0  0  0  0
  2  4  1  0  0  0  0
  2  5  1  0  0  0  0
  1  2  1  0  0  0  0
 26 27  2  0  0  0  0
 26 28  1  0  0  0  0
 24 25  1  0  0  0  0
 22 23  1  0  0  0  0
 22 24  2  0  0  0  0
 20 21  1  0  0  0  0
 19 20  1  0  0  0  0
 19 22  1  0  0  0  0
 17 18  1  0  0  0  0
 17 19  2  0  0  0  0
 15 16  1  0  0  0  0
 15 17  1  0  0  0  0
 14 15  2  0  0  0  0
 14 24  1  0  0  0  0
 11 12  1  0  0  0  0
 11 13  1  0  0  0  0
 11 14  1  0  0  0  0
  9 10  1  0  0  0  0
  9 11  1  0  0  0  0
  9 26  1  0  0  0  0
  7  8  1  0  0  0  0
  7  9  1  0  0  0  0
 30 31  1  0  0  0  0
 30 32  1  0  0  0  0
 30 33  1  0  0  0  0
 28 29  1  0  0  0  0
 28 30  1  0  0  0  0
M  END
$$$$
default_name
  -OEChem-02102213163D

 33 33  0     1  0  0  0  0  0999 V2000
   -4.0702   -3.8485    1.4554 H   0  0  0  0  0  0  0  0  0  0  0  0
   -4.0012   -2.9605    0.8284 C   0  0  0  0  0  0  0  0  0  0  0  0
   -4.7652   -2.2435    1.1234 H   0  0  0  0  0  0  0  0  0  0  0  0
   -4.1352   -3.2385   -0.2156 H   0  0  0  0  0  0  0  0  0  0  0  0
   -2.6362   -2.3395    1.0094 C   0  0  0  0  0  0  0  0  0  0  0  0
   -1.8292   -2.8395    1.7814 O   0  0  0  0  0  0  0  0  0  0  0  0
   -2.3832   -1.2445    0.2964 N   0  0  0  0  0  0  0  0  0  0  0  0
   -3.1102   -0.8685   -0.2946 H   0  0  0  0  0  0  0  0  0  0  0  0
   -1.1292   -0.4875    0.3524 C   0  0  1  0  0  0  0  0  0  0  0  0
   -0.5898   -0.7762    1.2552 H   0  0  0  0  0  0  0  0  0  0  0  0
   -0.2608   -0.8470   -0.8656 C   0  0  0  0  0  0  0  0  0  0  0  0
   -0.4882   -0.1568   -1.6790 H   0  0  0  0  0  0  0  0  0  0  0  0
    0.7895   -0.7089   -0.6038 H   0  0  0  0  0  0  0  0  0  0  0  0
   -0.4697   -2.2601   -1.3748 C   0  0  0  0  0  0  0  0  0  0  0  0
    0.2582   -2.7306   -2.4862 C   0  0  0  0  0  0  0  0  0  0  0  0
    0.9509   -2.0744   -2.9967 H   0  0  0  0  0  0  0  0  0  0  0  0
    0.0904   -4.0566   -2.9304 C   0  0  0  0  0  0  0  0  0  0  0  0
    0.6482   -4.4131   -3.7827 H   0  0  0  0  0  0  0  0  0  0  0  0
   -0.8059   -4.9159   -2.2581 C   0  0  0  0  0  0  0  0  0  0  0  0
   -0.9726   -6.1973   -2.6769 O   0  0  0  0  0  0  0  0  0  0  0  0
   -0.4993   -6.3757   -3.4906 H   0  0  0  0  0  0  0  0  0  0  0  0
   -1.5297   -4.4449   -1.1432 C   0  0  0  0  0  0  0  0  0  0  0  0
   -2.2153   -5.1102   -0.6402 H   0  0  0  0  0  0  0  0  0  0  0  0
   -1.3633   -3.1176   -0.7044 C   0  0  0  0  0  0  0  0  0  0  0  0
   -1.9266   -2.7536    0.1465 H   0  0  0  0  0  0  0  0  0  0  0  0
   -1.4018    1.0238    0.4329 C   0  0  0  0  0  0  0  0  0  0  0  0
   -2.2416    1.5423   -0.3033 O   0  0  0  0  0  0  0  0  0  0  0  0
   -0.6927    1.7304    1.3223 N   0  0  0  0  0  0  0  0  0  0  0  0
    0.0178    1.2410    1.8469 H   0  0  0  0  0  0  0  0  0  0  0  0
   -0.8259    3.1712    1.5254 C   0  0  0  0  0  0  0  0  0  0  0  0
   -1.8769    3.4302    1.6645 H   0  0  0  0  0  0  0  0  0  0  0  0
   -0.2598    3.4806    2.4054 H   0  0  0  0  0  0  0  0  0  0  0  0
   -0.4486    3.7020    0.6489 H   0  0  0  0  0  0  0  0  0  0  0  0
  5  6  2  0  0  0  0
  5  7  1  0  0  0  0
  2  3  1  0  0  0  0
  2  4  1  0  0  0  0
  2  5  1  0  0  0  0
  1  2  1  0  0  0  0
 26 27  2  0  0  0  0
 26 28  1  0  0  0  0
 24 25  1  0  0  0  0
 22 23  1  0  0  0  0
 22 24  2  0  0  0  0
 20 21  1  0  0  0  0
 19 20  1  0  0  0  0
 19 22  1  0  0  0  0
 17 18  1  0  0  0  0
 17 19  2  0  0  0  0
 15 16  1  0  0  0  0
 15 17  1  0  0  0  0
 14 15  2  0  0  0  0
 14 24  1  0  0  0  0
 11 12  1  0  0  0  0
 11 13  1  0  0  0  0
 11 14  1  0  0  0  0
  9 10  1  0  0  0  0
  9 11  1  0  0  0  0
  9 26  1  0  0  0  0
  7  8  1  0  0  0  0
  7  9  1  0  0  0  0
 30 31  1  0  0  0  0
 30 32  1  0  0  0  0
 30 33  1  0  0  0  0
 28 29  1  0  0  0  0
 28 30  1  0  0  0  0
M  END
$$$$
default_name
  -OEChem-02102213163D

 33 33  0     1  0  0  0  0  0999 V2000
   -4.0702   -3.8485    1.4554 H   0  0  0  0  0  0  0  0  0  0  0  0
   -4.0012   -2.9605    0.8284 C   0  0  0  0  0  0  0  0  0  0  0  0
   -4.7652   -2.2435    1.1234 H   0  0  0  0  0  0  0  0  0  0  0  0
   -4.1352   -3.2385   -0.2156 H   0  0  0  0  0  0  0  0  0  0  0  0
   -2.6362   -2.3395    1.0094 C   0  0  0  0  0  0  0  0  0  0  0  0
   -1.8292   -2.8395    1.7814 O   0  0  0  0  0  0  0  0  0  0  0  0
   -2.3832   -1.2445    0.2964 N   0  0  0  0  0  0  0  0  0  0  0  0
   -3.1102   -0.8685   -0.2946 H   0  0  0  0  0  0  0  0  0  0  0  0
   -1.1292   -0.4875    0.3524 C   0  0  1  0  0  0  0  0  0  0  0  0
   -0.5898   -0.7762    1.2552 H   0  0  0  0  0  0  0  0  0  0  0  0
   -0.2608   -0.8470   -0.8656 C   0  0  0  0  0  0  0  0  0  0  0  0
   -0.4882   -0.1568   -1.6790 H   0  0  0  0  0  0  0  0  0  0  0  0
    0.7895   -0.7089   -0.6038 H   0  0  0  0  0  0  0  0  0  0  0  0
   -0.4697   -2.2601   -1.3748 C   0  0  0  0  0  0  0  0  0  0  0  0
    0.4571   -2.8400   -2.2641 C   0  0  0  0  0  0  0  0  0  0  0  0
    1.3090   -2.2677   -2.6075 H   0  0  0  0  0  0  0  0  0  0  0  0
    0.2803   -4.1668   -2.7025 C   0  0  0  0  0  0  0  0  0  0  0  0
    0.9912   -4.6072   -3.3847 H   0  0  0  0  0  0  0  0  0  0  0  0
   -0.8255   -4.9172   -2.2466 C   0  0  0  0  0  0  0  0  0  0  0  0
   -1.0033   -6.1984   -2.6612 O   0  0  0  0  0  0  0  0  0  0  0  0
   -0.3672   -6.4528   -3.3310 H   0  0  0  0  0  0  0  0  0  0  0  0
   -1.7493   -4.3368   -1.3529 C   0  0  0  0  0  0  0  0  0  0  0  0
   -2.5931   -4.9193   -1.0149 H   0  0  0  0  0  0  0  0  0  0  0  0
   -1.5723   -3.0089   -0.9202 C   0  0  0  0  0  0  0  0  0  0  0  0
   -2.2875   -2.5607   -0.2408 H   0  0  0  0  0  0  0  0  0  0  0  0
   -1.4018    1.0238    0.4329 C   0  0  0  0  0  0  0  0  0  0  0  0
   -2.2416    1.5423   -0.3033 O   0  0  0  0  0  0  0  0  0  0  0  0
   -0.6927    1.7304    1.3223 N   0  0  0  0  0  0  0  0  0  0  0  0
    0.0178    1.2410    1.8469 H   0  0  0  0  0  0  0  0  0  0  0  0
   -0.8259    3.1712    1.5254 C   0  0  0  0  0  0  0  0  0  0  0  0
   -1.8769    3.4302    1.6645 H   0  0  0  0  0  0  0  0  0  0  0  0
   -0.2598    3.4806    2.4054 H   0  0  0  0  0  0  0  0  0  0  0  0
   -0.4486    3.7020    0.6489 H   0  0  0  0  0  0  0  0  0  0  0  0
  5  6  2  0  0  0  0
  5  7  1  0  0  0  0
  2  3  1  0  0  0  0
  2  4  1  0  0  0  0
  2  5  1  0  0  0  0
  1  2  1  0  0  0  0
 26 27  2  0  0  0  0
 26 28  1  0  0  0  0
 24 25  1  0  0  0  0
 22 23  1  0  0  0  0
 22 24  2  0  0  0  0
 20 21  1  0  0  0  0
 19 20  1  0  0  0  0
 19 22  1  0  0  0  0
 17 18  1  0  0  0  0
 17 19  2  0  0  0  0
 15 16  1  0  0  0  0
 15 17  1  0  0  0  0
 14 15  2  0  0  0  0
 14 24  1  0  0  0  0
 11 12  1  0  0  0  0
 11 13  1  0  0  0  0
 11 14  1  0  0  0  0
  9 10  1  0  0  0  0
  9 11  1  0  0  0  0
  9 26  1  0  0  0  0
  7  8  1  0  0  0  0
  7  9  1  0  0  0  0
 30 31  1  0  0  0  0
 30 32  1  0  0  0  0
 30 33  1  0  0  0  0
 28 29  1  0  0  0  0
 28 30  1  0  0  0  0
M  END
$$$$
default_name
  -OEChem-02102213163D

 33 33  0     1  0  0  0  0  0999 V2000
   -4.0702   -3.8485    1.4554 H   0  0  0  0  0  0  0  0  0  0  0  0
   -4.0012   -2.9605    0.8284 C   0  0  0  0  0  0  0  0  0  0  0  0
   -4.7652   -2.2435    1.1234 H   0  0  0  0  0  0  0  0  0  0  0  0
   -4.1352   -3.2385   -0.2156 H   0  0  0  0  0  0  0  0  0  0  0  0
   -2.6362   -2.3395    1.0094 C   0  0  0  0  0  0  0  0  0  0  0  0
   -1.8292   -2.8395    1.7814 O   0  0  0  0  0  0  0  0  0  0  0  0
   -2.3832   -1.2445    0.2964 N   0  0  0  0  0  0  0  0  0  0  0  0
   -3.1102   -0.8685   -0.2946 H   0  0  0  0  0  0  0  0  0  0  0  0
   -1.1292   -0.4875    0.3524 C   0  0  1  0  0  0  0  0  0  0  0  0
   -0.5898   -0.7762    1.2552 H   0  0  0  0  0  0  0  0  0  0  0  0
   -0.2608   -0.8470   -0.8656 C   0  0  0  0  0  0  0  0  0  0  0  0
   -0.4882   -0.1568   -1.6790 H   0  0  0  0  0  0  0  0  0  0  0  0
    0.7895   -0.7089   -0.6038 H   0  0  0  0  0  0  0  0  0  0  0  0
   -0.4697   -2.2601   -1.3748 C   0  0  0  0  0  0  0  0  0  0  0  0
    0.5863   -2.9551   -1.9978 C   0  0  0  0  0  0  0  0  0  0  0  0
    1.5441   -2.4715   -2.1382 H   0  0  0  0  0  0  0  0  0  0  0  0
    0.3993   -4.2817   -2.4327 C   0  0  0  0  0  0  0  0  0  0  0  0
    1.2096   -4.8103   -2.9107 H   0  0  0  0  0  0  0  0  0  0  0  0
   -0.8473   -4.9162   -2.2403 C   0  0  0  0  0  0  0  0  0  0  0  0
   -1.0368   -6.1963   -2.6534 O   0  0  0  0  0  0  0  0  0  0  0  0
   -0.2847   -6.5330   -3.1422 H   0  0  0  0  0  0  0  0  0  0  0  0
   -1.9013   -4.2209   -1.6123 C   0  0  0  0  0  0  0  0  0  0  0  0
   -2.8511   -4.7154   -1.4748 H   0  0  0  0  0  0  0  0  0  0  0  0
   -1.7127   -2.8935   -1.1829 C   0  0  0  0  0  0  0  0  0  0  0  0
   -2.5259   -2.3568   -0.7088 H   0  0  0  0  0  0  0  0  0  0  0  0
   -1.4018    1.0238    0.4329 C   0  0  0  0  0  0  0  0  0  0  0  0
   -2.2416    1.5423   -0.3033 O   0  0  0  0  0  0  0  0  0  0  0  0
   -0.6927    1.7304    1.3223 N   0  0  0  0  0  0  0  0  0  0  0  0
    0.0178    1.2410    1.8469 H   0  0  0  0  0  0  0  0  0  0  0  0
   -0.8259    3.1712    1.5254 C   0  0  0  0  0  0  0  0  0  0  0  0
   -1.8769    3.4302    1.6645 H   0  0  0  0  0  0  0  0  0  0  0  0
   -0.2598    3.4806    2.4054 H   0  0  0  0  0  0  0  0  0  0  0  0
   -0.4486    3.7020    0.6489 H   0  0  0  0  0  0  0  0  0  0  0  0
  5  6  2  0  0  0  0
  5  7  1  0  0  0  0
  2  3  1  0  0  0  0
  2  4  1  0  0  0  0
  2  5  1  0  0  0  0
  1  2  1  0  0  0  0
 26 27  2  0  0  0  0
 26 28  1  0  0  0  0
 24 25  1  0  0  0  0
 22 23  1  0  0  0  0
 22 24  2  0  0  0  0
 20 21  1  0  0  0  0
 19 20  1  0  0  0  0
 19 22  1  0  0  0  0
 17 18  1  0  0  0  0
 17 19  2  0  0  0  0
 15 16  1  0  0  0  0
 15 17  1  0  0  0  0
 14 15  2  0  0  0  0
 14 24  1  0  0  0  0
 11 12  1  0  0  0  0
 11 13  1  0  0  0  0
 11 14  1  0  0  0  0
  9 10  1  0  0  0  0
  9 11  1  0  0  0  0
  9 26  1  0  0  0  0
  7  8  1  0  0  0  0
  7  9  1  0  0  0  0
 30 31  1  0  0  0  0
 30 32  1  0  0  0  0
 30 33  1  0  0  0  0
 28 29  1  0  0  0  0
 28 30  1  0  0  0  0
M  END
$$$$
default_name
  -OEChem-02102213163D

 33 33  0     1  0  0  0  0  0999 V2000
   -4.0702   -3.8485    1.4554 H   0  0  0  0  0  0  0  0  0  0  0  0
   -4.0012   -2.9605    0.8284 C   0  0  0  0  0  0  0  0  0  0  0  0
   -4.7652   -2.2435    1.1234 H   0  0  0  0  0  0  0  0  0  0  0  0
   -4.1352   -3.2385   -0.2156 H   0  0  0  0  0  0  0  0  0  0  0  0
   -2.6362   -2.3395    1.0094 C   0  0  0  0  0  0  0  0  0  0  0  0
   -1.8292   -2.8395    1.7814 O   0  0  0  0  0  0  0  0  0  0  0  0
   -2.3832   -1.2445    0.2964 N   0  0  0  0  0  0  0  0  0  0  0  0
   -3.1102   -0.8685   -0.2946 H   0  0  0  0  0  0  0  0  0  0  0  0
   -1.1292   -0.4875    0.3524 C   0  0  1  0  0  0  0  0  0  0  0  0
   -0.5898   -0.7762    1.2552 H   0  0  0  0  0  0  0  0  0  0  0  0
   -0.2608   -0.8470   -0.8656 C   0  0  0  0  0  0  0  0  0  0  0  0
   -0.4882   -0.1568   -1.6790 H   0  0  0  0  0  0  0  0  0  0  0  0
    0.7895   -0.7089   -0.6038 H   0  0  0  0  0  0  0  0  0  0  0  0
   -0.4697   -2.2601   -1.3748 C   0  0  0  0  0  0  0  0  0  0  0  0
    0.6368   -3.0680   -1.7052 C   0  0  0  0  0  0  0  0  0  0  0  0
    1.6404   -2.6722   -1.6210 H   0  0  0  0  0  0  0  0  0  0  0  0
    0.4391   -4.3933   -2.1392 C   0  0  0  0  0  0  0  0  0  0  0  0
    1.2886   -5.0086   -2.3929 H   0  0  0  0  0  0  0  0  0  0  0  0
   -0.8698   -4.9132   -2.2394 C   0  0  0  0  0  0  0  0  0  0  0  0
   -1.0708   -6.1910   -2.6541 O   0  0  0  0  0  0  0  0  0  0  0  0
   -0.2575   -6.6110   -2.9371 H   0  0  0  0  0  0  0  0  0  0  0  0
   -1.9756   -4.1049   -1.9036 C   0  0  0  0  0  0  0  0  0  0  0  0
   -2.9717   -4.5124   -1.9885 H   0  0  0  0  0  0  0  0  0  0  0  0
   -1.7750   -2.7791   -1.4746 C   0  0  0  0  0  0  0  0  0  0  0  0
   -2.6256   -2.1558   -1.2257 H   0  0  0  0  0  0  0  0  0  0  0  0
   -1.4018    1.0238    0.4329 C   0  0  0  0  0  0  0  0  0  0  0  0
   -2.2416    1.5423   -0.3033 O   0  0  0  0  0  0  0  0  0  0  0  0
   -0.6927    1.7304    1.3223 N   0  0  0  0  0  0  0  0  0  0  0  0
    0.0178    1.2410    1.8469 H   0  0  0  0  0  0  0  0  0  0  0  0
   -0.8259    3.1712    1.5254 C   0  0  0  0  0  0  0  0  0  0  0  0
   -1.8769    3.4302    1.6645 H   0  0  0  0  0  0  0  0  0  0  0  0
   -0.2598    3.4806    2.4054 H   0  0  0  0  0  0  0  0  0  0  0  0
   -0.4486    3.7020    0.6489 H   0  0  0  0  0  0  0  0  0  0  0  0
  5  6  2  0  0  0  0
  5  7  1  0  0  0  0
  2  3  1  0  0  0  0
  2  4  1  0  0  0  0
  2  5  1  0  0  0  0
  1  2  1  0  0  0  0
 26 27  2  0  0  0  0
 26 28  1  0  0  0  0
 24 25  1  0  0  0  0
 22 23  1  0  0  0  0
 22 24  2  0  0  0  0
 20 21  1  0  0  0  0
 19 20  1  0  0  0  0
 19 22  1  0  0  0  0
 17 18  1  0  0  0  0
 17 19  2  0  0  0  0
 15 16  1  0  0  0  0
 15 17  1  0  0  0  0
 14 15  2  0  0  0  0
 14 24  1  0  0  0  0
 11 12  1  0  0  0  0
 11 13  1  0  0  0  0
 11 14  1  0  0  0  0
  9 10  1  0  0  0  0
  9 11  1  0  0  0  0
  9 26  1  0  0  0  0
  7  8  1  0  0  0  0
  7  9  1  0  0  0  0
 30 31  1  0  0  0  0
 30 32  1  0  0  0  0
 30 33  1  0  0  0  0
 28 29  1  0  0  0  0
 28 30  1  0  0  0  0
M  END
$$$$
default_name
  -OEChem-02102213163D

 33 33  0     1  0  0  0  0  0999 V2000
   -4.0702   -3.8485    1.4554 H   0  0  0  0  0  0  0  0  0  0  0  0
   -4.0012   -2.9605    0.8284 C   0  0  0  0  0  0  0  0  0  0  0  0
   -4.7652   -2.2435    1.1234 H   0  0  0  0  0  0  0  0  0  0  0  0
   -4.1352   -3.2385   -0.2156 H   0  0  0  0  0  0  0  0  0  0  0  0
   -2.6362   -2.3395    1.0094 C   0  0  0  0  0  0  0  0  0  0  0  0
   -1.8292   -2.8395    1.7814 O   0  0  0  0  0  0  0  0  0  0  0  0
   -2.3832   -1.2445    0.2964 N   0  0  0  0  0  0  0  0  0  0  0  0
   -3.1102   -0.8685   -0.2946 H   0  0  0  0  0  0  0  0  0  0  0  0
   -1.1292   -0.4875    0.3524 C   0  0  1  0  0  0  0  0  0  0  0  0
   -0.5898   -0.7762    1.2552 H   0  0  0  0  0  0  0  0  0  0  0  0
   -0.2608   -0.8470   -0.8656 C   0  0  0  0  0  0  0  0  0  0  0  0
   -0.4882   -0.1568   -1.6790 H   0  0  0  0  0  0  0  0  0  0  0  0
    0.7895   -0.7089   -0.6038 H   0  0  0  0  0  0  0  0  0  0  0  0
   -0.4697   -2.2601   -1.3748 C   0  0  0  0  0  0  0  0  0  0  0  0
    0.6052   -3.1710   -1.4065 C   0  0  0  0  0  0  0  0  0  0  0  0
    1.5912   -2.8559   -1.0911 H   0  0  0  0  0  0  0  0  0  0  0  0
    0.3971   -4.4941   -1.8422 C   0  0  0  0  0  0  0  0  0  0  0  0
    1.2228   -5.1886   -1.8666 H   0  0  0  0  0  0  0  0  0  0  0  0
   -0.8915   -4.9083   -2.2441 C   0  0  0  0  0  0  0  0  0  0  0  0
   -1.1031   -6.1830   -2.6631 O   0  0  0  0  0  0  0  0  0  0  0  0
   -0.2875   -6.6813   -2.7297 H   0  0  0  0  0  0  0  0  0  0  0  0
   -1.9670   -3.9968   -2.2071 C   0  0  0  0  0  0  0  0  0  0  0  0
   -2.9467   -4.3242   -2.5210 H   0  0  0  0  0  0  0  0  0  0  0  0
   -1.7549   -2.6737   -1.7754 C   0  0  0  0  0  0  0  0  0  0  0  0
   -2.5797   -1.9714   -1.7561 H   0  0  0  0  0  0  0  0  0  0  0  0
   -1.4018    1.0238    0.4329 C   0  0  0  0  0  0  0  0  0  0  0  0
   -2.2416    1.5423   -0.3033 O   0  0  0  0  0  0  0  0  0  0  0  0
   -0.6927    1.7304    1.3223 N   0  0  0  0  0  0  0  0  0  0  0  0
    0.0178    1.2410    1.8469 H   0  0  0  0  0  0  0  0  0  0  0  0
   -0.8259    3.1712    1.5254 C   0  0  0  0  0  0  0  0  0  0  0  0
   -1.8769    3.4302    1.6645 H   0  0  0  0  0  0  0  0  0  0  0  0
   -0.2598    3.4806    2.4054 H   0  0  0  0  0  0  0  0  0  0  0  0
   -0.4486    3.7020    0.6489 H   0  0  0  0  0  0  0  0  0  0  0  0
  5  6  2  0  0  0  0
  5  7  1  0  0  0  0
  2  3  1  0  0  0  0
  2  4  1  0  0  0  0
  2  5  1  0  0  0  0
  1  2  1  0  0  0  0
 26 27  2  0  0  0  0
 26 28  1  0  0  0  0
 24 25  1  0  0  0  0
 22 23  1  0  0  0  0
 22 24  2  0  0  0  0
 20 21  1  0  0  0  0
 19 20  1  0  0  0  0
 19 22  1  0  0  0  0
 17 18  1  0  0  0  0
 17 19  2  0  0  0  0
 15 16  1  0  0  0  0
 15 17  1  0  0  0  0
 14 15  2  0  0  0  0
 14 24  1  0  0  0  0
 11 12  1  0  0  0  0
 11 13  1  0  0  0  0
 11 14  1  0  0  0  0
  9 10  1  0  0  0  0
  9 11  1  0  0  0  0
  9 26  1  0  0  0  0
  7  8  1  0  0  0  0
  7  9  1  0  0  0  0
 30 31  1  0  0  0  0
 30 32  1  0  0  0  0
 30 33  1  0  0  0  0
 28 29  1  0  0  0  0
 28 30  1  0  0  0  0
M  END
$$$$
default_name
  -OEChem-02102213163D

 33 33  0     1  0  0  0  0  0999 V2000
   -4.0702   -3.8485    1.4554 H   0  0  0  0  0  0  0  0  0  0  0  0
   -4.0012   -2.9605    0.8284 C   0  0  0  0  0  0  0  0  0  0  0  0
   -4.7652   -2.2435    1.1234 H   0  0  0  0  0  0  0  0  0  0  0  0
   -4.1352   -3.2385   -0.2156 H   0  0  0  0  0  0  0  0  0  0  0  0
   -2.6362   -2.3395    1.0094 C   0  0  0  0  0  0  0  0  0  0  0  0
   -1.8292   -2.8395    1.7814 O   0  0  0  0  0  0  0  0  0  0  0  0
   -2.3832   -1.2445    0.2964 N   0  0  0  0  0  0  0  0  0  0  0  0
   -3.1102   -0.8685   -0.2946 H   0  0  0  0  0  0  0  0  0  0  0  0
   -1.1292   -0.4875    0.3524 C   0  0  1  0  0  0  0  0  0  0  0  0
   -0.5898   -0.7762    1.2552 H   0  0  0  0  0  0  0  0  0  0  0  0
   -0.2608   -0.8470   -0.8656 C   0  0  0  0  0  0  0  0  0  0  0  0
   -0.4882   -0.1568   -1.6790 H   0  0  0  0  0  0  0  0  0  0  0  0
    0.7895   -0.7089   -0.6038 H   0  0  0  0  0  0  0  0  0  0  0  0
   -0.4697   -2.2601   -1.3748 C   0  0  0  0  0  0  0  0  0  0  0  0
    0.4937   -3.2571   -1.1218 C   0  0  0  0  0  0  0  0  0  0  0  0
    1.4000   -3.0102   -0.5845 H   0  0  0  0  0  0  0  0  0  0  0  0
    0.2762   -4.5773   -1.5618 C   0  0  0  0  0  0  0  0  0  0  0  0
    1.0167   -5.3379   -1.3677 H   0  0  0  0  0  0  0  0  0  0  0  0
   -0.9109   -4.9019   -2.2540 C   0  0  0  0  0  0  0  0  0  0  0  0
   -1.1314   -6.1728   -2.6799 O   0  0  0  0  0  0  0  0  0  0  0  0
   -0.3726   -6.7392   -2.5340 H   0  0  0  0  0  0  0  0  0  0  0  0
   -1.8761   -3.9040   -2.5020 C   0  0  0  0  0  0  0  0  0  0  0  0
   -2.7777   -4.1635   -3.0361 H   0  0  0  0  0  0  0  0  0  0  0  0
   -1.6537   -2.5843   -2.0650 C   0  0  0  0  0  0  0  0  0  0  0  0
   -2.3915   -1.8161   -2.2640 H   0  0  0  0  0  0  0  0  0  0  0  0
   -1.4018    1.0238    0.4329 C   0  0  0  0  0  0  0  0  0  0  0  0
   -2.2416    1.5423   -0.3033 O   0  0  0  0  0  0  0  0  0  0  0  0
   -0.6927    1.7304    1.3223 N   0  0  0  0  0  0  0  0  0  0  0  0
    0.0178    1.2410    1.8469 H   0  0  0  0  0  0  0  0  0  0  0  0
   -0.8259    3.1712    1.5254 C   0  0  0  0  0  0  0  0  0  0  0  0
   -1.8769    3.4302    1.6645 H   0  0  0  0  0  0  0  0  0  0  0  0
   -0.2598    3.4806    2.4054 H   0  0  0  0  0  0  0  0  0  0  0  0
   -0.4486    3.7020    0.6489 H   0  0  0  0  0  0  0  0  0  0  0  0
  5  6  2  0  0  0  0
  5  7  1  0  0  0  0
  2  3  1  0  0  0  0
  2  4  1  0  0  0  0
  2  5  1  0  0  0  0
  1  2  1  0  0  0  0
 26 27  2  0  0  0  0
 26 28  1  0  0  0  0
 24 25  1  0  0  0  0
 22 23  1  0  0  0  0
 22 24  2  0  0  0  0
 20 21  1  0  0  0  0
 19 20  1  0  0  0  0
 19 22  1  0  0  0  0
 17 18  1  0  0  0  0
 17 19  2  0  0  0  0
 15 16  1  0  0  0  0
 15 17  1  0  0  0  0
 14 15  2  0  0  0  0
 14 24  1  0  0  0  0
 11 12  1  0  0  0  0
 11 13  1  0  0  0  0
 11 14  1  0  0  0  0
  9 10  1  0  0  0  0
  9 11  1  0  0  0  0
  9 26  1  0  0  0  0
  7  8  1  0  0  0  0
  7  9  1  0  0  0  0
 30 31  1  0  0  0  0
 30 32  1  0  0  0  0
 30 33  1  0  0  0  0
 28 29  1  0  0  0  0
 28 30  1  0  0  0  0
M  END
$$$$
default_name
  -OEChem-02102213163D

 33 33  0     1  0  0  0  0  0999 V2000
   -4.0702   -3.8485    1.4554 H   0  0  0  0  0  0  0  0  0  0  0  0
   -4.0012   -2.9605    0.8284 C   0  0  0  0  0  0  0  0  0  0  0  0
   -4.7652   -2.2435    1.1234 H   0  0  0  0  0  0  0  0  0  0  0  0
   -4.1352   -3.2385   -0.2156 H   0  0  0  0  0  0  0  0  0  0  0  0
   -2.6362   -2.3395    1.0094 C   0  0  0  0  0  0  0  0  0  0  0  0
   -1.8292   -2.8395    1.7814 O   0  0  0  0  0  0  0  0  0  0  0  0
   -2.3832   -1.2445    0.2964 N   0  0  0  0  0  0  0  0  0  0  0  0
   -3.1102   -0.8685   -0.2946 H   0  0  0  0  0  0  0  0  0  0  0  0
   -1.1292   -0.4875    0.3524 C   0  0  1  0  0  0  0  0  0  0  0  0
   -0.5898   -0.7762    1.2552 H   0  0  0  0  0  0  0  0  0  0  0  0
   -0.2608   -0.8470   -0.8656 C   0  0  0  0  0  0  0  0  0  0  0  0
   -0.4882   -0.1568   -1.6790 H   0  0  0  0  0  0  0  0  0  0  0  0
    0.7895   -0.7089   -0.6038 H   0  0  0  0  0  0  0  0  0  0  0  0
   -0.4697   -2.2601   -1.3748 C   0  0  0  0  0  0  0  0  0  0  0  0
    0.3098   -3.3204   -0.8707 C   0  0  0  0  0  0  0  0  0  0  0  0
    1.0796   -3.1246   -0.1358 H   0  0  0  0  0  0  0  0  0  0  0  0
    0.0845   -4.6371   -1.3172 C   0  0  0  0  0  0  0  0  0  0  0  0
    0.6844   -5.4465   -0.9302 H   0  0  0  0  0  0  0  0  0  0  0  0
   -0.9267   -4.8943   -2.2685 C   0  0  0  0  0  0  0  0  0  0  0  0
   -1.1538   -6.1610   -2.7033 O   0  0  0  0  0  0  0  0  0  0  0  0
   -0.5070   -6.7808   -2.3635 H   0  0  0  0  0  0  0  0  0  0  0  0
   -1.7091   -3.8327   -2.7682 C   0  0  0  0  0  0  0  0  0  0  0  0
   -2.4763   -4.0414   -3.4986 H   0  0  0  0  0  0  0  0  0  0  0  0
   -1.4784   -2.5171   -2.3234 C   0  0  0  0  0  0  0  0  0  0  0  0
   -2.0737   -1.7007   -2.7147 H   0  0  0  0  0  0  0  0  0  0  0  0
   -1.4018    1.0238    0.4329 C   0  0  0  0  0  0  0  0  0  0  0  0
   -2.2416    1.5423   -0.3033 O   0  0  0  0  0  0  0  0  0  0  0  0
   -0.6927    1.7304    1.3223 N   0  0  0  0  0  0  0  0  0  0  0  0
    0.0178    1.2410    1.8469 H   0  0  0  0  0  0  0  0  0  0  0  0
   -0.8259    3.1712    1.5254 C   0  0  0  0  0  0  0  0  0  0  0  0
   -1.8769    3.4302    1.6645 H   0  0  0  0  0  0  0  0  0  0  0  0
   -0.2598    3.4806    2.4054 H   0  0  0  0  0  0  0  0  0  0  0  0
   -0.4486    3.7020    0.6489 H   0  0  0  0  0  0  0  0  0  0  0  0
  5  6  2  0  0  0  0
  5  7  1  0  0  0  0
  2  3  1  0  0  0  0
  2  4  1  0  0  0  0
  2  5  1  0  0  0  0
  1  2  1  0  0  0  0
 26 27  2  0  0  0  0
 26 28  1  0  0  0  0
 24 25  1  0  0  0  0
 22 23  1  0  0  0  0
 22 24  2  0  0  0  0
 20 21  1  0  0  0  0
 19 20  1  0  0  0  0
 19 22  1  0  0  0  0
 17 18  1  0  0  0  0
 17 19  2  0  0  0  0
 15 16  1  0  0  0  0
 15 17  1  0  0  0  0
 14 15  2  0  0  0  0
 14 24  1  0  0  0  0
 11 12  1  0  0  0  0
 11 13  1  0  0  0  0
 11 14  1  0  0  0  0
  9 10  1  0  0  0  0
  9 11  1  0  0  0  0
  9 26  1  0  0  0  0
  7  8  1  0  0  0  0
  7  9  1  0  0  0  0
 30 31  1  0  0  0  0
 30 32  1  0  0  0  0
 30 33  1  0  0  0  0
 28 29  1  0  0  0  0
 28 30  1  0  0  0  0
M  END
$$$$
default_name
  -OEChem-02102213163D

 33 33  0     1  0  0  0  0  0999 V2000
   -4.0702   -3.8485    1.4554 H   0  0  0  0  0  0  0  0  0  0  0  0
   -4.0012   -2.9605    0.8284 C   0  0  0  0  0  0  0  0  0  0  0  0
   -4.7652   -2.2435    1.1234 H   0  0  0  0  0  0  0  0  0  0  0  0
   -4.1352   -3.2385   -0.2156 H   0  0  0  0  0  0  0  0  0  0  0  0
   -2.6362   -2.3395    1.0094 C   0  0  0  0  0  0  0  0  0  0  0  0
   -1.8292   -2.8395    1.7814 O   0  0  0  0  0  0  0  0  0  0  0  0
   -2.3832   -1.2445    0.2964 N   0  0  0  0  0  0  0  0  0  0  0  0
   -3.1102   -0.8685   -0.2946 H   0  0  0  0  0  0  0  0  0  0  0  0
   -1.1292   -0.4875    0.3524 C   0  0  1  0  0  0  0  0  0  0  0  0
   -0.5898   -0.7762    1.2552 H   0  0  0  0  0  0  0  0  0  0  0  0
   -0.2608   -0.8470   -0.8656 C   0  0  0  0  0  0  0  0  0  0  0  0
   -0.4882   -0.1568   -1.6790 H   0  0  0  0  0  0  0  0  0  0  0  0
    0.7895   -0.7089   -0.6038 H   0  0  0  0  0  0  0  0  0  0  0  0
   -0.4697   -2.2601   -1.3748 C   0  0  0  0  0  0  0  0  0  0  0  0
    0.0662   -3.3567   -0.6702 C   0  0  0  0  0  0  0  0  0  0  0  0
    0.6520   -3.1912    0.2244 H   0  0  0  0  0  0  0  0  0  0  0  0
   -0.1648   -4.6696   -1.1250 C   0  0  0  0  0  0  0  0  0  0  0  0
    0.2484   -5.5068   -0.5839 H   0  0  0  0  0  0  0  0  0  0  0  0
   -0.9378   -4.8862   -2.2866 C   0  0  0  0  0  0  0  0  0  0  0  0
   -1.1688   -6.1486   -2.7317 O   0  0  0  0  0  0  0  0  0  0  0  0
   -0.6816   -6.8032   -2.2297 H   0  0  0  0  0  0  0  0  0  0  0  0
   -1.4774   -3.7879   -2.9877 C   0  0  0  0  0  0  0  0  0  0  0  0
   -2.0630   -3.9661   -3.8769 H   0  0  0  0  0  0  0  0  0  0  0  0
   -1.2408   -2.4766   -2.5331 C   0  0  0  0  0  0  0  0  0  0  0  0
   -1.6480   -1.6328   -3.0775 H   0  0  0  0  0  0  0  0  0  0  0  0
   -1.4018    1.0238    0.4329 C   0  0  0  0  0  0  0  0  0  0  0  0
   -2.2416    1.5423   -0.3033 O   0  0  0  0  0  0  0  0  0  0  0  0
   -0.6927    1.7304    1.3223 N   0  0  0  0  0  0  0  0  0  0  0  0
    0.0178    1.2410    1.8469 H   0  0  0  0  0  0  0  0  0  0  0  0
   -0.8259    3.1712    1.5254 C   0  0  0  0  0  0  0  0  0  0  0  0
   -1.8769    3.4302    1.6645 H   0  0  0  0  0  0  0  0  0  0  0  0
   -0.2598    3.4806    2.4054 H   0  0  0  0  0  0  0  0  0  0  0  0
   -0.4486    3.7020    0.6489 H   0  0  0  0  0  0  0  0  0  0  0  0
  5  6  2  0  0  0  0
  5  7  1  0  0  0  0
  2  3  1  0  0  0  0
  2  4  1  0  0  0  0
  2  5  1  0  0  0  0
  1  2  1  0  0  0  0
 26 27  2  0  0  0  0
 26 28  1  0  0  0  0
 24 25  1  0  0  0  0
 22 23  1  0  0  0  0
 22 24  2  0  0  0  0
 20 21  1  0  0  0  0
 19 20  1  0  0  0  0
 19 22  1  0  0  0  0
 17 18  1  0  0  0  0
 17 19  2  0  0  0  0
 15 16  1  0  0  0  0
 15 17  1  0  0  0  0
 14 15  2  0  0  0  0
 14 24  1  0  0  0  0
 11 12  1  0  0  0  0
 11 13  1  0  0  0  0
 11 14  1  0  0  0  0
  9 10  1  0  0  0  0
  9 11  1  0  0  0  0
  9 26  1  0  0  0  0
  7  8  1  0  0  0  0
  7  9  1  0  0  0  0
 30 31  1  0  0  0  0
 30 32  1  0  0  0  0
 30 33  1  0  0  0  0
 28 29  1  0  0  0  0
 28 30  1  0  0  0  0
M  END
$$$$
default_name
  -OEChem-02102213163D

 33 33  0     1  0  0  0  0  0999 V2000
   -4.0702   -3.8485    1.4554 H   0  0  0  0  0  0  0  0  0  0  0  0
   -4.0012   -2.9605    0.8284 C   0  0  0  0  0  0  0  0  0  0  0  0
   -4.7652   -2.2435    1.1234 H   0  0  0  0  0  0  0  0  0  0  0  0
   -4.1352   -3.2385   -0.2156 H   0  0  0  0  0  0  0  0  0  0  0  0
   -2.6362   -2.3395    1.0094 C   0  0  0  0  0  0  0  0  0  0  0  0
   -1.8292   -2.8395    1.7814 O   0  0  0  0  0  0  0  0  0  0  0  0
   -2.3832   -1.2445    0.2964 N   0  0  0  0  0  0  0  0  0  0  0  0
   -3.1102   -0.8685   -0.2946 H   0  0  0  0  0  0  0  0  0  0  0  0
   -1.1292   -0.4875    0.3524 C   0  0  1  0  0  0  0  0  0  0  0  0
   -0.5898   -0.7762    1.2552 H   0  0  0  0  0  0  0  0  0  0  0  0
   -0.2608   -0.8470   -0.8656 C   0  0  0  0  0  0  0  0  0  0  0  0
   -0.4882   -0.1568   -1.6790 H   0  0  0  0  0  0  0  0  0  0  0  0
    0.7895   -0.7089   -0.6038 H   0  0  0  0  0  0  0  0  0  0  0  0
   -0.4697   -2.2601   -1.3748 C   0  0  0  0  0  0  0  0  0  0  0  0
   -0.2206   -3.3634   -0.5340 C   0  0  0  0  0  0  0  0  0  0  0  0
    0.1464   -3.2055    0.4717 H   0  0  0  0  0  0  0  0  0  0  0  0
   -0.4548   -4.6723   -0.9984 C   0  0  0  0  0  0  0  0  0  0  0  0
   -0.2615   -5.5149   -0.3524 H   0  0  0  0  0  0  0  0  0  0  0  0
   -0.9434   -4.8780   -2.3071 C   0  0  0  0  0  0  0  0  0  0  0  0
   -1.1753   -6.1362   -2.7632 O   0  0  0  0  0  0  0  0  0  0  0  0
   -0.8845   -6.8049   -2.1418 H   0  0  0  0  0  0  0  0  0  0  0  0
   -1.1967   -3.7725   -3.1453 C   0  0  0  0  0  0  0  0  0  0  0  0
   -1.5660   -3.9428   -4.1454 H   0  0  0  0  0  0  0  0  0  0  0  0
   -0.9573   -2.4656   -2.6799 C   0  0  0  0  0  0  0  0  0  0  0  0
   -1.1434   -1.6172   -3.3277 H   0  0  0  0  0  0  0  0  0  0  0  0
   -1.4018    1.0238    0.4329 C   0  0  0  0  0  0  0  0  0  0  0  0
   -2.2416    1.5423   -0.3033 O   0  0  0  0  0  0  0  0  0  0  0  0
   -0.6927    1.7304    1.3223 N   0  0  0  0  0  0  0  0  0  0  0  0
    0.0178    1.2410    1.8469 H   0  0  0  0  0  0  0  0  0  0  0  0
   -0.8259    3.1712    1.5254 C   0  0  0  0  0  0  0  0  0  0  0  0
   -1.8769    3.4302    1.6645 H   0  0  0  0  0  0  0  0  0  0  0  0
   -0.2598    3.4806    2.4054 H   0  0  0  0  0  0  0  0  0  0  0  0
   -0.4486    3.7020    0.6489 H   0  0  0  0  0  0  0  0  0  0  0  0
  5  6  2  0  0  0  0
  5  7  1  0  0  0  0
  2  3  1  0  0  0  0
  2  4  1  0  0  0  0
  2  5  1  0  0  0  0
  1  2  1  0  0  0  0
 26 27  2  0  0  0  0
 26 28  1  0  0  0  0
 24 25  1  0  0  0  0
 22 23  1  0  0  0  0
 22 24  2  0  0  0  0
 20 21  1  0  0  0  0
 19 20  1  0  0  0  0
 19 22  1  0  0  0  0
 17 18  1  0  0  0  0
 17 19  2  0  0  0  0
 15 16  1  0  0  0  0
 15 17  1  0  0  0  0
 14 15  2  0  0  0  0
 14 24  1  0  0  0  0
 11 12  1  0  0  0  0
 11 13  1  0  0  0  0
 11 14  1  0  0  0  0
  9 10  1  0  0  0  0
  9 11  1  0  0  0  0
  9 26  1  0  0  0  0
  7  8  1  0  0  0  0
  7  9  1  0  0  0  0
 30 31  1  0  0  0  0
 30 32  1  0  0  0  0
 30 33  1  0  0  0  0
 28 29  1  0  0  0  0
 28 30  1  0  0  0  0
M  END
$$$$
default_name
  -OEChem-02102213163D

 33 33  0     1  0  0  0  0  0999 V2000
   -4.0702   -3.8485    1.4554 H   0  0  0  0  0  0  0  0  0  0  0  0
   -4.0012   -2.9605    0.8284 C   0  0  0  0  0  0  0  0  0  0  0  0
   -4.7652   -2.2435    1.1234 H   0  0  0  0  0  0  0  0  0  0  0  0
   -4.1352   -3.2385   -0.2156 H   0  0  0  0  0  0  0  0  0  0  0  0
   -2.6362   -2.3395    1.0094 C   0  0  0  0  0  0  0  0  0  0  0  0
   -1.8292   -2.8395    1.7814 O   0  0  0  0  0  0  0  0  0  0  0  0
   -2.3832   -1.2445    0.2964 N   0  0  0  0  0  0  0  0  0  0  0  0
   -3.1102   -0.8685   -0.2946 H   0  0  0  0  0  0  0  0  0  0  0  0
   -1.1292   -0.4875    0.3524 C   0  0  1  0  0  0  0  0  0  0  0  0
   -0.5898   -0.7762    1.2552 H   0  0  0  0  0  0  0  0  0  0  0  0
   -0.2608   -0.8470   -0.8656 C   0  0  0  0  0  0  0  0  0  0  0  0
   -0.4882   -0.1568   -1.6790 H   0  0  0  0  0  0  0  0  0  0  0  0
    0.7895   -0.7089   -0.6038 H   0  0  0  0  0  0  0  0  0  0  0  0
   -0.4697   -2.2601   -1.3748 C   0  0  0  0  0  0  0  0  0  0  0  0
   -0.5311   -3.3400   -0.4714 C   0  0  0  0  0  0  0  0  0  0  0  0
   -0.4029   -3.1666    0.5890 H   0  0  0  0  0  0  0  0  0  0  0  0
   -0.7657   -4.6453   -0.9459 C   0  0  0  0  0  0  0  0  0  0  0  0
   -0.8106   -5.4701   -0.2514 H   0  0  0  0  0  0  0  0  0  0  0  0
   -0.9432   -4.8703   -2.3284 C   0  0  0  0  0  0  0  0  0  0  0  0
   -1.1729   -6.1249   -2.7957 O   0  0  0  0  0  0  0  0  0  0  0  0
   -1.1018   -6.7858   -2.1057 H   0  0  0  0  0  0  0  0  0  0  0  0
   -0.8863   -3.7877   -3.2305 C   0  0  0  0  0  0  0  0  0  0  0  0
   -1.0192   -3.9731   -4.2858 H   0  0  0  0  0  0  0  0  0  0  0  0
   -0.6471   -2.4849   -2.7537 C   0  0  0  0  0  0  0  0  0  0  0  0
   -0.5943   -1.6550   -3.4483 H   0  0  0  0  0  0  0  0  0  0  0  0
   -1.4018    1.0238    0.4329 C   0  0  0  0  0  0  0  0  0  0  0  0
   -2.2416    1.5423   -0.3033 O   0  0  0  0  0  0  0  0  0  0  0  0
   -0.6927    1.7304    1.3223 N   0  0  0  0  0  0  0  0  0  0  0  0
    0.0178    1.2410    1.8469 H   0  0  0  0  0  0  0  0  0  0  0  0
   -0.8259    3.1712    1.5254 C   0  0  0  0  0  0  0  0  0  0  0  0
   -1.8769    3.4302    1.6645 H   0  0  0  0  0  0  0  0  0  0  0  0
   -0.2598    3.4806    2.4054 H   0  0  0  0  0  0  0  0  0  0  0  0
   -0.4486    3.7020    0.6489 H   0  0  0  0  0  0  0  0  0  0  0  0
  5  6  2  0  0  0  0
  5  7  1  0  0  0  0
  2  3  1  0  0  0  0
  2  4  1  0  0  0  0
  2  5  1  0  0  0  0
  1  2  1  0  0  0  0
 26 27  2  0  0  0  0
 26 28  1  0  0  0  0
 24 25  1  0  0  0  0
 22 23  1  0  0  0  0
 22 24  2  0  0  0  0
 20 21  1  0  0  0  0
 19 20  1  0  0  0  0
 19 22  1  0  0  0  0
 17 18  1  0  0  0  0
 17 19  2  0  0  0  0
 15 16  1  0  0  0  0
 15 17  1  0  0  0  0
 14 15  2  0  0  0  0
 14 24  1  0  0  0  0
 11 12  1  0  0  0  0
 11 13  1  0  0  0  0
 11 14  1  0  0  0  0
  9 10  1  0  0  0  0
  9 11  1  0  0  0  0
  9 26  1  0  0  0  0
  7  8  1  0  0  0  0
  7  9  1  0  0  0  0
 30 31  1  0  0  0  0
 30 32  1  0  0  0  0
 30 33  1  0  0  0  0
 28 29  1  0  0  0  0
 28 30  1  0  0  0  0
M  END
$$$$
default_name
  -OEChem-02102213163D

 33 33  0     1  0  0  0  0  0999 V2000
   -4.0702   -3.8485    1.4554 H   0  0  0  0  0  0  0  0  0  0  0  0
   -4.0012   -2.9605    0.8284 C   0  0  0  0  0  0  0  0  0  0  0  0
   -4.7652   -2.2435    1.1234 H   0  0  0  0  0  0  0  0  0  0  0  0
   -4.1352   -3.2385   -0.2156 H   0  0  0  0  0  0  0  0  0  0  0  0
   -2.6362   -2.3395    1.0094 C   0  0  0  0  0  0  0  0  0  0  0  0
   -1.8292   -2.8395    1.7814 O   0  0  0  0  0  0  0  0  0  0  0  0
   -2.3832   -1.2445    0.2964 N   0  0  0  0  0  0  0  0  0  0  0  0
   -3.1102   -0.8685   -0.2946 H   0  0  0  0  0  0  0  0  0  0  0  0
   -1.1292   -0.4875    0.3524 C   0  0  1  0  0  0  0  0  0  0  0  0
   -0.5898   -0.7762    1.2552 H   0  0  0  0  0  0  0  0  0  0  0  0
   -0.2608   -0.8470   -0.8656 C   0  0  0  0  0  0  0  0  0  0  0  0
   -0.4882   -0.1568   -1.6790 H   0  0  0  0  0  0  0  0  0  0  0  0
    0.7895   -0.7089   -0.6038 H   0  0  0  0  0  0  0  0  0  0  0  0
   -0.4697   -2.2601   -1.3748 C   0  0  0  0  0  0  0  0  0  0  0  0
   -0.8441   -3.2883   -0.4867 C   0  0  0  0  0  0  0  0  0  0  0  0
   -0.9585   -3.0771    0.5685 H   0  0  0  0  0  0  0  0  0  0  0  0
   -1.0764   -4.5903   -0.9711 C   0  0  0  0  0  0  0  0  0  0  0  0
   -1.3614   -5.3755   -0.2879 H   0  0  0  0  0  0  0  0  0  0  0  0
   -0.9372   -4.8636   -2.3493 C   0  0  0  0  0  0  0  0  0  0  0  0
   -1.1618   -6.1153   -2.8269 O   0  0  0  0  0  0  0  0  0  0  0  0
   -1.3187   -6.7472   -2.1240 H   0  0  0  0  0  0  0  0  0  0  0  0
   -0.5672   -3.8324   -3.2374 C   0  0  0  0  0  0  0  0  0  0  0  0
   -0.4598   -4.0549   -4.2883 H   0  0  0  0  0  0  0  0  0  0  0  0
   -0.3313   -2.5331   -2.7494 C   0  0  0  0  0  0  0  0  0  0  0  0
   -0.0381   -1.7434   -3.4310 H   0  0  0  0  0  0  0  0  0  0  0  0
   -1.4018    1.0238    0.4329 C   0  0  0  0  0  0  0  0  0  0  0  0
   -2.2416    1.5423   -0.3033 O   0  0  0  0  0  0  0  0  0  0  0  0
   -0.6927    1.7304    1.3223 N   0  0  0  0  0  0  0  0  0  0  0  0
    0.0178    1.2410    1.8469 H   0  0  0  0  0  0  0  0  0  0  0  0
   -0.8259    3.1712    1.5254 C   0  0  0  0  0  0  0  0  0  0  0  0
   -1.8769    3.4302    1.6645 H   0  0  0  0  0  0  0  0  0  0  0  0
   -0.2598    3.4806    2.4054 H   0  0  0  0  0  0  0  0  0  0  0  0
   -0.4486    3.7020    0.6489 H   0  0  0  0  0  0  0  0  0  0  0  0
  5  6  2  0  0  0  0
  5  7  1  0  0  0  0
  2  3  1  0  0  0  0
  2  4  1  0  0  0  0
  2  5  1  0  0  0  0
  1  2  1  0  0  0  0
 26 27  2  0  0  0  0
 26 28  1  0  0  0  0
 24 25  1  0  0  0  0
 22 23  1  0  0  0  0
 22 24  2  0  0  0  0
 20 21  1  0  0  0  0
 19 20  1  0  0  0  0
 19 22  1  0  0  0  0
 17 18  1  0  0  0  0
 17 19  2  0  0  0  0
 15 16  1  0  0  0  0
 15 17  1  0  0  0  0
 14 15  2  0  0  0  0
 14 24  1  0  0  0  0
 11 12  1  0  0  0  0
 11 13  1  0  0  0  0
 11 14  1  0  0  0  0
  9 10  1  0  0  0  0
  9 11  1  0  0  0  0
  9 26  1  0  0  0  0
  7  8  1  0  0  0  0
  7  9  1  0  0  0  0
 30 31  1  0  0  0  0
 30 32  1  0  0  0  0
 30 33  1  0  0  0  0
 28 29  1  0  0  0  0
 28 30  1  0  0  0  0
M  END
$$$$
default_name
  -OEChem-02102213163D

 33 33  0     1  0  0  0  0  0999 V2000
   -4.0702   -3.8485    1.4554 H   0  0  0  0  0  0  0  0  0  0  0  0
   -4.0012   -2.9605    0.8284 C   0  0  0  0  0  0  0  0  0  0  0  0
   -4.7652   -2.2435    1.1234 H   0  0  0  0  0  0  0  0  0  0  0  0
   -4.1352   -3.2385   -0.2156 H   0  0  0  0  0  0  0  0  0  0  0  0
   -2.6362   -2.3395    1.0094 C   0  0  0  0  0  0  0  0  0  0  0  0
   -1.8292   -2.8395    1.7814 O   0  0  0  0  0  0  0  0  0  0  0  0
   -2.3832   -1.2445    0.2964 N   0  0  0  0  0  0  0  0  0  0  0  0
   -3.1102   -0.8685   -0.2946 H   0  0  0  0  0  0  0  0  0  0  0  0
   -1.1292   -0.4875    0.3524 C   0  0  1  0  0  0  0  0  0  0  0  0
   -0.5898   -0.7762    1.2552 H   0  0  0  0  0  0  0  0  0  0  0  0
   -0.2608   -0.8470   -0.8656 C   0  0  0  0  0  0  0  0  0  0  0  0
   -0.4882   -0.1568   -1.6790 H   0  0  0  0  0  0  0  0  0  0  0  0
    0.7895   -0.7089   -0.6038 H   0  0  0  0  0  0  0  0  0  0  0  0
   -0.4697   -2.2601   -1.3748 C   0  0  0  0  0  0  0  0  0  0  0  0
   -1.1383   -3.2116   -0.5787 C   0  0  0  0  0  0  0  0  0  0  0  0
   -1.4823   -2.9431    0.4115 H   0  0  0  0  0  0  0  0  0  0  0  0
   -1.3656   -4.5111   -1.0724 C   0  0  0  0  0  0  0  0  0  0  0  0
   -1.8764   -5.2376   -0.4594 H   0  0  0  0  0  0  0  0  0  0  0  0
   -0.9258   -4.8585   -2.3683 C   0  0  0  0  0  0  0  0  0  0  0  0
   -1.1427   -6.1081   -2.8546 O   0  0  0  0  0  0  0  0  0  0  0  0
   -1.5205   -6.6916   -2.1953 H   0  0  0  0  0  0  0  0  0  0  0  0
   -0.2613   -3.9035   -3.1655 C   0  0  0  0  0  0  0  0  0  0  0  0
    0.0741   -4.1825   -4.1530 H   0  0  0  0  0  0  0  0  0  0  0  0
   -0.0315   -2.6069   -2.6675 C   0  0  0  0  0  0  0  0  0  0  0  0
    0.4873   -1.8766   -3.2769 H   0  0  0  0  0  0  0  0  0  0  0  0
   -1.4018    1.0238    0.4329 C   0  0  0  0  0  0  0  0  0  0  0  0
   -2.2416    1.5423   -0.3033 O   0  0  0  0  0  0  0  0  0  0  0  0
   -0.6927    1.7304    1.3223 N   0  0  0  0  0  0  0  0  0  0  0  0
    0.0178    1.2410    1.8469 H   0  0  0  0  0  0  0  0  0  0  0  0
   -0.8259    3.1712    1.5254 C   0  0  0  0  0  0  0  0  0  0  0  0
   -1.8769    3.4302    1.6645 H   0  0  0  0  0  0  0  0  0  0  0  0
   -0.2598    3.4806    2.4054 H   0  0  0  0  0  0  0  0  0  0  0  0
   -0.4486    3.7020    0.6489 H   0  0  0  0  0  0  0  0  0  0  0  0
  5  6  2  0  0  0  0
  5  7  1  0  0  0  0
  2  3  1  0  0  0  0
  2  4  1  0  0  0  0
  2  5  1  0  0  0  0
  1  2  1  0  0  0  0
 26 27  2  0  0  0  0
 26 28  1  0  0  0  0
 24 25  1  0  0  0  0
 22 23  1  0  0  0  0
 22 24  2  0  0  0  0
 20 21  1  0  0  0  0
 19 20  1  0  0  0  0
 19 22  1  0  0  0  0
 17 18  1  0  0  0  0
 17 19  2  0  0  0  0
 15 16  1  0  0  0  0
 15 17  1  0  0  0  0
 14 15  2  0  0  0  0
 14 24  1  0  0  0  0
 11 12  1  0  0  0  0
 11 13  1  0  0  0  0
 11 14  1  0  0  0  0
  9 10  1  0  0  0  0
  9 11  1  0  0  0  0
  9 26  1  0  0  0  0
  7  8  1  0  0  0  0
  7  9  1  0  0  0  0
 30 31  1  0  0  0  0
 30 32  1  0  0  0  0
 30 33  1  0  0  0  0
 28 29  1  0  0  0  0
 28 30  1  0  0  0  0
M  END
$$$$
default_name
  -OEChem-02102213163D

 33 33  0     1  0  0  0  0  0999 V2000
   -4.0702   -3.8485    1.4554 H   0  0  0  0  0  0  0  0  0  0  0  0
   -4.0012   -2.9605    0.8284 C   0  0  0  0  0  0  0  0  0  0  0  0
   -4.7652   -2.2435    1.1234 H   0  0  0  0  0  0  0  0  0  0  0  0
   -4.1352   -3.2385   -0.2156 H   0  0  0  0  0  0  0  0  0  0  0  0
   -2.6362   -2.3395    1.0094 C   0  0  0  0  0  0  0  0  0  0  0  0
   -1.8292   -2.8395    1.7814 O   0  0  0  0  0  0  0  0  0  0  0  0
   -2.3832   -1.2445    0.2964 N   0  0  0  0  0  0  0  0  0  0  0  0
   -3.1102   -0.8685   -0.2946 H   0  0  0  0  0  0  0  0  0  0  0  0
   -1.1292   -0.4875    0.3524 C   0  0  1  0  0  0  0  0  0  0  0  0
   -0.5898   -0.7762    1.2552 H   0  0  0  0  0  0  0  0  0  0  0  0
   -0.2608   -0.8470   -0.8656 C   0  0  0  0  0  0  0  0  0  0  0  0
   -0.4882   -0.1568   -1.6790 H   0  0  0  0  0  0  0  0  0  0  0  0
    0.7895   -0.7089   -0.6038 H   0  0  0  0  0  0  0  0  0  0  0  0
   -0.4697   -2.2601   -1.3748 C   0  0  0  0  0  0  0  0  0  0  0  0
   -1.3935   -3.1153   -0.7413 C   0  0  0  0  0  0  0  0  0  0  0  0
   -1.9388   -2.7737    0.1288 H   0  0  0  0  0  0  0  0  0  0  0  0
   -1.6136   -4.4130   -1.2427 C   0  0  0  0  0  0  0  0  0  0  0  0
   -2.3206   -5.0657   -0.7542 H   0  0  0  0  0  0  0  0  0  0  0  0
   -0.9097   -4.8552   -2.3841 C   0  0  0  0  0  0  0  0  0  0  0  0
   -1.1170   -6.1038   -2.8771 O   0  0  0  0  0  0  0  0  0  0  0  0
   -1.6933   -6.6230   -2.3148 H   0  0  0  0  0  0  0  0  0  0  0  0
    0.0107   -3.9963   -3.0197 C   0  0  0  0  0  0  0  0  0  0  0  0
    0.5460   -4.3475   -3.8890 H   0  0  0  0  0  0  0  0  0  0  0  0
    0.2318   -2.7014   -2.5134 C   0  0  0  0  0  0  0  0  0  0  0  0
    0.9460   -2.0454   -2.9967 H   0  0  0  0  0  0  0  0  0  0  0  0
   -1.4018    1.0238    0.4329 C   0  0  0  0  0  0  0  0  0  0  0  0
   -2.2416    1.5423   -0.3033 O   0  0  0  0  0  0  0  0  0  0  0  0
   -0.6927    1.7304    1.3223 N   0  0  0  0  0  0  0  0  0  0  0  0
    0.0178    1.2410    1.8469 H   0  0  0  0  0  0  0  0  0  0  0  0
   -0.8259    3.1712    1.5254 C   0  0  0  0  0  0  0  0  0  0  0  0
   -1.8769    3.4302    1.6645 H   0  0  0  0  0  0  0  0  0  0  0  0
   -0.2598    3.4806    2.4054 H   0  0  0  0  0  0  0  0  0  0  0  0
   -0.4486    3.7020    0.6489 H   0  0  0  0  0  0  0  0  0  0  0  0
  5  6  2  0  0  0  0
  5  7  1  0  0  0  0
  2  3  1  0  0  0  0
  2  4  1  0  0  0  0
  2  5  1  0  0  0  0
  1  2  1  0  0  0  0
 26 27  2  0  0  0  0
 26 28  1  0  0  0  0
 24 25  1  0  0  0  0
 22 23  1  0  0  0  0
 22 24  2  0  0  0  0
 20 21  1  0  0  0  0
 19 20  1  0  0  0  0
 19 22  1  0  0  0  0
 17 18  1  0  0  0  0
 17 19  2  0  0  0  0
 15 16  1  0  0  0  0
 15 17  1  0  0  0  0
 14 15  2  0  0  0  0
 14 24  1  0  0  0  0
 11 12  1  0  0  0  0
 11 13  1  0  0  0  0
 11 14  1  0  0  0  0
  9 10  1  0  0  0  0
  9 11  1  0  0  0  0
  9 26  1  0  0  0  0
  7  8  1  0  0  0  0
  7  9  1  0  0  0  0
 30 31  1  0  0  0  0
 30 32  1  0  0  0  0
 30 33  1  0  0  0  0
 28 29  1  0  0  0  0
 28 30  1  0  0  0  0
M  END
$$$$
default_name
  -OEChem-02102213163D

 33 33  0     1  0  0  0  0  0999 V2000
   -4.0702   -3.8485    1.4554 H   0  0  0  0  0  0  0  0  0  0  0  0
   -4.0012   -2.9605    0.8284 C   0  0  0  0  0  0  0  0  0  0  0  0
   -4.7652   -2.2435    1.1234 H   0  0  0  0  0  0  0  0  0  0  0  0
   -4.1352   -3.2385   -0.2156 H   0  0  0  0  0  0  0  0  0  0  0  0
   -2.6362   -2.3395    1.0094 C   0  0  0  0  0  0  0  0  0  0  0  0
   -1.8292   -2.8395    1.7814 O   0  0  0  0  0  0  0  0  0  0  0  0
   -2.3832   -1.2445    0.2964 N   0  0  0  0  0  0  0  0  0  0  0  0
   -3.1102   -0.8685   -0.2946 H   0  0  0  0  0  0  0  0  0  0  0  0
   -1.1292   -0.4875    0.3524 C   0  0  1  0  0  0  0  0  0  0  0  0
   -0.5898   -0.7762    1.2552 H   0  0  0  0  0  0  0  0  0  0  0  0
   -0.2608   -0.8470   -0.8656 C   0  0  0  0  0  0  0  0  0  0  0  0
   -0.4882   -0.1568   -1.6790 H   0  0  0  0  0  0  0  0  0  0  0  0
    0.7895   -0.7089   -0.6038 H   0  0  0  0  0  0  0  0  0  0  0  0
   -0.4697   -2.2601   -1.3748 C   0  0  0  0  0  0  0  0  0  0  0  0
   -1.5925   -3.0059   -0.9633 C   0  0  0  0  0  0  0  0  0  0  0  0
   -2.2969   -2.5805   -0.2605 H   0  0  0  0  0  0  0  0  0  0  0  0
   -1.8035   -4.3028   -1.4706 C   0  0  0  0  0  0  0  0  0  0  0  0
   -2.6635   -4.8716   -1.1521 H   0  0  0  0  0  0  0  0  0  0  0  0
   -0.8901   -4.8540   -2.3955 C   0  0  0  0  0  0  0  0  0  0  0  0
   -1.0863   -6.1027   -2.8928 O   0  0  0  0  0  0  0  0  0  0  0  0
   -1.8255   -6.5459   -2.4744 H   0  0  0  0  0  0  0  0  0  0  0  0
    0.2303   -4.1043   -2.8099 C   0  0  0  0  0  0  0  0  0  0  0  0
    0.9239   -4.5384   -3.5143 H   0  0  0  0  0  0  0  0  0  0  0  0
    0.4409   -2.8101   -2.2976 C   0  0  0  0  0  0  0  0  0  0  0  0
    1.3069   -2.2383   -2.6094 H   0  0  0  0  0  0  0  0  0  0  0  0
   -1.4018    1.0238    0.4329 C   0  0  0  0  0  0  0  0  0  0  0  0
   -2.2416    1.5423   -0.3033 O   0  0  0  0  0  0  0  0  0  0  0  0
   -0.6927    1.7304    1.3223 N   0  0  0  0  0  0  0  0  0  0  0  0
    0.0178    1.2410    1.8469 H   0  0  0  0  0  0  0  0  0  0  0  0
   -0.8259    3.1712    1.5254 C   0  0  0  0  0  0  0  0  0  0  0  0
   -1.8769    3.4302    1.6645 H   0  0  0  0  0  0  0  0  0  0  0  0
   -0.2598    3.4806    2.4054 H   0  0  0  0  0  0  0  0  0  0  0  0
   -0.4486    3.7020    0.6489 H   0  0  0  0  0  0  0  0  0  0  0  0
  5  6  2  0  0  0  0
  5  7  1  0  0  0  0
  2  3  1  0  0  0  0
  2  4  1  0  0  0  0
  2  5  1  0  0  0  0
  1  2  1  0  0  0  0
 26 27  2  0  0  0  0
 26 28  1  0  0  0  0
 24 25  1  0  0  0  0
 22 23  1  0  0  0  0
 22 24  2  0  0  0  0
 20 21  1  0  0  0  0
 19 20  1  0  0  0  0
 19 22  1  0  0  0  0
 17 18  1  0  0  0  0
 17 19  2  0  0  0  0
 15 16  1  0  0  0  0
 15 17  1  0  0  0  0
 14 15  2  0  0  0  0
 14 24  1  0  0  0  0
 11 12  1  0  0  0  0
 11 13  1  0  0  0  0
 11 14  1  0  0  0  0
  9 10  1  0  0  0  0
  9 11  1  0  0  0  0
  9 26  1  0  0  0  0
  7  8  1  0  0  0  0
  7  9  1  0  0  0  0
 30 31  1  0  0  0  0
 30 32  1  0  0  0  0
 30 33  1  0  0  0  0
 28 29  1  0  0  0  0
 28 30  1  0  0  0  0
M  END
$$$$
default_name
  -OEChem-02102213163D

 33 33  0     1  0  0  0  0  0999 V2000
   -4.0702   -3.8485    1.4554 H   0  0  0  0  0  0  0  0  0  0  0  0
   -4.0012   -2.9605    0.8284 C   0  0  0  0  0  0  0  0  0  0  0  0
   -4.7652   -2.2435    1.1234 H   0  0  0  0  0  0  0  0  0  0  0  0
   -4.1352   -3.2385   -0.2156 H   0  0  0  0  0  0  0  0  0  0  0  0
   -2.6362   -2.3395    1.0094 C   0  0  0  0  0  0  0  0  0  0  0  0
   -1.8292   -2.8395    1.7814 O   0  0  0  0  0  0  0  0  0  0  0  0
   -2.3832   -1.2445    0.2964 N   0  0  0  0  0  0  0  0  0  0  0  0
   -3.1102   -0.8685   -0.2946 H   0  0  0  0  0  0  0  0  0  0  0  0
   -1.1292   -0.4875    0.3524 C   0  0  1  0  0  0  0  0  0  0  0  0
   -0.5898   -0.7762    1.2552 H   0  0  0  0  0  0  0  0  0  0  0  0
   -0.2608   -0.8470   -0.8656 C   0  0  0  0  0  0  0  0  0  0  0  0
   -0.4882   -0.1568   -1.6790 H   0  0  0  0  0  0  0  0  0  0  0  0
    0.7895   -0.7089   -0.6038 H   0  0  0  0  0  0  0  0  0  0  0  0
   -0.4697   -2.2601   -1.3748 C   0  0  0  0  0  0  0  0  0  0  0  0
   -1.7217   -2.8908   -1.2297 C   0  0  0  0  0  0  0  0  0  0  0  0
   -2.5320   -2.3767   -0.7297 H   0  0  0  0  0  0  0  0  0  0  0  0
   -1.9225   -4.1880   -1.7404 C   0  0  0  0  0  0  0  0  0  0  0  0
   -2.8820   -4.6685   -1.6261 H   0  0  0  0  0  0  0  0  0  0  0  0
   -0.8683   -4.8549   -2.4019 C   0  0  0  0  0  0  0  0  0  0  0  0
   -1.0528   -6.1048   -2.9006 O   0  0  0  0  0  0  0  0  0  0  0  0
   -1.9080   -6.4657   -2.6632 H   0  0  0  0  0  0  0  0  0  0  0  0
    0.3823   -4.2203   -2.5506 C   0  0  0  0  0  0  0  0  0  0  0  0
    1.1819   -4.7422   -3.0544 H   0  0  0  0  0  0  0  0  0  0  0  0
    0.5813   -2.9255   -2.0349 C   0  0  0  0  0  0  0  0  0  0  0  0
    1.5453   -2.4422   -2.1414 H   0  0  0  0  0  0  0  0  0  0  0  0
   -1.4018    1.0238    0.4329 C   0  0  0  0  0  0  0  0  0  0  0  0
   -2.2416    1.5423   -0.3033 O   0  0  0  0  0  0  0  0  0  0  0  0
   -0.6927    1.7304    1.3223 N   0  0  0  0  0  0  0  0  0  0  0  0
    0.0178    1.2410    1.8469 H   0  0  0  0  0  0  0  0  0  0  0  0
   -0.8259    3.1712    1.5254 C   0  0  0  0  0  0  0  0  0  0  0  0
   -1.8769    3.4302    1.6645 H   0  0  0  0  0  0  0  0  0  0  0  0
   -0.2598    3.4806    2.4054 H   0  0  0  0  0  0  0  0  0  0  0  0
   -0.4486    3.7020    0.6489 H   0  0  0  0  0  0  0  0  0  0  0  0
  5  6  2  0  0  0  0
  5  7  1  0  0  0  0
  2  3  1  0  0  0  0
  2  4  1  0  0  0  0
  2  5  1  0  0  0  0
  1  2  1  0  0  0  0
 26 27  2  0  0  0  0
 26 28  1  0  0  0  0
 24 25  1  0  0  0  0
 22 23  1  0  0  0  0
 22 24  2  0  0  0  0
 20 21  1  0  0  0  0
 19 20  1  0  0  0  0
 19 22  1  0  0  0  0
 17 18  1  0  0  0  0
 17 19  2  0  0  0  0
 15 16  1  0  0  0  0
 15 17  1  0  0  0  0
 14 15  2  0  0  0  0
 14 24  1  0  0  0  0
 11 12  1  0  0  0  0
 11 13  1  0  0  0  0
 11 14  1  0  0  0  0
  9 10  1  0  0  0  0
  9 11  1  0  0  0  0
  9 26  1  0  0  0  0
  7  8  1  0  0  0  0
  7  9  1  0  0  0  0
 30 31  1  0  0  0  0
 30 32  1  0  0  0  0
 30 33  1  0  0  0  0
 28 29  1  0  0  0  0
 28 30  1  0  0  0  0
M  END
$$$$
default_name
  -OEChem-02102213163D

 33 33  0     1  0  0  0  0  0999 V2000
   -4.0702   -3.8485    1.4554 H   0  0  0  0  0  0  0  0  0  0  0  0
   -4.0012   -2.9605    0.8284 C   0  0  0  0  0  0  0  0  0  0  0  0
   -4.7652   -2.2435    1.1234 H   0  0  0  0  0  0  0  0  0  0  0  0
   -4.1352   -3.2385   -0.2156 H   0  0  0  0  0  0  0  0  0  0  0  0
   -2.6362   -2.3395    1.0094 C   0  0  0  0  0  0  0  0  0  0  0  0
   -1.8292   -2.8395    1.7814 O   0  0  0  0  0  0  0  0  0  0  0  0
   -2.3832   -1.2445    0.2964 N   0  0  0  0  0  0  0  0  0  0  0  0
   -3.1102   -0.8685   -0.2946 H   0  0  0  0  0  0  0  0  0  0  0  0
   -1.1292   -0.4875    0.3524 C   0  0  1  0  0  0  0  0  0  0  0  0
   -0.5898   -0.7762    1.2552 H   0  0  0  0  0  0  0  0  0  0  0  0
   -0.2608   -0.8470   -0.8656 C   0  0  0  0  0  0  0  0  0  0  0  0
   -0.4882   -0.1568   -1.6790 H   0  0  0  0  0  0  0  0  0  0  0  0
    0.7895   -0.7089   -0.6038 H   0  0  0  0  0  0  0  0  0  0  0  0
   -0.4697   -2.2601   -1.3748 C   0  0  0  0  0  0  0  0  0  0  0  0
   -1.7722   -2.7779   -1.5222 C   0  0  0  0  0  0  0  0  0  0  0  0
   -2.6283   -2.1760   -1.2469 H   0  0  0  0  0  0  0  0  0  0  0  0
   -1.9623   -4.0763   -2.0339 C   0  0  0  0  0  0  0  0  0  0  0  0
   -2.9610   -4.4702   -2.1439 H   0  0  0  0  0  0  0  0  0  0  0  0
   -0.8458   -4.8579   -2.4028 C   0  0  0  0  0  0  0  0  0  0  0  0
   -1.0188   -6.1101   -2.8999 O   0  0  0  0  0  0  0  0  0  0  0  0
   -1.9352   -6.3878   -2.8683 H   0  0  0  0  0  0  0  0  0  0  0  0
    0.4566   -4.3363   -2.2592 C   0  0  0  0  0  0  0  0  0  0  0  0
    1.3025   -4.9452   -2.5407 H   0  0  0  0  0  0  0  0  0  0  0  0
    0.6436   -3.0398   -1.7432 C   0  0  0  0  0  0  0  0  0  0  0  0
    1.6449   -2.6432   -1.6245 H   0  0  0  0  0  0  0  0  0  0  0  0
   -1.4018    1.0238    0.4329 C   0  0  0  0  0  0  0  0  0  0  0  0
   -2.2416    1.5423   -0.3033 O   0  0  0  0  0  0  0  0  0  0  0  0
   -0.6927    1.7304    1.3223 N   0  0  0  0  0  0  0  0  0  0  0  0
    0.0178    1.2410    1.8469 H   0  0  0  0  0  0  0  0  0  0  0  0
   -0.8259    3.1712    1.5254 C   0  0  0  0  0  0  0  0  0  0  0  0
   -1.8769    3.4302    1.6645 H   0  0  0  0  0  0  0  0  0  0  0  0
   -0.2598    3.4806    2.4054 H   0  0  0  0  0  0  0  0  0  0  0  0
   -0.4486    3.7020    0.6489 H   0  0  0  0  0  0  0  0  0  0  0  0
  5  6  2  0  0  0  0
  5  7  1  0  0  0  0
  2  3  1  0  0  0  0
  2  4  1  0  0  0  0
  2  5  1  0  0  0  0
  1  2  1  0  0  0  0
 26 27  2  0  0  0  0
 26 28  1  0  0  0  0
 24 25  1  0  0  0  0
 22 23  1  0  0  0  0
 22 24  2  0  0  0  0
 20 21  1  0  0  0  0
 19 20  1  0  0  0  0
 19 22  1  0  0  0  0
 17 18  1  0  0  0  0
 17 19  2  0  0  0  0
 15 16  1  0  0  0  0
 15 17  1  0  0  0  0
 14 15  2  0  0  0  0
 14 24  1  0  0  0  0
 11 12  1  0  0  0  0
 11 13  1  0  0  0  0
 11 14  1  0  0  0  0
  9 10  1  0  0  0  0
  9 11  1  0  0  0  0
  9 26  1  0  0  0  0
  7  8  1  0  0  0  0
  7  9  1  0  0  0  0
 30 31  1  0  0  0  0
 30 32  1  0  0  0  0
 30 33  1  0  0  0  0
 28 29  1  0  0  0  0
 28 30  1  0  0  0  0
M  END
$$$$
default_name
  -OEChem-02102213163D

 33 33  0     1  0  0  0  0  0999 V2000
   -4.0702   -3.8485    1.4554 H   0  0  0  0  0  0  0  0  0  0  0  0
   -4.0012   -2.9605    0.8284 C   0  0  0  0  0  0  0  0  0  0  0  0
   -4.7652   -2.2435    1.1234 H   0  0  0  0  0  0  0  0  0  0  0  0
   -4.1352   -3.2385   -0.2156 H   0  0  0  0  0  0  0  0  0  0  0  0
   -2.6362   -2.3395    1.0094 C   0  0  0  0  0  0  0  0  0  0  0  0
   -1.8292   -2.8395    1.7814 O   0  0  0  0  0  0  0  0  0  0  0  0
   -2.3832   -1.2445    0.2964 N   0  0  0  0  0  0  0  0  0  0  0  0
   -3.1102   -0.8685   -0.2946 H   0  0  0  0  0  0  0  0  0  0  0  0
   -1.1292   -0.4875    0.3524 C   0  0  1  0  0  0  0  0  0  0  0  0
   -0.5898   -0.7762    1.2552 H   0  0  0  0  0  0  0  0  0  0  0  0
   -0.2608   -0.8470   -0.8656 C   0  0  0  0  0  0  0  0  0  0  0  0
   -0.4882   -0.1568   -1.6790 H   0  0  0  0  0  0  0  0  0  0  0  0
    0.7895   -0.7089   -0.6038 H   0  0  0  0  0  0  0  0  0  0  0  0
   -0.4697   -2.2601   -1.3748 C   0  0  0  0  0  0  0  0  0  0  0  0
   -1.7406   -2.6749   -1.8210 C   0  0  0  0  0  0  0  0  0  0  0  0
   -2.5792   -1.9923   -1.7768 H   0  0  0  0  0  0  0  0  0  0  0  0
   -1.9203   -3.9755   -2.3309 C   0  0  0  0  0  0  0  0  0  0  0  0
   -2.8952   -4.2902   -2.6702 H   0  0  0  0  0  0  0  0  0  0  0  0
   -0.8241   -4.8628   -2.3981 C   0  0  0  0  0  0  0  0  0  0  0  0
   -0.9865   -6.1181   -2.8909 O   0  0  0  0  0  0  0  0  0  0  0  0
   -1.9052   -6.3174   -3.0758 H   0  0  0  0  0  0  0  0  0  0  0  0
    0.4480   -4.4444   -1.9557 C   0  0  0  0  0  0  0  0  0  0  0  0
    1.2774   -5.1334   -2.0081 H   0  0  0  0  0  0  0  0  0  0  0  0
    0.6235   -3.1453   -1.4424 C   0  0  0  0  0  0  0  0  0  0  0  0
    1.5991   -2.8276   -1.0941 H   0  0  0  0  0  0  0  0  0  0  0  0
   -1.4018    1.0238    0.4329 C   0  0  0  0  0  0  0  0  0  0  0  0
   -2.2416    1.5423   -0.3033 O   0  0  0  0  0  0  0  0  0  0  0  0
   -0.6927    1.7304    1.3223 N   0  0  0  0  0  0  0  0  0  0  0  0
    0.0178    1.2410    1.8469 H   0  0  0  0  0  0  0  0  0  0  0  0
   -0.8259    3.1712    1.5254 C   0  0  0  0  0  0  0  0  0  0  0  0
   -1.8769    3.4302    1.6645 H   0  0  0  0  0  0  0  0  0  0  0  0
   -0.2598    3.4806    2.4054 H   0  0  0  0  0  0  0  0  0  0  0  0
   -0.4486    3.7020    0.6489 H   0  0  0  0  0  0  0  0  0  0  0  0
  5  6  2  0  0  0  0
  5  7  1  0  0  0  0
  2  3  1  0  0  0  0
  2  4  1  0  0  0  0
  2  5  1  0  0  0  0
  1  2  1  0  0  0  0
 26 27  2  0  0  0  0
 26 28  1  0  0  0  0
 24 25  1  0  0  0  0
 22 23  1  0  0  0  0
 22 24  2  0  0  0  0
 20 21  1  0  0  0  0
 19 20  1  0  0  0  0
 19 22  1  0  0  0  0
 17 18  1  0  0  0  0
 17 19  2  0  0  0  0
 15 16  1  0  0  0  0
 15 17  1  0  0  0  0
 14 15  2  0  0  0  0
 14 24  1  0  0  0  0
 11 12  1  0  0  0  0
 11 13  1  0  0  0  0
 11 14  1  0  0  0  0
  9 10  1  0  0  0  0
  9 11  1  0  0  0  0
  9 26  1  0  0  0  0
  7  8  1  0  0  0  0
  7  9  1  0  0  0  0
 30 31  1  0  0  0  0
 30 32  1  0  0  0  0
 30 33  1  0  0  0  0
 28 29  1  0  0  0  0
 28 30  1  0  0  0  0
M  END
$$$$
default_name
  -OEChem-02102213163D

 33 33  0     1  0  0  0  0  0999 V2000
   -4.0702   -3.8485    1.4554 H   0  0  0  0  0  0  0  0  0  0  0  0
   -4.0012   -2.9605    0.8284 C   0  0  0  0  0  0  0  0  0  0  0  0
   -4.7652   -2.2435    1.1234 H   0  0  0  0  0  0  0  0  0  0  0  0
   -4.1352   -3.2385   -0.2156 H   0  0  0  0  0  0  0  0  0  0  0  0
   -2.6362   -2.3395    1.0094 C   0  0  0  0  0  0  0  0  0  0  0  0
   -1.8292   -2.8395    1.7814 O   0  0  0  0  0  0  0  0  0  0  0  0
   -2.3832   -1.2445    0.2964 N   0  0  0  0  0  0  0  0  0  0  0  0
   -3.1102   -0.8685   -0.2946 H   0  0  0  0  0  0  0  0  0  0  0  0
   -1.1292   -0.4875    0.3524 C   0  0  1  0  0  0  0  0  0  0  0  0
   -0.5898   -0.7762    1.2552 H   0  0  0  0  0  0  0  0  0  0  0  0
   -0.2608   -0.8470   -0.8656 C   0  0  0  0  0  0  0  0  0  0  0  0
   -0.4882   -0.1568   -1.6790 H   0  0  0  0  0  0  0  0  0  0  0  0
    0.7895   -0.7089   -0.6038 H   0  0  0  0  0  0  0  0  0  0  0  0
   -0.4697   -2.2601   -1.3748 C   0  0  0  0  0  0  0  0  0  0  0  0
   -1.6291   -2.5888   -2.1057 C   0  0  0  0  0  0  0  0  0  0  0  0
   -2.3879   -1.8380   -2.2834 H   0  0  0  0  0  0  0  0  0  0  0  0
   -1.7994   -3.8923   -2.6113 C   0  0  0  0  0  0  0  0  0  0  0  0
   -2.6891   -4.1409   -3.1691 H   0  0  0  0  0  0  0  0  0  0  0  0
   -0.8047   -4.8692   -2.3882 C   0  0  0  0  0  0  0  0  0  0  0  0
   -0.9582   -6.1284   -2.8741 O   0  0  0  0  0  0  0  0  0  0  0  0
   -1.8201   -6.2595   -3.2714 H   0  0  0  0  0  0  0  0  0  0  0  0
    0.3571   -4.5372   -1.6608 C   0  0  0  0  0  0  0  0  0  0  0  0
    1.1084   -5.2941   -1.4931 H   0  0  0  0  0  0  0  0  0  0  0  0
    0.5223   -3.2347   -1.1528 C   0  0  0  0  0  0  0  0  0  0  0  0
    1.4108   -2.9829   -0.5862 H   0  0  0  0  0  0  0  0  0  0  0  0
   -1.4018    1.0238    0.4329 C   0  0  0  0  0  0  0  0  0  0  0  0
   -2.2416    1.5423   -0.3033 O   0  0  0  0  0  0  0  0  0  0  0  0
   -0.6927    1.7304    1.3223 N   0  0  0  0  0  0  0  0  0  0  0  0
    0.0178    1.2410    1.8469 H   0  0  0  0  0  0  0  0  0  0  0  0
   -0.8259    3.1712    1.5254 C   0  0  0  0  0  0  0  0  0  0  0  0
   -1.8769    3.4302    1.6645 H   0  0  0  0  0  0  0  0  0  0  0  0
   -0.2598    3.4806    2.4054 H   0  0  0  0  0  0  0  0  0  0  0  0
   -0.4486    3.7020    0.6489 H   0  0  0  0  0  0  0  0  0  0  0  0
  5  6  2  0  0  0  0
  5  7  1  0  0  0  0
  2  3  1  0  0  0  0
  2  4  1  0  0  0  0
  2  5  1  0  0  0  0
  1  2  1  0  0  0  0
 26 27  2  0  0  0  0
 26 28  1  0  0  0  0
 24 25  1  0  0  0  0
 22 23  1  0  0  0  0
 22 24  2  0  0  0  0
 20 21  1  0  0  0  0
 19 20  1  0  0  0  0
 19 22  1  0  0  0  0
 17 18  1  0  0  0  0
 17 19  2  0  0  0  0
 15 16  1  0  0  0  0
 15 17  1  0  0  0  0
 14 15  2  0  0  0  0
 14 24  1  0  0  0  0
 11 12  1  0  0  0  0
 11 13  1  0  0  0  0
 11 14  1  0  0  0  0
  9 10  1  0  0  0  0
  9 11  1  0  0  0  0
  9 26  1  0  0  0  0
  7  8  1  0  0  0  0
  7  9  1  0  0  0  0
 30 31  1  0  0  0  0
 30 32  1  0  0  0  0
 30 33  1  0  0  0  0
 28 29  1  0  0  0  0
 28 30  1  0  0  0  0
M  END
$$$$
default_name
  -OEChem-02102213163D

 33 33  0     1  0  0  0  0  0999 V2000
   -4.0702   -3.8485    1.4554 H   0  0  0  0  0  0  0  0  0  0  0  0
   -4.0012   -2.9605    0.8284 C   0  0  0  0  0  0  0  0  0  0  0  0
   -4.7652   -2.2435    1.1234 H   0  0  0  0  0  0  0  0  0  0  0  0
   -4.1352   -3.2385   -0.2156 H   0  0  0  0  0  0  0  0  0  0  0  0
   -2.6362   -2.3395    1.0094 C   0  0  0  0  0  0  0  0  0  0  0  0
   -1.8292   -2.8395    1.7814 O   0  0  0  0  0  0  0  0  0  0  0  0
   -2.3832   -1.2445    0.2964 N   0  0  0  0  0  0  0  0  0  0  0  0
   -3.1102   -0.8685   -0.2946 H   0  0  0  0  0  0  0  0  0  0  0  0
   -1.1292   -0.4875    0.3524 C   0  0  1  0  0  0  0  0  0  0  0  0
   -0.5898   -0.7762    1.2552 H   0  0  0  0  0  0  0  0  0  0  0  0
   -0.2608   -0.8470   -0.8656 C   0  0  0  0  0  0  0  0  0  0  0  0
   -0.4882   -0.1568   -1.6790 H   0  0  0  0  0  0  0  0  0  0  0  0
    0.7895   -0.7089   -0.6038 H   0  0  0  0  0  0  0  0  0  0  0  0
   -0.4697   -2.2601   -1.3748 C   0  0  0  0  0  0  0  0  0  0  0  0
   -1.4452   -2.5254   -2.3568 C   0  0  0  0  0  0  0  0  0  0  0  0
   -2.0675   -1.7236   -2.7321 H   0  0  0  0  0  0  0  0  0  0  0  0
   -1.6077   -3.8325   -2.8559 C   0  0  0  0  0  0  0  0  0  0  0  0
   -2.3568   -4.0324   -3.6066 H   0  0  0  0  0  0  0  0  0  0  0  0
   -0.7889   -4.8768   -2.3737 C   0  0  0  0  0  0  0  0  0  0  0  0
   -0.9358   -6.1401   -2.8507 O   0  0  0  0  0  0  0  0  0  0  0  0
   -1.6857   -6.2179   -3.4420 H   0  0  0  0  0  0  0  0  0  0  0  0
    0.1901   -4.6085   -1.3946 C   0  0  0  0  0  0  0  0  0  0  0  0
    0.8070   -5.4162   -1.0306 H   0  0  0  0  0  0  0  0  0  0  0  0
    0.3469   -3.3019   -0.8944 C   0  0  0  0  0  0  0  0  0  0  0  0
    1.0930   -3.0983   -0.1355 H   0  0  0  0  0  0  0  0  0  0  0  0
   -1.4018    1.0238    0.4329 C   0  0  0  0  0  0  0  0  0  0  0  0
   -2.2416    1.5423   -0.3033 O   0  0  0  0  0  0  0  0  0  0  0  0
   -0.6927    1.7304    1.3223 N   0  0  0  0  0  0  0  0  0  0  0  0
    0.0178    1.2410    1.8469 H   0  0  0  0  0  0  0  0  0  0  0  0
   -0.8259    3.1712    1.5254 C   0  0  0  0  0  0  0  0  0  0  0  0
   -1.8769    3.4302    1.6645 H   0  0  0  0  0  0  0  0  0  0  0  0
   -0.2598    3.4806    2.4054 H   0  0  0  0  0  0  0  0  0  0  0  0
   -0.4486    3.7020    0.6489 H   0  0  0  0  0  0  0  0  0  0  0  0
  5  6  2  0  0  0  0
  5  7  1  0  0  0  0
  2  3  1  0  0  0  0
  2  4  1  0  0  0  0
  2  5  1  0  0  0  0
  1  2  1  0  0  0  0
 26 27  2  0  0  0  0
 26 28  1  0  0  0  0
 24 25  1  0  0  0  0
 22 23  1  0  0  0  0
 22 24  2  0  0  0  0
 20 21  1  0  0  0  0
 19 20  1  0  0  0  0
 19 22  1  0  0  0  0
 17 18  1  0  0  0  0
 17 19  2  0  0  0  0
 15 16  1  0  0  0  0
 15 17  1  0  0  0  0
 14 15  2  0  0  0  0
 14 24  1  0  0  0  0
 11 12  1  0  0  0  0
 11 13  1  0  0  0  0
 11 14  1  0  0  0  0
  9 10  1  0  0  0  0
  9 11  1  0  0  0  0
  9 26  1  0  0  0  0
  7  8  1  0  0  0  0
  7  9  1  0  0  0  0
 30 31  1  0  0  0  0
 30 32  1  0  0  0  0
 30 33  1  0  0  0  0
 28 29  1  0  0  0  0
 28 30  1  0  0  0  0
M  END
$$$$
default_name
  -OEChem-02102213163D

 33 33  0     1  0  0  0  0  0999 V2000
   -4.0702   -3.8485    1.4554 H   0  0  0  0  0  0  0  0  0  0  0  0
   -4.0012   -2.9605    0.8284 C   0  0  0  0  0  0  0  0  0  0  0  0
   -4.7652   -2.2435    1.1234 H   0  0  0  0  0  0  0  0  0  0  0  0
   -4.1352   -3.2385   -0.2156 H   0  0  0  0  0  0  0  0  0  0  0  0
   -2.6362   -2.3395    1.0094 C   0  0  0  0  0  0  0  0  0  0  0  0
   -1.8292   -2.8395    1.7814 O   0  0  0  0  0  0  0  0  0  0  0  0
   -2.3832   -1.2445    0.2964 N   0  0  0  0  0  0  0  0  0  0  0  0
   -3.1102   -0.8685   -0.2946 H   0  0  0  0  0  0  0  0  0  0  0  0
   -1.1292   -0.4875    0.3524 C   0  0  1  0  0  0  0  0  0  0  0  0
   -0.5898   -0.7762    1.2552 H   0  0  0  0  0  0  0  0  0  0  0  0
   -0.2608   -0.8470   -0.8656 C   0  0  0  0  0  0  0  0  0  0  0  0
   -0.4882   -0.1568   -1.6790 H   0  0  0  0  0  0  0  0  0  0  0  0
    0.7895   -0.7089   -0.6038 H   0  0  0  0  0  0  0  0  0  0  0  0
   -0.4697   -2.2601   -1.3748 C   0  0  0  0  0  0  0  0  0  0  0  0
   -1.2016   -2.4892   -2.5573 C   0  0  0  0  0  0  0  0  0  0  0  0
   -1.6400   -1.6570   -3.0924 H   0  0  0  0  0  0  0  0  0  0  0  0
   -1.3584   -3.8001   -3.0481 C   0  0  0  0  0  0  0  0  0  0  0  0
   -1.9208   -3.9720   -3.9529 H   0  0  0  0  0  0  0  0  0  0  0  0
   -0.7778   -4.8850   -2.3556 C   0  0  0  0  0  0  0  0  0  0  0  0
   -0.9208   -6.1526   -2.8223 O   0  0  0  0  0  0  0  0  0  0  0  0
   -1.5111   -6.1955   -3.5758 H   0  0  0  0  0  0  0  0  0  0  0  0
   -0.0416   -4.6533   -1.1752 C   0  0  0  0  0  0  0  0  0  0  0  0
    0.3938   -5.4915   -0.6523 H   0  0  0  0  0  0  0  0  0  0  0  0
    0.1094   -3.3424   -0.6847 C   0  0  0  0  0  0  0  0  0  0  0  0
    0.6673   -3.1662    0.2273 H   0  0  0  0  0  0  0  0  0  0  0  0
   -1.4018    1.0238    0.4329 C   0  0  0  0  0  0  0  0  0  0  0  0
   -2.2416    1.5423   -0.3033 O   0  0  0  0  0  0  0  0  0  0  0  0
   -0.6927    1.7304    1.3223 N   0  0  0  0  0  0  0  0  0  0  0  0
    0.0178    1.2410    1.8469 H   0  0  0  0  0  0  0  0  0  0  0  0
   -0.8259    3.1712    1.5254 C   0  0  0  0  0  0  0  0  0  0  0  0
   -1.8769    3.4302    1.6645 H   0  0  0  0  0  0  0  0  0  0  0  0
   -0.2598    3.4806    2.4054 H   0  0  0  0  0  0  0  0  0  0  0  0
   -0.4486    3.7020    0.6489 H   0  0  0  0  0  0  0  0  0  0  0  0
  5  6  2  0  0  0  0
  5  7  1  0  0  0  0
  2  3  1  0  0  0  0
  2  4  1  0  0  0  0
  2  5  1  0  0  0  0
  1  2  1  0  0  0  0
 26 27  2  0  0  0  0
 26 28  1  0  0  0  0
 24 25  1  0  0  0  0
 22 23  1  0  0  0  0
 22 24  2  0  0  0  0
 20 21  1  0  0  0  0
 19 20  1  0  0  0  0
 19 22  1  0  0  0  0
 17 18  1  0  0  0  0
 17 19  2  0  0  0  0
 15 16  1  0  0  0  0
 15 17  1  0  0  0  0
 14 15  2  0  0  0  0
 14 24  1  0  0  0  0
 11 12  1  0  0  0  0
 11 13  1  0  0  0  0
 11 14  1  0  0  0  0
  9 10  1  0  0  0  0
  9 11  1  0  0  0  0
  9 26  1  0  0  0  0
  7  8  1  0  0  0  0
  7  9  1  0  0  0  0
 30 31  1  0  0  0  0
 30 32  1  0  0  0  0
 30 33  1  0  0  0  0
 28 29  1  0  0  0  0
 28 30  1  0  0  0  0
M  END
$$$$
default_name
  -OEChem-02102213163D

 33 33  0     1  0  0  0  0  0999 V2000
   -4.0702   -3.8485    1.4554 H   0  0  0  0  0  0  0  0  0  0  0  0
   -4.0012   -2.9605    0.8284 C   0  0  0  0  0  0  0  0  0  0  0  0
   -4.7652   -2.2435    1.1234 H   0  0  0  0  0  0  0  0  0  0  0  0
   -4.1352   -3.2385   -0.2156 H   0  0  0  0  0  0  0  0  0  0  0  0
   -2.6362   -2.3395    1.0094 C   0  0  0  0  0  0  0  0  0  0  0  0
   -1.8292   -2.8395    1.7814 O   0  0  0  0  0  0  0  0  0  0  0  0
   -2.3832   -1.2445    0.2964 N   0  0  0  0  0  0  0  0  0  0  0  0
   -3.1102   -0.8685   -0.2946 H   0  0  0  0  0  0  0  0  0  0  0  0
   -1.1292   -0.4875    0.3524 C   0  0  1  0  0  0  0  0  0  0  0  0
   -0.5898   -0.7762    1.2552 H   0  0  0  0  0  0  0  0  0  0  0  0
   -0.2608   -0.8470   -0.8656 C   0  0  0  0  0  0  0  0  0  0  0  0
   -0.4882   -0.1568   -1.6790 H   0  0  0  0  0  0  0  0  0  0  0  0
    0.7895   -0.7089   -0.6038 H   0  0  0  0  0  0  0  0  0  0  0  0
   -0.4697   -2.2601   -1.3748 C   0  0  0  0  0  0  0  0  0  0  0  0
   -0.9147   -2.4825   -2.6934 C   0  0  0  0  0  0  0  0  0  0  0  0
   -1.1343   -1.6426   -3.3396 H   0  0  0  0  0  0  0  0  0  0  0  0
   -1.0684   -3.7973   -3.1747 C   0  0  0  0  0  0  0  0  0  0  0  0
   -1.4108   -3.9639   -4.1844 H   0  0  0  0  0  0  0  0  0  0  0  0
   -0.7722   -4.8932   -2.3351 C   0  0  0  0  0  0  0  0  0  0  0  0
   -0.9143   -6.1649   -2.7908 O   0  0  0  0  0  0  0  0  0  0  0  0
   -1.3082   -6.1938   -3.6637 H   0  0  0  0  0  0  0  0  0  0  0  0
   -0.3223   -4.6687   -1.0175 C   0  0  0  0  0  0  0  0  0  0  0  0
   -0.1032   -5.5148   -0.3838 H   0  0  0  0  0  0  0  0  0  0  0  0
   -0.1741   -3.3534   -0.5379 C   0  0  0  0  0  0  0  0  0  0  0  0
    0.1627   -3.1818    0.4775 H   0  0  0  0  0  0  0  0  0  0  0  0
   -1.4018    1.0238    0.4329 C   0  0  0  0  0  0  0  0  0  0  0  0
   -2.2416    1.5423   -0.3033 O   0  0  0  0  0  0  0  0  0  0  0  0
   -0.6927    1.7304    1.3223 N   0  0  0  0  0  0  0  0  0  0  0  0
    0.0178    1.2410    1.8469 H   0  0  0  0  0  0  0  0  0  0  0  0
   -0.8259    3.1712    1.5254 C   0  0  0  0  0  0  0  0  0  0  0  0
   -1.8769    3.4302    1.6645 H   0  0  0  0  0  0  0  0  0  0  0  0
   -0.2598    3.4806    2.4054 H   0  0  0  0  0  0  0  0  0  0  0  0
   -0.4486    3.7020    0.6489 H   0  0  0  0  0  0  0  0  0  0  0  0
  5  6  2  0  0  0  0
  5  7  1  0  0  0  0
  2  3  1  0  0  0  0
  2  4  1  0  0  0  0
  2  5  1  0  0  0  0
  1  2  1  0  0  0  0
 26 27  2  0  0  0  0
 26 28  1  0  0  0  0
 24 25  1  0  0  0  0
 22 23  1  0  0  0  0
 22 24  2  0  0  0  0
 20 21  1  0  0  0  0
 19 20  1  0  0  0  0
 19 22  1  0  0  0  0
 17 18  1  0  0  0  0
 17 19  2  0  0  0  0
 15 16  1  0  0  0  0
 15 17  1  0  0  0  0
 14 15  2  0  0  0  0
 14 24  1  0  0  0  0
 11 12  1  0  0  0  0
 11 13  1  0  0  0  0
 11 14  1  0  0  0  0
  9 10  1  0  0  0  0
  9 11  1  0  0  0  0
  9 26  1  0  0  0  0
  7  8  1  0  0  0  0
  7  9  1  0  0  0  0
 30 31  1  0  0  0  0
 30 32  1  0  0  0  0
 30 33  1  0  0  0  0
 28 29  1  0  0  0  0
 28 30  1  0  0  0  0
M  END
$$$$
default_name
  -OEChem-02102213163D

 33 33  0     1  0  0  0  0  0999 V2000
   -4.0702   -3.8485    1.4554 H   0  0  0  0  0  0  0  0  0  0  0  0
   -4.0012   -2.9605    0.8284 C   0  0  0  0  0  0  0  0  0  0  0  0
   -4.7652   -2.2435    1.1234 H   0  0  0  0  0  0  0  0  0  0  0  0
   -4.1352   -3.2385   -0.2156 H   0  0  0  0  0  0  0  0  0  0  0  0
   -2.6362   -2.3395    1.0094 C   0  0  0  0  0  0  0  0  0  0  0  0
   -1.8292   -2.8395    1.7814 O   0  0  0  0  0  0  0  0  0  0  0  0
   -2.3832   -1.2445    0.2964 N   0  0  0  0  0  0  0  0  0  0  0  0
   -3.1102   -0.8685   -0.2946 H   0  0  0  0  0  0  0  0  0  0  0  0
   -1.1292   -0.4875    0.3524 C   0  0  1  0  0  0  0  0  0  0  0  0
   -0.5898   -0.7762    1.2552 H   0  0  0  0  0  0  0  0  0  0  0  0
   -0.2608   -0.8470   -0.8656 C   0  0  0  0  0  0  0  0  0  0  0  0
   -0.4882   -0.1568   -1.6790 H   0  0  0  0  0  0  0  0  0  0  0  0
    0.7895   -0.7089   -0.6038 H   0  0  0  0  0  0  0  0  0  0  0  0
   -0.4697   -2.2601   -1.3748 C   0  0  0  0  0  0  0  0  0  0  0  0
   -0.6042   -2.5058   -2.7561 C   0  0  0  0  0  0  0  0  0  0  0  0
   -0.5850   -1.6815   -3.4569 H   0  0  0  0  0  0  0  0  0  0  0  0
   -0.7575   -3.8243   -3.2272 C   0  0  0  0  0  0  0  0  0  0  0  0
   -0.8618   -4.0087   -4.2854 H   0  0  0  0  0  0  0  0  0  0  0  0
   -0.7724   -4.9008   -2.3137 C   0  0  0  0  0  0  0  0  0  0  0  0
   -0.9167   -6.1762   -2.7583 O   0  0  0  0  0  0  0  0  0  0  0  0
   -1.0909   -6.2129   -3.6997 H   0  0  0  0  0  0  0  0  0  0  0  0
   -0.6327   -4.6535   -0.9323 C   0  0  0  0  0  0  0  0  0  0  0  0
   -0.6501   -5.4845   -0.2434 H   0  0  0  0  0  0  0  0  0  0  0  0
   -0.4843   -3.3341   -0.4641 C   0  0  0  0  0  0  0  0  0  0  0  0
   -0.3864   -3.1440    0.5981 H   0  0  0  0  0  0  0  0  0  0  0  0
   -1.4018    1.0238    0.4329 C   0  0  0  0  0  0  0  0  0  0  0  0
   -2.2416    1.5423   -0.3033 O   0  0  0  0  0  0  0  0  0  0  0  0
   -0.6927    1.7304    1.3223 N   0  0  0  0  0  0  0  0  0  0  0  0
    0.0178    1.2410    1.8469 H   0  0  0  0  0  0  0  0  0  0  0  0
   -0.8259    3.1712    1.5254 C   0  0  0  0  0  0  0  0  0  0  0  0
   -1.8769    3.4302    1.6645 H   0  0  0  0  0  0  0  0  0  0  0  0
   -0.2598    3.4806    2.4054 H   0  0  0  0  0  0  0  0  0  0  0  0
   -0.4486    3.7020    0.6489 H   0  0  0  0  0  0  0  0  0  0  0  0
  5  6  2  0  0  0  0
  5  7  1  0  0  0  0
  2  3  1  0  0  0  0
  2  4  1  0  0  0  0
  2  5  1  0  0  0  0
  1  2  1  0  0  0  0
 26 27  2  0  0  0  0
 26 28  1  0  0  0  0
 24 25  1  0  0  0  0
 22 23  1  0  0  0  0
 22 24  2  0  0  0  0
 20 21  1  0  0  0  0
 19 20  1  0  0  0  0
 19 22  1  0  0  0  0
 17 18  1  0  0  0  0
 17 19  2  0  0  0  0
 15 16  1  0  0  0  0
 15 17  1  0  0  0  0
 14 15  2  0  0  0  0
 14 24  1  0  0  0  0
 11 12  1  0  0  0  0
 11 13  1  0  0  0  0
 11 14  1  0  0  0  0
  9 10  1  0  0  0  0
  9 11  1  0  0  0  0
  9 26  1  0  0  0  0
  7  8  1  0  0  0  0
  7  9  1  0  0  0  0
 30 31  1  0  0  0  0
 30 32  1  0  0  0  0
 30 33  1  0  0  0  0
 28 29  1  0  0  0  0
 28 30  1  0  0  0  0
M  END
$$$$
default_name
  -OEChem-02102213163D

 33 33  0     1  0  0  0  0  0999 V2000
   -4.0702   -3.8485    1.4554 H   0  0  0  0  0  0  0  0  0  0  0  0
   -4.0012   -2.9605    0.8284 C   0  0  0  0  0  0  0  0  0  0  0  0
   -4.7652   -2.2435    1.1234 H   0  0  0  0  0  0  0  0  0  0  0  0
   -4.1352   -3.2385   -0.2156 H   0  0  0  0  0  0  0  0  0  0  0  0
   -2.6362   -2.3395    1.0094 C   0  0  0  0  0  0  0  0  0  0  0  0
   -1.8292   -2.8395    1.7814 O   0  0  0  0  0  0  0  0  0  0  0  0
   -2.3832   -1.2445    0.2964 N   0  0  0  0  0  0  0  0  0  0  0  0
   -3.1102   -0.8685   -0.2946 H   0  0  0  0  0  0  0  0  0  0  0  0
   -1.1292   -0.4875    0.3524 C   0  0  1  0  0  0  0  0  0  0  0  0
   -0.5898   -0.7762    1.2552 H   0  0  0  0  0  0  0  0  0  0  0  0
   -0.2608   -0.8470   -0.8656 C   0  0  0  0  0  0  0  0  0  0  0  0
   -0.4882   -0.1568   -1.6790 H   0  0  0  0  0  0  0  0  0  0  0  0
    0.7895   -0.7089   -0.6038 H   0  0  0  0  0  0  0  0  0  0  0  0
   -0.4697   -2.2601   -1.3748 C   0  0  0  0  0  0  0  0  0  0  0  0
   -0.2913   -2.5576   -2.7408 C   0  0  0  0  0  0  0  0  0  0  0  0
   -0.0294   -1.7711   -3.4364 H   0  0  0  0  0  0  0  0  0  0  0  0
   -0.4468   -3.8793   -3.2020 C   0  0  0  0  0  0  0  0  0  0  0  0
   -0.3110   -4.1033   -4.2489 H   0  0  0  0  0  0  0  0  0  0  0  0
   -0.7784   -4.9075   -2.2928 C   0  0  0  0  0  0  0  0  0  0  0  0
   -0.9278   -6.1858   -2.7271 O   0  0  0  0  0  0  0  0  0  0  0  0
   -0.8740   -6.2516   -3.6815 H   0  0  0  0  0  0  0  0  0  0  0  0
   -0.9518   -4.6088   -0.9255 C   0  0  0  0  0  0  0  0  0  0  0  0
   -1.2095   -5.4028   -0.2409 H   0  0  0  0  0  0  0  0  0  0  0  0
   -0.8001   -3.2859   -0.4684 C   0  0  0  0  0  0  0  0  0  0  0  0
   -0.9425   -3.0556    0.5808 H   0  0  0  0  0  0  0  0  0  0  0  0
   -1.4018    1.0238    0.4329 C   0  0  0  0  0  0  0  0  0  0  0  0
   -2.2416    1.5423   -0.3033 O   0  0  0  0  0  0  0  0  0  0  0  0
   -0.6927    1.7304    1.3223 N   0  0  0  0  0  0  0  0  0  0  0  0
    0.0178    1.2410    1.8469 H   0  0  0  0  0  0  0  0  0  0  0  0
   -0.8259    3.1712    1.5254 C   0  0  0  0  0  0  0  0  0  0  0  0
   -1.8769    3.4302    1.6645 H   0  0  0  0  0  0  0  0  0  0  0  0
   -0.2598    3.4806    2.4054 H   0  0  0  0  0  0  0  0  0  0  0  0
   -0.4486    3.7020    0.6489 H   0  0  0  0  0  0  0  0  0  0  0  0
  5  6  2  0  0  0  0
  5  7  1  0  0  0  0
  2  3  1  0  0  0  0
  2  4  1  0  0  0  0
  2  5  1  0  0  0  0
  1  2  1  0  0  0  0
 26 27  2  0  0  0  0
 26 28  1  0  0  0  0
 24 25  1  0  0  0  0
 22 23  1  0  0  0  0
 22 24  2  0  0  0  0
 20 21  1  0  0  0  0
 19 20  1  0  0  0  0
 19 22  1  0  0  0  0
 17 18  1  0  0  0  0
 17 19  2  0  0  0  0
 15 16  1  0  0  0  0
 15 17  1  0  0  0  0
 14 15  2  0  0  0  0
 14 24  1  0  0  0  0
 11 12  1  0  0  0  0
 11 13  1  0  0  0  0
 11 14  1  0  0  0  0
  9 10  1  0  0  0  0
  9 11  1  0  0  0  0
  9 26  1  0  0  0  0
  7  8  1  0  0  0  0
  7  9  1  0  0  0  0
 30 31  1  0  0  0  0
 30 32  1  0  0  0  0
 30 33  1  0  0  0  0
 28 29  1  0  0  0  0
 28 30  1  0  0  0  0
M  END
$$$$
default_name
  -OEChem-02102213163D

 33 33  0     1  0  0  0  0  0999 V2000
   -4.0702   -3.8485    1.4554 H   0  0  0  0  0  0  0  0  0  0  0  0
   -4.0012   -2.9605    0.8284 C   0  0  0  0  0  0  0  0  0  0  0  0
   -4.7652   -2.2435    1.1234 H   0  0  0  0  0  0  0  0  0  0  0  0
   -4.1352   -3.2385   -0.2156 H   0  0  0  0  0  0  0  0  0  0  0  0
   -2.6362   -2.3395    1.0094 C   0  0  0  0  0  0  0  0  0  0  0  0
   -1.8292   -2.8395    1.7814 O   0  0  0  0  0  0  0  0  0  0  0  0
   -2.3832   -1.2445    0.2964 N   0  0  0  0  0  0  0  0  0  0  0  0
   -3.1102   -0.8685   -0.2946 H   0  0  0  0  0  0  0  0  0  0  0  0
   -1.1292   -0.4875    0.3524 C   0  0  1  0  0  0  0  0  0  0  0  0
   -0.5898   -0.7762    1.2552 H   0  0  0  0  0  0  0  0  0  0  0  0
   -0.2608   -0.8470   -0.8656 C   0  0  0  0  0  0  0  0  0  0  0  0
   -0.4882   -0.1568   -1.6790 H   0  0  0  0  0  0  0  0  0  0  0  0
    0.7895   -0.7089   -0.6038 H   0  0  0  0  0  0  0  0  0  0  0  0
   -0.4697   -2.2601   -1.3748 C   0  0  0  0  0  0  0  0  0  0  0  0
    0.0029   -2.6343   -2.6488 C   0  0  0  0  0  0  0  0  0  0  0  0
    0.4944   -1.9051   -3.2794 H   0  0  0  0  0  0  0  0  0  0  0  0
   -0.1577   -3.9586   -3.1007 C   0  0  0  0  0  0  0  0  0  0  0  0
    0.2041   -4.2412   -4.0774 H   0  0  0  0  0  0  0  0  0  0  0  0
   -0.7898   -4.9126   -2.2739 C   0  0  0  0  0  0  0  0  0  0  0  0
   -0.9468   -6.1930   -2.6994 O   0  0  0  0  0  0  0  0  0  0  0  0
   -0.6722   -6.3071   -3.6101 H   0  0  0  0  0  0  0  0  0  0  0  0
   -1.2577   -4.5376   -0.9974 C   0  0  0  0  0  0  0  0  0  0  0  0
   -1.7433   -5.2751   -0.3762 H   0  0  0  0  0  0  0  0  0  0  0  0
   -1.0999   -3.2120   -0.5503 C   0  0  0  0  0  0  0  0  0  0  0  0
   -1.4679   -2.9224    0.4267 H   0  0  0  0  0  0  0  0  0  0  0  0
   -1.4018    1.0238    0.4329 C   0  0  0  0  0  0  0  0  0  0  0  0
   -2.2416    1.5423   -0.3033 O   0  0  0  0  0  0  0  0  0  0  0  0
   -0.6927    1.7304    1.3223 N   0  0  0  0  0  0  0  0  0  0  0  0
    0.0178    1.2410    1.8469 H   0  0  0  0  0  0  0  0  0  0  0  0
   -0.8259    3.1712    1.5254 C   0  0  0  0  0  0  0  0  0  0  0  0
   -1.8769    3.4302    1.6645 H   0  0  0  0  0  0  0  0  0  0  0  0
   -0.2598    3.4806    2.4054 H   0  0  0  0  0  0  0  0  0  0  0  0
   -0.4486    3.7020    0.6489 H   0  0  0  0  0  0  0  0  0  0  0  0
  5  6  2  0  0  0  0
  5  7  1  0  0  0  0
  2  3  1  0  0  0  0
  2  4  1  0  0  0  0
  2  5  1  0  0  0  0
  1  2  1  0  0  0  0
 26 27  2  0  0  0  0
 26 28  1  0  0  0  0
 24 25  1  0  0  0  0
 22 23  1  0  0  0  0
 22 24  2  0  0  0  0
 20 21  1  0  0  0  0
 19 20  1  0  0  0  0
 19 22  1  0  0  0  0
 17 18  1  0  0  0  0
 17 19  2  0  0  0  0
 15 16  1  0  0  0  0
 15 17  1  0  0  0  0
 14 15  2  0  0  0  0
 14 24  1  0  0  0  0
 11 12  1  0  0  0  0
 11 13  1  0  0  0  0
 11 14  1  0  0  0  0
  9 10  1  0  0  0  0
  9 11  1  0  0  0  0
  9 26  1  0  0  0  0
  7  8  1  0  0  0  0
  7  9  1  0  0  0  0
 30 31  1  0  0  0  0
 30 32  1  0  0  0  0
 30 33  1  0  0  0  0
 28 29  1  0  0  0  0
 28 30  1  0  0  0  0
M  END
$$$$
default_name
  -OEChem-02102213163D

 33 33  0     1  0  0  0  0  0999 V2000
   -4.0702   -3.8485    1.4554 H   0  0  0  0  0  0  0  0  0  0  0  0
   -4.0012   -2.9605    0.8284 C   0  0  0  0  0  0  0  0  0  0  0  0
   -4.7652   -2.2435    1.1234 H   0  0  0  0  0  0  0  0  0  0  0  0
   -4.1352   -3.2385   -0.2156 H   0  0  0  0  0  0  0  0  0  0  0  0
   -2.6362   -2.3395    1.0094 C   0  0  0  0  0  0  0  0  0  0  0  0
   -1.8292   -2.8395    1.7814 O   0  0  0  0  0  0  0  0  0  0  0  0
   -2.3832   -1.2445    0.2964 N   0  0  0  0  0  0  0  0  0  0  0  0
   -3.1102   -0.8685   -0.2946 H   0  0  0  0  0  0  0  0  0  0  0  0
   -1.1292   -0.4875    0.3524 C   0  0  1  0  0  0  0  0  0  0  0  0
   -0.5898   -0.7762    1.2552 H   0  0  0  0  0  0  0  0  0  0  0  0
   -0.2608   -0.8470   -0.8656 C   0  0  0  0  0  0  0  0  0  0  0  0
   -0.2830   -0.0177   -1.5738 H   0  0  0  0  0  0  0  0  0  0  0  0
    0.7730   -0.9699   -0.5385 H   0  0  0  0  0  0  0  0  0  0  0  0
   -0.7095   -2.0996   -1.5932 C   0  0  0  0  0  0  0  0  0  0  0  0
   -0.0087   -2.5520   -2.7291 C   0  0  0  0  0  0  0  0  0  0  0  0
    0.8382   -1.9907   -3.1018 H   0  0  0  0  0  0  0  0  0  0  0  0
   -0.4047   -3.7381   -3.3774 C   0  0  0  0  0  0  0  0  0  0  0  0
    0.1333   -4.0808   -4.2479 H   0  0  0  0  0  0  0  0  0  0  0  0
   -1.5032   -4.4761   -2.8852 C   0  0  0  0  0  0  0  0  0  0  0  0
   -1.8912   -5.6227   -3.5014 O   0  0  0  0  0  0  0  0  0  0  0  0
   -1.4030   -5.7807   -4.3106 H   0  0  0  0  0  0  0  0  0  0  0  0
   -2.2003   -4.0245   -1.7454 C   0  0  0  0  0  0  0  0  0  0  0  0
   -3.0413   -4.5951   -1.3812 H   0  0  0  0  0  0  0  0  0  0  0  0
   -1.8049   -2.8361   -1.1024 C   0  0  0  0  0  0  0  0  0  0  0  0
   -2.3467   -2.4849   -0.2323 H   0  0  0  0  0  0  0  0  0  0  0  0
   -1.4018    1.0238    0.4329 C   0  0  0  0  0  0  0  0  0  0  0  0
   -2.2416    1.5423   -0.3033 O   0  0  0  0  0  0  0  0  0  0  0  0
   -0.6927    1.7304    1.3223 N   0  0  0  0  0  0  0  0  0  0  0  0
    0.0178    1.2410    1.8469 H   0  0  0  0  0  0  0  0  0  0  0  0
   -0.8259    3.1712    1.5254 C   0  0  0  0  0  0  0  0  0  0  0  0
   -1.8769    3.4302    1.6645 H   0  0  0  0  0  0  0  0  0  0  0  0
   -0.2598    3.4806    2.4054 H   0  0  0  0  0  0  0  0  0  0  0  0
   -0.4486    3.7020    0.6489 H   0  0  0  0  0  0  0  0  0  0  0  0
  5  6  2  0  0  0  0
  5  7  1  0  0  0  0
  2  3  1  0  0  0  0
  2  4  1  0  0  0  0
  2  5  1  0  0  0  0
  1  2  1  0  0  0  0
 26 27  2  0  0  0  0
 26 28  1  0  0  0  0
 24 25  1  0  0  0  0
 22 23  1  0  0  0  0
 22 24  2  0  0  0  0
 20 21  1  0  0  0  0
 19 20  1  0  0  0  0
 19 22  1  0  0  0  0
 17 18  1  0  0  0  0
 17 19  2  0  0  0  0
 15 16  1  0  0  0  0
 15 17  1  0  0  0  0
 14 15  2  0  0  0  0
 14 24  1  0  0  0  0
 11 12  1  0  0  0  0
 11 13  1  0  0  0  0
 11 14  1  0  0  0  0
  9 10  1  0  0  0  0
  9 11  1  0  0  0  0
  9 26  1  0  0  0  0
  7  8  1  0  0  0  0
  7  9  1  0  0  0  0
 30 31  1  0  0  0  0
 30 32  1  0  0  0  0
 30 33  1  0  0  0  0
 28 29  1  0  0  0  0
 28 30  1  0  0  0  0
M  END
$$$$
default_name
  -OEChem-02102213163D

 33 33  0     1  0  0  0  0  0999 V2000
   -4.0702   -3.8485    1.4554 H   0  0  0  0  0  0  0  0  0  0  0  0
   -4.0012   -2.9605    0.8284 C   0  0  0  0  0  0  0  0  0  0  0  0
   -4.7652   -2.2435    1.1234 H   0  0  0  0  0  0  0  0  0  0  0  0
   -4.1352   -3.2385   -0.2156 H   0  0  0  0  0  0  0  0  0  0  0  0
   -2.6362   -2.3395    1.0094 C   0  0  0  0  0  0  0  0  0  0  0  0
   -1.8292   -2.8395    1.7814 O   0  0  0  0  0  0  0  0  0  0  0  0
   -2.3832   -1.2445    0.2964 N   0  0  0  0  0  0  0  0  0  0  0  0
   -3.1102   -0.8685   -0.2946 H   0  0  0  0  0  0  0  0  0  0  0  0
   -1.1292   -0.4875    0.3524 C   0  0  1  0  0  0  0  0  0  0  0  0
   -0.5898   -0.7762    1.2552 H   0  0  0  0  0  0  0  0  0  0  0  0
   -0.2608   -0.8470   -0.8656 C   0  0  0  0  0  0  0  0  0  0  0  0
   -0.2830   -0.0177   -1.5738 H   0  0  0  0  0  0  0  0  0  0  0  0
    0.7730   -0.9699   -0.5385 H   0  0  0  0  0  0  0  0  0  0  0  0
   -0.7095   -2.0996   -1.5932 C   0  0  0  0  0  0  0  0  0  0  0  0
    0.1469   -2.7306   -2.5176 C   0  0  0  0  0  0  0  0  0  0  0  0
    1.1197   -2.3071   -2.7308 H   0  0  0  0  0  0  0  0  0  0  0  0
   -0.2585   -3.9164   -3.1606 C   0  0  0  0  0  0  0  0  0  0  0  0
    0.3993   -4.3961   -3.8691 H   0  0  0  0  0  0  0  0  0  0  0  0
   -1.5235   -4.4748   -2.8749 C   0  0  0  0  0  0  0  0  0  0  0  0
   -1.9225   -5.6196   -3.4875 O   0  0  0  0  0  0  0  0  0  0  0  0
   -1.3015   -5.9053   -4.1588 H   0  0  0  0  0  0  0  0  0  0  0  0
   -2.3772   -3.8446   -1.9459 C   0  0  0  0  0  0  0  0  0  0  0  0
   -3.3438   -4.2788   -1.7392 H   0  0  0  0  0  0  0  0  0  0  0  0
   -1.9710   -2.6570   -1.3083 C   0  0  0  0  0  0  0  0  0  0  0  0
   -2.6312   -2.1684   -0.6016 H   0  0  0  0  0  0  0  0  0  0  0  0
   -1.4018    1.0238    0.4329 C   0  0  0  0  0  0  0  0  0  0  0  0
   -2.2416    1.5423   -0.3033 O   0  0  0  0  0  0  0  0  0  0  0  0
   -0.6927    1.7304    1.3223 N   0  0  0  0  0  0  0  0  0  0  0  0
    0.0178    1.2410    1.8469 H   0  0  0  0  0  0  0  0  0  0  0  0
   -0.8259    3.1712    1.5254 C   0  0  0  0  0  0  0  0  0  0  0  0
   -1.8769    3.4302    1.6645 H   0  0  0  0  0  0  0  0  0  0  0  0
   -0.2598    3.4806    2.4054 H   0  0  0  0  0  0  0  0  0  0  0  0
   -0.4486    3.7020    0.6489 H   0  0  0  0  0  0  0  0  0  0  0  0
  5  6  2  0  0  0  0
  5  7  1  0  0  0  0
  2  3  1  0  0  0  0
  2  4  1  0  0  0  0
  2  5  1  0  0  0  0
  1  2  1  0  0  0  0
 26 27  2  0  0  0  0
 26 28  1  0  0  0  0
 24 25  1  0  0  0  0
 22 23  1  0  0  0  0
 22 24  2  0  0  0  0
 20 21  1  0  0  0  0
 19 20  1  0  0  0  0
 19 22  1  0  0  0  0
 17 18  1  0  0  0  0
 17 19  2  0  0  0  0
 15 16  1  0  0  0  0
 15 17  1  0  0  0  0
 14 15  2  0  0  0  0
 14 24  1  0  0  0  0
 11 12  1  0  0  0  0
 11 13  1  0  0  0  0
 11 14  1  0  0  0  0
  9 10  1  0  0  0  0
  9 11  1  0  0  0  0
  9 26  1  0  0  0  0
  7  8  1  0  0  0  0
  7  9  1  0  0  0  0
 30 31  1  0  0  0  0
 30 32  1  0  0  0  0
 30 33  1  0  0  0  0
 28 29  1  0  0  0  0
 28 30  1  0  0  0  0
M  END
$$$$
default_name
  -OEChem-02102213163D

 33 33  0     1  0  0  0  0  0999 V2000
   -4.0702   -3.8485    1.4554 H   0  0  0  0  0  0  0  0  0  0  0  0
   -4.0012   -2.9605    0.8284 C   0  0  0  0  0  0  0  0  0  0  0  0
   -4.7652   -2.2435    1.1234 H   0  0  0  0  0  0  0  0  0  0  0  0
   -4.1352   -3.2385   -0.2156 H   0  0  0  0  0  0  0  0  0  0  0  0
   -2.6362   -2.3395    1.0094 C   0  0  0  0  0  0  0  0  0  0  0  0
   -1.8292   -2.8395    1.7814 O   0  0  0  0  0  0  0  0  0  0  0  0
   -2.3832   -1.2445    0.2964 N   0  0  0  0  0  0  0  0  0  0  0  0
   -3.1102   -0.8685   -0.2946 H   0  0  0  0  0  0  0  0  0  0  0  0
   -1.1292   -0.4875    0.3524 C   0  0  1  0  0  0  0  0  0  0  0  0
   -0.5898   -0.7762    1.2552 H   0  0  0  0  0  0  0  0  0  0  0  0
   -0.2608   -0.8470   -0.8656 C   0  0  0  0  0  0  0  0  0  0  0  0
   -0.2830   -0.0177   -1.5738 H   0  0  0  0  0  0  0  0  0  0  0  0
    0.7730   -0.9699   -0.5385 H   0  0  0  0  0  0  0  0  0  0  0  0
   -0.7095   -2.0996   -1.5932 C   0  0  0  0  0  0  0  0  0  0  0  0
    0.2299   -2.9063   -2.2663 C   0  0  0  0  0  0  0  0  0  0  0  0
    1.2730   -2.6192   -2.2879 H   0  0  0  0  0  0  0  0  0  0  0  0
   -0.1857   -4.0902   -2.9063 C   0  0  0  0  0  0  0  0  0  0  0  0
    0.5360   -4.7047   -3.4221 H   0  0  0  0  0  0  0  0  0  0  0  0
   -1.5451   -4.4702   -2.8695 C   0  0  0  0  0  0  0  0  0  0  0  0
   -1.9554   -5.6116   -3.4810 O   0  0  0  0  0  0  0  0  0  0  0  0
   -1.2513   -6.0266   -3.9809 H   0  0  0  0  0  0  0  0  0  0  0  0
   -2.4829   -3.6643   -2.1912 C   0  0  0  0  0  0  0  0  0  0  0  0
   -3.5201   -3.9632   -2.1738 H   0  0  0  0  0  0  0  0  0  0  0  0
   -2.0651   -2.4792   -1.5564 C   0  0  0  0  0  0  0  0  0  0  0  0
   -2.7877   -1.8557   -1.0434 H   0  0  0  0  0  0  0  0  0  0  0  0
   -1.4018    1.0238    0.4329 C   0  0  0  0  0  0  0  0  0  0  0  0
   -2.2416    1.5423   -0.3033 O   0  0  0  0  0  0  0  0  0  0  0  0
   -0.6927    1.7304    1.3223 N   0  0  0  0  0  0  0  0  0  0  0  0
    0.0178    1.2410    1.8469 H   0  0  0  0  0  0  0  0  0  0  0  0
   -0.8259    3.1712    1.5254 C   0  0  0  0  0  0  0  0  0  0  0  0
   -1.8769    3.4302    1.6645 H   0  0  0  0  0  0  0  0  0  0  0  0
   -0.2598    3.4806    2.4054 H   0  0  0  0  0  0  0  0  0  0  0  0
   -0.4486    3.7020    0.6489 H   0  0  0  0  0  0  0  0  0  0  0  0
  5  6  2  0  0  0  0
  5  7  1  0  0  0  0
  2  3  1  0  0  0  0
  2  4  1  0  0  0  0
  2  5  1  0  0  0  0
  1  2  1  0  0  0  0
 26 27  2  0  0  0  0
 26 28  1  0  0  0  0
 24 25  1  0  0  0  0
 22 23  1  0  0  0  0
 22 24  2  0  0  0  0
 20 21  1  0  0  0  0
 19 20  1  0  0  0  0
 19 22  1  0  0  0  0
 17 18  1  0  0  0  0
 17 19  2  0  0  0  0
 15 16  1  0  0  0  0
 15 17  1  0  0  0  0
 14 15  2  0  0  0  0
 14 24  1  0  0  0  0
 11 12  1  0  0  0  0
 11 13  1  0  0  0  0
 11 14  1  0  0  0  0
  9 10  1  0  0  0  0
  9 11  1  0  0  0  0
  9 26  1  0  0  0  0
  7  8  1  0  0  0  0
  7  9  1  0  0  0  0
 30 31  1  0  0  0  0
 30 32  1  0  0  0  0
 30 33  1  0  0  0  0
 28 29  1  0  0  0  0
 28 30  1  0  0  0  0
M  END
$$$$
default_name
  -OEChem-02102213163D

 33 33  0     1  0  0  0  0  0999 V2000
   -4.0702   -3.8485    1.4554 H   0  0  0  0  0  0  0  0  0  0  0  0
   -4.0012   -2.9605    0.8284 C   0  0  0  0  0  0  0  0  0  0  0  0
   -4.7652   -2.2435    1.1234 H   0  0  0  0  0  0  0  0  0  0  0  0
   -4.1352   -3.2385   -0.2156 H   0  0  0  0  0  0  0  0  0  0  0  0
   -2.6362   -2.3395    1.0094 C   0  0  0  0  0  0  0  0  0  0  0  0
   -1.8292   -2.8395    1.7814 O   0  0  0  0  0  0  0  0  0  0  0  0
   -2.3832   -1.2445    0.2964 N   0  0  0  0  0  0  0  0  0  0  0  0
   -3.1102   -0.8685   -0.2946 H   0  0  0  0  0  0  0  0  0  0  0  0
   -1.1292   -0.4875    0.3524 C   0  0  1  0  0  0  0  0  0  0  0  0
   -0.5898   -0.7762    1.2552 H   0  0  0  0  0  0  0  0  0  0  0  0
   -0.2608   -0.8470   -0.8656 C   0  0  0  0  0  0  0  0  0  0  0  0
   -0.2830   -0.0177   -1.5738 H   0  0  0  0  0  0  0  0  0  0  0  0
    0.7730   -0.9699   -0.5385 H   0  0  0  0  0  0  0  0  0  0  0  0
   -0.7095   -2.0996   -1.5932 C   0  0  0  0  0  0  0  0  0  0  0  0
    0.2344   -3.0670   -1.9924 C   0  0  0  0  0  0  0  0  0  0  0  0
    1.2877   -2.9059   -1.8035 H   0  0  0  0  0  0  0  0  0  0  0  0
   -0.1914   -4.2476   -2.6318 C   0  0  0  0  0  0  0  0  0  0  0  0
    0.5343   -4.9855   -2.9376 H   0  0  0  0  0  0  0  0  0  0  0  0
   -1.5665   -4.4627   -2.8692 C   0  0  0  0  0  0  0  0  0  0  0  0
   -1.9876   -5.5992   -3.4824 O   0  0  0  0  0  0  0  0  0  0  0  0
   -1.2559   -6.1364   -3.7890 H   0  0  0  0  0  0  0  0  0  0  0  0
   -2.5101   -3.4958   -2.4646 C   0  0  0  0  0  0  0  0  0  0  0  0
   -3.5583   -3.6697   -2.6555 H   0  0  0  0  0  0  0  0  0  0  0  0
   -2.0809   -2.3147   -1.8298 C   0  0  0  0  0  0  0  0  0  0  0  0
   -2.8057   -1.5681   -1.5276 H   0  0  0  0  0  0  0  0  0  0  0  0
   -1.4018    1.0238    0.4329 C   0  0  0  0  0  0  0  0  0  0  0  0
   -2.2416    1.5423   -0.3033 O   0  0  0  0  0  0  0  0  0  0  0  0
   -0.6927    1.7304    1.3223 N   0  0  0  0  0  0  0  0  0  0  0  0
    0.0178    1.2410    1.8469 H   0  0  0  0  0  0  0  0  0  0  0  0
   -0.8259    3.1712    1.5254 C   0  0  0  0  0  0  0  0  0  0  0  0
   -1.8769    3.4302    1.6645 H   0  0  0  0  0  0  0  0  0  0  0  0
   -0.2598    3.4806    2.4054 H   0  0  0  0  0  0  0  0  0  0  0  0
   -0.4486    3.7020    0.6489 H   0  0  0  0  0  0  0  0  0  0  0  0
  5  6  2  0  0  0  0
  5  7  1  0  0  0  0
  2  3  1  0  0  0  0
  2  4  1  0  0  0  0
  2  5  1  0  0  0  0
  1  2  1  0  0  0  0
 26 27  2  0  0  0  0
 26 28  1  0  0  0  0
 24 25  1  0  0  0  0
 22 23  1  0  0  0  0
 22 24  2  0  0  0  0
 20 21  1  0  0  0  0
 19 20  1  0  0  0  0
 19 22  1  0  0  0  0
 17 18  1  0  0  0  0
 17 19  2  0  0  0  0
 15 16  1  0  0  0  0
 15 17  1  0  0  0  0
 14 15  2  0  0  0  0
 14 24  1  0  0  0  0
 11 12  1  0  0  0  0
 11 13  1  0  0  0  0
 11 14  1  0  0  0  0
  9 10  1  0  0  0  0
  9 11  1  0  0  0  0
  9 26  1  0  0  0  0
  7  8  1  0  0  0  0
  7  9  1  0  0  0  0
 30 31  1  0  0  0  0
 30 32  1  0  0  0  0
 30 33  1  0  0  0  0
 28 29  1  0  0  0  0
 28 30  1  0  0  0  0
M  END
$$$$
default_name
  -OEChem-02102213163D

 33 33  0     1  0  0  0  0  0999 V2000
   -4.0702   -3.8485    1.4554 H   0  0  0  0  0  0  0  0  0  0  0  0
   -4.0012   -2.9605    0.8284 C   0  0  0  0  0  0  0  0  0  0  0  0
   -4.7652   -2.2435    1.1234 H   0  0  0  0  0  0  0  0  0  0  0  0
   -4.1352   -3.2385   -0.2156 H   0  0  0  0  0  0  0  0  0  0  0  0
   -2.6362   -2.3395    1.0094 C   0  0  0  0  0  0  0  0  0  0  0  0
   -1.8292   -2.8395    1.7814 O   0  0  0  0  0  0  0  0  0  0  0  0
   -2.3832   -1.2445    0.2964 N   0  0  0  0  0  0  0  0  0  0  0  0
   -3.1102   -0.8685   -0.2946 H   0  0  0  0  0  0  0  0  0  0  0  0
   -1.1292   -0.4875    0.3524 C   0  0  1  0  0  0  0  0  0  0  0  0
   -0.5898   -0.7762    1.2552 H   0  0  0  0  0  0  0  0  0  0  0  0
   -0.2608   -0.8470   -0.8656 C   0  0  0  0  0  0  0  0  0  0  0  0
   -0.2830   -0.0177   -1.5738 H   0  0  0  0  0  0  0  0  0  0  0  0
    0.7730   -0.9699   -0.5385 H   0  0  0  0  0  0  0  0  0  0  0  0
   -0.7095   -2.0996   -1.5932 C   0  0  0  0  0  0  0  0  0  0  0  0
    0.1603   -3.2019   -1.7146 C   0  0  0  0  0  0  0  0  0  0  0  0
    1.1627   -3.1475   -1.3105 H   0  0  0  0  0  0  0  0  0  0  0  0
   -0.2751   -4.3779   -2.3558 C   0  0  0  0  0  0  0  0  0  0  0  0
    0.3941   -5.2195   -2.4484 H   0  0  0  0  0  0  0  0  0  0  0  0
   -1.5864   -4.4527   -2.8740 C   0  0  0  0  0  0  0  0  0  0  0  0
   -2.0168   -5.5835   -3.4916 O   0  0  0  0  0  0  0  0  0  0  0  0
   -1.3150   -6.2272   -3.5963 H   0  0  0  0  0  0  0  0  0  0  0  0
   -2.4570   -3.3505   -2.7473 C   0  0  0  0  0  0  0  0  0  0  0  0
   -3.4558   -3.4184   -3.1515 H   0  0  0  0  0  0  0  0  0  0  0  0
   -2.0174   -2.1748   -2.1099 C   0  0  0  0  0  0  0  0  0  0  0  0
   -2.6838   -1.3251   -2.0211 H   0  0  0  0  0  0  0  0  0  0  0  0
   -1.4018    1.0238    0.4329 C   0  0  0  0  0  0  0  0  0  0  0  0
   -2.2416    1.5423   -0.3033 O   0  0  0  0  0  0  0  0  0  0  0  0
   -0.6927    1.7304    1.3223 N   0  0  0  0  0  0  0  0  0  0  0  0
    0.0178    1.2410    1.8469 H   0  0  0  0  0  0  0  0  0  0  0  0
   -0.8259    3.1712    1.5254 C   0  0  0  0  0  0  0  0  0  0  0  0
   -1.8769    3.4302    1.6645 H   0  0  0  0  0  0  0  0  0  0  0  0
   -0.2598    3.4806    2.4054 H   0  0  0  0  0  0  0  0  0  0  0  0
   -0.4486    3.7020    0.6489 H   0  0  0  0  0  0  0  0  0  0  0  0
  5  6  2  0  0  0  0
  5  7  1  0  0  0  0
  2  3  1  0  0  0  0
  2  4  1  0  0  0  0
  2  5  1  0  0  0  0
  1  2  1  0  0  0  0
 26 27  2  0  0  0  0
 26 28  1  0  0  0  0
 24 25  1  0  0  0  0
 22 23  1  0  0  0  0
 22 24  2  0  0  0  0
 20 21  1  0  0  0  0
 19 20  1  0  0  0  0
 19 22  1  0  0  0  0
 17 18  1  0  0  0  0
 17 19  2  0  0  0  0
 15 16  1  0  0  0  0
 15 17  1  0  0  0  0
 14 15  2  0  0  0  0
 14 24  1  0  0  0  0
 11 12  1  0  0  0  0
 11 13  1  0  0  0  0
 11 14  1  0  0  0  0
  9 10  1  0  0  0  0
  9 11  1  0  0  0  0
  9 26  1  0  0  0  0
  7  8  1  0  0  0  0
  7  9  1  0  0  0  0
 30 31  1  0  0  0  0
 30 32  1  0  0  0  0
 30 33  1  0  0  0  0
 28 29  1  0  0  0  0
 28 30  1  0  0  0  0
M  END
$$$$
default_name
  -OEChem-02102213163D

 33 33  0     1  0  0  0  0  0999 V2000
   -4.0702   -3.8485    1.4554 H   0  0  0  0  0  0  0  0  0  0  0  0
   -4.0012   -2.9605    0.8284 C   0  0  0  0  0  0  0  0  0  0  0  0
   -4.7652   -2.2435    1.1234 H   0  0  0  0  0  0  0  0  0  0  0  0
   -4.1352   -3.2385   -0.2156 H   0  0  0  0  0  0  0  0  0  0  0  0
   -2.6362   -2.3395    1.0094 C   0  0  0  0  0  0  0  0  0  0  0  0
   -1.8292   -2.8395    1.7814 O   0  0  0  0  0  0  0  0  0  0  0  0
   -2.3832   -1.2445    0.2964 N   0  0  0  0  0  0  0  0  0  0  0  0
   -3.1102   -0.8685   -0.2946 H   0  0  0  0  0  0  0  0  0  0  0  0
   -1.1292   -0.4875    0.3524 C   0  0  1  0  0  0  0  0  0  0  0  0
   -0.5898   -0.7762    1.2552 H   0  0  0  0  0  0  0  0  0  0  0  0
   -0.2608   -0.8470   -0.8656 C   0  0  0  0  0  0  0  0  0  0  0  0
   -0.2830   -0.0177   -1.5738 H   0  0  0  0  0  0  0  0  0  0  0  0
    0.7730   -0.9699   -0.5385 H   0  0  0  0  0  0  0  0  0  0  0  0
   -0.7095   -2.0996   -1.5932 C   0  0  0  0  0  0  0  0  0  0  0  0
    0.0126   -3.3016   -1.4517 C   0  0  0  0  0  0  0  0  0  0  0  0
    0.9066   -3.3276   -0.8426 H   0  0  0  0  0  0  0  0  0  0  0  0
   -0.4311   -4.4723   -2.0972 C   0  0  0  0  0  0  0  0  0  0  0  0
    0.1251   -5.3906   -1.9879 H   0  0  0  0  0  0  0  0  0  0  0  0
   -1.6033   -4.4411   -2.8837 C   0  0  0  0  0  0  0  0  0  0  0  0
   -2.0411   -5.5653   -3.5079 O   0  0  0  0  0  0  0  0  0  0  0  0
   -1.4245   -6.2928   -3.4158 H   0  0  0  0  0  0  0  0  0  0  0  0
   -2.3273   -3.2385   -3.0202 C   0  0  0  0  0  0  0  0  0  0  0  0
   -3.2196   -3.2263   -3.6278 H   0  0  0  0  0  0  0  0  0  0  0  0
   -1.8787   -2.0690   -2.3775 C   0  0  0  0  0  0  0  0  0  0  0  0
   -2.4303   -1.1433   -2.4903 H   0  0  0  0  0  0  0  0  0  0  0  0
   -1.4018    1.0238    0.4329 C   0  0  0  0  0  0  0  0  0  0  0  0
   -2.2416    1.5423   -0.3033 O   0  0  0  0  0  0  0  0  0  0  0  0
   -0.6927    1.7304    1.3223 N   0  0  0  0  0  0  0  0  0  0  0  0
    0.0178    1.2410    1.8469 H   0  0  0  0  0  0  0  0  0  0  0  0
   -0.8259    3.1712    1.5254 C   0  0  0  0  0  0  0  0  0  0  0  0
   -1.8769    3.4302    1.6645 H   0  0  0  0  0  0  0  0  0  0  0  0
   -0.2598    3.4806    2.4054 H   0  0  0  0  0  0  0  0  0  0  0  0
   -0.4486    3.7020    0.6489 H   0  0  0  0  0  0  0  0  0  0  0  0
  5  6  2  0  0  0  0
  5  7  1  0  0  0  0
  2  3  1  0  0  0  0
  2  4  1  0  0  0  0
  2  5  1  0  0  0  0
  1  2  1  0  0  0  0
 26 27  2  0  0  0  0
 26 28  1  0  0  0  0
 24 25  1  0  0  0  0
 22 23  1  0  0  0  0
 22 24  2  0  0  0  0
 20 21  1  0  0  0  0
 19 20  1  0  0  0  0
 19 22  1  0  0  0  0
 17 18  1  0  0  0  0
 17 19  2  0  0  0  0
 15 16  1  0  0  0  0
 15 17  1  0  0  0  0
 14 15  2  0  0  0  0
 14 24  1  0  0  0  0
 11 12  1  0  0  0  0
 11 13  1  0  0  0  0
 11 14  1  0  0  0  0
  9 10  1  0  0  0  0
  9 11  1  0  0  0  0
  9 26  1  0  0  0  0
  7  8  1  0  0  0  0
  7  9  1  0  0  0  0
 30 31  1  0  0  0  0
 30 32  1  0  0  0  0
 30 33  1  0  0  0  0
 28 29  1  0  0  0  0
 28 30  1  0  0  0  0
M  END
$$$$
default_name
  -OEChem-02102213163D

 33 33  0     1  0  0  0  0  0999 V2000
   -4.0702   -3.8485    1.4554 H   0  0  0  0  0  0  0  0  0  0  0  0
   -4.0012   -2.9605    0.8284 C   0  0  0  0  0  0  0  0  0  0  0  0
   -4.7652   -2.2435    1.1234 H   0  0  0  0  0  0  0  0  0  0  0  0
   -4.1352   -3.2385   -0.2156 H   0  0  0  0  0  0  0  0  0  0  0  0
   -2.6362   -2.3395    1.0094 C   0  0  0  0  0  0  0  0  0  0  0  0
   -1.8292   -2.8395    1.7814 O   0  0  0  0  0  0  0  0  0  0  0  0
   -2.3832   -1.2445    0.2964 N   0  0  0  0  0  0  0  0  0  0  0  0
   -3.1102   -0.8685   -0.2946 H   0  0  0  0  0  0  0  0  0  0  0  0
   -1.1292   -0.4875    0.3524 C   0  0  1  0  0  0  0  0  0  0  0  0
   -0.5898   -0.7762    1.2552 H   0  0  0  0  0  0  0  0  0  0  0  0
   -0.2608   -0.8470   -0.8656 C   0  0  0  0  0  0  0  0  0  0  0  0
   -0.2830   -0.0177   -1.5738 H   0  0  0  0  0  0  0  0  0  0  0  0
    0.7730   -0.9699   -0.5385 H   0  0  0  0  0  0  0  0  0  0  0  0
   -0.7095   -2.0996   -1.5932 C   0  0  0  0  0  0  0  0  0  0  0  0
   -0.1987   -3.3595   -1.2218 C   0  0  0  0  0  0  0  0  0  0  0  0
    0.5368   -3.4339   -0.4315 H   0  0  0  0  0  0  0  0  0  0  0  0
   -0.6489   -4.5242   -1.8735 C   0  0  0  0  0  0  0  0  0  0  0  0
   -0.2544   -5.4872   -1.5876 H   0  0  0  0  0  0  0  0  0  0  0  0
   -1.6161   -4.4284   -2.8976 C   0  0  0  0  0  0  0  0  0  0  0  0
   -2.0589   -5.5459   -3.5302 O   0  0  0  0  0  0  0  0  0  0  0  0
   -1.5771   -6.3287   -3.2599 H   0  0  0  0  0  0  0  0  0  0  0  0
   -2.1298   -3.1673   -3.2646 C   0  0  0  0  0  0  0  0  0  0  0  0
   -2.8657   -3.1065   -4.0522 H   0  0  0  0  0  0  0  0  0  0  0  0
   -1.6744   -2.0045   -2.6145 C   0  0  0  0  0  0  0  0  0  0  0  0
   -2.0627   -1.0351   -2.9033 H   0  0  0  0  0  0  0  0  0  0  0  0
   -1.4018    1.0238    0.4329 C   0  0  0  0  0  0  0  0  0  0  0  0
   -2.2416    1.5423   -0.3033 O   0  0  0  0  0  0  0  0  0  0  0  0
   -0.6927    1.7304    1.3223 N   0  0  0  0  0  0  0  0  0  0  0  0
    0.0178    1.2410    1.8469 H   0  0  0  0  0  0  0  0  0  0  0  0
   -0.8259    3.1712    1.5254 C   0  0  0  0  0  0  0  0  0  0  0  0
   -1.8769    3.4302    1.6645 H   0  0  0  0  0  0  0  0  0  0  0  0
   -0.2598    3.4806    2.4054 H   0  0  0  0  0  0  0  0  0  0  0  0
   -0.4486    3.7020    0.6489 H   0  0  0  0  0  0  0  0  0  0  0  0
  5  6  2  0  0  0  0
  5  7  1  0  0  0  0
  2  3  1  0  0  0  0
  2  4  1  0  0  0  0
  2  5  1  0  0  0  0
  1  2  1  0  0  0  0
 26 27  2  0  0  0  0
 26 28  1  0  0  0  0
 24 25  1  0  0  0  0
 22 23  1  0  0  0  0
 22 24  2  0  0  0  0
 20 21  1  0  0  0  0
 19 20  1  0  0  0  0
 19 22  1  0  0  0  0
 17 18  1  0  0  0  0
 17 19  2  0  0  0  0
 15 16  1  0  0  0  0
 15 17  1  0  0  0  0
 14 15  2  0  0  0  0
 14 24  1  0  0  0  0
 11 12  1  0  0  0  0
 11 13  1  0  0  0  0
 11 14  1  0  0  0  0
  9 10  1  0  0  0  0
  9 11  1  0  0  0  0
  9 26  1  0  0  0  0
  7  8  1  0  0  0  0
  7  9  1  0  0  0  0
 30 31  1  0  0  0  0
 30 32  1  0  0  0  0
 30 33  1  0  0  0  0
 28 29  1  0  0  0  0
 28 30  1  0  0  0  0
M  END
$$$$
default_name
  -OEChem-02102213163D

 33 33  0     1  0  0  0  0  0999 V2000
   -4.0702   -3.8485    1.4554 H   0  0  0  0  0  0  0  0  0  0  0  0
   -4.0012   -2.9605    0.8284 C   0  0  0  0  0  0  0  0  0  0  0  0
   -4.7652   -2.2435    1.1234 H   0  0  0  0  0  0  0  0  0  0  0  0
   -4.1352   -3.2385   -0.2156 H   0  0  0  0  0  0  0  0  0  0  0  0
   -2.6362   -2.3395    1.0094 C   0  0  0  0  0  0  0  0  0  0  0  0
   -1.8292   -2.8395    1.7814 O   0  0  0  0  0  0  0  0  0  0  0  0
   -2.3832   -1.2445    0.2964 N   0  0  0  0  0  0  0  0  0  0  0  0
   -3.1102   -0.8685   -0.2946 H   0  0  0  0  0  0  0  0  0  0  0  0
   -1.1292   -0.4875    0.3524 C   0  0  1  0  0  0  0  0  0  0  0  0
   -0.5898   -0.7762    1.2552 H   0  0  0  0  0  0  0  0  0  0  0  0
   -0.2608   -0.8470   -0.8656 C   0  0  0  0  0  0  0  0  0  0  0  0
   -0.2830   -0.0177   -1.5738 H   0  0  0  0  0  0  0  0  0  0  0  0
    0.7730   -0.9699   -0.5385 H   0  0  0  0  0  0  0  0  0  0  0  0
   -0.7095   -2.0996   -1.5932 C   0  0  0  0  0  0  0  0  0  0  0  0
   -0.4591   -3.3716   -1.0404 C   0  0  0  0  0  0  0  0  0  0  0  0
    0.0785   -3.4592   -0.1054 H   0  0  0  0  0  0  0  0  0  0  0  0
   -0.9135   -4.5302   -1.7000 C   0  0  0  0  0  0  0  0  0  0  0  0
   -0.7186   -5.5027   -1.2746 H   0  0  0  0  0  0  0  0  0  0  0  0
   -1.6239   -4.4156   -2.9147 C   0  0  0  0  0  0  0  0  0  0  0  0
   -2.0689   -5.5268   -3.5570 O   0  0  0  0  0  0  0  0  0  0  0  0
   -1.7622   -6.3326   -3.1391 H   0  0  0  0  0  0  0  0  0  0  0  0
   -1.8778   -3.1417   -3.4639 C   0  0  0  0  0  0  0  0  0  0  0  0
   -2.4183   -3.0673   -4.3956 H   0  0  0  0  0  0  0  0  0  0  0  0
   -1.4184   -1.9858   -2.8046 C   0  0  0  0  0  0  0  0  0  0  0  0
   -1.6058   -1.0079   -3.2319 H   0  0  0  0  0  0  0  0  0  0  0  0
   -1.4018    1.0238    0.4329 C   0  0  0  0  0  0  0  0  0  0  0  0
   -2.2416    1.5423   -0.3033 O   0  0  0  0  0  0  0  0  0  0  0  0
   -0.6927    1.7304    1.3223 N   0  0  0  0  0  0  0  0  0  0  0  0
    0.0178    1.2410    1.8469 H   0  0  0  0  0  0  0  0  0  0  0  0
   -0.8259    3.1712    1.5254 C   0  0  0  0  0  0  0  0  0  0  0  0
   -1.8769    3.4302    1.6645 H   0  0  0  0  0  0  0  0  0  0  0  0
   -0.2598    3.4806    2.4054 H   0  0  0  0  0  0  0  0  0  0  0  0
   -0.4486    3.7020    0.6489 H   0  0  0  0  0  0  0  0  0  0  0  0
  5  6  2  0  0  0  0
  5  7  1  0  0  0  0
  2  3  1  0  0  0  0
  2  4  1  0  0  0  0
  2  5  1  0  0  0  0
  1  2  1  0  0  0  0
 26 27  2  0  0  0  0
 26 28  1  0  0  0  0
 24 25  1  0  0  0  0
 22 23  1  0  0  0  0
 22 24  2  0  0  0  0
 20 21  1  0  0  0  0
 19 20  1  0  0  0  0
 19 22  1  0  0  0  0
 17 18  1  0  0  0  0
 17 19  2  0  0  0  0
 15 16  1  0  0  0  0
 15 17  1  0  0  0  0
 14 15  2  0  0  0  0
 14 24  1  0  0  0  0
 11 12  1  0  0  0  0
 11 13  1  0  0  0  0
 11 14  1  0  0  0  0
  9 10  1  0  0  0  0
  9 11  1  0  0  0  0
  9 26  1  0  0  0  0
  7  8  1  0  0  0  0
  7  9  1  0  0  0  0
 30 31  1  0  0  0  0
 30 32  1  0  0  0  0
 30 33  1  0  0  0  0
 28 29  1  0  0  0  0
 28 30  1  0  0  0  0
M  END
$$$$
default_name
  -OEChem-02102213163D

 33 33  0     1  0  0  0  0  0999 V2000
   -4.0702   -3.8485    1.4554 H   0  0  0  0  0  0  0  0  0  0  0  0
   -4.0012   -2.9605    0.8284 C   0  0  0  0  0  0  0  0  0  0  0  0
   -4.7652   -2.2435    1.1234 H   0  0  0  0  0  0  0  0  0  0  0  0
   -4.1352   -3.2385   -0.2156 H   0  0  0  0  0  0  0  0  0  0  0  0
   -2.6362   -2.3395    1.0094 C   0  0  0  0  0  0  0  0  0  0  0  0
   -1.8292   -2.8395    1.7814 O   0  0  0  0  0  0  0  0  0  0  0  0
   -2.3832   -1.2445    0.2964 N   0  0  0  0  0  0  0  0  0  0  0  0
   -3.1102   -0.8685   -0.2946 H   0  0  0  0  0  0  0  0  0  0  0  0
   -1.1292   -0.4875    0.3524 C   0  0  1  0  0  0  0  0  0  0  0  0
   -0.5898   -0.7762    1.2552 H   0  0  0  0  0  0  0  0  0  0  0  0
   -0.2608   -0.8470   -0.8656 C   0  0  0  0  0  0  0  0  0  0  0  0
   -0.2830   -0.0177   -1.5738 H   0  0  0  0  0  0  0  0  0  0  0  0
    0.7730   -0.9699   -0.5385 H   0  0  0  0  0  0  0  0  0  0  0  0
   -0.7095   -2.0996   -1.5932 C   0  0  0  0  0  0  0  0  0  0  0  0
   -0.7510   -3.3371   -0.9199 C   0  0  0  0  0  0  0  0  0  0  0  0
   -0.4370   -3.4018    0.1136 H   0  0  0  0  0  0  0  0  0  0  0  0
   -1.2069   -4.4899   -1.5885 C   0  0  0  0  0  0  0  0  0  0  0  0
   -1.2359   -5.4361   -1.0703 H   0  0  0  0  0  0  0  0  0  0  0  0
   -1.6263   -4.4037   -2.9339 C   0  0  0  0  0  0  0  0  0  0  0  0
   -2.0704   -5.5091   -3.5866 O   0  0  0  0  0  0  0  0  0  0  0  0
   -1.9674   -6.3040   -3.0617 H   0  0  0  0  0  0  0  0  0  0  0  0
   -1.5887   -3.1636   -3.6046 C   0  0  0  0  0  0  0  0  0  0  0  0
   -1.9078   -3.1113   -4.6346 H   0  0  0  0  0  0  0  0  0  0  0  0
   -1.1281   -2.0140   -2.9350 C   0  0  0  0  0  0  0  0  0  0  0  0
   -1.0908   -1.0634   -3.4537 H   0  0  0  0  0  0  0  0  0  0  0  0
   -1.4018    1.0238    0.4329 C   0  0  0  0  0  0  0  0  0  0  0  0
   -2.2416    1.5423   -0.3033 O   0  0  0  0  0  0  0  0  0  0  0  0
   -0.6927    1.7304    1.3223 N   0  0  0  0  0  0  0  0  0  0  0  0
    0.0178    1.2410    1.8469 H   0  0  0  0  0  0  0  0  0  0  0  0
   -0.8259    3.1712    1.5254 C   0  0  0  0  0  0  0  0  0  0  0  0
   -1.8769    3.4302    1.6645 H   0  0  0  0  0  0  0  0  0  0  0  0
   -0.2598    3.4806    2.4054 H   0  0  0  0  0  0  0  0  0  0  0  0
   -0.4486    3.7020    0.6489 H   0  0  0  0  0  0  0  0  0  0  0  0
  5  6  2  0  0  0  0
  5  7  1  0  0  0  0
  2  3  1  0  0  0  0
  2  4  1  0  0  0  0
  2  5  1  0  0  0  0
  1  2  1  0  0  0  0
 26 27  2  0  0  0  0
 26 28  1  0  0  0  0
 24 25  1  0  0  0  0
 22 23  1  0  0  0  0
 22 24  2  0  0  0  0
 20 21  1  0  0  0  0
 19 20  1  0  0  0  0
 19 22  1  0  0  0  0
 17 18  1  0  0  0  0
 17 19  2  0  0  0  0
 15 16  1  0  0  0  0
 15 17  1  0  0  0  0
 14 15  2  0  0  0  0
 14 24  1  0  0  0  0
 11 12  1  0  0  0  0
 11 13  1  0  0  0  0
 11 14  1  0  0  0  0
  9 10  1  0  0  0  0
  9 11  1  0  0  0  0
  9 26  1  0  0  0  0
  7  8  1  0  0  0  0
  7  9  1  0  0  0  0
 30 31  1  0  0  0  0
 30 32  1  0  0  0  0
 30 33  1  0  0  0  0
 28 29  1  0  0  0  0
 28 30  1  0  0  0  0
M  END
$$$$
default_name
  -OEChem-02102213163D

 33 33  0     1  0  0  0  0  0999 V2000
   -4.0702   -3.8485    1.4554 H   0  0  0  0  0  0  0  0  0  0  0  0
   -4.0012   -2.9605    0.8284 C   0  0  0  0  0  0  0  0  0  0  0  0
   -4.7652   -2.2435    1.1234 H   0  0  0  0  0  0  0  0  0  0  0  0
   -4.1352   -3.2385   -0.2156 H   0  0  0  0  0  0  0  0  0  0  0  0
   -2.6362   -2.3395    1.0094 C   0  0  0  0  0  0  0  0  0  0  0  0
   -1.8292   -2.8395    1.7814 O   0  0  0  0  0  0  0  0  0  0  0  0
   -2.3832   -1.2445    0.2964 N   0  0  0  0  0  0  0  0  0  0  0  0
   -3.1102   -0.8685   -0.2946 H   0  0  0  0  0  0  0  0  0  0  0  0
   -1.1292   -0.4875    0.3524 C   0  0  1  0  0  0  0  0  0  0  0  0
   -0.5898   -0.7762    1.2552 H   0  0  0  0  0  0  0  0  0  0  0  0
   -0.2608   -0.8470   -0.8656 C   0  0  0  0  0  0  0  0  0  0  0  0
   -0.2830   -0.0177   -1.5738 H   0  0  0  0  0  0  0  0  0  0  0  0
    0.7730   -0.9699   -0.5385 H   0  0  0  0  0  0  0  0  0  0  0  0
   -0.7095   -2.0996   -1.5932 C   0  0  0  0  0  0  0  0  0  0  0  0
   -1.0543   -3.2582   -0.8686 C   0  0  0  0  0  0  0  0  0  0  0  0
   -0.9746   -3.2655    0.2106 H   0  0  0  0  0  0  0  0  0  0  0  0
   -1.5091   -4.4060   -1.5466 C   0  0  0  0  0  0  0  0  0  0  0  0
   -1.7708   -5.2919   -0.9887 H   0  0  0  0  0  0  0  0  0  0  0  0
   -1.6229   -4.3933   -2.9539 C   0  0  0  0  0  0  0  0  0  0  0  0
   -2.0633   -5.4941   -3.6168 O   0  0  0  0  0  0  0  0  0  0  0  0
   -2.1785   -6.2451   -3.0331 H   0  0  0  0  0  0  0  0  0  0  0  0
   -1.2821   -3.2314   -3.6769 C   0  0  0  0  0  0  0  0  0  0  0  0
   -1.3691   -3.2355   -4.7530 H   0  0  0  0  0  0  0  0  0  0  0  0
   -0.8234   -2.0873   -2.9968 C   0  0  0  0  0  0  0  0  0  0  0  0
   -0.5529   -1.1981   -3.5537 H   0  0  0  0  0  0  0  0  0  0  0  0
   -1.4018    1.0238    0.4329 C   0  0  0  0  0  0  0  0  0  0  0  0
   -2.2416    1.5423   -0.3033 O   0  0  0  0  0  0  0  0  0  0  0  0
   -0.6927    1.7304    1.3223 N   0  0  0  0  0  0  0  0  0  0  0  0
    0.0178    1.2410    1.8469 H   0  0  0  0  0  0  0  0  0  0  0  0
   -0.8259    3.1712    1.5254 C   0  0  0  0  0  0  0  0  0  0  0  0
   -1.8769    3.4302    1.6645 H   0  0  0  0  0  0  0  0  0  0  0  0
   -0.2598    3.4806    2.4054 H   0  0  0  0  0  0  0  0  0  0  0  0
   -0.4486    3.7020    0.6489 H   0  0  0  0  0  0  0  0  0  0  0  0
  5  6  2  0  0  0  0
  5  7  1  0  0  0  0
  2  3  1  0  0  0  0
  2  4  1  0  0  0  0
  2  5  1  0  0  0  0
  1  2  1  0  0  0  0
 26 27  2  0  0  0  0
 26 28  1  0  0  0  0
 24 25  1  0  0  0  0
 22 23  1  0  0  0  0
 22 24  2  0  0  0  0
 20 21  1  0  0  0  0
 19 20  1  0  0  0  0
 19 22  1  0  0  0  0
 17 18  1  0  0  0  0
 17 19  2  0  0  0  0
 15 16  1  0  0  0  0
 15 17  1  0  0  0  0
 14 15  2  0  0  0  0
 14 24  1  0  0  0  0
 11 12  1  0  0  0  0
 11 13  1  0  0  0  0
 11 14  1  0  0  0  0
  9 10  1  0  0  0  0
  9 11  1  0  0  0  0
  9 26  1  0  0  0  0
  7  8  1  0  0  0  0
  7  9  1  0  0  0  0
 30 31  1  0  0  0  0
 30 32  1  0  0  0  0
 30 33  1  0  0  0  0
 28 29  1  0  0  0  0
 28 30  1  0  0  0  0
M  END
$$$$
default_name
  -OEChem-02102213163D

 33 33  0     1  0  0  0  0  0999 V2000
   -4.0702   -3.8485    1.4554 H   0  0  0  0  0  0  0  0  0  0  0  0
   -4.0012   -2.9605    0.8284 C   0  0  0  0  0  0  0  0  0  0  0  0
   -4.7652   -2.2435    1.1234 H   0  0  0  0  0  0  0  0  0  0  0  0
   -4.1352   -3.2385   -0.2156 H   0  0  0  0  0  0  0  0  0  0  0  0
   -2.6362   -2.3395    1.0094 C   0  0  0  0  0  0  0  0  0  0  0  0
   -1.8292   -2.8395    1.7814 O   0  0  0  0  0  0  0  0  0  0  0  0
   -2.3832   -1.2445    0.2964 N   0  0  0  0  0  0  0  0  0  0  0  0
   -3.1102   -0.8685   -0.2946 H   0  0  0  0  0  0  0  0  0  0  0  0
   -1.1292   -0.4875    0.3524 C   0  0  1  0  0  0  0  0  0  0  0  0
   -0.5898   -0.7762    1.2552 H   0  0  0  0  0  0  0  0  0  0  0  0
   -0.2608   -0.8470   -0.8656 C   0  0  0  0  0  0  0  0  0  0  0  0
   -0.2830   -0.0177   -1.5738 H   0  0  0  0  0  0  0  0  0  0  0  0
    0.7730   -0.9699   -0.5385 H   0  0  0  0  0  0  0  0  0  0  0  0
   -0.7095   -2.0996   -1.5932 C   0  0  0  0  0  0  0  0  0  0  0  0
   -1.3485   -3.1405   -0.8900 C   0  0  0  0  0  0  0  0  0  0  0  0
   -1.4978   -3.0597    0.1788 H   0  0  0  0  0  0  0  0  0  0  0  0
   -1.7996   -4.2842   -1.5772 C   0  0  0  0  0  0  0  0  0  0  0  0
   -2.2872   -5.0800   -1.0353 H   0  0  0  0  0  0  0  0  0  0  0  0
   -1.6141   -4.3852   -2.9732 C   0  0  0  0  0  0  0  0  0  0  0  0
   -2.0482   -5.4827   -3.6456 O   0  0  0  0  0  0  0  0  0  0  0  0
   -2.3813   -6.1597   -3.0550 H   0  0  0  0  0  0  0  0  0  0  0  0
   -0.9788   -3.3405   -3.6761 C   0  0  0  0  0  0  0  0  0  0  0  0
   -0.8389   -3.4314   -4.7427 H   0  0  0  0  0  0  0  0  0  0  0  0
   -0.5250   -2.2007   -2.9856 C   0  0  0  0  0  0  0  0  0  0  0  0
   -0.0287   -1.4026   -3.5249 H   0  0  0  0  0  0  0  0  0  0  0  0
   -1.4018    1.0238    0.4329 C   0  0  0  0  0  0  0  0  0  0  0  0
   -2.2416    1.5423   -0.3033 O   0  0  0  0  0  0  0  0  0  0  0  0
   -0.6927    1.7304    1.3223 N   0  0  0  0  0  0  0  0  0  0  0  0
    0.0178    1.2410    1.8469 H   0  0  0  0  0  0  0  0  0  0  0  0
   -0.8259    3.1712    1.5254 C   0  0  0  0  0  0  0  0  0  0  0  0
   -1.8769    3.4302    1.6645 H   0  0  0  0  0  0  0  0  0  0  0  0
   -0.2598    3.4806    2.4054 H   0  0  0  0  0  0  0  0  0  0  0  0
   -0.4486    3.7020    0.6489 H   0  0  0  0  0  0  0  0  0  0  0  0
  5  6  2  0  0  0  0
  5  7  1  0  0  0  0
  2  3  1  0  0  0  0
  2  4  1  0  0  0  0
  2  5  1  0  0  0  0
  1  2  1  0  0  0  0
 26 27  2  0  0  0  0
 26 28  1  0  0  0  0
 24 25  1  0  0  0  0
 22 23  1  0  0  0  0
 22 24  2  0  0  0  0
 20 21  1  0  0  0  0
 19 20  1  0  0  0  0
 19 22  1  0  0  0  0
 17 18  1  0  0  0  0
 17 19  2  0  0  0  0
 15 16  1  0  0  0  0
 15 17  1  0  0  0  0
 14 15  2  0  0  0  0
 14 24  1  0  0  0  0
 11 12  1  0  0  0  0
 11 13  1  0  0  0  0
 11 14  1  0  0  0  0
  9 10  1  0  0  0  0
  9 11  1  0  0  0  0
  9 26  1  0  0  0  0
  7  8  1  0  0  0  0
  7  9  1  0  0  0  0
 30 31  1  0  0  0  0
 30 32  1  0  0  0  0
 30 33  1  0  0  0  0
 28 29  1  0  0  0  0
 28 30  1  0  0  0  0
M  END
$$$$
default_name
  -OEChem-02102213163D

 33 33  0     1  0  0  0  0  0999 V2000
   -4.0702   -3.8485    1.4554 H   0  0  0  0  0  0  0  0  0  0  0  0
   -4.0012   -2.9605    0.8284 C   0  0  0  0  0  0  0  0  0  0  0  0
   -4.7652   -2.2435    1.1234 H   0  0  0  0  0  0  0  0  0  0  0  0
   -4.1352   -3.2385   -0.2156 H   0  0  0  0  0  0  0  0  0  0  0  0
   -2.6362   -2.3395    1.0094 C   0  0  0  0  0  0  0  0  0  0  0  0
   -1.8292   -2.8395    1.7814 O   0  0  0  0  0  0  0  0  0  0  0  0
   -2.3832   -1.2445    0.2964 N   0  0  0  0  0  0  0  0  0  0  0  0
   -3.1102   -0.8685   -0.2946 H   0  0  0  0  0  0  0  0  0  0  0  0
   -1.1292   -0.4875    0.3524 C   0  0  1  0  0  0  0  0  0  0  0  0
   -0.5898   -0.7762    1.2552 H   0  0  0  0  0  0  0  0  0  0  0  0
   -0.2608   -0.8470   -0.8656 C   0  0  0  0  0  0  0  0  0  0  0  0
   -0.2830   -0.0177   -1.5738 H   0  0  0  0  0  0  0  0  0  0  0  0
    0.7730   -0.9699   -0.5385 H   0  0  0  0  0  0  0  0  0  0  0  0
   -0.7095   -2.0996   -1.5932 C   0  0  0  0  0  0  0  0  0  0  0  0
   -1.6135   -2.9918   -0.9825 C   0  0  0  0  0  0  0  0  0  0  0  0
   -1.9707   -2.7984    0.0205 H   0  0  0  0  0  0  0  0  0  0  0  0
   -2.0585   -4.1328   -1.6781 C   0  0  0  0  0  0  0  0  0  0  0  0
   -2.7496   -4.8147   -1.2068 H   0  0  0  0  0  0  0  0  0  0  0  0
   -1.6005   -4.3800   -2.9907 C   0  0  0  0  0  0  0  0  0  0  0  0
   -2.0260   -5.4759   -3.6711 O   0  0  0  0  0  0  0  0  0  0  0  0
   -2.5619   -6.0537   -3.1261 H   0  0  0  0  0  0  0  0  0  0  0  0
   -0.6997   -3.4835   -3.6020 C   0  0  0  0  0  0  0  0  0  0  0  0
   -0.3533   -3.6857   -4.6044 H   0  0  0  0  0  0  0  0  0  0  0  0
   -0.2531   -2.3464   -2.9024 C   0  0  0  0  0  0  0  0  0  0  0  0
    0.4461   -1.6630   -3.3693 H   0  0  0  0  0  0  0  0  0  0  0  0
   -1.4018    1.0238    0.4329 C   0  0  0  0  0  0  0  0  0  0  0  0
   -2.2416    1.5423   -0.3033 O   0  0  0  0  0  0  0  0  0  0  0  0
   -0.6927    1.7304    1.3223 N   0  0  0  0  0  0  0  0  0  0  0  0
    0.0178    1.2410    1.8469 H   0  0  0  0  0  0  0  0  0  0  0  0
   -0.8259    3.1712    1.5254 C   0  0  0  0  0  0  0  0  0  0  0  0
   -1.8769    3.4302    1.6645 H   0  0  0  0  0  0  0  0  0  0  0  0
   -0.2598    3.4806    2.4054 H   0  0  0  0  0  0  0  0  0  0  0  0
   -0.4486    3.7020    0.6489 H   0  0  0  0  0  0  0  0  0  0  0  0
  5  6  2  0  0  0  0
  5  7  1  0  0  0  0
  2  3  1  0  0  0  0
  2  4  1  0  0  0  0
  2  5  1  0  0  0  0
  1  2  1  0  0  0  0
 26 27  2  0  0  0  0
 26 28  1  0  0  0  0
 24 25  1  0  0  0  0
 22 23  1  0  0  0  0
 22 24  2  0  0  0  0
 20 21  1  0  0  0  0
 19 20  1  0  0  0  0
 19 22  1  0  0  0  0
 17 18  1  0  0  0  0
 17 19  2  0  0  0  0
 15 16  1  0  0  0  0
 15 17  1  0  0  0  0
 14 15  2  0  0  0  0
 14 24  1  0  0  0  0
 11 12  1  0  0  0  0
 11 13  1  0  0  0  0
 11 14  1  0  0  0  0
  9 10  1  0  0  0  0
  9 11  1  0  0  0  0
  9 26  1  0  0  0  0
  7  8  1  0  0  0  0
  7  9  1  0  0  0  0
 30 31  1  0  0  0  0
 30 32  1  0  0  0  0
 30 33  1  0  0  0  0
 28 29  1  0  0  0  0
 28 30  1  0  0  0  0
M  END
$$$$
default_name
  -OEChem-02102213163D

 33 33  0     1  0  0  0  0  0999 V2000
   -4.0702   -3.8485    1.4554 H   0  0  0  0  0  0  0  0  0  0  0  0
   -4.0012   -2.9605    0.8284 C   0  0  0  0  0  0  0  0  0  0  0  0
   -4.7652   -2.2435    1.1234 H   0  0  0  0  0  0  0  0  0  0  0  0
   -4.1352   -3.2385   -0.2156 H   0  0  0  0  0  0  0  0  0  0  0  0
   -2.6362   -2.3395    1.0094 C   0  0  0  0  0  0  0  0  0  0  0  0
   -1.8292   -2.8395    1.7814 O   0  0  0  0  0  0  0  0  0  0  0  0
   -2.3832   -1.2445    0.2964 N   0  0  0  0  0  0  0  0  0  0  0  0
   -3.1102   -0.8685   -0.2946 H   0  0  0  0  0  0  0  0  0  0  0  0
   -1.1292   -0.4875    0.3524 C   0  0  1  0  0  0  0  0  0  0  0  0
   -0.5898   -0.7762    1.2552 H   0  0  0  0  0  0  0  0  0  0  0  0
   -0.2608   -0.8470   -0.8656 C   0  0  0  0  0  0  0  0  0  0  0  0
   -0.2830   -0.0177   -1.5738 H   0  0  0  0  0  0  0  0  0  0  0  0
    0.7730   -0.9699   -0.5385 H   0  0  0  0  0  0  0  0  0  0  0  0
   -0.7095   -2.0996   -1.5932 C   0  0  0  0  0  0  0  0  0  0  0  0
   -1.8312   -2.8224   -1.1398 C   0  0  0  0  0  0  0  0  0  0  0  0
   -2.3613   -2.4993   -0.2534 H   0  0  0  0  0  0  0  0  0  0  0  0
   -2.2683   -3.9621   -1.8426 C   0  0  0  0  0  0  0  0  0  0  0  0
   -3.1266   -4.5141   -1.4917 H   0  0  0  0  0  0  0  0  0  0  0  0
   -1.5830   -4.3779   -3.0050 C   0  0  0  0  0  0  0  0  0  0  0  0
   -1.9983   -5.4740   -3.6914 O   0  0  0  0  0  0  0  0  0  0  0  0
   -2.7079   -5.9344   -3.2415 H   0  0  0  0  0  0  0  0  0  0  0  0
   -0.4636   -3.6506   -3.4599 C   0  0  0  0  0  0  0  0  0  0  0  0
    0.0547   -3.9810   -4.3475 H   0  0  0  0  0  0  0  0  0  0  0  0
   -0.0265   -2.5145   -2.7527 C   0  0  0  0  0  0  0  0  0  0  0  0
    0.8392   -1.9616   -3.0976 H   0  0  0  0  0  0  0  0  0  0  0  0
   -1.4018    1.0238    0.4329 C   0  0  0  0  0  0  0  0  0  0  0  0
   -2.2416    1.5423   -0.3033 O   0  0  0  0  0  0  0  0  0  0  0  0
   -0.6927    1.7304    1.3223 N   0  0  0  0  0  0  0  0  0  0  0  0
    0.0178    1.2410    1.8469 H   0  0  0  0  0  0  0  0  0  0  0  0
   -0.8259    3.1712    1.5254 C   0  0  0  0  0  0  0  0  0  0  0  0
   -1.8769    3.4302    1.6645 H   0  0  0  0  0  0  0  0  0  0  0  0
   -0.2598    3.4806    2.4054 H   0  0  0  0  0  0  0  0  0  0  0  0
   -0.4486    3.7020    0.6489 H   0  0  0  0  0  0  0  0  0  0  0  0
  5  6  2  0  0  0  0
  5  7  1  0  0  0  0
  2  3  1  0  0  0  0
  2  4  1  0  0  0  0
  2  5  1  0  0  0  0
  1  2  1  0  0  0  0
 26 27  2  0  0  0  0
 26 28  1  0  0  0  0
 24 25  1  0  0  0  0
 22 23  1  0  0  0  0
 22 24  2  0  0  0  0
 20 21  1  0  0  0  0
 19 20  1  0  0  0  0
 19 22  1  0  0  0  0
 17 18  1  0  0  0  0
 17 19  2  0  0  0  0
 15 16  1  0  0  0  0
 15 17  1  0  0  0  0
 14 15  2  0  0  0  0
 14 24  1  0  0  0  0
 11 12  1  0  0  0  0
 11 13  1  0  0  0  0
 11 14  1  0  0  0  0
  9 10  1  0  0  0  0
  9 11  1  0  0  0  0
  9 26  1  0  0  0  0
  7  8  1  0  0  0  0
  7  9  1  0  0  0  0
 30 31  1  0  0  0  0
 30 32  1  0  0  0  0
 30 33  1  0  0  0  0
 28 29  1  0  0  0  0
 28 30  1  0  0  0  0
M  END
$$$$
default_name
  -OEChem-02102213163D

 33 33  0     1  0  0  0  0  0999 V2000
   -4.0702   -3.8485    1.4554 H   0  0  0  0  0  0  0  0  0  0  0  0
   -4.0012   -2.9605    0.8284 C   0  0  0  0  0  0  0  0  0  0  0  0
   -4.7652   -2.2435    1.1234 H   0  0  0  0  0  0  0  0  0  0  0  0
   -4.1352   -3.2385   -0.2156 H   0  0  0  0  0  0  0  0  0  0  0  0
   -2.6362   -2.3395    1.0094 C   0  0  0  0  0  0  0  0  0  0  0  0
   -1.8292   -2.8395    1.7814 O   0  0  0  0  0  0  0  0  0  0  0  0
   -2.3832   -1.2445    0.2964 N   0  0  0  0  0  0  0  0  0  0  0  0
   -3.1102   -0.8685   -0.2946 H   0  0  0  0  0  0  0  0  0  0  0  0
   -1.1292   -0.4875    0.3524 C   0  0  1  0  0  0  0  0  0  0  0  0
   -0.5898   -0.7762    1.2552 H   0  0  0  0  0  0  0  0  0  0  0  0
   -0.2608   -0.8470   -0.8656 C   0  0  0  0  0  0  0  0  0  0  0  0
   -0.2830   -0.0177   -1.5738 H   0  0  0  0  0  0  0  0  0  0  0  0
    0.7730   -0.9699   -0.5385 H   0  0  0  0  0  0  0  0  0  0  0  0
   -0.7095   -2.0996   -1.5932 C   0  0  0  0  0  0  0  0  0  0  0  0
   -1.9869   -2.6438   -1.3514 C   0  0  0  0  0  0  0  0  0  0  0  0
   -2.6428   -2.1829   -0.6245 H   0  0  0  0  0  0  0  0  0  0  0  0
   -2.4145   -3.7839   -2.0594 C   0  0  0  0  0  0  0  0  0  0  0  0
   -3.3926   -4.1988   -1.8706 H   0  0  0  0  0  0  0  0  0  0  0  0
   -1.5627   -4.3792   -3.0152 C   0  0  0  0  0  0  0  0  0  0  0  0
   -1.9669   -5.4771   -3.7053 O   0  0  0  0  0  0  0  0  0  0  0  0
   -2.8095   -5.8098   -3.3933 H   0  0  0  0  0  0  0  0  0  0  0  0
   -0.2867   -3.8304   -3.2594 C   0  0  0  0  0  0  0  0  0  0  0  0
    0.3571   -4.2973   -3.9895 H   0  0  0  0  0  0  0  0  0  0  0  0
    0.1396   -2.6936   -2.5468 C   0  0  0  0  0  0  0  0  0  0  0  0
    1.1237   -2.2780   -2.7283 H   0  0  0  0  0  0  0  0  0  0  0  0
   -1.4018    1.0238    0.4329 C   0  0  0  0  0  0  0  0  0  0  0  0
   -2.2416    1.5423   -0.3033 O   0  0  0  0  0  0  0  0  0  0  0  0
   -0.6927    1.7304    1.3223 N   0  0  0  0  0  0  0  0  0  0  0  0
    0.0178    1.2410    1.8469 H   0  0  0  0  0  0  0  0  0  0  0  0
   -0.8259    3.1712    1.5254 C   0  0  0  0  0  0  0  0  0  0  0  0
   -1.8769    3.4302    1.6645 H   0  0  0  0  0  0  0  0  0  0  0  0
   -0.2598    3.4806    2.4054 H   0  0  0  0  0  0  0  0  0  0  0  0
   -0.4486    3.7020    0.6489 H   0  0  0  0  0  0  0  0  0  0  0  0
  5  6  2  0  0  0  0
  5  7  1  0  0  0  0
  2  3  1  0  0  0  0
  2  4  1  0  0  0  0
  2  5  1  0  0  0  0
  1  2  1  0  0  0  0
 26 27  2  0  0  0  0
 26 28  1  0  0  0  0
 24 25  1  0  0  0  0
 22 23  1  0  0  0  0
 22 24  2  0  0  0  0
 20 21  1  0  0  0  0
 19 20  1  0  0  0  0
 19 22  1  0  0  0  0
 17 18  1  0  0  0  0
 17 19  2  0  0  0  0
 15 16  1  0  0  0  0
 15 17  1  0  0  0  0
 14 15  2  0  0  0  0
 14 24  1  0  0  0  0
 11 12  1  0  0  0  0
 11 13  1  0  0  0  0
 11 14  1  0  0  0  0
  9 10  1  0  0  0  0
  9 11  1  0  0  0  0
  9 26  1  0  0  0  0
  7  8  1  0  0  0  0
  7  9  1  0  0  0  0
 30 31  1  0  0  0  0
 30 32  1  0  0  0  0
 30 33  1  0  0  0  0
 28 29  1  0  0  0  0
 28 30  1  0  0  0  0
M  END
$$$$
default_name
  -OEChem-02102213163D

 33 33  0     1  0  0  0  0  0999 V2000
   -4.0702   -3.8485    1.4554 H   0  0  0  0  0  0  0  0  0  0  0  0
   -4.0012   -2.9605    0.8284 C   0  0  0  0  0  0  0  0  0  0  0  0
   -4.7652   -2.2435    1.1234 H   0  0  0  0  0  0  0  0  0  0  0  0
   -4.1352   -3.2385   -0.2156 H   0  0  0  0  0  0  0  0  0  0  0  0
   -2.6362   -2.3395    1.0094 C   0  0  0  0  0  0  0  0  0  0  0  0
   -1.8292   -2.8395    1.7814 O   0  0  0  0  0  0  0  0  0  0  0  0
   -2.3832   -1.2445    0.2964 N   0  0  0  0  0  0  0  0  0  0  0  0
   -3.1102   -0.8685   -0.2946 H   0  0  0  0  0  0  0  0  0  0  0  0
   -1.1292   -0.4875    0.3524 C   0  0  1  0  0  0  0  0  0  0  0  0
   -0.5898   -0.7762    1.2552 H   0  0  0  0  0  0  0  0  0  0  0  0
   -0.2608   -0.8470   -0.8656 C   0  0  0  0  0  0  0  0  0  0  0  0
   -0.2830   -0.0177   -1.5738 H   0  0  0  0  0  0  0  0  0  0  0  0
    0.7730   -0.9699   -0.5385 H   0  0  0  0  0  0  0  0  0  0  0  0
   -0.7095   -2.0996   -1.5932 C   0  0  0  0  0  0  0  0  0  0  0  0
   -2.0698   -2.4681   -1.6027 C   0  0  0  0  0  0  0  0  0  0  0  0
   -2.7962   -1.8708   -1.0673 H   0  0  0  0  0  0  0  0  0  0  0  0
   -2.4872   -3.6101   -2.3137 C   0  0  0  0  0  0  0  0  0  0  0  0
   -3.5294   -3.8902   -2.3175 H   0  0  0  0  0  0  0  0  0  0  0  0
   -1.5411   -4.3838   -3.0207 C   0  0  0  0  0  0  0  0  0  0  0  0
   -1.9340   -5.4851   -3.7118 O   0  0  0  0  0  0  0  0  0  0  0  0
   -2.8597   -5.6885   -3.5712 H   0  0  0  0  0  0  0  0  0  0  0  0
   -0.1811   -4.0108   -3.0141 C   0  0  0  0  0  0  0  0  0  0  0  0
    0.5335   -4.6129   -3.5549 H   0  0  0  0  0  0  0  0  0  0  0  0
    0.2338   -2.8714   -2.2987 C   0  0  0  0  0  0  0  0  0  0  0  0
    1.2802   -2.5907   -2.2865 H   0  0  0  0  0  0  0  0  0  0  0  0
   -1.4018    1.0238    0.4329 C   0  0  0  0  0  0  0  0  0  0  0  0
   -2.2416    1.5423   -0.3033 O   0  0  0  0  0  0  0  0  0  0  0  0
   -0.6927    1.7304    1.3223 N   0  0  0  0  0  0  0  0  0  0  0  0
    0.0178    1.2410    1.8469 H   0  0  0  0  0  0  0  0  0  0  0  0
   -0.8259    3.1712    1.5254 C   0  0  0  0  0  0  0  0  0  0  0  0
   -1.8769    3.4302    1.6645 H   0  0  0  0  0  0  0  0  0  0  0  0
   -0.2598    3.4806    2.4054 H   0  0  0  0  0  0  0  0  0  0  0  0
   -0.4486    3.7020    0.6489 H   0  0  0  0  0  0  0  0  0  0  0  0
  5  6  2  0  0  0  0
  5  7  1  0  0  0  0
  2  3  1  0  0  0  0
  2  4  1  0  0  0  0
  2  5  1  0  0  0  0
  1  2  1  0  0  0  0
 26 27  2  0  0  0  0
 26 28  1  0  0  0  0
 24 25  1  0  0  0  0
 22 23  1  0  0  0  0
 22 24  2  0  0  0  0
 20 21  1  0  0  0  0
 19 20  1  0  0  0  0
 19 22  1  0  0  0  0
 17 18  1  0  0  0  0
 17 19  2  0  0  0  0
 15 16  1  0  0  0  0
 15 17  1  0  0  0  0
 14 15  2  0  0  0  0
 14 24  1  0  0  0  0
 11 12  1  0  0  0  0
 11 13  1  0  0  0  0
 11 14  1  0  0  0  0
  9 10  1  0  0  0  0
  9 11  1  0  0  0  0
  9 26  1  0  0  0  0
  7  8  1  0  0  0  0
  7  9  1  0  0  0  0
 30 31  1  0  0  0  0
 30 32  1  0  0  0  0
 30 33  1  0  0  0  0
 28 29  1  0  0  0  0
 28 30  1  0  0  0  0
M  END
$$$$
default_name
  -OEChem-02102213163D

 33 33  0     1  0  0  0  0  0999 V2000
   -4.0702   -3.8485    1.4554 H   0  0  0  0  0  0  0  0  0  0  0  0
   -4.0012   -2.9605    0.8284 C   0  0  0  0  0  0  0  0  0  0  0  0
   -4.7652   -2.2435    1.1234 H   0  0  0  0  0  0  0  0  0  0  0  0
   -4.1352   -3.2385   -0.2156 H   0  0  0  0  0  0  0  0  0  0  0  0
   -2.6362   -2.3395    1.0094 C   0  0  0  0  0  0  0  0  0  0  0  0
   -1.8292   -2.8395    1.7814 O   0  0  0  0  0  0  0  0  0  0  0  0
   -2.3832   -1.2445    0.2964 N   0  0  0  0  0  0  0  0  0  0  0  0
   -3.1102   -0.8685   -0.2946 H   0  0  0  0  0  0  0  0  0  0  0  0
   -1.1292   -0.4875    0.3524 C   0  0  1  0  0  0  0  0  0  0  0  0
   -0.5898   -0.7762    1.2552 H   0  0  0  0  0  0  0  0  0  0  0  0
   -0.2608   -0.8470   -0.8656 C   0  0  0  0  0  0  0  0  0  0  0  0
   -0.2830   -0.0177   -1.5738 H   0  0  0  0  0  0  0  0  0  0  0  0
    0.7730   -0.9699   -0.5385 H   0  0  0  0  0  0  0  0  0  0  0  0
   -0.7095   -2.0996   -1.5932 C   0  0  0  0  0  0  0  0  0  0  0  0
   -2.0743   -2.3074   -1.8766 C   0  0  0  0  0  0  0  0  0  0  0  0
   -2.8108   -1.5842   -1.5517 H   0  0  0  0  0  0  0  0  0  0  0  0
   -2.4815   -3.4527   -2.5882 C   0  0  0  0  0  0  0  0  0  0  0  0
   -3.5276   -3.6094   -2.8021 H   0  0  0  0  0  0  0  0  0  0  0  0
   -1.5196   -4.3913   -3.0210 C   0  0  0  0  0  0  0  0  0  0  0  0
   -1.9019   -5.4975   -3.7105 O   0  0  0  0  0  0  0  0  0  0  0  0
   -2.8551   -5.5787   -3.7630 H   0  0  0  0  0  0  0  0  0  0  0  0
   -0.1538   -4.1793   -2.7408 C   0  0  0  0  0  0  0  0  0  0  0  0
    0.5717   -4.9064   -3.0732 H   0  0  0  0  0  0  0  0  0  0  0  0
    0.2496   -3.0359   -2.0253 C   0  0  0  0  0  0  0  0  0  0  0  0
    1.2982   -2.8783   -1.8024 H   0  0  0  0  0  0  0  0  0  0  0  0
   -1.4018    1.0238    0.4329 C   0  0  0  0  0  0  0  0  0  0  0  0
   -2.2416    1.5423   -0.3033 O   0  0  0  0  0  0  0  0  0  0  0  0
   -0.6927    1.7304    1.3223 N   0  0  0  0  0  0  0  0  0  0  0  0
    0.0178    1.2410    1.8469 H   0  0  0  0  0  0  0  0  0  0  0  0
   -0.8259    3.1712    1.5254 C   0  0  0  0  0  0  0  0  0  0  0  0
   -1.8769    3.4302    1.6645 H   0  0  0  0  0  0  0  0  0  0  0  0
   -0.2598    3.4806    2.4054 H   0  0  0  0  0  0  0  0  0  0  0  0
   -0.4486    3.7020    0.6489 H   0  0  0  0  0  0  0  0  0  0  0  0
  5  6  2  0  0  0  0
  5  7  1  0  0  0  0
  2  3  1  0  0  0  0
  2  4  1  0  0  0  0
  2  5  1  0  0  0  0
  1  2  1  0  0  0  0
 26 27  2  0  0  0  0
 26 28  1  0  0  0  0
 24 25  1  0  0  0  0
 22 23  1  0  0  0  0
 22 24  2  0  0  0  0
 20 21  1  0  0  0  0
 19 20  1  0  0  0  0
 19 22  1  0  0  0  0
 17 18  1  0  0  0  0
 17 19  2  0  0  0  0
 15 16  1  0  0  0  0
 15 17  1  0  0  0  0
 14 15  2  0  0  0  0
 14 24  1  0  0  0  0
 11 12  1  0  0  0  0
 11 13  1  0  0  0  0
 11 14  1  0  0  0  0
  9 10  1  0  0  0  0
  9 11  1  0  0  0  0
  9 26  1  0  0  0  0
  7  8  1  0  0  0  0
  7  9  1  0  0  0  0
 30 31  1  0  0  0  0
 30 32  1  0  0  0  0
 30 33  1  0  0  0  0
 28 29  1  0  0  0  0
 28 30  1  0  0  0  0
M  END
$$$$
default_name
  -OEChem-02102213163D

 33 33  0     1  0  0  0  0  0999 V2000
   -4.0702   -3.8485    1.4554 H   0  0  0  0  0  0  0  0  0  0  0  0
   -4.0012   -2.9605    0.8284 C   0  0  0  0  0  0  0  0  0  0  0  0
   -4.7652   -2.2435    1.1234 H   0  0  0  0  0  0  0  0  0  0  0  0
   -4.1352   -3.2385   -0.2156 H   0  0  0  0  0  0  0  0  0  0  0  0
   -2.6362   -2.3395    1.0094 C   0  0  0  0  0  0  0  0  0  0  0  0
   -1.8292   -2.8395    1.7814 O   0  0  0  0  0  0  0  0  0  0  0  0
   -2.3832   -1.2445    0.2964 N   0  0  0  0  0  0  0  0  0  0  0  0
   -3.1102   -0.8685   -0.2946 H   0  0  0  0  0  0  0  0  0  0  0  0
   -1.1292   -0.4875    0.3524 C   0  0  1  0  0  0  0  0  0  0  0  0
   -0.5898   -0.7762    1.2552 H   0  0  0  0  0  0  0  0  0  0  0  0
   -0.2608   -0.8470   -0.8656 C   0  0  0  0  0  0  0  0  0  0  0  0
   -0.2830   -0.0177   -1.5738 H   0  0  0  0  0  0  0  0  0  0  0  0
    0.7730   -0.9699   -0.5385 H   0  0  0  0  0  0  0  0  0  0  0  0
   -0.7095   -2.0996   -1.5932 C   0  0  0  0  0  0  0  0  0  0  0  0
   -2.0002   -2.1726   -2.1544 C   0  0  0  0  0  0  0  0  0  0  0  0
   -2.6859   -1.3426   -2.0447 H   0  0  0  0  0  0  0  0  0  0  0  0
   -2.3978   -3.3223   -2.8641 C   0  0  0  0  0  0  0  0  0  0  0  0
   -3.3875   -3.3754   -3.2912 H   0  0  0  0  0  0  0  0  0  0  0  0
   -1.4998   -4.4012   -3.0161 C   0  0  0  0  0  0  0  0  0  0  0  0
   -1.8727   -5.5132   -3.7013 O   0  0  0  0  0  0  0  0  0  0  0  0
   -2.7960   -5.4879   -3.9558 H   0  0  0  0  0  0  0  0  0  0  0  0
   -0.2069   -4.3245   -2.4580 C   0  0  0  0  0  0  0  0  0  0  0  0
    0.4692   -5.1577   -2.5772 H   0  0  0  0  0  0  0  0  0  0  0  0
    0.1860   -3.1758   -1.7453 C   0  0  0  0  0  0  0  0  0  0  0  0
    1.1763   -3.1214   -1.3088 H   0  0  0  0  0  0  0  0  0  0  0  0
   -1.4018    1.0238    0.4329 C   0  0  0  0  0  0  0  0  0  0  0  0
   -2.2416    1.5423   -0.3033 O   0  0  0  0  0  0  0  0  0  0  0  0
   -0.6927    1.7304    1.3223 N   0  0  0  0  0  0  0  0  0  0  0  0
    0.0178    1.2410    1.8469 H   0  0  0  0  0  0  0  0  0  0  0  0
   -0.8259    3.1712    1.5254 C   0  0  0  0  0  0  0  0  0  0  0  0
   -1.8769    3.4302    1.6645 H   0  0  0  0  0  0  0  0  0  0  0  0
   -0.2598    3.4806    2.4054 H   0  0  0  0  0  0  0  0  0  0  0  0
   -0.4486    3.7020    0.6489 H   0  0  0  0  0  0  0  0  0  0  0  0
  5  6  2  0  0  0  0
  5  7  1  0  0  0  0
  2  3  1  0  0  0  0
  2  4  1  0  0  0  0
  2  5  1  0  0  0  0
  1  2  1  0  0  0  0
 26 27  2  0  0  0  0
 26 28  1  0  0  0  0
 24 25  1  0  0  0  0
 22 23  1  0  0  0  0
 22 24  2  0  0  0  0
 20 21  1  0  0  0  0
 19 20  1  0  0  0  0
 19 22  1  0  0  0  0
 17 18  1  0  0  0  0
 17 19  2  0  0  0  0
 15 16  1  0  0  0  0
 15 17  1  0  0  0  0
 14 15  2  0  0  0  0
 14 24  1  0  0  0  0
 11 12  1  0  0  0  0
 11 13  1  0  0  0  0
 11 14  1  0  0  0  0
  9 10  1  0  0  0  0
  9 11  1  0  0  0  0
  9 26  1  0  0  0  0
  7  8  1  0  0  0  0
  7  9  1  0  0  0  0
 30 31  1  0  0  0  0
 30 32  1  0  0  0  0
 30 33  1  0  0  0  0
 28 29  1  0  0  0  0
 28 30  1  0  0  0  0
M  END
$$$$
default_name
  -OEChem-02102213163D

 33 33  0     1  0  0  0  0  0999 V2000
   -4.0702   -3.8485    1.4554 H   0  0  0  0  0  0  0  0  0  0  0  0
   -4.0012   -2.9605    0.8284 C   0  0  0  0  0  0  0  0  0  0  0  0
   -4.7652   -2.2435    1.1234 H   0  0  0  0  0  0  0  0  0  0  0  0
   -4.1352   -3.2385   -0.2156 H   0  0  0  0  0  0  0  0  0  0  0  0
   -2.6362   -2.3395    1.0094 C   0  0  0  0  0  0  0  0  0  0  0  0
   -1.8292   -2.8395    1.7814 O   0  0  0  0  0  0  0  0  0  0  0  0
   -2.3832   -1.2445    0.2964 N   0  0  0  0  0  0  0  0  0  0  0  0
   -3.1102   -0.8685   -0.2946 H   0  0  0  0  0  0  0  0  0  0  0  0
   -1.1292   -0.4875    0.3524 C   0  0  1  0  0  0  0  0  0  0  0  0
   -0.5898   -0.7762    1.2552 H   0  0  0  0  0  0  0  0  0  0  0  0
   -0.2608   -0.8470   -0.8656 C   0  0  0  0  0  0  0  0  0  0  0  0
   -0.2830   -0.0177   -1.5738 H   0  0  0  0  0  0  0  0  0  0  0  0
    0.7730   -0.9699   -0.5385 H   0  0  0  0  0  0  0  0  0  0  0  0
   -0.7095   -2.0996   -1.5932 C   0  0  0  0  0  0  0  0  0  0  0  0
   -1.8525   -2.0728   -2.4173 C   0  0  0  0  0  0  0  0  0  0  0  0
   -2.4297   -1.1625   -2.5127 H   0  0  0  0  0  0  0  0  0  0  0  0
   -2.2418   -3.2280   -3.1228 C   0  0  0  0  0  0  0  0  0  0  0  0
   -3.1185   -3.2043   -3.7517 H   0  0  0  0  0  0  0  0  0  0  0  0
   -1.4829   -4.4129   -3.0064 C   0  0  0  0  0  0  0  0  0  0  0  0
   -1.8483   -5.5314   -3.6850 O   0  0  0  0  0  0  0  0  0  0  0  0
   -2.6864   -5.4223   -4.1363 H   0  0  0  0  0  0  0  0  0  0  0  0
   -0.3366   -4.4366   -2.1852 C   0  0  0  0  0  0  0  0  0  0  0  0
    0.2329   -5.3498   -2.1009 H   0  0  0  0  0  0  0  0  0  0  0  0
    0.0473   -3.2816   -1.4776 C   0  0  0  0  0  0  0  0  0  0  0  0
    0.9228   -3.3032   -0.8396 H   0  0  0  0  0  0  0  0  0  0  0  0
   -1.4018    1.0238    0.4329 C   0  0  0  0  0  0  0  0  0  0  0  0
   -2.2416    1.5423   -0.3033 O   0  0  0  0  0  0  0  0  0  0  0  0
   -0.6927    1.7304    1.3223 N   0  0  0  0  0  0  0  0  0  0  0  0
    0.0178    1.2410    1.8469 H   0  0  0  0  0  0  0  0  0  0  0  0
   -0.8259    3.1712    1.5254 C   0  0  0  0  0  0  0  0  0  0  0  0
   -1.8769    3.4302    1.6645 H   0  0  0  0  0  0  0  0  0  0  0  0
   -0.2598    3.4806    2.4054 H   0  0  0  0  0  0  0  0  0  0  0  0
   -0.4486    3.7020    0.6489 H   0  0  0  0  0  0  0  0  0  0  0  0
  5  6  2  0  0  0  0
  5  7  1  0  0  0  0
  2  3  1  0  0  0  0
  2  4  1  0  0  0  0
  2  5  1  0  0  0  0
  1  2  1  0  0  0  0
 26 27  2  0  0  0  0
 26 28  1  0  0  0  0
 24 25  1  0  0  0  0
 22 23  1  0  0  0  0
 22 24  2  0  0  0  0
 20 21  1  0  0  0  0
 19 20  1  0  0  0  0
 19 22  1  0  0  0  0
 17 18  1  0  0  0  0
 17 19  2  0  0  0  0
 15 16  1  0  0  0  0
 15 17  1  0  0  0  0
 14 15  2  0  0  0  0
 14 24  1  0  0  0  0
 11 12  1  0  0  0  0
 11 13  1  0  0  0  0
 11 14  1  0  0  0  0
  9 10  1  0  0  0  0
  9 11  1  0  0  0  0
  9 26  1  0  0  0  0
  7  8  1  0  0  0  0
  7  9  1  0  0  0  0
 30 31  1  0  0  0  0
 30 32  1  0  0  0  0
 30 33  1  0  0  0  0
 28 29  1  0  0  0  0
 28 30  1  0  0  0  0
M  END
$$$$
default_name
  -OEChem-02102213163D

 33 33  0     1  0  0  0  0  0999 V2000
   -4.0702   -3.8485    1.4554 H   0  0  0  0  0  0  0  0  0  0  0  0
   -4.0012   -2.9605    0.8284 C   0  0  0  0  0  0  0  0  0  0  0  0
   -4.7652   -2.2435    1.1234 H   0  0  0  0  0  0  0  0  0  0  0  0
   -4.1352   -3.2385   -0.2156 H   0  0  0  0  0  0  0  0  0  0  0  0
   -2.6362   -2.3395    1.0094 C   0  0  0  0  0  0  0  0  0  0  0  0
   -1.8292   -2.8395    1.7814 O   0  0  0  0  0  0  0  0  0  0  0  0
   -2.3832   -1.2445    0.2964 N   0  0  0  0  0  0  0  0  0  0  0  0
   -3.1102   -0.8685   -0.2946 H   0  0  0  0  0  0  0  0  0  0  0  0
   -1.1292   -0.4875    0.3524 C   0  0  1  0  0  0  0  0  0  0  0  0
   -0.5898   -0.7762    1.2552 H   0  0  0  0  0  0  0  0  0  0  0  0
   -0.2608   -0.8470   -0.8656 C   0  0  0  0  0  0  0  0  0  0  0  0
   -0.2830   -0.0177   -1.5738 H   0  0  0  0  0  0  0  0  0  0  0  0
    0.7730   -0.9699   -0.5385 H   0  0  0  0  0  0  0  0  0  0  0  0
   -0.7095   -2.0996   -1.5932 C   0  0  0  0  0  0  0  0  0  0  0  0
   -1.6412   -2.0149   -2.6472 C   0  0  0  0  0  0  0  0  0  0  0  0
   -2.0599   -1.0561   -2.9238 H   0  0  0  0  0  0  0  0  0  0  0  0
   -2.0241   -3.1760   -3.3465 C   0  0  0  0  0  0  0  0  0  0  0  0
   -2.7389   -3.1077   -4.1521 H   0  0  0  0  0  0  0  0  0  0  0  0
   -1.4701   -4.4256   -2.9925 C   0  0  0  0  0  0  0  0  0  0  0  0
   -1.8306   -5.5508   -3.6627 O   0  0  0  0  0  0  0  0  0  0  0  0
   -2.5339   -5.3864   -4.2922 H   0  0  0  0  0  0  0  0  0  0  0  0
   -0.5342   -4.5078   -1.9407 C   0  0  0  0  0  0  0  0  0  0  0  0
   -0.1210   -5.4696   -1.6765 H   0  0  0  0  0  0  0  0  0  0  0  0
   -0.1570   -3.3461   -1.2407 C   0  0  0  0  0  0  0  0  0  0  0  0
    0.5551   -3.4114   -0.4266 H   0  0  0  0  0  0  0  0  0  0  0  0
   -1.4018    1.0238    0.4329 C   0  0  0  0  0  0  0  0  0  0  0  0
   -2.2416    1.5423   -0.3033 O   0  0  0  0  0  0  0  0  0  0  0  0
   -0.6927    1.7304    1.3223 N   0  0  0  0  0  0  0  0  0  0  0  0
    0.0178    1.2410    1.8469 H   0  0  0  0  0  0  0  0  0  0  0  0
   -0.8259    3.1712    1.5254 C   0  0  0  0  0  0  0  0  0  0  0  0
   -1.8769    3.4302    1.6645 H   0  0  0  0  0  0  0  0  0  0  0  0
   -0.2598    3.4806    2.4054 H   0  0  0  0  0  0  0  0  0  0  0  0
   -0.4486    3.7020    0.6489 H   0  0  0  0  0  0  0  0  0  0  0  0
  5  6  2  0  0  0  0
  5  7  1  0  0  0  0
  2  3  1  0  0  0  0
  2  4  1  0  0  0  0
  2  5  1  0  0  0  0
  1  2  1  0  0  0  0
 26 27  2  0  0  0  0
 26 28  1  0  0  0  0
 24 25  1  0  0  0  0
 22 23  1  0  0  0  0
 22 24  2  0  0  0  0
 20 21  1  0  0  0  0
 19 20  1  0  0  0  0
 19 22  1  0  0  0  0
 17 18  1  0  0  0  0
 17 19  2  0  0  0  0
 15 16  1  0  0  0  0
 15 17  1  0  0  0  0
 14 15  2  0  0  0  0
 14 24  1  0  0  0  0
 11 12  1  0  0  0  0
 11 13  1  0  0  0  0
 11 14  1  0  0  0  0
  9 10  1  0  0  0  0
  9 11  1  0  0  0  0
  9 26  1  0  0  0  0
  7  8  1  0  0  0  0
  7  9  1  0  0  0  0
 30 31  1  0  0  0  0
 30 32  1  0  0  0  0
 30 33  1  0  0  0  0
 28 29  1  0  0  0  0
 28 30  1  0  0  0  0
M  END
$$$$
default_name
  -OEChem-02102213163D

 33 33  0     1  0  0  0  0  0999 V2000
   -4.0702   -3.8485    1.4554 H   0  0  0  0  0  0  0  0  0  0  0  0
   -4.0012   -2.9605    0.8284 C   0  0  0  0  0  0  0  0  0  0  0  0
   -4.7652   -2.2435    1.1234 H   0  0  0  0  0  0  0  0  0  0  0  0
   -4.1352   -3.2385   -0.2156 H   0  0  0  0  0  0  0  0  0  0  0  0
   -2.6362   -2.3395    1.0094 C   0  0  0  0  0  0  0  0  0  0  0  0
   -1.8292   -2.8395    1.7814 O   0  0  0  0  0  0  0  0  0  0  0  0
   -2.3832   -1.2445    0.2964 N   0  0  0  0  0  0  0  0  0  0  0  0
   -3.1102   -0.8685   -0.2946 H   0  0  0  0  0  0  0  0  0  0  0  0
   -1.1292   -0.4875    0.3524 C   0  0  1  0  0  0  0  0  0  0  0  0
   -0.5898   -0.7762    1.2552 H   0  0  0  0  0  0  0  0  0  0  0  0
   -0.2608   -0.8470   -0.8656 C   0  0  0  0  0  0  0  0  0  0  0  0
   -0.2830   -0.0177   -1.5738 H   0  0  0  0  0  0  0  0  0  0  0  0
    0.7730   -0.9699   -0.5385 H   0  0  0  0  0  0  0  0  0  0  0  0
   -0.7095   -2.0996   -1.5932 C   0  0  0  0  0  0  0  0  0  0  0  0
   -1.3808   -2.0028   -2.8286 C   0  0  0  0  0  0  0  0  0  0  0  0
   -1.6017   -1.0308   -3.2499 H   0  0  0  0  0  0  0  0  0  0  0  0
   -1.7595   -3.1700   -3.5200 C   0  0  0  0  0  0  0  0  0  0  0  0
   -2.2747   -3.0921   -4.4650 H   0  0  0  0  0  0  0  0  0  0  0  0
   -1.4622   -4.4383   -2.9754 C   0  0  0  0  0  0  0  0  0  0  0  0
   -1.8206   -5.5699   -3.6358 O   0  0  0  0  0  0  0  0  0  0  0  0
   -2.3487   -5.3825   -4.4130 H   0  0  0  0  0  0  0  0  0  0  0  0
   -0.7861   -4.5333   -1.7414 C   0  0  0  0  0  0  0  0  0  0  0  0
   -0.5684   -5.5088   -1.3332 H   0  0  0  0  0  0  0  0  0  0  0  0
   -0.4130   -3.3648   -1.0505 C   0  0  0  0  0  0  0  0  0  0  0  0
    0.0983   -3.4386   -0.0980 H   0  0  0  0  0  0  0  0  0  0  0  0
   -1.4018    1.0238    0.4329 C   0  0  0  0  0  0  0  0  0  0  0  0
   -2.2416    1.5423   -0.3033 O   0  0  0  0  0  0  0  0  0  0  0  0
   -0.6927    1.7304    1.3223 N   0  0  0  0  0  0  0  0  0  0  0  0
    0.0178    1.2410    1.8469 H   0  0  0  0  0  0  0  0  0  0  0  0
   -0.8259    3.1712    1.5254 C   0  0  0  0  0  0  0  0  0  0  0  0
   -1.8769    3.4302    1.6645 H   0  0  0  0  0  0  0  0  0  0  0  0
   -0.2598    3.4806    2.4054 H   0  0  0  0  0  0  0  0  0  0  0  0
   -0.4486    3.7020    0.6489 H   0  0  0  0  0  0  0  0  0  0  0  0
  5  6  2  0  0  0  0
  5  7  1  0  0  0  0
  2  3  1  0  0  0  0
  2  4  1  0  0  0  0
  2  5  1  0  0  0  0
  1  2  1  0  0  0  0
 26 27  2  0  0  0  0
 26 28  1  0  0  0  0
 24 25  1  0  0  0  0
 22 23  1  0  0  0  0
 22 24  2  0  0  0  0
 20 21  1  0  0  0  0
 19 20  1  0  0  0  0
 19 22  1  0  0  0  0
 17 18  1  0  0  0  0
 17 19  2  0  0  0  0
 15 16  1  0  0  0  0
 15 17  1  0  0  0  0
 14 15  2  0  0  0  0
 14 24  1  0  0  0  0
 11 12  1  0  0  0  0
 11 13  1  0  0  0  0
 11 14  1  0  0  0  0
  9 10  1  0  0  0  0
  9 11  1  0  0  0  0
  9 26  1  0  0  0  0
  7  8  1  0  0  0  0
  7  9  1  0  0  0  0
 30 31  1  0  0  0  0
 30 32  1  0  0  0  0
 30 33  1  0  0  0  0
 28 29  1  0  0  0  0
 28 30  1  0  0  0  0
M  END
$$$$
default_name
  -OEChem-02102213163D

 33 33  0     1  0  0  0  0  0999 V2000
   -4.0702   -3.8485    1.4554 H   0  0  0  0  0  0  0  0  0  0  0  0
   -4.0012   -2.9605    0.8284 C   0  0  0  0  0  0  0  0  0  0  0  0
   -4.7652   -2.2435    1.1234 H   0  0  0  0  0  0  0  0  0  0  0  0
   -4.1352   -3.2385   -0.2156 H   0  0  0  0  0  0  0  0  0  0  0  0
   -2.6362   -2.3395    1.0094 C   0  0  0  0  0  0  0  0  0  0  0  0
   -1.8292   -2.8395    1.7814 O   0  0  0  0  0  0  0  0  0  0  0  0
   -2.3832   -1.2445    0.2964 N   0  0  0  0  0  0  0  0  0  0  0  0
   -3.1102   -0.8685   -0.2946 H   0  0  0  0  0  0  0  0  0  0  0  0
   -1.1292   -0.4875    0.3524 C   0  0  1  0  0  0  0  0  0  0  0  0
   -0.5898   -0.7762    1.2552 H   0  0  0  0  0  0  0  0  0  0  0  0
   -0.2608   -0.8470   -0.8656 C   0  0  0  0  0  0  0  0  0  0  0  0
   -0.2830   -0.0177   -1.5738 H   0  0  0  0  0  0  0  0  0  0  0  0
    0.7730   -0.9699   -0.5385 H   0  0  0  0  0  0  0  0  0  0  0  0
   -0.7095   -2.0996   -1.5932 C   0  0  0  0  0  0  0  0  0  0  0  0
   -1.0889   -2.0374   -2.9490 C   0  0  0  0  0  0  0  0  0  0  0  0
   -1.0861   -1.0883   -3.4689 H   0  0  0  0  0  0  0  0  0  0  0  0
   -1.4661   -3.2103   -3.6315 C   0  0  0  0  0  0  0  0  0  0  0  0
   -1.7575   -3.1587   -4.6693 H   0  0  0  0  0  0  0  0  0  0  0  0
   -1.4599   -4.4503   -2.9562 C   0  0  0  0  0  0  0  0  0  0  0  0
   -1.8191   -5.5876   -3.6063 O   0  0  0  0  0  0  0  0  0  0  0  0
   -2.1436   -5.4111   -4.4903 H   0  0  0  0  0  0  0  0  0  0  0  0
   -1.0752   -4.5115   -1.6008 C   0  0  0  0  0  0  0  0  0  0  0  0
   -1.0788   -5.4648   -1.0941 H   0  0  0  0  0  0  0  0  0  0  0  0
   -0.7032   -3.3366   -0.9201 C   0  0  0  0  0  0  0  0  0  0  0  0
   -0.4167   -3.3830    0.1238 H   0  0  0  0  0  0  0  0  0  0  0  0
   -1.4018    1.0238    0.4329 C   0  0  0  0  0  0  0  0  0  0  0  0
   -2.2416    1.5423   -0.3033 O   0  0  0  0  0  0  0  0  0  0  0  0
   -0.6927    1.7304    1.3223 N   0  0  0  0  0  0  0  0  0  0  0  0
    0.0178    1.2410    1.8469 H   0  0  0  0  0  0  0  0  0  0  0  0
   -0.8259    3.1712    1.5254 C   0  0  0  0  0  0  0  0  0  0  0  0
   -1.8769    3.4302    1.6645 H   0  0  0  0  0  0  0  0  0  0  0  0
   -0.2598    3.4806    2.4054 H   0  0  0  0  0  0  0  0  0  0  0  0
   -0.4486    3.7020    0.6489 H   0  0  0  0  0  0  0  0  0  0  0  0
  5  6  2  0  0  0  0
  5  7  1  0  0  0  0
  2  3  1  0  0  0  0
  2  4  1  0  0  0  0
  2  5  1  0  0  0  0
  1  2  1  0  0  0  0
 26 27  2  0  0  0  0
 26 28  1  0  0  0  0
 24 25  1  0  0  0  0
 22 23  1  0  0  0  0
 22 24  2  0  0  0  0
 20 21  1  0  0  0  0
 19 20  1  0  0  0  0
 19 22  1  0  0  0  0
 17 18  1  0  0  0  0
 17 19  2  0  0  0  0
 15 16  1  0  0  0  0
 15 17  1  0  0  0  0
 14 15  2  0  0  0  0
 14 24  1  0  0  0  0
 11 12  1  0  0  0  0
 11 13  1  0  0  0  0
 11 14  1  0  0  0  0
  9 10  1  0  0  0  0
  9 11  1  0  0  0  0
  9 26  1  0  0  0  0
  7  8  1  0  0  0  0
  7  9  1  0  0  0  0
 30 31  1  0  0  0  0
 30 32  1  0  0  0  0
 30 33  1  0  0  0  0
 28 29  1  0  0  0  0
 28 30  1  0  0  0  0
M  END
$$$$
default_name
  -OEChem-02102213163D

 33 33  0     1  0  0  0  0  0999 V2000
   -4.0702   -3.8485    1.4554 H   0  0  0  0  0  0  0  0  0  0  0  0
   -4.0012   -2.9605    0.8284 C   0  0  0  0  0  0  0  0  0  0  0  0
   -4.7652   -2.2435    1.1234 H   0  0  0  0  0  0  0  0  0  0  0  0
   -4.1352   -3.2385   -0.2156 H   0  0  0  0  0  0  0  0  0  0  0  0
   -2.6362   -2.3395    1.0094 C   0  0  0  0  0  0  0  0  0  0  0  0
   -1.8292   -2.8395    1.7814 O   0  0  0  0  0  0  0  0  0  0  0  0
   -2.3832   -1.2445    0.2964 N   0  0  0  0  0  0  0  0  0  0  0  0
   -3.1102   -0.8685   -0.2946 H   0  0  0  0  0  0  0  0  0  0  0  0
   -1.1292   -0.4875    0.3524 C   0  0  1  0  0  0  0  0  0  0  0  0
   -0.5898   -0.7762    1.2552 H   0  0  0  0  0  0  0  0  0  0  0  0
   -0.2608   -0.8470   -0.8656 C   0  0  0  0  0  0  0  0  0  0  0  0
   -0.2830   -0.0177   -1.5738 H   0  0  0  0  0  0  0  0  0  0  0  0
    0.7730   -0.9699   -0.5385 H   0  0  0  0  0  0  0  0  0  0  0  0
   -0.7095   -2.0996   -1.5932 C   0  0  0  0  0  0  0  0  0  0  0  0
   -0.7856   -2.1162   -3.0004 C   0  0  0  0  0  0  0  0  0  0  0  0
   -0.5485   -1.2245   -3.5658 H   0  0  0  0  0  0  0  0  0  0  0  0
   -1.1638   -3.2943   -3.6734 C   0  0  0  0  0  0  0  0  0  0  0  0
   -1.2225   -3.3029   -4.7509 H   0  0  0  0  0  0  0  0  0  0  0  0
   -1.4633   -4.4607   -2.9363 C   0  0  0  0  0  0  0  0  0  0  0  0
   -1.8261   -5.6026   -3.5761 O   0  0  0  0  0  0  0  0  0  0  0  0
   -1.9324   -5.4701   -4.5190 H   0  0  0  0  0  0  0  0  0  0  0  0
   -1.3818   -4.4437   -1.5284 C   0  0  0  0  0  0  0  0  0  0  0  0
   -1.6175   -5.3406   -0.9757 H   0  0  0  0  0  0  0  0  0  0  0  0
   -1.0080   -3.2633   -0.8584 C   0  0  0  0  0  0  0  0  0  0  0  0
   -0.9546   -3.2484    0.2237 H   0  0  0  0  0  0  0  0  0  0  0  0
   -1.4018    1.0238    0.4329 C   0  0  0  0  0  0  0  0  0  0  0  0
   -2.2416    1.5423   -0.3033 O   0  0  0  0  0  0  0  0  0  0  0  0
   -0.6927    1.7304    1.3223 N   0  0  0  0  0  0  0  0  0  0  0  0
    0.0178    1.2410    1.8469 H   0  0  0  0  0  0  0  0  0  0  0  0
   -0.8259    3.1712    1.5254 C   0  0  0  0  0  0  0  0  0  0  0  0
   -1.8769    3.4302    1.6645 H   0  0  0  0  0  0  0  0  0  0  0  0
   -0.2598    3.4806    2.4054 H   0  0  0  0  0  0  0  0  0  0  0  0
   -0.4486    3.7020    0.6489 H   0  0  0  0  0  0  0  0  0  0  0  0
  5  6  2  0  0  0  0
  5  7  1  0  0  0  0
  2  3  1  0  0  0  0
  2  4  1  0  0  0  0
  2  5  1  0  0  0  0
  1  2  1  0  0  0  0
 26 27  2  0  0  0  0
 26 28  1  0  0  0  0
 24 25  1  0  0  0  0
 22 23  1  0  0  0  0
 22 24  2  0  0  0  0
 20 21  1  0  0  0  0
 19 20  1  0  0  0  0
 19 22  1  0  0  0  0
 17 18  1  0  0  0  0
 17 19  2  0  0  0  0
 15 16  1  0  0  0  0
 15 17  1  0  0  0  0
 14 15  2  0  0  0  0
 14 24  1  0  0  0  0
 11 12  1  0  0  0  0
 11 13  1  0  0  0  0
 11 14  1  0  0  0  0
  9 10  1  0  0  0  0
  9 11  1  0  0  0  0
  9 26  1  0  0  0  0
  7  8  1  0  0  0  0
  7  9  1  0  0  0  0
 30 31  1  0  0  0  0
 30 32  1  0  0  0  0
 30 33  1  0  0  0  0
 28 29  1  0  0  0  0
 28 30  1  0  0  0  0
M  END
$$$$
default_name
  -OEChem-02102213163D

 33 33  0     1  0  0  0  0  0999 V2000
   -4.0702   -3.8485    1.4554 H   0  0  0  0  0  0  0  0  0  0  0  0
   -4.0012   -2.9605    0.8284 C   0  0  0  0  0  0  0  0  0  0  0  0
   -4.7652   -2.2435    1.1234 H   0  0  0  0  0  0  0  0  0  0  0  0
   -4.1352   -3.2385   -0.2156 H   0  0  0  0  0  0  0  0  0  0  0  0
   -2.6362   -2.3395    1.0094 C   0  0  0  0  0  0  0  0  0  0  0  0
   -1.8292   -2.8395    1.7814 O   0  0  0  0  0  0  0  0  0  0  0  0
   -2.3832   -1.2445    0.2964 N   0  0  0  0  0  0  0  0  0  0  0  0
   -3.1102   -0.8685   -0.2946 H   0  0  0  0  0  0  0  0  0  0  0  0
   -1.1292   -0.4875    0.3524 C   0  0  1  0  0  0  0  0  0  0  0  0
   -0.5898   -0.7762    1.2552 H   0  0  0  0  0  0  0  0  0  0  0  0
   -0.2608   -0.8470   -0.8656 C   0  0  0  0  0  0  0  0  0  0  0  0
   -0.2830   -0.0177   -1.5738 H   0  0  0  0  0  0  0  0  0  0  0  0
    0.7730   -0.9699   -0.5385 H   0  0  0  0  0  0  0  0  0  0  0  0
   -0.7095   -2.0996   -1.5932 C   0  0  0  0  0  0  0  0  0  0  0  0
   -0.4914   -2.2340   -2.9790 C   0  0  0  0  0  0  0  0  0  0  0  0
   -0.0254   -1.4304   -3.5341 H   0  0  0  0  0  0  0  0  0  0  0  0
   -0.8733   -3.4161   -3.6428 C   0  0  0  0  0  0  0  0  0  0  0  0
   -0.7062   -3.5149   -4.7044 H   0  0  0  0  0  0  0  0  0  0  0  0
   -1.4721   -4.4688   -2.9169 C   0  0  0  0  0  0  0  0  0  0  0  0
   -1.8413   -5.6140   -3.5473 O   0  0  0  0  0  0  0  0  0  0  0  0
   -1.7297   -5.5554   -4.4971 H   0  0  0  0  0  0  0  0  0  0  0  0
   -1.6851   -4.3345   -1.5293 C   0  0  0  0  0  0  0  0  0  0  0  0
   -2.1478   -5.1447   -0.9860 H   0  0  0  0  0  0  0  0  0  0  0  0
   -1.3064   -3.1499   -0.8695 C   0  0  0  0  0  0  0  0  0  0  0  0
   -1.4788   -3.0439    0.1949 H   0  0  0  0  0  0  0  0  0  0  0  0
   -1.4018    1.0238    0.4329 C   0  0  0  0  0  0  0  0  0  0  0  0
   -2.2416    1.5423   -0.3033 O   0  0  0  0  0  0  0  0  0  0  0  0
   -0.6927    1.7304    1.3223 N   0  0  0  0  0  0  0  0  0  0  0  0
    0.0178    1.2410    1.8469 H   0  0  0  0  0  0  0  0  0  0  0  0
   -0.8259    3.1712    1.5254 C   0  0  0  0  0  0  0  0  0  0  0  0
   -1.8769    3.4302    1.6645 H   0  0  0  0  0  0  0  0  0  0  0  0
   -0.2598    3.4806    2.4054 H   0  0  0  0  0  0  0  0  0  0  0  0
   -0.4486    3.7020    0.6489 H   0  0  0  0  0  0  0  0  0  0  0  0
  5  6  2  0  0  0  0
  5  7  1  0  0  0  0
  2  3  1  0  0  0  0
  2  4  1  0  0  0  0
  2  5  1  0  0  0  0
  1  2  1  0  0  0  0
 26 27  2  0  0  0  0
 26 28  1  0  0  0  0
 24 25  1  0  0  0  0
 22 23  1  0  0  0  0
 22 24  2  0  0  0  0
 20 21  1  0  0  0  0
 19 20  1  0  0  0  0
 19 22  1  0  0  0  0
 17 18  1  0  0  0  0
 17 19  2  0  0  0  0
 15 16  1  0  0  0  0
 15 17  1  0  0  0  0
 14 15  2  0  0  0  0
 14 24  1  0  0  0  0
 11 12  1  0  0  0  0
 11 13  1  0  0  0  0
 11 14  1  0  0  0  0
  9 10  1  0  0  0  0
  9 11  1  0  0  0  0
  9 26  1  0  0  0  0
  7  8  1  0  0  0  0
  7  9  1  0  0  0  0
 30 31  1  0  0  0  0
 30 32  1  0  0  0  0
 30 33  1  0  0  0  0
 28 29  1  0  0  0  0
 28 30  1  0  0  0  0
M  END
$$$$
default_name
  -OEChem-02102213163D

 33 33  0     1  0  0  0  0  0999 V2000
   -4.0702   -3.8485    1.4554 H   0  0  0  0  0  0  0  0  0  0  0  0
   -4.0012   -2.9605    0.8284 C   0  0  0  0  0  0  0  0  0  0  0  0
   -4.7652   -2.2435    1.1234 H   0  0  0  0  0  0  0  0  0  0  0  0
   -4.1352   -3.2385   -0.2156 H   0  0  0  0  0  0  0  0  0  0  0  0
   -2.6362   -2.3395    1.0094 C   0  0  0  0  0  0  0  0  0  0  0  0
   -1.8292   -2.8395    1.7814 O   0  0  0  0  0  0  0  0  0  0  0  0
   -2.3832   -1.2445    0.2964 N   0  0  0  0  0  0  0  0  0  0  0  0
   -3.1102   -0.8685   -0.2946 H   0  0  0  0  0  0  0  0  0  0  0  0
   -1.1292   -0.4875    0.3524 C   0  0  1  0  0  0  0  0  0  0  0  0
   -0.5898   -0.7762    1.2552 H   0  0  0  0  0  0  0  0  0  0  0  0
   -0.2608   -0.8470   -0.8656 C   0  0  0  0  0  0  0  0  0  0  0  0
   -0.2830   -0.0177   -1.5738 H   0  0  0  0  0  0  0  0  0  0  0  0
    0.7730   -0.9699   -0.5385 H   0  0  0  0  0  0  0  0  0  0  0  0
   -0.7095   -2.0996   -1.5932 C   0  0  0  0  0  0  0  0  0  0  0  0
   -0.2264   -2.3826   -2.8865 C   0  0  0  0  0  0  0  0  0  0  0  0
    0.4476   -1.6917   -3.3758 H   0  0  0  0  0  0  0  0  0  0  0  0
   -0.6144   -3.5675   -3.5418 C   0  0  0  0  0  0  0  0  0  0  0  0
   -0.2438   -3.7802   -4.5328 H   0  0  0  0  0  0  0  0  0  0  0  0
   -1.4857   -4.4740   -2.8995 C   0  0  0  0  0  0  0  0  0  0  0  0
   -1.8634   -5.6208   -3.5218 O   0  0  0  0  0  0  0  0  0  0  0  0
   -1.5491   -5.6614   -4.4260 H   0  0  0  0  0  0  0  0  0  0  0  0
   -1.9642   -4.1916   -1.6033 C   0  0  0  0  0  0  0  0  0  0  0  0
   -2.6334   -4.8904   -1.1243 H   0  0  0  0  0  0  0  0  0  0  0  0
   -1.5782   -3.0042   -0.9528 C   0  0  0  0  0  0  0  0  0  0  0  0
   -1.9537   -2.7835    0.0394 H   0  0  0  0  0  0  0  0  0  0  0  0
   -1.4018    1.0238    0.4329 C   0  0  0  0  0  0  0  0  0  0  0  0
   -2.2416    1.5423   -0.3033 O   0  0  0  0  0  0  0  0  0  0  0  0
   -0.6927    1.7304    1.3223 N   0  0  0  0  0  0  0  0  0  0  0  0
    0.0178    1.2410    1.8469 H   0  0  0  0  0  0  0  0  0  0  0  0
   -0.8259    3.1712    1.5254 C   0  0  0  0  0  0  0  0  0  0  0  0
   -1.8769    3.4302    1.6645 H   0  0  0  0  0  0  0  0  0  0  0  0
   -0.2598    3.4806    2.4054 H   0  0  0  0  0  0  0  0  0  0  0  0
   -0.4486    3.7020    0.6489 H   0  0  0  0  0  0  0  0  0  0  0  0
  5  6  2  0  0  0  0
  5  7  1  0  0  0  0
  2  3  1  0  0  0  0
  2  4  1  0  0  0  0
  2  5  1  0  0  0  0
  1  2  1  0  0  0  0
 26 27  2  0  0  0  0
 26 28  1  0  0  0  0
 24 25  1  0  0  0  0
 22 23  1  0  0  0  0
 22 24  2  0  0  0  0
 20 21  1  0  0  0  0
 19 20  1  0  0  0  0
 19 22  1  0  0  0  0
 17 18  1  0  0  0  0
 17 19  2  0  0  0  0
 15 16  1  0  0  0  0
 15 17  1  0  0  0  0
 14 15  2  0  0  0  0
 14 24  1  0  0  0  0
 11 12  1  0  0  0  0
 11 13  1  0  0  0  0
 11 14  1  0  0  0  0
  9 10  1  0  0  0  0
  9 11  1  0  0  0  0
  9 26  1  0  0  0  0
  7  8  1  0  0  0  0
  7  9  1  0  0  0  0
 30 31  1  0  0  0  0
 30 32  1  0  0  0  0
 30 33  1  0  0  0  0
 28 29  1  0  0  0  0
 28 30  1  0  0  0  0
M  END
$$$$
default_name
  -OEChem-02102213163D

 33 33  0     1  0  0  0  0  0999 V2000
   -4.0702   -3.8485    1.4554 H   0  0  0  0  0  0  0  0  0  0  0  0
   -4.0012   -2.9605    0.8284 C   0  0  0  0  0  0  0  0  0  0  0  0
   -4.7652   -2.2435    1.1234 H   0  0  0  0  0  0  0  0  0  0  0  0
   -4.1352   -3.2385   -0.2156 H   0  0  0  0  0  0  0  0  0  0  0  0
   -2.6362   -2.3395    1.0094 C   0  0  0  0  0  0  0  0  0  0  0  0
   -1.8292   -2.8395    1.7814 O   0  0  0  0  0  0  0  0  0  0  0  0
   -2.3832   -1.2445    0.2964 N   0  0  0  0  0  0  0  0  0  0  0  0
   -3.1102   -0.8685   -0.2946 H   0  0  0  0  0  0  0  0  0  0  0  0
   -1.1292   -0.4875    0.3524 C   0  0  1  0  0  0  0  0  0  0  0  0
   -0.5898   -0.7762    1.2552 H   0  0  0  0  0  0  0  0  0  0  0  0
   -0.2608   -0.8470   -0.8656 C   0  0  0  0  0  0  0  0  0  0  0  0
   -0.0627    0.0592   -1.4394 H   0  0  0  0  0  0  0  0  0  0  0  0
    0.6996   -1.2281   -0.5146 H   0  0  0  0  0  0  0  0  0  0  0  0
   -0.8950   -1.8636   -1.7951 C   0  0  0  0  0  0  0  0  0  0  0  0
   -0.2151   -2.2894   -2.9539 C   0  0  0  0  0  0  0  0  0  0  0  0
    0.7527   -1.8714   -3.1979 H   0  0  0  0  0  0  0  0  0  0  0  0
   -0.7906   -3.2637   -3.7925 C   0  0  0  0  0  0  0  0  0  0  0  0
   -0.2679   -3.5863   -4.6799 H   0  0  0  0  0  0  0  0  0  0  0  0
   -2.0488   -3.8167   -3.4688 C   0  0  0  0  0  0  0  0  0  0  0  0
   -2.6108   -4.7590   -4.2695 O   0  0  0  0  0  0  0  0  0  0  0  0
   -2.1044   -4.9010   -5.0704 H   0  0  0  0  0  0  0  0  0  0  0  0
   -2.7254   -3.3930   -2.3062 C   0  0  0  0  0  0  0  0  0  0  0  0
   -3.6889   -3.8200   -2.0717 H   0  0  0  0  0  0  0  0  0  0  0  0
   -2.1497   -2.4156   -1.4724 C   0  0  0  0  0  0  0  0  0  0  0  0
   -2.6745   -2.0838   -0.5844 H   0  0  0  0  0  0  0  0  0  0  0  0
   -1.4018    1.0238    0.4329 C   0  0  0  0  0  0  0  0  0  0  0  0
   -2.2416    1.5423   -0.3033 O   0  0  0  0  0  0  0  0  0  0  0  0
   -0.6927    1.7304    1.3223 N   0  0  0  0  0  0  0  0  0  0  0  0
    0.0178    1.2410    1.8469 H   0  0  0  0  0  0  0  0  0  0  0  0
   -0.8259    3.1712    1.5254 C   0  0  0  0  0  0  0  0  0  0  0  0
   -1.8769    3.4302    1.6645 H   0  0  0  0  0  0  0  0  0  0  0  0
   -0.2598    3.4806    2.4054 H   0  0  0  0  0  0  0  0  0  0  0  0
   -0.4486    3.7020    0.6489 H   0  0  0  0  0  0  0  0  0  0  0  0
  5  6  2  0  0  0  0
  5  7  1  0  0  0  0
  2  3  1  0  0  0  0
  2  4  1  0  0  0  0
  2  5  1  0  0  0  0
  1  2  1  0  0  0  0
 26 27  2  0  0  0  0
 26 28  1  0  0  0  0
 24 25  1  0  0  0  0
 22 23  1  0  0  0  0
 22 24  2  0  0  0  0
 20 21  1  0  0  0  0
 19 20  1  0  0  0  0
 19 22  1  0  0  0  0
 17 18  1  0  0  0  0
 17 19  2  0  0  0  0
 15 16  1  0  0  0  0
 15 17  1  0  0  0  0
 14 15  2  0  0  0  0
 14 24  1  0  0  0  0
 11 12  1  0  0  0  0
 11 13  1  0  0  0  0
 11 14  1  0  0  0  0
  9 10  1  0  0  0  0
  9 11  1  0  0  0  0
  9 26  1  0  0  0  0
  7  8  1  0  0  0  0
  7  9  1  0  0  0  0
 30 31  1  0  0  0  0
 30 32  1  0  0  0  0
 30 33  1  0  0  0  0
 28 29  1  0  0  0  0
 28 30  1  0  0  0  0
M  END
$$$$
default_name
  -OEChem-02102213163D

 33 33  0     1  0  0  0  0  0999 V2000
   -4.0702   -3.8485    1.4554 H   0  0  0  0  0  0  0  0  0  0  0  0
   -4.0012   -2.9605    0.8284 C   0  0  0  0  0  0  0  0  0  0  0  0
   -4.7652   -2.2435    1.1234 H   0  0  0  0  0  0  0  0  0  0  0  0
   -4.1352   -3.2385   -0.2156 H   0  0  0  0  0  0  0  0  0  0  0  0
   -2.6362   -2.3395    1.0094 C   0  0  0  0  0  0  0  0  0  0  0  0
   -1.8292   -2.8395    1.7814 O   0  0  0  0  0  0  0  0  0  0  0  0
   -2.3832   -1.2445    0.2964 N   0  0  0  0  0  0  0  0  0  0  0  0
   -3.1102   -0.8685   -0.2946 H   0  0  0  0  0  0  0  0  0  0  0  0
   -1.1292   -0.4875    0.3524 C   0  0  1  0  0  0  0  0  0  0  0  0
   -0.5898   -0.7762    1.2552 H   0  0  0  0  0  0  0  0  0  0  0  0
   -0.2608   -0.8470   -0.8656 C   0  0  0  0  0  0  0  0  0  0  0  0
   -0.0627    0.0592   -1.4394 H   0  0  0  0  0  0  0  0  0  0  0  0
    0.6996   -1.2281   -0.5146 H   0  0  0  0  0  0  0  0  0  0  0  0
   -0.8950   -1.8636   -1.7951 C   0  0  0  0  0  0  0  0  0  0  0  0
   -0.1149   -2.5244   -2.7652 C   0  0  0  0  0  0  0  0  0  0  0  0
    0.9362   -2.2884   -2.8671 H   0  0  0  0  0  0  0  0  0  0  0  0
   -0.6999   -3.4972   -3.5991 C   0  0  0  0  0  0  0  0  0  0  0  0
   -0.0999   -4.0001   -4.3419 H   0  0  0  0  0  0  0  0  0  0  0  0
   -2.0691   -3.8126   -3.4594 C   0  0  0  0  0  0  0  0  0  0  0  0
   -2.6419   -4.7513   -4.2567 O   0  0  0  0  0  0  0  0  0  0  0  0
   -2.0417   -5.0641   -4.9349 H   0  0  0  0  0  0  0  0  0  0  0  0
   -2.8470   -3.1539   -2.4848 C   0  0  0  0  0  0  0  0  0  0  0  0
   -3.8938   -3.4006   -2.3906 H   0  0  0  0  0  0  0  0  0  0  0  0
   -2.2605   -2.1787   -1.6559 C   0  0  0  0  0  0  0  0  0  0  0  0
   -2.8610   -1.6664   -0.9137 H   0  0  0  0  0  0  0  0  0  0  0  0
   -1.4018    1.0238    0.4329 C   0  0  0  0  0  0  0  0  0  0  0  0
   -2.2416    1.5423   -0.3033 O   0  0  0  0  0  0  0  0  0  0  0  0
   -0.6927    1.7304    1.3223 N   0  0  0  0  0  0  0  0  0  0  0  0
    0.0178    1.2410    1.8469 H   0  0  0  0  0  0  0  0  0  0  0  0
   -0.8259    3.1712    1.5254 C   0  0  0  0  0  0  0  0  0  0  0  0
   -1.8769    3.4302    1.6645 H   0  0  0  0  0  0  0  0  0  0  0  0
   -0.2598    3.4806    2.4054 H   0  0  0  0  0  0  0  0  0  0  0  0
   -0.4486    3.7020    0.6489 H   0  0  0  0  0  0  0  0  0  0  0  0
  5  6  2  0  0  0  0
  5  7  1  0  0  0  0
  2  3  1  0  0  0  0
  2  4  1  0  0  0  0
  2  5  1  0  0  0  0
  1  2  1  0  0  0  0
 26 27  2  0  0  0  0
 26 28  1  0  0  0  0
 24 25  1  0  0  0  0
 22 23  1  0  0  0  0
 22 24  2  0  0  0  0
 20 21  1  0  0  0  0
 19 20  1  0  0  0  0
 19 22  1  0  0  0  0
 17 18  1  0  0  0  0
 17 19  2  0  0  0  0
 15 16  1  0  0  0  0
 15 17  1  0  0  0  0
 14 15  2  0  0  0  0
 14 24  1  0  0  0  0
 11 12  1  0  0  0  0
 11 13  1  0  0  0  0
 11 14  1  0  0  0  0
  9 10  1  0  0  0  0
  9 11  1  0  0  0  0
  9 26  1  0  0  0  0
  7  8  1  0  0  0  0
  7  9  1  0  0  0  0
 30 31  1  0  0  0  0
 30 32  1  0  0  0  0
 30 33  1  0  0  0  0
 28 29  1  0  0  0  0
 28 30  1  0  0  0  0
M  END
$$$$
default_name
  -OEChem-02102213163D

 33 33  0     1  0  0  0  0  0999 V2000
   -4.0702   -3.8485    1.4554 H   0  0  0  0  0  0  0  0  0  0  0  0
   -4.0012   -2.9605    0.8284 C   0  0  0  0  0  0  0  0  0  0  0  0
   -4.7652   -2.2435    1.1234 H   0  0  0  0  0  0  0  0  0  0  0  0
   -4.1352   -3.2385   -0.2156 H   0  0  0  0  0  0  0  0  0  0  0  0
   -2.6362   -2.3395    1.0094 C   0  0  0  0  0  0  0  0  0  0  0  0
   -1.8292   -2.8395    1.7814 O   0  0  0  0  0  0  0  0  0  0  0  0
   -2.3832   -1.2445    0.2964 N   0  0  0  0  0  0  0  0  0  0  0  0
   -3.1102   -0.8685   -0.2946 H   0  0  0  0  0  0  0  0  0  0  0  0
   -1.1292   -0.4875    0.3524 C   0  0  1  0  0  0  0  0  0  0  0  0
   -0.5898   -0.7762    1.2552 H   0  0  0  0  0  0  0  0  0  0  0  0
   -0.2608   -0.8470   -0.8656 C   0  0  0  0  0  0  0  0  0  0  0  0
   -0.0627    0.0592   -1.4394 H   0  0  0  0  0  0  0  0  0  0  0  0
    0.6996   -1.2281   -0.5146 H   0  0  0  0  0  0  0  0  0  0  0  0
   -0.8950   -1.8636   -1.7951 C   0  0  0  0  0  0  0  0  0  0  0  0
   -0.0882   -2.7469   -2.5401 C   0  0  0  0  0  0  0  0  0  0  0  0
    0.9899   -2.6845   -2.4705 H   0  0  0  0  0  0  0  0  0  0  0  0
   -0.6829   -3.7162   -3.3712 C   0  0  0  0  0  0  0  0  0  0  0  0
   -0.0620   -4.3899   -3.9415 H   0  0  0  0  0  0  0  0  0  0  0  0
   -2.0896   -3.8044   -3.4543 C   0  0  0  0  0  0  0  0  0  0  0  0
   -2.6729   -4.7376   -4.2506 O   0  0  0  0  0  0  0  0  0  0  0  0
   -2.0304   -5.2169   -4.7755 H   0  0  0  0  0  0  0  0  0  0  0  0
   -2.8955   -2.9229   -2.7043 C   0  0  0  0  0  0  0  0  0  0  0  0
   -3.9699   -2.9974   -2.7796 H   0  0  0  0  0  0  0  0  0  0  0  0
   -2.2980   -1.9522   -1.8780 C   0  0  0  0  0  0  0  0  0  0  0  0
   -2.9178   -1.2693   -1.3093 H   0  0  0  0  0  0  0  0  0  0  0  0
   -1.4018    1.0238    0.4329 C   0  0  0  0  0  0  0  0  0  0  0  0
   -2.2416    1.5423   -0.3033 O   0  0  0  0  0  0  0  0  0  0  0  0
   -0.6927    1.7304    1.3223 N   0  0  0  0  0  0  0  0  0  0  0  0
    0.0178    1.2410    1.8469 H   0  0  0  0  0  0  0  0  0  0  0  0
   -0.8259    3.1712    1.5254 C   0  0  0  0  0  0  0  0  0  0  0  0
   -1.8769    3.4302    1.6645 H   0  0  0  0  0  0  0  0  0  0  0  0
   -0.2598    3.4806    2.4054 H   0  0  0  0  0  0  0  0  0  0  0  0
   -0.4486    3.7020    0.6489 H   0  0  0  0  0  0  0  0  0  0  0  0
  5  6  2  0  0  0  0
  5  7  1  0  0  0  0
  2  3  1  0  0  0  0
  2  4  1  0  0  0  0
  2  5  1  0  0  0  0
  1  2  1  0  0  0  0
 26 27  2  0  0  0  0
 26 28  1  0  0  0  0
 24 25  1  0  0  0  0
 22 23  1  0  0  0  0
 22 24  2  0  0  0  0
 20 21  1  0  0  0  0
 19 20  1  0  0  0  0
 19 22  1  0  0  0  0
 17 18  1  0  0  0  0
 17 19  2  0  0  0  0
 15 16  1  0  0  0  0
 15 17  1  0  0  0  0
 14 15  2  0  0  0  0
 14 24  1  0  0  0  0
 11 12  1  0  0  0  0
 11 13  1  0  0  0  0
 11 14  1  0  0  0  0
  9 10  1  0  0  0  0
  9 11  1  0  0  0  0
  9 26  1  0  0  0  0
  7  8  1  0  0  0  0
  7  9  1  0  0  0  0
 30 31  1  0  0  0  0
 30 32  1  0  0  0  0
 30 33  1  0  0  0  0
 28 29  1  0  0  0  0
 28 30  1  0  0  0  0
M  END
$$$$
default_name
  -OEChem-02102213163D

 33 33  0     1  0  0  0  0  0999 V2000
   -4.0702   -3.8485    1.4554 H   0  0  0  0  0  0  0  0  0  0  0  0
   -4.0012   -2.9605    0.8284 C   0  0  0  0  0  0  0  0  0  0  0  0
   -4.7652   -2.2435    1.1234 H   0  0  0  0  0  0  0  0  0  0  0  0
   -4.1352   -3.2385   -0.2156 H   0  0  0  0  0  0  0  0  0  0  0  0
   -2.6362   -2.3395    1.0094 C   0  0  0  0  0  0  0  0  0  0  0  0
   -1.8292   -2.8395    1.7814 O   0  0  0  0  0  0  0  0  0  0  0  0
   -2.3832   -1.2445    0.2964 N   0  0  0  0  0  0  0  0  0  0  0  0
   -3.1102   -0.8685   -0.2946 H   0  0  0  0  0  0  0  0  0  0  0  0
   -1.1292   -0.4875    0.3524 C   0  0  1  0  0  0  0  0  0  0  0  0
   -0.5898   -0.7762    1.2552 H   0  0  0  0  0  0  0  0  0  0  0  0
   -0.2608   -0.8470   -0.8656 C   0  0  0  0  0  0  0  0  0  0  0  0
   -0.0627    0.0592   -1.4394 H   0  0  0  0  0  0  0  0  0  0  0  0
    0.6996   -1.2281   -0.5146 H   0  0  0  0  0  0  0  0  0  0  0  0
   -0.8950   -1.8636   -1.7951 C   0  0  0  0  0  0  0  0  0  0  0  0
   -0.1367   -2.9417   -2.2940 C   0  0  0  0  0  0  0  0  0  0  0  0
    0.9101   -3.0327   -2.0353 H   0  0  0  0  0  0  0  0  0  0  0  0
   -0.7408   -3.9057   -3.1245 C   0  0  0  0  0  0  0  0  0  0  0  0
   -0.1567   -4.7290   -3.5060 H   0  0  0  0  0  0  0  0  0  0  0  0
   -2.1091   -3.7927   -3.4538 C   0  0  0  0  0  0  0  0  0  0  0  0
   -2.7017   -4.7188   -4.2515 O   0  0  0  0  0  0  0  0  0  0  0  0
   -2.0714   -5.3490   -4.6030 H   0  0  0  0  0  0  0  0  0  0  0  0
   -2.8676   -2.7159   -2.9497 C   0  0  0  0  0  0  0  0  0  0  0  0
   -3.9120   -2.6381   -3.2122 H   0  0  0  0  0  0  0  0  0  0  0  0
   -2.2598   -1.7515   -2.1236 C   0  0  0  0  0  0  0  0  0  0  0  0
   -2.8410   -0.9194   -1.7442 H   0  0  0  0  0  0  0  0  0  0  0  0
   -1.4018    1.0238    0.4329 C   0  0  0  0  0  0  0  0  0  0  0  0
   -2.2416    1.5423   -0.3033 O   0  0  0  0  0  0  0  0  0  0  0  0
   -0.6927    1.7304    1.3223 N   0  0  0  0  0  0  0  0  0  0  0  0
    0.0178    1.2410    1.8469 H   0  0  0  0  0  0  0  0  0  0  0  0
   -0.8259    3.1712    1.5254 C   0  0  0  0  0  0  0  0  0  0  0  0
   -1.8769    3.4302    1.6645 H   0  0  0  0  0  0  0  0  0  0  0  0
   -0.2598    3.4806    2.4054 H   0  0  0  0  0  0  0  0  0  0  0  0
   -0.4486    3.7020    0.6489 H   0  0  0  0  0  0  0  0  0  0  0  0
  5  6  2  0  0  0  0
  5  7  1  0  0  0  0
  2  3  1  0  0  0  0
  2  4  1  0  0  0  0
  2  5  1  0  0  0  0
  1  2  1  0  0  0  0
 26 27  2  0  0  0  0
 26 28  1  0  0  0  0
 24 25  1  0  0  0  0
 22 23  1  0  0  0  0
 22 24  2  0  0  0  0
 20 21  1  0  0  0  0
 19 20  1  0  0  0  0
 19 22  1  0  0  0  0
 17 18  1  0  0  0  0
 17 19  2  0  0  0  0
 15 16  1  0  0  0  0
 15 17  1  0  0  0  0
 14 15  2  0  0  0  0
 14 24  1  0  0  0  0
 11 12  1  0  0  0  0
 11 13  1  0  0  0  0
 11 14  1  0  0  0  0
  9 10  1  0  0  0  0
  9 11  1  0  0  0  0
  9 26  1  0  0  0  0
  7  8  1  0  0  0  0
  7  9  1  0  0  0  0
 30 31  1  0  0  0  0
 30 32  1  0  0  0  0
 30 33  1  0  0  0  0
 28 29  1  0  0  0  0
 28 30  1  0  0  0  0
M  END
$$$$
default_name
  -OEChem-02102213163D

 33 33  0     1  0  0  0  0  0999 V2000
   -4.0702   -3.8485    1.4554 H   0  0  0  0  0  0  0  0  0  0  0  0
   -4.0012   -2.9605    0.8284 C   0  0  0  0  0  0  0  0  0  0  0  0
   -4.7652   -2.2435    1.1234 H   0  0  0  0  0  0  0  0  0  0  0  0
   -4.1352   -3.2385   -0.2156 H   0  0  0  0  0  0  0  0  0  0  0  0
   -2.6362   -2.3395    1.0094 C   0  0  0  0  0  0  0  0  0  0  0  0
   -1.8292   -2.8395    1.7814 O   0  0  0  0  0  0  0  0  0  0  0  0
   -2.3832   -1.2445    0.2964 N   0  0  0  0  0  0  0  0  0  0  0  0
   -3.1102   -0.8685   -0.2946 H   0  0  0  0  0  0  0  0  0  0  0  0
   -1.1292   -0.4875    0.3524 C   0  0  1  0  0  0  0  0  0  0  0  0
   -0.5898   -0.7762    1.2552 H   0  0  0  0  0  0  0  0  0  0  0  0
   -0.2608   -0.8470   -0.8656 C   0  0  0  0  0  0  0  0  0  0  0  0
   -0.0627    0.0592   -1.4394 H   0  0  0  0  0  0  0  0  0  0  0  0
    0.6996   -1.2281   -0.5146 H   0  0  0  0  0  0  0  0  0  0  0  0
   -0.8950   -1.8636   -1.7951 C   0  0  0  0  0  0  0  0  0  0  0  0
   -0.2571   -3.0955   -2.0436 C   0  0  0  0  0  0  0  0  0  0  0  0
    0.7023   -3.3093   -1.5910 H   0  0  0  0  0  0  0  0  0  0  0  0
   -0.8696   -4.0529   -2.8756 C   0  0  0  0  0  0  0  0  0  0  0  0
   -0.3775   -4.9945   -3.0650 H   0  0  0  0  0  0  0  0  0  0  0  0
   -2.1262   -3.7783   -3.4580 C   0  0  0  0  0  0  0  0  0  0  0  0
   -2.7264   -4.6961   -4.2595 O   0  0  0  0  0  0  0  0  0  0  0  0
   -2.1620   -5.4514   -4.4292 H   0  0  0  0  0  0  0  0  0  0  0  0
   -2.7653   -2.5470   -3.2043 C   0  0  0  0  0  0  0  0  0  0  0  0
   -3.7239   -2.3469   -3.6589 H   0  0  0  0  0  0  0  0  0  0  0  0
   -2.1485   -1.5903   -2.3759 C   0  0  0  0  0  0  0  0  0  0  0  0
   -2.6358   -0.6408   -2.1889 H   0  0  0  0  0  0  0  0  0  0  0  0
   -1.4018    1.0238    0.4329 C   0  0  0  0  0  0  0  0  0  0  0  0
   -2.2416    1.5423   -0.3033 O   0  0  0  0  0  0  0  0  0  0  0  0
   -0.6927    1.7304    1.3223 N   0  0  0  0  0  0  0  0  0  0  0  0
    0.0178    1.2410    1.8469 H   0  0  0  0  0  0  0  0  0  0  0  0
   -0.8259    3.1712    1.5254 C   0  0  0  0  0  0  0  0  0  0  0  0
   -1.8769    3.4302    1.6645 H   0  0  0  0  0  0  0  0  0  0  0  0
   -0.2598    3.4806    2.4054 H   0  0  0  0  0  0  0  0  0  0  0  0
   -0.4486    3.7020    0.6489 H   0  0  0  0  0  0  0  0  0  0  0  0
  5  6  2  0  0  0  0
  5  7  1  0  0  0  0
  2  3  1  0  0  0  0
  2  4  1  0  0  0  0
  2  5  1  0  0  0  0
  1  2  1  0  0  0  0
 26 27  2  0  0  0  0
 26 28  1  0  0  0  0
 24 25  1  0  0  0  0
 22 23  1  0  0  0  0
 22 24  2  0  0  0  0
 20 21  1  0  0  0  0
 19 20  1  0  0  0  0
 19 22  1  0  0  0  0
 17 18  1  0  0  0  0
 17 19  2  0  0  0  0
 15 16  1  0  0  0  0
 15 17  1  0  0  0  0
 14 15  2  0  0  0  0
 14 24  1  0  0  0  0
 11 12  1  0  0  0  0
 11 13  1  0  0  0  0
 11 14  1  0  0  0  0
  9 10  1  0  0  0  0
  9 11  1  0  0  0  0
  9 26  1  0  0  0  0
  7  8  1  0  0  0  0
  7  9  1  0  0  0  0
 30 31  1  0  0  0  0
 30 32  1  0  0  0  0
 30 33  1  0  0  0  0
 28 29  1  0  0  0  0
 28 30  1  0  0  0  0
M  END
$$$$
default_name
  -OEChem-02102213163D

 33 33  0     1  0  0  0  0  0999 V2000
   -4.0702   -3.8485    1.4554 H   0  0  0  0  0  0  0  0  0  0  0  0
   -4.0012   -2.9605    0.8284 C   0  0  0  0  0  0  0  0  0  0  0  0
   -4.7652   -2.2435    1.1234 H   0  0  0  0  0  0  0  0  0  0  0  0
   -4.1352   -3.2385   -0.2156 H   0  0  0  0  0  0  0  0  0  0  0  0
   -2.6362   -2.3395    1.0094 C   0  0  0  0  0  0  0  0  0  0  0  0
   -1.8292   -2.8395    1.7814 O   0  0  0  0  0  0  0  0  0  0  0  0
   -2.3832   -1.2445    0.2964 N   0  0  0  0  0  0  0  0  0  0  0  0
   -3.1102   -0.8685   -0.2946 H   0  0  0  0  0  0  0  0  0  0  0  0
   -1.1292   -0.4875    0.3524 C   0  0  1  0  0  0  0  0  0  0  0  0
   -0.5898   -0.7762    1.2552 H   0  0  0  0  0  0  0  0  0  0  0  0
   -0.2608   -0.8470   -0.8656 C   0  0  0  0  0  0  0  0  0  0  0  0
   -0.0627    0.0592   -1.4394 H   0  0  0  0  0  0  0  0  0  0  0  0
    0.6996   -1.2281   -0.5146 H   0  0  0  0  0  0  0  0  0  0  0  0
   -0.8950   -1.8636   -1.7951 C   0  0  0  0  0  0  0  0  0  0  0  0
   -0.4413   -3.1979   -1.8060 C   0  0  0  0  0  0  0  0  0  0  0  0
    0.3806   -3.4953   -1.1681 H   0  0  0  0  0  0  0  0  0  0  0  0
   -1.0605   -4.1477   -2.6417 C   0  0  0  0  0  0  0  0  0  0  0  0
   -0.7095   -5.1681   -2.6486 H   0  0  0  0  0  0  0  0  0  0  0  0
   -2.1396   -3.7620   -3.4666 C   0  0  0  0  0  0  0  0  0  0  0  0
   -2.7453   -4.6711   -4.2739 O   0  0  0  0  0  0  0  0  0  0  0  0
   -2.2958   -5.5172   -4.2660 H   0  0  0  0  0  0  0  0  0  0  0  0
   -2.5955   -2.4276   -3.4508 C   0  0  0  0  0  0  0  0  0  0  0  0
   -3.4186   -2.1439   -4.0892 H   0  0  0  0  0  0  0  0  0  0  0  0
   -1.9716   -1.4795   -2.6177 C   0  0  0  0  0  0  0  0  0  0  0  0
   -2.3163   -0.4523   -2.6130 H   0  0  0  0  0  0  0  0  0  0  0  0
   -1.4018    1.0238    0.4329 C   0  0  0  0  0  0  0  0  0  0  0  0
   -2.2416    1.5423   -0.3033 O   0  0  0  0  0  0  0  0  0  0  0  0
   -0.6927    1.7304    1.3223 N   0  0  0  0  0  0  0  0  0  0  0  0
    0.0178    1.2410    1.8469 H   0  0  0  0  0  0  0  0  0  0  0  0
   -0.8259    3.1712    1.5254 C   0  0  0  0  0  0  0  0  0  0  0  0
   -1.8769    3.4302    1.6645 H   0  0  0  0  0  0  0  0  0  0  0  0
   -0.2598    3.4806    2.4054 H   0  0  0  0  0  0  0  0  0  0  0  0
   -0.4486    3.7020    0.6489 H   0  0  0  0  0  0  0  0  0  0  0  0
  5  6  2  0  0  0  0
  5  7  1  0  0  0  0
  2  3  1  0  0  0  0
  2  4  1  0  0  0  0
  2  5  1  0  0  0  0
  1  2  1  0  0  0  0
 26 27  2  0  0  0  0
 26 28  1  0  0  0  0
 24 25  1  0  0  0  0
 22 23  1  0  0  0  0
 22 24  2  0  0  0  0
 20 21  1  0  0  0  0
 19 20  1  0  0  0  0
 19 22  1  0  0  0  0
 17 18  1  0  0  0  0
 17 19  2  0  0  0  0
 15 16  1  0  0  0  0
 15 17  1  0  0  0  0
 14 15  2  0  0  0  0
 14 24  1  0  0  0  0
 11 12  1  0  0  0  0
 11 13  1  0  0  0  0
 11 14  1  0  0  0  0
  9 10  1  0  0  0  0
  9 11  1  0  0  0  0
  9 26  1  0  0  0  0
  7  8  1  0  0  0  0
  7  9  1  0  0  0  0
 30 31  1  0  0  0  0
 30 32  1  0  0  0  0
 30 33  1  0  0  0  0
 28 29  1  0  0  0  0
 28 30  1  0  0  0  0
M  END
$$$$
default_name
  -OEChem-02102213163D

 33 33  0     1  0  0  0  0  0999 V2000
   -4.0702   -3.8485    1.4554 H   0  0  0  0  0  0  0  0  0  0  0  0
   -4.0012   -2.9605    0.8284 C   0  0  0  0  0  0  0  0  0  0  0  0
   -4.7652   -2.2435    1.1234 H   0  0  0  0  0  0  0  0  0  0  0  0
   -4.1352   -3.2385   -0.2156 H   0  0  0  0  0  0  0  0  0  0  0  0
   -2.6362   -2.3395    1.0094 C   0  0  0  0  0  0  0  0  0  0  0  0
   -1.8292   -2.8395    1.7814 O   0  0  0  0  0  0  0  0  0  0  0  0
   -2.3832   -1.2445    0.2964 N   0  0  0  0  0  0  0  0  0  0  0  0
   -3.1102   -0.8685   -0.2946 H   0  0  0  0  0  0  0  0  0  0  0  0
   -1.1292   -0.4875    0.3524 C   0  0  1  0  0  0  0  0  0  0  0  0
   -0.5898   -0.7762    1.2552 H   0  0  0  0  0  0  0  0  0  0  0  0
   -0.2608   -0.8470   -0.8656 C   0  0  0  0  0  0  0  0  0  0  0  0
   -0.0627    0.0592   -1.4394 H   0  0  0  0  0  0  0  0  0  0  0  0
    0.6996   -1.2281   -0.5146 H   0  0  0  0  0  0  0  0  0  0  0  0
   -0.8950   -1.8636   -1.7951 C   0  0  0  0  0  0  0  0  0  0  0  0
   -0.6767   -3.2418   -1.5973 C   0  0  0  0  0  0  0  0  0  0  0  0
   -0.0330   -3.5783   -0.7952 H   0  0  0  0  0  0  0  0  0  0  0  0
   -1.3005   -4.1836   -2.4386 C   0  0  0  0  0  0  0  0  0  0  0  0
   -1.1299   -5.2381   -2.2853 H   0  0  0  0  0  0  0  0  0  0  0  0
   -2.1485   -3.7452   -3.4789 C   0  0  0  0  0  0  0  0  0  0  0  0
   -2.7571   -4.6456   -4.2938 O   0  0  0  0  0  0  0  0  0  0  0  0
   -2.4638   -5.5418   -4.1244 H   0  0  0  0  0  0  0  0  0  0  0  0
   -2.3697   -2.3658   -3.6723 C   0  0  0  0  0  0  0  0  0  0  0  0
   -3.0168   -2.0428   -4.4739 H   0  0  0  0  0  0  0  0  0  0  0  0
   -1.7411   -1.4268   -2.8326 C   0  0  0  0  0  0  0  0  0  0  0  0
   -1.9042   -0.3669   -2.9876 H   0  0  0  0  0  0  0  0  0  0  0  0
   -1.4018    1.0238    0.4329 C   0  0  0  0  0  0  0  0  0  0  0  0
   -2.2416    1.5423   -0.3033 O   0  0  0  0  0  0  0  0  0  0  0  0
   -0.6927    1.7304    1.3223 N   0  0  0  0  0  0  0  0  0  0  0  0
    0.0178    1.2410    1.8469 H   0  0  0  0  0  0  0  0  0  0  0  0
   -0.8259    3.1712    1.5254 C   0  0  0  0  0  0  0  0  0  0  0  0
   -1.8769    3.4302    1.6645 H   0  0  0  0  0  0  0  0  0  0  0  0
   -0.2598    3.4806    2.4054 H   0  0  0  0  0  0  0  0  0  0  0  0
   -0.4486    3.7020    0.6489 H   0  0  0  0  0  0  0  0  0  0  0  0
  5  6  2  0  0  0  0
  5  7  1  0  0  0  0
  2  3  1  0  0  0  0
  2  4  1  0  0  0  0
  2  5  1  0  0  0  0
  1  2  1  0  0  0  0
 26 27  2  0  0  0  0
 26 28  1  0  0  0  0
 24 25  1  0  0  0  0
 22 23  1  0  0  0  0
 22 24  2  0  0  0  0
 20 21  1  0  0  0  0
 19 20  1  0  0  0  0
 19 22  1  0  0  0  0
 17 18  1  0  0  0  0
 17 19  2  0  0  0  0
 15 16  1  0  0  0  0
 15 17  1  0  0  0  0
 14 15  2  0  0  0  0
 14 24  1  0  0  0  0
 11 12  1  0  0  0  0
 11 13  1  0  0  0  0
 11 14  1  0  0  0  0
  9 10  1  0  0  0  0
  9 11  1  0  0  0  0
  9 26  1  0  0  0  0
  7  8  1  0  0  0  0
  7  9  1  0  0  0  0
 30 31  1  0  0  0  0
 30 32  1  0  0  0  0
 30 33  1  0  0  0  0
 28 29  1  0  0  0  0
 28 30  1  0  0  0  0
M  END
$$$$
default_name
  -OEChem-02102213163D

 33 33  0     1  0  0  0  0  0999 V2000
   -4.0702   -3.8485    1.4554 H   0  0  0  0  0  0  0  0  0  0  0  0
   -4.0012   -2.9605    0.8284 C   0  0  0  0  0  0  0  0  0  0  0  0
   -4.7652   -2.2435    1.1234 H   0  0  0  0  0  0  0  0  0  0  0  0
   -4.1352   -3.2385   -0.2156 H   0  0  0  0  0  0  0  0  0  0  0  0
   -2.6362   -2.3395    1.0094 C   0  0  0  0  0  0  0  0  0  0  0  0
   -1.8292   -2.8395    1.7814 O   0  0  0  0  0  0  0  0  0  0  0  0
   -2.3832   -1.2445    0.2964 N   0  0  0  0  0  0  0  0  0  0  0  0
   -3.1102   -0.8685   -0.2946 H   0  0  0  0  0  0  0  0  0  0  0  0
   -1.1292   -0.4875    0.3524 C   0  0  1  0  0  0  0  0  0  0  0  0
   -0.5898   -0.7762    1.2552 H   0  0  0  0  0  0  0  0  0  0  0  0
   -0.2608   -0.8470   -0.8656 C   0  0  0  0  0  0  0  0  0  0  0  0
   -0.0627    0.0592   -1.4394 H   0  0  0  0  0  0  0  0  0  0  0  0
    0.6996   -1.2281   -0.5146 H   0  0  0  0  0  0  0  0  0  0  0  0
   -0.8950   -1.8636   -1.7951 C   0  0  0  0  0  0  0  0  0  0  0  0
   -0.9473   -3.2243   -1.4319 C   0  0  0  0  0  0  0  0  0  0  0  0
   -0.5104   -3.5524   -0.4978 H   0  0  0  0  0  0  0  0  0  0  0  0
   -1.5733   -4.1583   -2.2802 C   0  0  0  0  0  0  0  0  0  0  0  0
   -1.6101   -5.1997   -1.9996 H   0  0  0  0  0  0  0  0  0  0  0  0
   -2.1523   -3.7288   -3.4942 C   0  0  0  0  0  0  0  0  0  0  0  0
   -2.7610   -4.6212   -4.3178 O   0  0  0  0  0  0  0  0  0  0  0  0
   -2.6546   -5.5236   -4.0141 H   0  0  0  0  0  0  0  0  0  0  0  0
   -2.1034   -2.3660   -3.8538 C   0  0  0  0  0  0  0  0  0  0  0  0
   -2.5459   -2.0506   -4.7867 H   0  0  0  0  0  0  0  0  0  0  0  0
   -1.4729   -1.4356   -3.0059 C   0  0  0  0  0  0  0  0  0  0  0  0
   -1.4276   -0.3902   -3.2872 H   0  0  0  0  0  0  0  0  0  0  0  0
   -1.4018    1.0238    0.4329 C   0  0  0  0  0  0  0  0  0  0  0  0
   -2.2416    1.5423   -0.3033 O   0  0  0  0  0  0  0  0  0  0  0  0
   -0.6927    1.7304    1.3223 N   0  0  0  0  0  0  0  0  0  0  0  0
    0.0178    1.2410    1.8469 H   0  0  0  0  0  0  0  0  0  0  0  0
   -0.8259    3.1712    1.5254 C   0  0  0  0  0  0  0  0  0  0  0  0
   -1.8769    3.4302    1.6645 H   0  0  0  0  0  0  0  0  0  0  0  0
   -0.2598    3.4806    2.4054 H   0  0  0  0  0  0  0  0  0  0  0  0
   -0.4486    3.7020    0.6489 H   0  0  0  0  0  0  0  0  0  0  0  0
  5  6  2  0  0  0  0
  5  7  1  0  0  0  0
  2  3  1  0  0  0  0
  2  4  1  0  0  0  0
  2  5  1  0  0  0  0
  1  2  1  0  0  0  0
 26 27  2  0  0  0  0
 26 28  1  0  0  0  0
 24 25  1  0  0  0  0
 22 23  1  0  0  0  0
 22 24  2  0  0  0  0
 20 21  1  0  0  0  0
 19 20  1  0  0  0  0
 19 22  1  0  0  0  0
 17 18  1  0  0  0  0
 17 19  2  0  0  0  0
 15 16  1  0  0  0  0
 15 17  1  0  0  0  0
 14 15  2  0  0  0  0
 14 24  1  0  0  0  0
 11 12  1  0  0  0  0
 11 13  1  0  0  0  0
 11 14  1  0  0  0  0
  9 10  1  0  0  0  0
  9 11  1  0  0  0  0
  9 26  1  0  0  0  0
  7  8  1  0  0  0  0
  7  9  1  0  0  0  0
 30 31  1  0  0  0  0
 30 32  1  0  0  0  0
 30 33  1  0  0  0  0
 28 29  1  0  0  0  0
 28 30  1  0  0  0  0
M  END
$$$$
default_name
  -OEChem-02102213163D

 33 33  0     1  0  0  0  0  0999 V2000
   -4.0702   -3.8485    1.4554 H   0  0  0  0  0  0  0  0  0  0  0  0
   -4.0012   -2.9605    0.8284 C   0  0  0  0  0  0  0  0  0  0  0  0
   -4.7652   -2.2435    1.1234 H   0  0  0  0  0  0  0  0  0  0  0  0
   -4.1352   -3.2385   -0.2156 H   0  0  0  0  0  0  0  0  0  0  0  0
   -2.6362   -2.3395    1.0094 C   0  0  0  0  0  0  0  0  0  0  0  0
   -1.8292   -2.8395    1.7814 O   0  0  0  0  0  0  0  0  0  0  0  0
   -2.3832   -1.2445    0.2964 N   0  0  0  0  0  0  0  0  0  0  0  0
   -3.1102   -0.8685   -0.2946 H   0  0  0  0  0  0  0  0  0  0  0  0
   -1.1292   -0.4875    0.3524 C   0  0  1  0  0  0  0  0  0  0  0  0
   -0.5898   -0.7762    1.2552 H   0  0  0  0  0  0  0  0  0  0  0  0
   -0.2608   -0.8470   -0.8656 C   0  0  0  0  0  0  0  0  0  0  0  0
   -0.0627    0.0592   -1.4394 H   0  0  0  0  0  0  0  0  0  0  0  0
    0.6996   -1.2281   -0.5146 H   0  0  0  0  0  0  0  0  0  0  0  0
   -0.8950   -1.8636   -1.7951 C   0  0  0  0  0  0  0  0  0  0  0  0
   -1.2345   -3.1466   -1.3209 C   0  0  0  0  0  0  0  0  0  0  0  0
   -1.0190   -3.4195   -0.2961 H   0  0  0  0  0  0  0  0  0  0  0  0
   -1.8603   -4.0734   -2.1773 C   0  0  0  0  0  0  0  0  0  0  0  0
   -2.1174   -5.0555   -1.8112 H   0  0  0  0  0  0  0  0  0  0  0  0
   -2.1507   -3.7140   -3.5115 C   0  0  0  0  0  0  0  0  0  0  0  0
   -2.7567   -4.5996   -4.3444 O   0  0  0  0  0  0  0  0  0  0  0  0
   -2.8551   -5.4639   -3.9427 H   0  0  0  0  0  0  0  0  0  0  0  0
   -1.8148   -2.4280   -3.9829 C   0  0  0  0  0  0  0  0  0  0  0  0
   -2.0380   -2.1666   -5.0063 H   0  0  0  0  0  0  0  0  0  0  0  0
   -1.1852   -1.5055   -3.1258 C   0  0  0  0  0  0  0  0  0  0  0  0
   -0.9190   -0.5209   -3.4914 H   0  0  0  0  0  0  0  0  0  0  0  0
   -1.4018    1.0238    0.4329 C   0  0  0  0  0  0  0  0  0  0  0  0
   -2.2416    1.5423   -0.3033 O   0  0  0  0  0  0  0  0  0  0  0  0
   -0.6927    1.7304    1.3223 N   0  0  0  0  0  0  0  0  0  0  0  0
    0.0178    1.2410    1.8469 H   0  0  0  0  0  0  0  0  0  0  0  0
   -0.8259    3.1712    1.5254 C   0  0  0  0  0  0  0  0  0  0  0  0
   -1.8769    3.4302    1.6645 H   0  0  0  0  0  0  0  0  0  0  0  0
   -0.2598    3.4806    2.4054 H   0  0  0  0  0  0  0  0  0  0  0  0
   -0.4486    3.7020    0.6489 H   0  0  0  0  0  0  0  0  0  0  0  0
  5  6  2  0  0  0  0
  5  7  1  0  0  0  0
  2  3  1  0  0  0  0
  2  4  1  0  0  0  0
  2  5  1  0  0  0  0
  1  2  1  0  0  0  0
 26 27  2  0  0  0  0
 26 28  1  0  0  0  0
 24 25  1  0  0  0  0
 22 23  1  0  0  0  0
 22 24  2  0  0  0  0
 20 21  1  0  0  0  0
 19 20  1  0  0  0  0
 19 22  1  0  0  0  0
 17 18  1  0  0  0  0
 17 19  2  0  0  0  0
 15 16  1  0  0  0  0
 15 17  1  0  0  0  0
 14 15  2  0  0  0  0
 14 24  1  0  0  0  0
 11 12  1  0  0  0  0
 11 13  1  0  0  0  0
 11 14  1  0  0  0  0
  9 10  1  0  0  0  0
  9 11  1  0  0  0  0
  9 26  1  0  0  0  0
  7  8  1  0  0  0  0
  7  9  1  0  0  0  0
 30 31  1  0  0  0  0
 30 32  1  0  0  0  0
 30 33  1  0  0  0  0
 28 29  1  0  0  0  0
 28 30  1  0  0  0  0
M  END
$$$$
default_name
  -OEChem-02102213163D

 33 33  0     1  0  0  0  0  0999 V2000
   -4.0702   -3.8485    1.4554 H   0  0  0  0  0  0  0  0  0  0  0  0
   -4.0012   -2.9605    0.8284 C   0  0  0  0  0  0  0  0  0  0  0  0
   -4.7652   -2.2435    1.1234 H   0  0  0  0  0  0  0  0  0  0  0  0
   -4.1352   -3.2385   -0.2156 H   0  0  0  0  0  0  0  0  0  0  0  0
   -2.6362   -2.3395    1.0094 C   0  0  0  0  0  0  0  0  0  0  0  0
   -1.8292   -2.8395    1.7814 O   0  0  0  0  0  0  0  0  0  0  0  0
   -2.3832   -1.2445    0.2964 N   0  0  0  0  0  0  0  0  0  0  0  0
   -3.1102   -0.8685   -0.2946 H   0  0  0  0  0  0  0  0  0  0  0  0
   -1.1292   -0.4875    0.3524 C   0  0  1  0  0  0  0  0  0  0  0  0
   -0.5898   -0.7762    1.2552 H   0  0  0  0  0  0  0  0  0  0  0  0
   -0.2608   -0.8470   -0.8656 C   0  0  0  0  0  0  0  0  0  0  0  0
   -0.0627    0.0592   -1.4394 H   0  0  0  0  0  0  0  0  0  0  0  0
    0.6996   -1.2281   -0.5146 H   0  0  0  0  0  0  0  0  0  0  0  0
   -0.8950   -1.8636   -1.7951 C   0  0  0  0  0  0  0  0  0  0  0  0
   -1.5189   -3.0140   -1.2720 C   0  0  0  0  0  0  0  0  0  0  0  0
   -1.5242   -3.1886   -0.2040 H   0  0  0  0  0  0  0  0  0  0  0  0
   -2.1418   -3.9348   -2.1368 C   0  0  0  0  0  0  0  0  0  0  0  0
   -2.6173   -4.8153   -1.7329 H   0  0  0  0  0  0  0  0  0  0  0  0
   -2.1439   -3.7019   -3.5294 C   0  0  0  0  0  0  0  0  0  0  0  0
   -2.7445   -4.5823   -4.3716 O   0  0  0  0  0  0  0  0  0  0  0  0
   -3.0517   -5.3666   -3.9150 H   0  0  0  0  0  0  0  0  0  0  0  0
   -1.5234   -2.5477   -4.0508 C   0  0  0  0  0  0  0  0  0  0  0  0
   -1.5277   -2.3830   -5.1177 H   0  0  0  0  0  0  0  0  0  0  0  0
   -0.8976   -1.6316   -3.1841 C   0  0  0  0  0  0  0  0  0  0  0  0
   -0.4130   -0.7498   -3.5862 H   0  0  0  0  0  0  0  0  0  0  0  0
   -1.4018    1.0238    0.4329 C   0  0  0  0  0  0  0  0  0  0  0  0
   -2.2416    1.5423   -0.3033 O   0  0  0  0  0  0  0  0  0  0  0  0
   -0.6927    1.7304    1.3223 N   0  0  0  0  0  0  0  0  0  0  0  0
    0.0178    1.2410    1.8469 H   0  0  0  0  0  0  0  0  0  0  0  0
   -0.8259    3.1712    1.5254 C   0  0  0  0  0  0  0  0  0  0  0  0
   -1.8769    3.4302    1.6645 H   0  0  0  0  0  0  0  0  0  0  0  0
   -0.2598    3.4806    2.4054 H   0  0  0  0  0  0  0  0  0  0  0  0
   -0.4486    3.7020    0.6489 H   0  0  0  0  0  0  0  0  0  0  0  0
  5  6  2  0  0  0  0
  5  7  1  0  0  0  0
  2  3  1  0  0  0  0
  2  4  1  0  0  0  0
  2  5  1  0  0  0  0
  1  2  1  0  0  0  0
 26 27  2  0  0  0  0
 26 28  1  0  0  0  0
 24 25  1  0  0  0  0
 22 23  1  0  0  0  0
 22 24  2  0  0  0  0
 20 21  1  0  0  0  0
 19 20  1  0  0  0  0
 19 22  1  0  0  0  0
 17 18  1  0  0  0  0
 17 19  2  0  0  0  0
 15 16  1  0  0  0  0
 15 17  1  0  0  0  0
 14 15  2  0  0  0  0
 14 24  1  0  0  0  0
 11 12  1  0  0  0  0
 11 13  1  0  0  0  0
 11 14  1  0  0  0  0
  9 10  1  0  0  0  0
  9 11  1  0  0  0  0
  9 26  1  0  0  0  0
  7  8  1  0  0  0  0
  7  9  1  0  0  0  0
 30 31  1  0  0  0  0
 30 32  1  0  0  0  0
 30 33  1  0  0  0  0
 28 29  1  0  0  0  0
 28 30  1  0  0  0  0
M  END
$$$$
default_name
  -OEChem-02102213163D

 33 33  0     1  0  0  0  0  0999 V2000
   -4.0702   -3.8485    1.4554 H   0  0  0  0  0  0  0  0  0  0  0  0
   -4.0012   -2.9605    0.8284 C   0  0  0  0  0  0  0  0  0  0  0  0
   -4.7652   -2.2435    1.1234 H   0  0  0  0  0  0  0  0  0  0  0  0
   -4.1352   -3.2385   -0.2156 H   0  0  0  0  0  0  0  0  0  0  0  0
   -2.6362   -2.3395    1.0094 C   0  0  0  0  0  0  0  0  0  0  0  0
   -1.8292   -2.8395    1.7814 O   0  0  0  0  0  0  0  0  0  0  0  0
   -2.3832   -1.2445    0.2964 N   0  0  0  0  0  0  0  0  0  0  0  0
   -3.1102   -0.8685   -0.2946 H   0  0  0  0  0  0  0  0  0  0  0  0
   -1.1292   -0.4875    0.3524 C   0  0  1  0  0  0  0  0  0  0  0  0
   -0.5898   -0.7762    1.2552 H   0  0  0  0  0  0  0  0  0  0  0  0
   -0.2608   -0.8470   -0.8656 C   0  0  0  0  0  0  0  0  0  0  0  0
   -0.0627    0.0592   -1.4394 H   0  0  0  0  0  0  0  0  0  0  0  0
    0.6996   -1.2281   -0.5146 H   0  0  0  0  0  0  0  0  0  0  0  0
   -0.8950   -1.8636   -1.7951 C   0  0  0  0  0  0  0  0  0  0  0  0
   -1.7811   -2.8354   -1.2884 C   0  0  0  0  0  0  0  0  0  0  0  0
   -1.9916   -2.8754   -0.2277 H   0  0  0  0  0  0  0  0  0  0  0  0
   -2.3989   -3.7518   -2.1616 C   0  0  0  0  0  0  0  0  0  0  0  0
   -3.0756   -4.4956   -1.7699 H   0  0  0  0  0  0  0  0  0  0  0  0
   -2.1322   -3.6932   -3.5469 C   0  0  0  0  0  0  0  0  0  0  0  0
   -2.7252   -4.5705   -4.3976 O   0  0  0  0  0  0  0  0  0  0  0  0
   -3.2310   -5.2385   -3.9328 H   0  0  0  0  0  0  0  0  0  0  0  0
   -1.2491   -2.7169   -4.0528 C   0  0  0  0  0  0  0  0  0  0  0  0
   -1.0498   -2.6851   -5.1134 H   0  0  0  0  0  0  0  0  0  0  0  0
   -0.6296   -1.8054   -3.1769 C   0  0  0  0  0  0  0  0  0  0  0  0
    0.0559   -1.0615   -3.5652 H   0  0  0  0  0  0  0  0  0  0  0  0
   -1.4018    1.0238    0.4329 C   0  0  0  0  0  0  0  0  0  0  0  0
   -2.2416    1.5423   -0.3033 O   0  0  0  0  0  0  0  0  0  0  0  0
   -0.6927    1.7304    1.3223 N   0  0  0  0  0  0  0  0  0  0  0  0
    0.0178    1.2410    1.8469 H   0  0  0  0  0  0  0  0  0  0  0  0
   -0.8259    3.1712    1.5254 C   0  0  0  0  0  0  0  0  0  0  0  0
   -1.8769    3.4302    1.6645 H   0  0  0  0  0  0  0  0  0  0  0  0
   -0.2598    3.4806    2.4054 H   0  0  0  0  0  0  0  0  0  0  0  0
   -0.4486    3.7020    0.6489 H   0  0  0  0  0  0  0  0  0  0  0  0
  5  6  2  0  0  0  0
  5  7  1  0  0  0  0
  2  3  1  0  0  0  0
  2  4  1  0  0  0  0
  2  5  1  0  0  0  0
  1  2  1  0  0  0  0
 26 27  2  0  0  0  0
 26 28  1  0  0  0  0
 24 25  1  0  0  0  0
 22 23  1  0  0  0  0
 22 24  2  0  0  0  0
 20 21  1  0  0  0  0
 19 20  1  0  0  0  0
 19 22  1  0  0  0  0
 17 18  1  0  0  0  0
 17 19  2  0  0  0  0
 15 16  1  0  0  0  0
 15 17  1  0  0  0  0
 14 15  2  0  0  0  0
 14 24  1  0  0  0  0
 11 12  1  0  0  0  0
 11 13  1  0  0  0  0
 11 14  1  0  0  0  0
  9 10  1  0  0  0  0
  9 11  1  0  0  0  0
  9 26  1  0  0  0  0
  7  8  1  0  0  0  0
  7  9  1  0  0  0  0
 30 31  1  0  0  0  0
 30 32  1  0  0  0  0
 30 33  1  0  0  0  0
 28 29  1  0  0  0  0
 28 30  1  0  0  0  0
M  END
$$$$
default_name
  -OEChem-02102213163D

 33 33  0     1  0  0  0  0  0999 V2000
   -4.0702   -3.8485    1.4554 H   0  0  0  0  0  0  0  0  0  0  0  0
   -4.0012   -2.9605    0.8284 C   0  0  0  0  0  0  0  0  0  0  0  0
   -4.7652   -2.2435    1.1234 H   0  0  0  0  0  0  0  0  0  0  0  0
   -4.1352   -3.2385   -0.2156 H   0  0  0  0  0  0  0  0  0  0  0  0
   -2.6362   -2.3395    1.0094 C   0  0  0  0  0  0  0  0  0  0  0  0
   -1.8292   -2.8395    1.7814 O   0  0  0  0  0  0  0  0  0  0  0  0
   -2.3832   -1.2445    0.2964 N   0  0  0  0  0  0  0  0  0  0  0  0
   -3.1102   -0.8685   -0.2946 H   0  0  0  0  0  0  0  0  0  0  0  0
   -1.1292   -0.4875    0.3524 C   0  0  1  0  0  0  0  0  0  0  0  0
   -0.5898   -0.7762    1.2552 H   0  0  0  0  0  0  0  0  0  0  0  0
   -0.2608   -0.8470   -0.8656 C   0  0  0  0  0  0  0  0  0  0  0  0
   -0.0627    0.0592   -1.4394 H   0  0  0  0  0  0  0  0  0  0  0  0
    0.6996   -1.2281   -0.5146 H   0  0  0  0  0  0  0  0  0  0  0  0
   -0.8950   -1.8636   -1.7951 C   0  0  0  0  0  0  0  0  0  0  0  0
   -2.0031   -2.6231   -1.3691 C   0  0  0  0  0  0  0  0  0  0  0  0
   -2.3892   -2.5013   -0.3655 H   0  0  0  0  0  0  0  0  0  0  0  0
   -2.6138   -3.5369   -2.2499 C   0  0  0  0  0  0  0  0  0  0  0  0
   -3.4611   -4.1180   -1.9198 H   0  0  0  0  0  0  0  0  0  0  0  0
   -2.1165   -3.6886   -3.5627 C   0  0  0  0  0  0  0  0  0  0  0  0
   -2.7003   -4.5650   -4.4207 O   0  0  0  0  0  0  0  0  0  0  0  0
   -3.3807   -5.0882   -3.9950 H   0  0  0  0  0  0  0  0  0  0  0  0
   -1.0107   -2.9241   -3.9889 C   0  0  0  0  0  0  0  0  0  0  0  0
   -0.6369   -3.0522   -4.9936 H   0  0  0  0  0  0  0  0  0  0  0  0
   -0.3996   -2.0149   -3.1046 C   0  0  0  0  0  0  0  0  0  0  0  0
    0.4558   -1.4347   -3.4298 H   0  0  0  0  0  0  0  0  0  0  0  0
   -1.4018    1.0238    0.4329 C   0  0  0  0  0  0  0  0  0  0  0  0
   -2.2416    1.5423   -0.3033 O   0  0  0  0  0  0  0  0  0  0  0  0
   -0.6927    1.7304    1.3223 N   0  0  0  0  0  0  0  0  0  0  0  0
    0.0178    1.2410    1.8469 H   0  0  0  0  0  0  0  0  0  0  0  0
   -0.8259    3.1712    1.5254 C   0  0  0  0  0  0  0  0  0  0  0  0
   -1.8769    3.4302    1.6645 H   0  0  0  0  0  0  0  0  0  0  0  0
   -0.2598    3.4806    2.4054 H   0  0  0  0  0  0  0  0  0  0  0  0
   -0.4486    3.7020    0.6489 H   0  0  0  0  0  0  0  0  0  0  0  0
  5  6  2  0  0  0  0
  5  7  1  0  0  0  0
  2  3  1  0  0  0  0
  2  4  1  0  0  0  0
  2  5  1  0  0  0  0
  1  2  1  0  0  0  0
 26 27  2  0  0  0  0
 26 28  1  0  0  0  0
 24 25  1  0  0  0  0
 22 23  1  0  0  0  0
 22 24  2  0  0  0  0
 20 21  1  0  0  0  0
 19 20  1  0  0  0  0
 19 22  1  0  0  0  0
 17 18  1  0  0  0  0
 17 19  2  0  0  0  0
 15 16  1  0  0  0  0
 15 17  1  0  0  0  0
 14 15  2  0  0  0  0
 14 24  1  0  0  0  0
 11 12  1  0  0  0  0
 11 13  1  0  0  0  0
 11 14  1  0  0  0  0
  9 10  1  0  0  0  0
  9 11  1  0  0  0  0
  9 26  1  0  0  0  0
  7  8  1  0  0  0  0
  7  9  1  0  0  0  0
 30 31  1  0  0  0  0
 30 32  1  0  0  0  0
 30 33  1  0  0  0  0
 28 29  1  0  0  0  0
 28 30  1  0  0  0  0
M  END
$$$$
default_name
  -OEChem-02102213163D

 33 33  0     1  0  0  0  0  0999 V2000
   -4.0702   -3.8485    1.4554 H   0  0  0  0  0  0  0  0  0  0  0  0
   -4.0012   -2.9605    0.8284 C   0  0  0  0  0  0  0  0  0  0  0  0
   -4.7652   -2.2435    1.1234 H   0  0  0  0  0  0  0  0  0  0  0  0
   -4.1352   -3.2385   -0.2156 H   0  0  0  0  0  0  0  0  0  0  0  0
   -2.6362   -2.3395    1.0094 C   0  0  0  0  0  0  0  0  0  0  0  0
   -1.8292   -2.8395    1.7814 O   0  0  0  0  0  0  0  0  0  0  0  0
   -2.3832   -1.2445    0.2964 N   0  0  0  0  0  0  0  0  0  0  0  0
   -3.1102   -0.8685   -0.2946 H   0  0  0  0  0  0  0  0  0  0  0  0
   -1.1292   -0.4875    0.3524 C   0  0  1  0  0  0  0  0  0  0  0  0
   -0.5898   -0.7762    1.2552 H   0  0  0  0  0  0  0  0  0  0  0  0
   -0.2608   -0.8470   -0.8656 C   0  0  0  0  0  0  0  0  0  0  0  0
   -0.0627    0.0592   -1.4394 H   0  0  0  0  0  0  0  0  0  0  0  0
    0.6996   -1.2281   -0.5146 H   0  0  0  0  0  0  0  0  0  0  0  0
   -0.8950   -1.8636   -1.7951 C   0  0  0  0  0  0  0  0  0  0  0  0
   -2.1699   -2.3916   -1.5085 C   0  0  0  0  0  0  0  0  0  0  0  0
   -2.6900   -2.0918   -0.6081 H   0  0  0  0  0  0  0  0  0  0  0  0
   -2.7720   -3.3049   -2.3958 C   0  0  0  0  0  0  0  0  0  0  0  0
   -3.7476   -3.7083   -2.1724 H   0  0  0  0  0  0  0  0  0  0  0  0
   -2.0979   -3.6883   -3.5757 C   0  0  0  0  0  0  0  0  0  0  0  0
   -2.6713   -4.5661   -4.4393 O   0  0  0  0  0  0  0  0  0  0  0  0
   -3.4907   -4.9260   -4.0973 H   0  0  0  0  0  0  0  0  0  0  0  0
   -0.8243   -3.1551   -3.8634 C   0  0  0  0  0  0  0  0  0  0  0  0
   -0.3171   -3.4594   -4.7665 H   0  0  0  0  0  0  0  0  0  0  0  0
   -0.2232   -2.2460   -2.9722 C   0  0  0  0  0  0  0  0  0  0  0  0
    0.7593   -1.8440   -3.1893 H   0  0  0  0  0  0  0  0  0  0  0  0
   -1.4018    1.0238    0.4329 C   0  0  0  0  0  0  0  0  0  0  0  0
   -2.2416    1.5423   -0.3033 O   0  0  0  0  0  0  0  0  0  0  0  0
   -0.6927    1.7304    1.3223 N   0  0  0  0  0  0  0  0  0  0  0  0
    0.0178    1.2410    1.8469 H   0  0  0  0  0  0  0  0  0  0  0  0
   -0.8259    3.1712    1.5254 C   0  0  0  0  0  0  0  0  0  0  0  0
   -1.8769    3.4302    1.6645 H   0  0  0  0  0  0  0  0  0  0  0  0
   -0.2598    3.4806    2.4054 H   0  0  0  0  0  0  0  0  0  0  0  0
   -0.4486    3.7020    0.6489 H   0  0  0  0  0  0  0  0  0  0  0  0
  5  6  2  0  0  0  0
  5  7  1  0  0  0  0
  2  3  1  0  0  0  0
  2  4  1  0  0  0  0
  2  5  1  0  0  0  0
  1  2  1  0  0  0  0
 26 27  2  0  0  0  0
 26 28  1  0  0  0  0
 24 25  1  0  0  0  0
 22 23  1  0  0  0  0
 22 24  2  0  0  0  0
 20 21  1  0  0  0  0
 19 20  1  0  0  0  0
 19 22  1  0  0  0  0
 17 18  1  0  0  0  0
 17 19  2  0  0  0  0
 15 16  1  0  0  0  0
 15 17  1  0  0  0  0
 14 15  2  0  0  0  0
 14 24  1  0  0  0  0
 11 12  1  0  0  0  0
 11 13  1  0  0  0  0
 11 14  1  0  0  0  0
  9 10  1  0  0  0  0
  9 11  1  0  0  0  0
  9 26  1  0  0  0  0
  7  8  1  0  0  0  0
  7  9  1  0  0  0  0
 30 31  1  0  0  0  0
 30 32  1  0  0  0  0
 30 33  1  0  0  0  0
 28 29  1  0  0  0  0
 28 30  1  0  0  0  0
M  END
$$$$
default_name
  -OEChem-02102213163D

 33 33  0     1  0  0  0  0  0999 V2000
   -4.0702   -3.8485    1.4554 H   0  0  0  0  0  0  0  0  0  0  0  0
   -4.0012   -2.9605    0.8284 C   0  0  0  0  0  0  0  0  0  0  0  0
   -4.7652   -2.2435    1.1234 H   0  0  0  0  0  0  0  0  0  0  0  0
   -4.1352   -3.2385   -0.2156 H   0  0  0  0  0  0  0  0  0  0  0  0
   -2.6362   -2.3395    1.0094 C   0  0  0  0  0  0  0  0  0  0  0  0
   -1.8292   -2.8395    1.7814 O   0  0  0  0  0  0  0  0  0  0  0  0
   -2.3832   -1.2445    0.2964 N   0  0  0  0  0  0  0  0  0  0  0  0
   -3.1102   -0.8685   -0.2946 H   0  0  0  0  0  0  0  0  0  0  0  0
   -1.1292   -0.4875    0.3524 C   0  0  1  0  0  0  0  0  0  0  0  0
   -0.5898   -0.7762    1.2552 H   0  0  0  0  0  0  0  0  0  0  0  0
   -0.2608   -0.8470   -0.8656 C   0  0  0  0  0  0  0  0  0  0  0  0
   -0.0627    0.0592   -1.4394 H   0  0  0  0  0  0  0  0  0  0  0  0
    0.6996   -1.2281   -0.5146 H   0  0  0  0  0  0  0  0  0  0  0  0
   -0.8950   -1.8636   -1.7951 C   0  0  0  0  0  0  0  0  0  0  0  0
   -2.2701   -2.1566   -1.6972 C   0  0  0  0  0  0  0  0  0  0  0  0
   -2.8735   -1.6748   -0.9390 H   0  0  0  0  0  0  0  0  0  0  0  0
   -2.8627   -3.0714   -2.5892 C   0  0  0  0  0  0  0  0  0  0  0  0
   -3.9155   -3.2945   -2.5103 H   0  0  0  0  0  0  0  0  0  0  0  0
   -2.0776   -3.6923   -3.5851 C   0  0  0  0  0  0  0  0  0  0  0  0
   -2.6402   -4.5738   -4.4521 O   0  0  0  0  0  0  0  0  0  0  0  0
   -3.5535   -4.7629   -4.2328 H   0  0  0  0  0  0  0  0  0  0  0  0
   -0.7028   -3.3943   -3.6848 C   0  0  0  0  0  0  0  0  0  0  0  0
   -0.1121   -3.8788   -4.4476 H   0  0  0  0  0  0  0  0  0  0  0  0
   -0.1125   -2.4829   -2.7887 C   0  0  0  0  0  0  0  0  0  0  0  0
    0.9458   -2.2614   -2.8600 H   0  0  0  0  0  0  0  0  0  0  0  0
   -1.4018    1.0238    0.4329 C   0  0  0  0  0  0  0  0  0  0  0  0
   -2.2416    1.5423   -0.3033 O   0  0  0  0  0  0  0  0  0  0  0  0
   -0.6927    1.7304    1.3223 N   0  0  0  0  0  0  0  0  0  0  0  0
    0.0178    1.2410    1.8469 H   0  0  0  0  0  0  0  0  0  0  0  0
   -0.8259    3.1712    1.5254 C   0  0  0  0  0  0  0  0  0  0  0  0
   -1.8769    3.4302    1.6645 H   0  0  0  0  0  0  0  0  0  0  0  0
   -0.2598    3.4806    2.4054 H   0  0  0  0  0  0  0  0  0  0  0  0
   -0.4486    3.7020    0.6489 H   0  0  0  0  0  0  0  0  0  0  0  0
  5  6  2  0  0  0  0
  5  7  1  0  0  0  0
  2  3  1  0  0  0  0
  2  4  1  0  0  0  0
  2  5  1  0  0  0  0
  1  2  1  0  0  0  0
 26 27  2  0  0  0  0
 26 28  1  0  0  0  0
 24 25  1  0  0  0  0
 22 23  1  0  0  0  0
 22 24  2  0  0  0  0
 20 21  1  0  0  0  0
 19 20  1  0  0  0  0
 19 22  1  0  0  0  0
 17 18  1  0  0  0  0
 17 19  2  0  0  0  0
 15 16  1  0  0  0  0
 15 17  1  0  0  0  0
 14 15  2  0  0  0  0
 14 24  1  0  0  0  0
 11 12  1  0  0  0  0
 11 13  1  0  0  0  0
 11 14  1  0  0  0  0
  9 10  1  0  0  0  0
  9 11  1  0  0  0  0
  9 26  1  0  0  0  0
  7  8  1  0  0  0  0
  7  9  1  0  0  0  0
 30 31  1  0  0  0  0
 30 32  1  0  0  0  0
 30 33  1  0  0  0  0
 28 29  1  0  0  0  0
 28 30  1  0  0  0  0
M  END
$$$$
default_name
  -OEChem-02102213163D

 33 33  0     1  0  0  0  0  0999 V2000
   -4.0702   -3.8485    1.4554 H   0  0  0  0  0  0  0  0  0  0  0  0
   -4.0012   -2.9605    0.8284 C   0  0  0  0  0  0  0  0  0  0  0  0
   -4.7652   -2.2435    1.1234 H   0  0  0  0  0  0  0  0  0  0  0  0
   -4.1352   -3.2385   -0.2156 H   0  0  0  0  0  0  0  0  0  0  0  0
   -2.6362   -2.3395    1.0094 C   0  0  0  0  0  0  0  0  0  0  0  0
   -1.8292   -2.8395    1.7814 O   0  0  0  0  0  0  0  0  0  0  0  0
   -2.3832   -1.2445    0.2964 N   0  0  0  0  0  0  0  0  0  0  0  0
   -3.1102   -0.8685   -0.2946 H   0  0  0  0  0  0  0  0  0  0  0  0
   -1.1292   -0.4875    0.3524 C   0  0  1  0  0  0  0  0  0  0  0  0
   -0.5898   -0.7762    1.2552 H   0  0  0  0  0  0  0  0  0  0  0  0
   -0.2608   -0.8470   -0.8656 C   0  0  0  0  0  0  0  0  0  0  0  0
   -0.0627    0.0592   -1.4394 H   0  0  0  0  0  0  0  0  0  0  0  0
    0.6996   -1.2281   -0.5146 H   0  0  0  0  0  0  0  0  0  0  0  0
   -0.8950   -1.8636   -1.7951 C   0  0  0  0  0  0  0  0  0  0  0  0
   -2.2968   -1.9341   -1.9222 C   0  0  0  0  0  0  0  0  0  0  0  0
   -2.9272   -1.2787   -1.3355 H   0  0  0  0  0  0  0  0  0  0  0  0
   -2.8796   -2.8524   -2.8171 C   0  0  0  0  0  0  0  0  0  0  0  0
   -3.9535   -2.9048   -2.9107 H   0  0  0  0  0  0  0  0  0  0  0  0
   -2.0570   -3.7005   -3.5902 C   0  0  0  0  0  0  0  0  0  0  0  0
   -2.6092   -4.5875   -4.4582 O   0  0  0  0  0  0  0  0  0  0  0  0
   -3.5648   -4.6101   -4.3922 H   0  0  0  0  0  0  0  0  0  0  0  0
   -0.6543   -3.6252   -3.4653 C   0  0  0  0  0  0  0  0  0  0  0  0
   -0.0361   -4.2820   -4.0586 H   0  0  0  0  0  0  0  0  0  0  0  0
   -0.0749   -2.7094   -2.5666 C   0  0  0  0  0  0  0  0  0  0  0  0
    1.0026   -2.6586   -2.4644 H   0  0  0  0  0  0  0  0  0  0  0  0
   -1.4018    1.0238    0.4329 C   0  0  0  0  0  0  0  0  0  0  0  0
   -2.2416    1.5423   -0.3033 O   0  0  0  0  0  0  0  0  0  0  0  0
   -0.6927    1.7304    1.3223 N   0  0  0  0  0  0  0  0  0  0  0  0
    0.0178    1.2410    1.8469 H   0  0  0  0  0  0  0  0  0  0  0  0
   -0.8259    3.1712    1.5254 C   0  0  0  0  0  0  0  0  0  0  0  0
   -1.8769    3.4302    1.6645 H   0  0  0  0  0  0  0  0  0  0  0  0
   -0.2598    3.4806    2.4054 H   0  0  0  0  0  0  0  0  0  0  0  0
   -0.4486    3.7020    0.6489 H   0  0  0  0  0  0  0  0  0  0  0  0
  5  6  2  0  0  0  0
  5  7  1  0  0  0  0
  2  3  1  0  0  0  0
  2  4  1  0  0  0  0
  2  5  1  0  0  0  0
  1  2  1  0  0  0  0
 26 27  2  0  0  0  0
 26 28  1  0  0  0  0
 24 25  1  0  0  0  0
 22 23  1  0  0  0  0
 22 24  2  0  0  0  0
 20 21  1  0  0  0  0
 19 20  1  0  0  0  0
 19 22  1  0  0  0  0
 17 18  1  0  0  0  0
 17 19  2  0  0  0  0
 15 16  1  0  0  0  0
 15 17  1  0  0  0  0
 14 15  2  0  0  0  0
 14 24  1  0  0  0  0
 11 12  1  0  0  0  0
 11 13  1  0  0  0  0
 11 14  1  0  0  0  0
  9 10  1  0  0  0  0
  9 11  1  0  0  0  0
  9 26  1  0  0  0  0
  7  8  1  0  0  0  0
  7  9  1  0  0  0  0
 30 31  1  0  0  0  0
 30 32  1  0  0  0  0
 30 33  1  0  0  0  0
 28 29  1  0  0  0  0
 28 30  1  0  0  0  0
M  END
$$$$
default_name
  -OEChem-02102213163D

 33 33  0     1  0  0  0  0  0999 V2000
   -4.0702   -3.8485    1.4554 H   0  0  0  0  0  0  0  0  0  0  0  0
   -4.0012   -2.9605    0.8284 C   0  0  0  0  0  0  0  0  0  0  0  0
   -4.7652   -2.2435    1.1234 H   0  0  0  0  0  0  0  0  0  0  0  0
   -4.1352   -3.2385   -0.2156 H   0  0  0  0  0  0  0  0  0  0  0  0
   -2.6362   -2.3395    1.0094 C   0  0  0  0  0  0  0  0  0  0  0  0
   -1.8292   -2.8395    1.7814 O   0  0  0  0  0  0  0  0  0  0  0  0
   -2.3832   -1.2445    0.2964 N   0  0  0  0  0  0  0  0  0  0  0  0
   -3.1102   -0.8685   -0.2946 H   0  0  0  0  0  0  0  0  0  0  0  0
   -1.1292   -0.4875    0.3524 C   0  0  1  0  0  0  0  0  0  0  0  0
   -0.5898   -0.7762    1.2552 H   0  0  0  0  0  0  0  0  0  0  0  0
   -0.2608   -0.8470   -0.8656 C   0  0  0  0  0  0  0  0  0  0  0  0
   -0.0627    0.0592   -1.4394 H   0  0  0  0  0  0  0  0  0  0  0  0
    0.6996   -1.2281   -0.5146 H   0  0  0  0  0  0  0  0  0  0  0  0
   -0.8950   -1.8636   -1.7951 C   0  0  0  0  0  0  0  0  0  0  0  0
   -2.2483   -1.7393   -2.1683 C   0  0  0  0  0  0  0  0  0  0  0  0
   -2.8474   -0.9305   -1.7708 H   0  0  0  0  0  0  0  0  0  0  0  0
   -2.8218   -2.6629   -3.0639 C   0  0  0  0  0  0  0  0  0  0  0  0
   -3.8588   -2.5656   -3.3463 H   0  0  0  0  0  0  0  0  0  0  0  0
   -2.0375   -3.7122   -3.5907 C   0  0  0  0  0  0  0  0  0  0  0  0
   -2.5804   -4.6063   -4.4573 O   0  0  0  0  0  0  0  0  0  0  0  0
   -3.5238   -4.4780   -4.5647 H   0  0  0  0  0  0  0  0  0  0  0  0
   -0.6821   -3.8322   -3.2199 C   0  0  0  0  0  0  0  0  0  0  0  0
   -0.0940   -4.6413   -3.6261 H   0  0  0  0  0  0  0  0  0  0  0  0
   -0.1131   -2.9101   -2.3210 C   0  0  0  0  0  0  0  0  0  0  0  0
    0.9258   -3.0084   -2.0295 H   0  0  0  0  0  0  0  0  0  0  0  0
   -1.4018    1.0238    0.4329 C   0  0  0  0  0  0  0  0  0  0  0  0
   -2.2416    1.5423   -0.3033 O   0  0  0  0  0  0  0  0  0  0  0  0
   -0.6927    1.7304    1.3223 N   0  0  0  0  0  0  0  0  0  0  0  0
    0.0178    1.2410    1.8469 H   0  0  0  0  0  0  0  0  0  0  0  0
   -0.8259    3.1712    1.5254 C   0  0  0  0  0  0  0  0  0  0  0  0
   -1.8769    3.4302    1.6645 H   0  0  0  0  0  0  0  0  0  0  0  0
   -0.2598    3.4806    2.4054 H   0  0  0  0  0  0  0  0  0  0  0  0
   -0.4486    3.7020    0.6489 H   0  0  0  0  0  0  0  0  0  0  0  0
  5  6  2  0  0  0  0
  5  7  1  0  0  0  0
  2  3  1  0  0  0  0
  2  4  1  0  0  0  0
  2  5  1  0  0  0  0
  1  2  1  0  0  0  0
 26 27  2  0  0  0  0
 26 28  1  0  0  0  0
 24 25  1  0  0  0  0
 22 23  1  0  0  0  0
 22 24  2  0  0  0  0
 20 21  1  0  0  0  0
 19 20  1  0  0  0  0
 19 22  1  0  0  0  0
 17 18  1  0  0  0  0
 17 19  2  0  0  0  0
 15 16  1  0  0  0  0
 15 17  1  0  0  0  0
 14 15  2  0  0  0  0
 14 24  1  0  0  0  0
 11 12  1  0  0  0  0
 11 13  1  0  0  0  0
 11 14  1  0  0  0  0
  9 10  1  0  0  0  0
  9 11  1  0  0  0  0
  9 26  1  0  0  0  0
  7  8  1  0  0  0  0
  7  9  1  0  0  0  0
 30 31  1  0  0  0  0
 30 32  1  0  0  0  0
 30 33  1  0  0  0  0
 28 29  1  0  0  0  0
 28 30  1  0  0  0  0
M  END
$$$$
default_name
  -OEChem-02102213163D

 33 33  0     1  0  0  0  0  0999 V2000
   -4.0702   -3.8485    1.4554 H   0  0  0  0  0  0  0  0  0  0  0  0
   -4.0012   -2.9605    0.8284 C   0  0  0  0  0  0  0  0  0  0  0  0
   -4.7652   -2.2435    1.1234 H   0  0  0  0  0  0  0  0  0  0  0  0
   -4.1352   -3.2385   -0.2156 H   0  0  0  0  0  0  0  0  0  0  0  0
   -2.6362   -2.3395    1.0094 C   0  0  0  0  0  0  0  0  0  0  0  0
   -1.8292   -2.8395    1.7814 O   0  0  0  0  0  0  0  0  0  0  0  0
   -2.3832   -1.2445    0.2964 N   0  0  0  0  0  0  0  0  0  0  0  0
   -3.1102   -0.8685   -0.2946 H   0  0  0  0  0  0  0  0  0  0  0  0
   -1.1292   -0.4875    0.3524 C   0  0  1  0  0  0  0  0  0  0  0  0
   -0.5898   -0.7762    1.2552 H   0  0  0  0  0  0  0  0  0  0  0  0
   -0.2608   -0.8470   -0.8656 C   0  0  0  0  0  0  0  0  0  0  0  0
   -0.0627    0.0592   -1.4394 H   0  0  0  0  0  0  0  0  0  0  0  0
    0.6996   -1.2281   -0.5146 H   0  0  0  0  0  0  0  0  0  0  0  0
   -0.8950   -1.8636   -1.7951 C   0  0  0  0  0  0  0  0  0  0  0  0
   -2.1279   -1.5855   -2.4187 C   0  0  0  0  0  0  0  0  0  0  0  0
   -2.6396   -0.6540   -2.2150 H   0  0  0  0  0  0  0  0  0  0  0  0
   -2.6930   -2.5157   -3.3127 C   0  0  0  0  0  0  0  0  0  0  0  0
   -3.6379   -2.3002   -3.7872 H   0  0  0  0  0  0  0  0  0  0  0  0
   -2.0205   -3.7267   -3.5865 C   0  0  0  0  0  0  0  0  0  0  0  0
   -2.5557   -4.6290   -4.4493 O   0  0  0  0  0  0  0  0  0  0  0  0
   -3.4332   -4.3756   -4.7385 H   0  0  0  0  0  0  0  0  0  0  0  0
   -0.7845   -4.0012   -2.9653 C   0  0  0  0  0  0  0  0  0  0  0  0
   -0.2821   -4.9325   -3.1794 H   0  0  0  0  0  0  0  0  0  0  0  0
   -0.2245   -3.0714   -2.0688 C   0  0  0  0  0  0  0  0  0  0  0  0
    0.7207   -3.2870   -1.5848 H   0  0  0  0  0  0  0  0  0  0  0  0
   -1.4018    1.0238    0.4329 C   0  0  0  0  0  0  0  0  0  0  0  0
   -2.2416    1.5423   -0.3033 O   0  0  0  0  0  0  0  0  0  0  0  0
   -0.6927    1.7304    1.3223 N   0  0  0  0  0  0  0  0  0  0  0  0
    0.0178    1.2410    1.8469 H   0  0  0  0  0  0  0  0  0  0  0  0
   -0.8259    3.1712    1.5254 C   0  0  0  0  0  0  0  0  0  0  0  0
   -1.8769    3.4302    1.6645 H   0  0  0  0  0  0  0  0  0  0  0  0
   -0.2598    3.4806    2.4054 H   0  0  0  0  0  0  0  0  0  0  0  0
   -0.4486    3.7020    0.6489 H   0  0  0  0  0  0  0  0  0  0  0  0
  5  6  2  0  0  0  0
  5  7  1  0  0  0  0
  2  3  1  0  0  0  0
  2  4  1  0  0  0  0
  2  5  1  0  0  0  0
  1  2  1  0  0  0  0
 26 27  2  0  0  0  0
 26 28  1  0  0  0  0
 24 25  1  0  0  0  0
 22 23  1  0  0  0  0
 22 24  2  0  0  0  0
 20 21  1  0  0  0  0
 19 20  1  0  0  0  0
 19 22  1  0  0  0  0
 17 18  1  0  0  0  0
 17 19  2  0  0  0  0
 15 16  1  0  0  0  0
 15 17  1  0  0  0  0
 14 15  2  0  0  0  0
 14 24  1  0  0  0  0
 11 12  1  0  0  0  0
 11 13  1  0  0  0  0
 11 14  1  0  0  0  0
  9 10  1  0  0  0  0
  9 11  1  0  0  0  0
  9 26  1  0  0  0  0
  7  8  1  0  0  0  0
  7  9  1  0  0  0  0
 30 31  1  0  0  0  0
 30 32  1  0  0  0  0
 30 33  1  0  0  0  0
 28 29  1  0  0  0  0
 28 30  1  0  0  0  0
M  END
$$$$
default_name
  -OEChem-02102213163D

 33 33  0     1  0  0  0  0  0999 V2000
   -4.0702   -3.8485    1.4554 H   0  0  0  0  0  0  0  0  0  0  0  0
   -4.0012   -2.9605    0.8284 C   0  0  0  0  0  0  0  0  0  0  0  0
   -4.7652   -2.2435    1.1234 H   0  0  0  0  0  0  0  0  0  0  0  0
   -4.1352   -3.2385   -0.2156 H   0  0  0  0  0  0  0  0  0  0  0  0
   -2.6362   -2.3395    1.0094 C   0  0  0  0  0  0  0  0  0  0  0  0
   -1.8292   -2.8395    1.7814 O   0  0  0  0  0  0  0  0  0  0  0  0
   -2.3832   -1.2445    0.2964 N   0  0  0  0  0  0  0  0  0  0  0  0
   -3.1102   -0.8685   -0.2946 H   0  0  0  0  0  0  0  0  0  0  0  0
   -1.1292   -0.4875    0.3524 C   0  0  1  0  0  0  0  0  0  0  0  0
   -0.5898   -0.7762    1.2552 H   0  0  0  0  0  0  0  0  0  0  0  0
   -0.2608   -0.8470   -0.8656 C   0  0  0  0  0  0  0  0  0  0  0  0
   -0.0627    0.0592   -1.4394 H   0  0  0  0  0  0  0  0  0  0  0  0
    0.6996   -1.2281   -0.5146 H   0  0  0  0  0  0  0  0  0  0  0  0
   -0.8950   -1.8636   -1.7951 C   0  0  0  0  0  0  0  0  0  0  0  0
   -1.9437   -1.4831   -2.6564 C   0  0  0  0  0  0  0  0  0  0  0  0
   -2.3179   -0.4679   -2.6380 H   0  0  0  0  0  0  0  0  0  0  0  0
   -2.5021   -2.4209   -3.5466 C   0  0  0  0  0  0  0  0  0  0  0  0
   -3.3060   -2.1265   -4.2036 H   0  0  0  0  0  0  0  0  0  0  0  0
   -2.0070   -3.7429   -3.5779 C   0  0  0  0  0  0  0  0  0  0  0  0
   -2.5368   -4.6540   -4.4349 O   0  0  0  0  0  0  0  0  0  0  0  0
   -3.2994   -4.3098   -4.9017 H   0  0  0  0  0  0  0  0  0  0  0  0
   -0.9543   -4.1206   -2.7189 C   0  0  0  0  0  0  0  0  0  0  0  0
   -0.5874   -5.1355   -2.7491 H   0  0  0  0  0  0  0  0  0  0  0  0
   -0.4014   -3.1821   -1.8269 C   0  0  0  0  0  0  0  0  0  0  0  0
    0.4011   -3.4755   -1.1607 H   0  0  0  0  0  0  0  0  0  0  0  0
   -1.4018    1.0238    0.4329 C   0  0  0  0  0  0  0  0  0  0  0  0
   -2.2416    1.5423   -0.3033 O   0  0  0  0  0  0  0  0  0  0  0  0
   -0.6927    1.7304    1.3223 N   0  0  0  0  0  0  0  0  0  0  0  0
    0.0178    1.2410    1.8469 H   0  0  0  0  0  0  0  0  0  0  0  0
   -0.8259    3.1712    1.5254 C   0  0  0  0  0  0  0  0  0  0  0  0
   -1.8769    3.4302    1.6645 H   0  0  0  0  0  0  0  0  0  0  0  0
   -0.2598    3.4806    2.4054 H   0  0  0  0  0  0  0  0  0  0  0  0
   -0.4486    3.7020    0.6489 H   0  0  0  0  0  0  0  0  0  0  0  0
  5  6  2  0  0  0  0
  5  7  1  0  0  0  0
  2  3  1  0  0  0  0
  2  4  1  0  0  0  0
  2  5  1  0  0  0  0
  1  2  1  0  0  0  0
 26 27  2  0  0  0  0
 26 28  1  0  0  0  0
 24 25  1  0  0  0  0
 22 23  1  0  0  0  0
 22 24  2  0  0  0  0
 20 21  1  0  0  0  0
 19 20  1  0  0  0  0
 19 22  1  0  0  0  0
 17 18  1  0  0  0  0
 17 19  2  0  0  0  0
 15 16  1  0  0  0  0
 15 17  1  0  0  0  0
 14 15  2  0  0  0  0
 14 24  1  0  0  0  0
 11 12  1  0  0  0  0
 11 13  1  0  0  0  0
 11 14  1  0  0  0  0
  9 10  1  0  0  0  0
  9 11  1  0  0  0  0
  9 26  1  0  0  0  0
  7  8  1  0  0  0  0
  7  9  1  0  0  0  0
 30 31  1  0  0  0  0
 30 32  1  0  0  0  0
 30 33  1  0  0  0  0
 28 29  1  0  0  0  0
 28 30  1  0  0  0  0
M  END
$$$$
default_name
  -OEChem-02102213163D

 33 33  0     1  0  0  0  0  0999 V2000
   -4.0702   -3.8485    1.4554 H   0  0  0  0  0  0  0  0  0  0  0  0
   -4.0012   -2.9605    0.8284 C   0  0  0  0  0  0  0  0  0  0  0  0
   -4.7652   -2.2435    1.1234 H   0  0  0  0  0  0  0  0  0  0  0  0
   -4.1352   -3.2385   -0.2156 H   0  0  0  0  0  0  0  0  0  0  0  0
   -2.6362   -2.3395    1.0094 C   0  0  0  0  0  0  0  0  0  0  0  0
   -1.8292   -2.8395    1.7814 O   0  0  0  0  0  0  0  0  0  0  0  0
   -2.3832   -1.2445    0.2964 N   0  0  0  0  0  0  0  0  0  0  0  0
   -3.1102   -0.8685   -0.2946 H   0  0  0  0  0  0  0  0  0  0  0  0
   -1.1292   -0.4875    0.3524 C   0  0  1  0  0  0  0  0  0  0  0  0
   -0.5898   -0.7762    1.2552 H   0  0  0  0  0  0  0  0  0  0  0  0
   -0.2608   -0.8470   -0.8656 C   0  0  0  0  0  0  0  0  0  0  0  0
   -0.0627    0.0592   -1.4394 H   0  0  0  0  0  0  0  0  0  0  0  0
    0.6996   -1.2281   -0.5146 H   0  0  0  0  0  0  0  0  0  0  0  0
   -0.8950   -1.8636   -1.7951 C   0  0  0  0  0  0  0  0  0  0  0  0
   -1.7083   -1.4392   -2.8650 C   0  0  0  0  0  0  0  0  0  0  0  0
   -1.9043   -0.3850   -3.0109 H   0  0  0  0  0  0  0  0  0  0  0  0
   -2.2620   -2.3850   -3.7497 C   0  0  0  0  0  0  0  0  0  0  0  0
   -2.8856   -2.0565   -4.5669 H   0  0  0  0  0  0  0  0  0  0  0  0
   -1.9981   -3.7598   -3.5656 C   0  0  0  0  0  0  0  0  0  0  0  0
   -2.5250   -4.6795   -4.4150 O   0  0  0  0  0  0  0  0  0  0  0  0
   -3.1314   -4.2852   -5.0433 H   0  0  0  0  0  0  0  0  0  0  0  0
   -1.1801   -4.1823   -2.4973 C   0  0  0  0  0  0  0  0  0  0  0  0
   -0.9892   -5.2366   -2.3644 H   0  0  0  0  0  0  0  0  0  0  0  0
   -0.6318   -3.2349   -1.6120 C   0  0  0  0  0  0  0  0  0  0  0  0
   -0.0110   -3.5610   -0.7861 H   0  0  0  0  0  0  0  0  0  0  0  0
   -1.4018    1.0238    0.4329 C   0  0  0  0  0  0  0  0  0  0  0  0
   -2.2416    1.5423   -0.3033 O   0  0  0  0  0  0  0  0  0  0  0  0
   -0.6927    1.7304    1.3223 N   0  0  0  0  0  0  0  0  0  0  0  0
    0.0178    1.2410    1.8469 H   0  0  0  0  0  0  0  0  0  0  0  0
   -0.8259    3.1712    1.5254 C   0  0  0  0  0  0  0  0  0  0  0  0
   -1.8769    3.4302    1.6645 H   0  0  0  0  0  0  0  0  0  0  0  0
   -0.2598    3.4806    2.4054 H   0  0  0  0  0  0  0  0  0  0  0  0
   -0.4486    3.7020    0.6489 H   0  0  0  0  0  0  0  0  0  0  0  0
  5  6  2  0  0  0  0
  5  7  1  0  0  0  0
  2  3  1  0  0  0  0
  2  4  1  0  0  0  0
  2  5  1  0  0  0  0
  1  2  1  0  0  0  0
 26 27  2  0  0  0  0
 26 28  1  0  0  0  0
 24 25  1  0  0  0  0
 22 23  1  0  0  0  0
 22 24  2  0  0  0  0
 20 21  1  0  0  0  0
 19 20  1  0  0  0  0
 19 22  1  0  0  0  0
 17 18  1  0  0  0  0
 17 19  2  0  0  0  0
 15 16  1  0  0  0  0
 15 17  1  0  0  0  0
 14 15  2  0  0  0  0
 14 24  1  0  0  0  0
 11 12  1  0  0  0  0
 11 13  1  0  0  0  0
 11 14  1  0  0  0  0
  9 10  1  0  0  0  0
  9 11  1  0  0  0  0
  9 26  1  0  0  0  0
  7  8  1  0  0  0  0
  7  9  1  0  0  0  0
 30 31  1  0  0  0  0
 30 32  1  0  0  0  0
 30 33  1  0  0  0  0
 28 29  1  0  0  0  0
 28 30  1  0  0  0  0
M  END
$$$$
default_name
  -OEChem-02102213163D

 33 33  0     1  0  0  0  0  0999 V2000
   -4.0702   -3.8485    1.4554 H   0  0  0  0  0  0  0  0  0  0  0  0
   -4.0012   -2.9605    0.8284 C   0  0  0  0  0  0  0  0  0  0  0  0
   -4.7652   -2.2435    1.1234 H   0  0  0  0  0  0  0  0  0  0  0  0
   -4.1352   -3.2385   -0.2156 H   0  0  0  0  0  0  0  0  0  0  0  0
   -2.6362   -2.3395    1.0094 C   0  0  0  0  0  0  0  0  0  0  0  0
   -1.8292   -2.8395    1.7814 O   0  0  0  0  0  0  0  0  0  0  0  0
   -2.3832   -1.2445    0.2964 N   0  0  0  0  0  0  0  0  0  0  0  0
   -3.1102   -0.8685   -0.2946 H   0  0  0  0  0  0  0  0  0  0  0  0
   -1.1292   -0.4875    0.3524 C   0  0  1  0  0  0  0  0  0  0  0  0
   -0.5898   -0.7762    1.2552 H   0  0  0  0  0  0  0  0  0  0  0  0
   -0.2608   -0.8470   -0.8656 C   0  0  0  0  0  0  0  0  0  0  0  0
   -0.0627    0.0592   -1.4394 H   0  0  0  0  0  0  0  0  0  0  0  0
    0.6996   -1.2281   -0.5146 H   0  0  0  0  0  0  0  0  0  0  0  0
   -0.8950   -1.8636   -1.7951 C   0  0  0  0  0  0  0  0  0  0  0  0
   -1.4378   -1.4567   -3.0305 C   0  0  0  0  0  0  0  0  0  0  0  0
   -1.4269   -0.4108   -3.3083 H   0  0  0  0  0  0  0  0  0  0  0  0
   -1.9893   -2.4103   -3.9081 C   0  0  0  0  0  0  0  0  0  0  0  0
   -2.4054   -2.0949   -4.8526 H   0  0  0  0  0  0  0  0  0  0  0  0
   -1.9943   -3.7761   -3.5503 C   0  0  0  0  0  0  0  0  0  0  0  0
   -2.5211   -4.7039   -4.3910 O   0  0  0  0  0  0  0  0  0  0  0  0
   -2.9406   -4.3033   -5.1536 H   0  0  0  0  0  0  0  0  0  0  0  0
   -1.4464   -4.1821   -2.3158 C   0  0  0  0  0  0  0  0  0  0  0  0
   -1.4601   -5.2288   -2.0516 H   0  0  0  0  0  0  0  0  0  0  0  0
   -0.9000   -3.2260   -1.4387 C   0  0  0  0  0  0  0  0  0  0  0  0
   -0.4876   -3.5376   -0.4865 H   0  0  0  0  0  0  0  0  0  0  0  0
   -1.4018    1.0238    0.4329 C   0  0  0  0  0  0  0  0  0  0  0  0
   -2.2416    1.5423   -0.3033 O   0  0  0  0  0  0  0  0  0  0  0  0
   -0.6927    1.7304    1.3223 N   0  0  0  0  0  0  0  0  0  0  0  0
    0.0178    1.2410    1.8469 H   0  0  0  0  0  0  0  0  0  0  0  0
   -0.8259    3.1712    1.5254 C   0  0  0  0  0  0  0  0  0  0  0  0
   -1.8769    3.4302    1.6645 H   0  0  0  0  0  0  0  0  0  0  0  0
   -0.2598    3.4806    2.4054 H   0  0  0  0  0  0  0  0  0  0  0  0
   -0.4486    3.7020    0.6489 H   0  0  0  0  0  0  0  0  0  0  0  0
  5  6  2  0  0  0  0
  5  7  1  0  0  0  0
  2  3  1  0  0  0  0
  2  4  1  0  0  0  0
  2  5  1  0  0  0  0
  1  2  1  0  0  0  0
 26 27  2  0  0  0  0
 26 28  1  0  0  0  0
 24 25  1  0  0  0  0
 22 23  1  0  0  0  0
 22 24  2  0  0  0  0
 20 21  1  0  0  0  0
 19 20  1  0  0  0  0
 19 22  1  0  0  0  0
 17 18  1  0  0  0  0
 17 19  2  0  0  0  0
 15 16  1  0  0  0  0
 15 17  1  0  0  0  0
 14 15  2  0  0  0  0
 14 24  1  0  0  0  0
 11 12  1  0  0  0  0
 11 13  1  0  0  0  0
 11 14  1  0  0  0  0
  9 10  1  0  0  0  0
  9 11  1  0  0  0  0
  9 26  1  0  0  0  0
  7  8  1  0  0  0  0
  7  9  1  0  0  0  0
 30 31  1  0  0  0  0
 30 32  1  0  0  0  0
 30 33  1  0  0  0  0
 28 29  1  0  0  0  0
 28 30  1  0  0  0  0
M  END
$$$$
default_name
  -OEChem-02102213163D

 33 33  0     1  0  0  0  0  0999 V2000
   -4.0702   -3.8485    1.4554 H   0  0  0  0  0  0  0  0  0  0  0  0
   -4.0012   -2.9605    0.8284 C   0  0  0  0  0  0  0  0  0  0  0  0
   -4.7652   -2.2435    1.1234 H   0  0  0  0  0  0  0  0  0  0  0  0
   -4.1352   -3.2385   -0.2156 H   0  0  0  0  0  0  0  0  0  0  0  0
   -2.6362   -2.3395    1.0094 C   0  0  0  0  0  0  0  0  0  0  0  0
   -1.8292   -2.8395    1.7814 O   0  0  0  0  0  0  0  0  0  0  0  0
   -2.3832   -1.2445    0.2964 N   0  0  0  0  0  0  0  0  0  0  0  0
   -3.1102   -0.8685   -0.2946 H   0  0  0  0  0  0  0  0  0  0  0  0
   -1.1292   -0.4875    0.3524 C   0  0  1  0  0  0  0  0  0  0  0  0
   -0.5898   -0.7762    1.2552 H   0  0  0  0  0  0  0  0  0  0  0  0
   -0.2608   -0.8470   -0.8656 C   0  0  0  0  0  0  0  0  0  0  0  0
   -0.0627    0.0592   -1.4394 H   0  0  0  0  0  0  0  0  0  0  0  0
    0.6996   -1.2281   -0.5146 H   0  0  0  0  0  0  0  0  0  0  0  0
   -0.8950   -1.8636   -1.7951 C   0  0  0  0  0  0  0  0  0  0  0  0
   -1.1505   -1.5344   -3.1414 C   0  0  0  0  0  0  0  0  0  0  0  0
   -0.9182   -0.5438   -3.5099 H   0  0  0  0  0  0  0  0  0  0  0  0
   -1.7023   -2.4952   -4.0111 C   0  0  0  0  0  0  0  0  0  0  0  0
   -1.8981   -2.2391   -5.0410 H   0  0  0  0  0  0  0  0  0  0  0  0
   -1.9959   -3.7909   -3.5330 C   0  0  0  0  0  0  0  0  0  0  0  0
   -2.5254   -4.7255   -4.3645 O   0  0  0  0  0  0  0  0  0  0  0  0
   -2.7401   -4.3631   -5.2250 H   0  0  0  0  0  0  0  0  0  0  0  0
   -1.7350   -4.1201   -2.1868 C   0  0  0  0  0  0  0  0  0  0  0  0
   -1.9680   -5.1128   -1.8320 H   0  0  0  0  0  0  0  0  0  0  0  0
   -1.1877   -3.1561   -1.3189 C   0  0  0  0  0  0  0  0  0  0  0  0
   -0.9962   -3.4070   -0.2823 H   0  0  0  0  0  0  0  0  0  0  0  0
   -1.4018    1.0238    0.4329 C   0  0  0  0  0  0  0  0  0  0  0  0
   -2.2416    1.5423   -0.3033 O   0  0  0  0  0  0  0  0  0  0  0  0
   -0.6927    1.7304    1.3223 N   0  0  0  0  0  0  0  0  0  0  0  0
    0.0178    1.2410    1.8469 H   0  0  0  0  0  0  0  0  0  0  0  0
   -0.8259    3.1712    1.5254 C   0  0  0  0  0  0  0  0  0  0  0  0
   -1.8769    3.4302    1.6645 H   0  0  0  0  0  0  0  0  0  0  0  0
   -0.2598    3.4806    2.4054 H   0  0  0  0  0  0  0  0  0  0  0  0
   -0.4486    3.7020    0.6489 H   0  0  0  0  0  0  0  0  0  0  0  0
  5  6  2  0  0  0  0
  5  7  1  0  0  0  0
  2  3  1  0  0  0  0
  2  4  1  0  0  0  0
  2  5  1  0  0  0  0
  1  2  1  0  0  0  0
 26 27  2  0  0  0  0
 26 28  1  0  0  0  0
 24 25  1  0  0  0  0
 22 23  1  0  0  0  0
 22 24  2  0  0  0  0
 20 21  1  0  0  0  0
 19 20  1  0  0  0  0
 19 22  1  0  0  0  0
 17 18  1  0  0  0  0
 17 19  2  0  0  0  0
 15 16  1  0  0  0  0
 15 17  1  0  0  0  0
 14 15  2  0  0  0  0
 14 24  1  0  0  0  0
 11 12  1  0  0  0  0
 11 13  1  0  0  0  0
 11 14  1  0  0  0  0
  9 10  1  0  0  0  0
  9 11  1  0  0  0  0
  9 26  1  0  0  0  0
  7  8  1  0  0  0  0
  7  9  1  0  0  0  0
 30 31  1  0  0  0  0
 30 32  1  0  0  0  0
 30 33  1  0  0  0  0
 28 29  1  0  0  0  0
 28 30  1  0  0  0  0
M  END
$$$$
default_name
  -OEChem-02102213163D

 33 33  0     1  0  0  0  0  0999 V2000
   -4.0702   -3.8485    1.4554 H   0  0  0  0  0  0  0  0  0  0  0  0
   -4.0012   -2.9605    0.8284 C   0  0  0  0  0  0  0  0  0  0  0  0
   -4.7652   -2.2435    1.1234 H   0  0  0  0  0  0  0  0  0  0  0  0
   -4.1352   -3.2385   -0.2156 H   0  0  0  0  0  0  0  0  0  0  0  0
   -2.6362   -2.3395    1.0094 C   0  0  0  0  0  0  0  0  0  0  0  0
   -1.8292   -2.8395    1.7814 O   0  0  0  0  0  0  0  0  0  0  0  0
   -2.3832   -1.2445    0.2964 N   0  0  0  0  0  0  0  0  0  0  0  0
   -3.1102   -0.8685   -0.2946 H   0  0  0  0  0  0  0  0  0  0  0  0
   -1.1292   -0.4875    0.3524 C   0  0  1  0  0  0  0  0  0  0  0  0
   -0.5898   -0.7762    1.2552 H   0  0  0  0  0  0  0  0  0  0  0  0
   -0.2608   -0.8470   -0.8656 C   0  0  0  0  0  0  0  0  0  0  0  0
   -0.0627    0.0592   -1.4394 H   0  0  0  0  0  0  0  0  0  0  0  0
    0.6996   -1.2281   -0.5146 H   0  0  0  0  0  0  0  0  0  0  0  0
   -0.8950   -1.8636   -1.7951 C   0  0  0  0  0  0  0  0  0  0  0  0
   -0.8661   -1.6670   -3.1904 C   0  0  0  0  0  0  0  0  0  0  0  0
   -0.4130   -0.7747   -3.6020 H   0  0  0  0  0  0  0  0  0  0  0  0
   -1.4207   -2.6338   -4.0515 C   0  0  0  0  0  0  0  0  0  0  0  0
   -1.3982   -2.4793   -5.1193 H   0  0  0  0  0  0  0  0  0  0  0  0
   -2.0028   -3.8030   -3.5151 C   0  0  0  0  0  0  0  0  0  0  0  0
   -2.5376   -4.7428   -4.3372 O   0  0  0  0  0  0  0  0  0  0  0  0
   -2.5435   -4.4604   -5.2528 H   0  0  0  0  0  0  0  0  0  0  0  0
   -2.0264   -4.0004   -2.1189 C   0  0  0  0  0  0  0  0  0  0  0  0
   -2.4782   -4.8964   -1.7206 H   0  0  0  0  0  0  0  0  0  0  0  0
   -1.4754   -3.0300   -1.2605 C   0  0  0  0  0  0  0  0  0  0  0  0
   -1.5022   -3.1780   -0.1875 H   0  0  0  0  0  0  0  0  0  0  0  0
   -1.4018    1.0238    0.4329 C   0  0  0  0  0  0  0  0  0  0  0  0
   -2.2416    1.5423   -0.3033 O   0  0  0  0  0  0  0  0  0  0  0  0
   -0.6927    1.7304    1.3223 N   0  0  0  0  0  0  0  0  0  0  0  0
    0.0178    1.2410    1.8469 H   0  0  0  0  0  0  0  0  0  0  0  0
   -0.8259    3.1712    1.5254 C   0  0  0  0  0  0  0  0  0  0  0  0
   -1.8769    3.4302    1.6645 H   0  0  0  0  0  0  0  0  0  0  0  0
   -0.2598    3.4806    2.4054 H   0  0  0  0  0  0  0  0  0  0  0  0
   -0.4486    3.7020    0.6489 H   0  0  0  0  0  0  0  0  0  0  0  0
  5  6  2  0  0  0  0
  5  7  1  0  0  0  0
  2  3  1  0  0  0  0
  2  4  1  0  0  0  0
  2  5  1  0  0  0  0
  1  2  1  0  0  0  0
 26 27  2  0  0  0  0
 26 28  1  0  0  0  0
 24 25  1  0  0  0  0
 22 23  1  0  0  0  0
 22 24  2  0  0  0  0
 20 21  1  0  0  0  0
 19 20  1  0  0  0  0
 19 22  1  0  0  0  0
 17 18  1  0  0  0  0
 17 19  2  0  0  0  0
 15 16  1  0  0  0  0
 15 17  1  0  0  0  0
 14 15  2  0  0  0  0
 14 24  1  0  0  0  0
 11 12  1  0  0  0  0
 11 13  1  0  0  0  0
 11 14  1  0  0  0  0
  9 10  1  0  0  0  0
  9 11  1  0  0  0  0
  9 26  1  0  0  0  0
  7  8  1  0  0  0  0
  7  9  1  0  0  0  0
 30 31  1  0  0  0  0
 30 32  1  0  0  0  0
 30 33  1  0  0  0  0
 28 29  1  0  0  0  0
 28 30  1  0  0  0  0
M  END
$$$$
default_name
  -OEChem-02102213163D

 33 33  0     1  0  0  0  0  0999 V2000
   -4.0702   -3.8485    1.4554 H   0  0  0  0  0  0  0  0  0  0  0  0
   -4.0012   -2.9605    0.8284 C   0  0  0  0  0  0  0  0  0  0  0  0
   -4.7652   -2.2435    1.1234 H   0  0  0  0  0  0  0  0  0  0  0  0
   -4.1352   -3.2385   -0.2156 H   0  0  0  0  0  0  0  0  0  0  0  0
   -2.6362   -2.3395    1.0094 C   0  0  0  0  0  0  0  0  0  0  0  0
   -1.8292   -2.8395    1.7814 O   0  0  0  0  0  0  0  0  0  0  0  0
   -2.3832   -1.2445    0.2964 N   0  0  0  0  0  0  0  0  0  0  0  0
   -3.1102   -0.8685   -0.2946 H   0  0  0  0  0  0  0  0  0  0  0  0
   -1.1292   -0.4875    0.3524 C   0  0  1  0  0  0  0  0  0  0  0  0
   -0.5898   -0.7762    1.2552 H   0  0  0  0  0  0  0  0  0  0  0  0
   -0.2608   -0.8470   -0.8656 C   0  0  0  0  0  0  0  0  0  0  0  0
   -0.0627    0.0592   -1.4394 H   0  0  0  0  0  0  0  0  0  0  0  0
    0.6996   -1.2281   -0.5146 H   0  0  0  0  0  0  0  0  0  0  0  0
   -0.8950   -1.8636   -1.7951 C   0  0  0  0  0  0  0  0  0  0  0  0
   -0.6040   -1.8456   -3.1740 C   0  0  0  0  0  0  0  0  0  0  0  0
    0.0543   -1.0878   -3.5784 H   0  0  0  0  0  0  0  0  0  0  0  0
   -1.1637   -2.8168   -4.0267 C   0  0  0  0  0  0  0  0  0  0  0  0
   -0.9399   -2.7991   -5.0823 H   0  0  0  0  0  0  0  0  0  0  0  0
   -2.0144   -3.8117   -3.4976 C   0  0  0  0  0  0  0  0  0  0  0  0
   -2.5569   -4.7546   -4.3112 O   0  0  0  0  0  0  0  0  0  0  0  0
   -2.3642   -4.5885   -5.2349 H   0  0  0  0  0  0  0  0  0  0  0  0
   -2.3007   -3.8312   -2.1168 C   0  0  0  0  0  0  0  0  0  0  0  0
   -2.9561   -4.5943   -1.7249 H   0  0  0  0  0  0  0  0  0  0  0  0
   -1.7434   -2.8563   -1.2678 C   0  0  0  0  0  0  0  0  0  0  0  0
   -1.9711   -2.8663   -0.2085 H   0  0  0  0  0  0  0  0  0  0  0  0
   -1.4018    1.0238    0.4329 C   0  0  0  0  0  0  0  0  0  0  0  0
   -2.2416    1.5423   -0.3033 O   0  0  0  0  0  0  0  0  0  0  0  0
   -0.6927    1.7304    1.3223 N   0  0  0  0  0  0  0  0  0  0  0  0
    0.0178    1.2410    1.8469 H   0  0  0  0  0  0  0  0  0  0  0  0
   -0.8259    3.1712    1.5254 C   0  0  0  0  0  0  0  0  0  0  0  0
   -1.8769    3.4302    1.6645 H   0  0  0  0  0  0  0  0  0  0  0  0
   -0.2598    3.4806    2.4054 H   0  0  0  0  0  0  0  0  0  0  0  0
   -0.4486    3.7020    0.6489 H   0  0  0  0  0  0  0  0  0  0  0  0
  5  6  2  0  0  0  0
  5  7  1  0  0  0  0
  2  3  1  0  0  0  0
  2  4  1  0  0  0  0
  2  5  1  0  0  0  0
  1  2  1  0  0  0  0
 26 27  2  0  0  0  0
 26 28  1  0  0  0  0
 24 25  1  0  0  0  0
 22 23  1  0  0  0  0
 22 24  2  0  0  0  0
 20 21  1  0  0  0  0
 19 20  1  0  0  0  0
 19 22  1  0  0  0  0
 17 18  1  0  0  0  0
 17 19  2  0  0  0  0
 15 16  1  0  0  0  0
 15 17  1  0  0  0  0
 14 15  2  0  0  0  0
 14 24  1  0  0  0  0
 11 12  1  0  0  0  0
 11 13  1  0  0  0  0
 11 14  1  0  0  0  0
  9 10  1  0  0  0  0
  9 11  1  0  0  0  0
  9 26  1  0  0  0  0
  7  8  1  0  0  0  0
  7  9  1  0  0  0  0
 30 31  1  0  0  0  0
 30 32  1  0  0  0  0
 30 33  1  0  0  0  0
 28 29  1  0  0  0  0
 28 30  1  0  0  0  0
M  END
$$$$
default_name
  -OEChem-02102213163D

 33 33  0     1  0  0  0  0  0999 V2000
   -4.0702   -3.8485    1.4554 H   0  0  0  0  0  0  0  0  0  0  0  0
   -4.0012   -2.9605    0.8284 C   0  0  0  0  0  0  0  0  0  0  0  0
   -4.7652   -2.2435    1.1234 H   0  0  0  0  0  0  0  0  0  0  0  0
   -4.1352   -3.2385   -0.2156 H   0  0  0  0  0  0  0  0  0  0  0  0
   -2.6362   -2.3395    1.0094 C   0  0  0  0  0  0  0  0  0  0  0  0
   -1.8292   -2.8395    1.7814 O   0  0  0  0  0  0  0  0  0  0  0  0
   -2.3832   -1.2445    0.2964 N   0  0  0  0  0  0  0  0  0  0  0  0
   -3.1102   -0.8685   -0.2946 H   0  0  0  0  0  0  0  0  0  0  0  0
   -1.1292   -0.4875    0.3524 C   0  0  1  0  0  0  0  0  0  0  0  0
   -0.5898   -0.7762    1.2552 H   0  0  0  0  0  0  0  0  0  0  0  0
   -0.2608   -0.8470   -0.8656 C   0  0  0  0  0  0  0  0  0  0  0  0
   -0.0627    0.0592   -1.4394 H   0  0  0  0  0  0  0  0  0  0  0  0
    0.6996   -1.2281   -0.5146 H   0  0  0  0  0  0  0  0  0  0  0  0
   -0.8950   -1.8636   -1.7951 C   0  0  0  0  0  0  0  0  0  0  0  0
   -0.3819   -2.0579   -3.0933 C   0  0  0  0  0  0  0  0  0  0  0  0
    0.4519   -1.4619   -3.4406 H   0  0  0  0  0  0  0  0  0  0  0  0
   -0.9488   -3.0317   -3.9384 C   0  0  0  0  0  0  0  0  0  0  0  0
   -0.5544   -3.1766   -4.9324 H   0  0  0  0  0  0  0  0  0  0  0  0
   -2.0301   -3.8164   -3.4818 C   0  0  0  0  0  0  0  0  0  0  0  0
   -2.5818   -4.7601   -4.2881 O   0  0  0  0  0  0  0  0  0  0  0  0
   -2.2145   -4.7388   -5.1727 H   0  0  0  0  0  0  0  0  0  0  0  0
   -2.5391   -3.6240   -2.1807 C   0  0  0  0  0  0  0  0  0  0  0  0
   -3.3690   -4.2272   -1.8447 H   0  0  0  0  0  0  0  0  0  0  0  0
   -1.9734   -2.6467   -1.3400 C   0  0  0  0  0  0  0  0  0  0  0  0
   -2.3709   -2.4931   -0.3439 H   0  0  0  0  0  0  0  0  0  0  0  0
   -1.4018    1.0238    0.4329 C   0  0  0  0  0  0  0  0  0  0  0  0
   -2.2416    1.5423   -0.3033 O   0  0  0  0  0  0  0  0  0  0  0  0
   -0.6927    1.7304    1.3223 N   0  0  0  0  0  0  0  0  0  0  0  0
    0.0178    1.2410    1.8469 H   0  0  0  0  0  0  0  0  0  0  0  0
   -0.8259    3.1712    1.5254 C   0  0  0  0  0  0  0  0  0  0  0  0
   -1.8769    3.4302    1.6645 H   0  0  0  0  0  0  0  0  0  0  0  0
   -0.2598    3.4806    2.4054 H   0  0  0  0  0  0  0  0  0  0  0  0
   -0.4486    3.7020    0.6489 H   0  0  0  0  0  0  0  0  0  0  0  0
  5  6  2  0  0  0  0
  5  7  1  0  0  0  0
  2  3  1  0  0  0  0
  2  4  1  0  0  0  0
  2  5  1  0  0  0  0
  1  2  1  0  0  0  0
 26 27  2  0  0  0  0
 26 28  1  0  0  0  0
 24 25  1  0  0  0  0
 22 23  1  0  0  0  0
 22 24  2  0  0  0  0
 20 21  1  0  0  0  0
 19 20  1  0  0  0  0
 19 22  1  0  0  0  0
 17 18  1  0  0  0  0
 17 19  2  0  0  0  0
 15 16  1  0  0  0  0
 15 17  1  0  0  0  0
 14 15  2  0  0  0  0
 14 24  1  0  0  0  0
 11 12  1  0  0  0  0
 11 13  1  0  0  0  0
 11 14  1  0  0  0  0
  9 10  1  0  0  0  0
  9 11  1  0  0  0  0
  9 26  1  0  0  0  0
  7  8  1  0  0  0  0
  7  9  1  0  0  0  0
 30 31  1  0  0  0  0
 30 32  1  0  0  0  0
 30 33  1  0  0  0  0
 28 29  1  0  0  0  0
 28 30  1  0  0  0  0
M  END
$$$$
default_name
  -OEChem-02102213163D

 33 33  0     1  0  0  0  0  0999 V2000
   -4.0702   -3.8485    1.4554 H   0  0  0  0  0  0  0  0  0  0  0  0
   -4.0012   -2.9605    0.8284 C   0  0  0  0  0  0  0  0  0  0  0  0
   -4.7652   -2.2435    1.1234 H   0  0  0  0  0  0  0  0  0  0  0  0
   -4.1352   -3.2385   -0.2156 H   0  0  0  0  0  0  0  0  0  0  0  0
   -2.6362   -2.3395    1.0094 C   0  0  0  0  0  0  0  0  0  0  0  0
   -1.8292   -2.8395    1.7814 O   0  0  0  0  0  0  0  0  0  0  0  0
   -2.3832   -1.2445    0.2964 N   0  0  0  0  0  0  0  0  0  0  0  0
   -3.1102   -0.8685   -0.2946 H   0  0  0  0  0  0  0  0  0  0  0  0
   -1.1292   -0.4875    0.3524 C   0  0  1  0  0  0  0  0  0  0  0  0
   -0.5898   -0.7762    1.2552 H   0  0  0  0  0  0  0  0  0  0  0  0
   -0.2608   -0.8470   -0.8656 C   0  0  0  0  0  0  0  0  0  0  0  0
    0.1578    0.0687   -1.2851 H   0  0  0  0  0  0  0  0  0  0  0  0
    0.5744   -1.4660   -0.5337 H   0  0  0  0  0  0  0  0  0  0  0  0
   -1.0136   -1.5681   -1.9669 C   0  0  0  0  0  0  0  0  0  0  0  0
   -0.3471   -1.9606   -3.1451 C   0  0  0  0  0  0  0  0  0  0  0  0
    0.7005   -1.7246   -3.2785 H   0  0  0  0  0  0  0  0  0  0  0  0
   -1.0410   -2.6658   -4.1476 C   0  0  0  0  0  0  0  0  0  0  0  0
   -0.5279   -2.9634   -5.0491 H   0  0  0  0  0  0  0  0  0  0  0  0
   -2.4053   -2.9827   -3.9692 C   0  0  0  0  0  0  0  0  0  0  0  0
   -3.0825   -3.6651   -4.9288 O   0  0  0  0  0  0  0  0  0  0  0  0
   -2.5557   -3.7966   -5.7182 H   0  0  0  0  0  0  0  0  0  0  0  0
   -3.0694   -2.5935   -2.7875 C   0  0  0  0  0  0  0  0  0  0  0  0
   -4.1138   -2.8378   -2.6646 H   0  0  0  0  0  0  0  0  0  0  0  0
   -2.3743   -1.8847   -1.7893 C   0  0  0  0  0  0  0  0  0  0  0  0
   -2.8876   -1.5779   -0.8857 H   0  0  0  0  0  0  0  0  0  0  0  0
   -1.4018    1.0238    0.4329 C   0  0  0  0  0  0  0  0  0  0  0  0
   -2.2416    1.5423   -0.3033 O   0  0  0  0  0  0  0  0  0  0  0  0
   -0.6927    1.7304    1.3223 N   0  0  0  0  0  0  0  0  0  0  0  0
    0.0178    1.2410    1.8469 H   0  0  0  0  0  0  0  0  0  0  0  0
   -0.8259    3.1712    1.5254 C   0  0  0  0  0  0  0  0  0  0  0  0
   -1.8769    3.4302    1.6645 H   0  0  0  0  0  0  0  0  0  0  0  0
   -0.2598    3.4806    2.4054 H   0  0  0  0  0  0  0  0  0  0  0  0
   -0.4486    3.7020    0.6489 H   0  0  0  0  0  0  0  0  0  0  0  0
  5  6  2  0  0  0  0
  5  7  1  0  0  0  0
  2  3  1  0  0  0  0
  2  4  1  0  0  0  0
  2  5  1  0  0  0  0
  1  2  1  0  0  0  0
 26 27  2  0  0  0  0
 26 28  1  0  0  0  0
 24 25  1  0  0  0  0
 22 23  1  0  0  0  0
 22 24  2  0  0  0  0
 20 21  1  0  0  0  0
 19 20  1  0  0  0  0
 19 22  1  0  0  0  0
 17 18  1  0  0  0  0
 17 19  2  0  0  0  0
 15 16  1  0  0  0  0
 15 17  1  0  0  0  0
 14 15  2  0  0  0  0
 14 24  1  0  0  0  0
 11 12  1  0  0  0  0
 11 13  1  0  0  0  0
 11 14  1  0  0  0  0
  9 10  1  0  0  0  0
  9 11  1  0  0  0  0
  9 26  1  0  0  0  0
  7  8  1  0  0  0  0
  7  9  1  0  0  0  0
 30 31  1  0  0  0  0
 30 32  1  0  0  0  0
 30 33  1  0  0  0  0
 28 29  1  0  0  0  0
 28 30  1  0  0  0  0
M  END
$$$$
default_name
  -OEChem-02102213163D

 33 33  0     1  0  0  0  0  0999 V2000
   -4.0702   -3.8485    1.4554 H   0  0  0  0  0  0  0  0  0  0  0  0
   -4.0012   -2.9605    0.8284 C   0  0  0  0  0  0  0  0  0  0  0  0
   -4.7652   -2.2435    1.1234 H   0  0  0  0  0  0  0  0  0  0  0  0
   -4.1352   -3.2385   -0.2156 H   0  0  0  0  0  0  0  0  0  0  0  0
   -2.6362   -2.3395    1.0094 C   0  0  0  0  0  0  0  0  0  0  0  0
   -1.8292   -2.8395    1.7814 O   0  0  0  0  0  0  0  0  0  0  0  0
   -2.3832   -1.2445    0.2964 N   0  0  0  0  0  0  0  0  0  0  0  0
   -3.1102   -0.8685   -0.2946 H   0  0  0  0  0  0  0  0  0  0  0  0
   -1.1292   -0.4875    0.3524 C   0  0  1  0  0  0  0  0  0  0  0  0
   -0.5898   -0.7762    1.2552 H   0  0  0  0  0  0  0  0  0  0  0  0
   -0.2608   -0.8470   -0.8656 C   0  0  0  0  0  0  0  0  0  0  0  0
    0.1578    0.0687   -1.2851 H   0  0  0  0  0  0  0  0  0  0  0  0
    0.5744   -1.4660   -0.5337 H   0  0  0  0  0  0  0  0  0  0  0  0
   -1.0136   -1.5681   -1.9669 C   0  0  0  0  0  0  0  0  0  0  0  0
   -0.3107   -2.2354   -2.9901 C   0  0  0  0  0  0  0  0  0  0  0  0
    0.7711   -2.2128   -3.0071 H   0  0  0  0  0  0  0  0  0  0  0  0
   -1.0139   -2.9378   -3.9881 C   0  0  0  0  0  0  0  0  0  0  0  0
   -0.4724   -3.4463   -4.7709 H   0  0  0  0  0  0  0  0  0  0  0  0
   -2.4250   -2.9758   -3.9602 C   0  0  0  0  0  0  0  0  0  0  0  0
   -3.1123   -3.6529   -4.9164 O   0  0  0  0  0  0  0  0  0  0  0  0
   -2.5374   -3.9865   -5.6064 H   0  0  0  0  0  0  0  0  0  0  0  0
   -3.1267   -2.3117   -2.9328 C   0  0  0  0  0  0  0  0  0  0  0  0
   -4.2058   -2.3444   -2.9248 H   0  0  0  0  0  0  0  0  0  0  0  0
   -2.4211   -1.6066   -1.9393 C   0  0  0  0  0  0  0  0  0  0  0  0
   -2.9612   -1.0888   -1.1556 H   0  0  0  0  0  0  0  0  0  0  0  0
   -1.4018    1.0238    0.4329 C   0  0  0  0  0  0  0  0  0  0  0  0
   -2.2416    1.5423   -0.3033 O   0  0  0  0  0  0  0  0  0  0  0  0
   -0.6927    1.7304    1.3223 N   0  0  0  0  0  0  0  0  0  0  0  0
    0.0178    1.2410    1.8469 H   0  0  0  0  0  0  0  0  0  0  0  0
   -0.8259    3.1712    1.5254 C   0  0  0  0  0  0  0  0  0  0  0  0
   -1.8769    3.4302    1.6645 H   0  0  0  0  0  0  0  0  0  0  0  0
   -0.2598    3.4806    2.4054 H   0  0  0  0  0  0  0  0  0  0  0  0
   -0.4486    3.7020    0.6489 H   0  0  0  0  0  0  0  0  0  0  0  0
  5  6  2  0  0  0  0
  5  7  1  0  0  0  0
  2  3  1  0  0  0  0
  2  4  1  0  0  0  0
  2  5  1  0  0  0  0
  1  2  1  0  0  0  0
 26 27  2  0  0  0  0
 26 28  1  0  0  0  0
 24 25  1  0  0  0  0
 22 23  1  0  0  0  0
 22 24  2  0  0  0  0
 20 21  1  0  0  0  0
 19 20  1  0  0  0  0
 19 22  1  0  0  0  0
 17 18  1  0  0  0  0
 17 19  2  0  0  0  0
 15 16  1  0  0  0  0
 15 17  1  0  0  0  0
 14 15  2  0  0  0  0
 14 24  1  0  0  0  0
 11 12  1  0  0  0  0
 11 13  1  0  0  0  0
 11 14  1  0  0  0  0
  9 10  1  0  0  0  0
  9 11  1  0  0  0  0
  9 26  1  0  0  0  0
  7  8  1  0  0  0  0
  7  9  1  0  0  0  0
 30 31  1  0  0  0  0
 30 32  1  0  0  0  0
 30 33  1  0  0  0  0
 28 29  1  0  0  0  0
 28 30  1  0  0  0  0
M  END
$$$$
default_name
  -OEChem-02102213163D

 33 33  0     1  0  0  0  0  0999 V2000
   -4.0702   -3.8485    1.4554 H   0  0  0  0  0  0  0  0  0  0  0  0
   -4.0012   -2.9605    0.8284 C   0  0  0  0  0  0  0  0  0  0  0  0
   -4.7652   -2.2435    1.1234 H   0  0  0  0  0  0  0  0  0  0  0  0
   -4.1352   -3.2385   -0.2156 H   0  0  0  0  0  0  0  0  0  0  0  0
   -2.6362   -2.3395    1.0094 C   0  0  0  0  0  0  0  0  0  0  0  0
   -1.8292   -2.8395    1.7814 O   0  0  0  0  0  0  0  0  0  0  0  0
   -2.3832   -1.2445    0.2964 N   0  0  0  0  0  0  0  0  0  0  0  0
   -3.1102   -0.8685   -0.2946 H   0  0  0  0  0  0  0  0  0  0  0  0
   -1.1292   -0.4875    0.3524 C   0  0  1  0  0  0  0  0  0  0  0  0
   -0.5898   -0.7762    1.2552 H   0  0  0  0  0  0  0  0  0  0  0  0
   -0.2608   -0.8470   -0.8656 C   0  0  0  0  0  0  0  0  0  0  0  0
    0.1578    0.0687   -1.2851 H   0  0  0  0  0  0  0  0  0  0  0  0
    0.5744   -1.4660   -0.5337 H   0  0  0  0  0  0  0  0  0  0  0  0
   -1.0136   -1.5681   -1.9669 C   0  0  0  0  0  0  0  0  0  0  0  0
   -0.3462   -2.4878   -2.8006 C   0  0  0  0  0  0  0  0  0  0  0  0
    0.7142   -2.6628   -2.6735 H   0  0  0  0  0  0  0  0  0  0  0  0
   -1.0584   -3.1851   -3.7957 C   0  0  0  0  0  0  0  0  0  0  0  0
   -0.5438   -3.8874   -4.4333 H   0  0  0  0  0  0  0  0  0  0  0  0
   -2.4439   -2.9643   -3.9549 C   0  0  0  0  0  0  0  0  0  0  0  0
   -3.1403   -3.6340   -4.9096 O   0  0  0  0  0  0  0  0  0  0  0  0
   -2.5691   -4.1590   -5.4718 H   0  0  0  0  0  0  0  0  0  0  0  0
   -3.1112   -2.0473   -3.1165 C   0  0  0  0  0  0  0  0  0  0  0  0
   -4.1698   -1.8839   -3.2509 H   0  0  0  0  0  0  0  0  0  0  0  0
   -2.3956   -1.3485   -2.1258 C   0  0  0  0  0  0  0  0  0  0  0  0
   -2.9071   -0.6373   -1.4882 H   0  0  0  0  0  0  0  0  0  0  0  0
   -1.4018    1.0238    0.4329 C   0  0  0  0  0  0  0  0  0  0  0  0
   -2.2416    1.5423   -0.3033 O   0  0  0  0  0  0  0  0  0  0  0  0
   -0.6927    1.7304    1.3223 N   0  0  0  0  0  0  0  0  0  0  0  0
    0.0178    1.2410    1.8469 H   0  0  0  0  0  0  0  0  0  0  0  0
   -0.8259    3.1712    1.5254 C   0  0  0  0  0  0  0  0  0  0  0  0
   -1.8769    3.4302    1.6645 H   0  0  0  0  0  0  0  0  0  0  0  0
   -0.2598    3.4806    2.4054 H   0  0  0  0  0  0  0  0  0  0  0  0
   -0.4486    3.7020    0.6489 H   0  0  0  0  0  0  0  0  0  0  0  0
  5  6  2  0  0  0  0
  5  7  1  0  0  0  0
  2  3  1  0  0  0  0
  2  4  1  0  0  0  0
  2  5  1  0  0  0  0
  1  2  1  0  0  0  0
 26 27  2  0  0  0  0
 26 28  1  0  0  0  0
 24 25  1  0  0  0  0
 22 23  1  0  0  0  0
 22 24  2  0  0  0  0
 20 21  1  0  0  0  0
 19 20  1  0  0  0  0
 19 22  1  0  0  0  0
 17 18  1  0  0  0  0
 17 19  2  0  0  0  0
 15 16  1  0  0  0  0
 15 17  1  0  0  0  0
 14 15  2  0  0  0  0
 14 24  1  0  0  0  0
 11 12  1  0  0  0  0
 11 13  1  0  0  0  0
 11 14  1  0  0  0  0
  9 10  1  0  0  0  0
  9 11  1  0  0  0  0
  9 26  1  0  0  0  0
  7  8  1  0  0  0  0
  7  9  1  0  0  0  0
 30 31  1  0  0  0  0
 30 32  1  0  0  0  0
 30 33  1  0  0  0  0
 28 29  1  0  0  0  0
 28 30  1  0  0  0  0
M  END
$$$$
default_name
  -OEChem-02102213163D

 33 33  0     1  0  0  0  0  0999 V2000
   -4.0702   -3.8485    1.4554 H   0  0  0  0  0  0  0  0  0  0  0  0
   -4.0012   -2.9605    0.8284 C   0  0  0  0  0  0  0  0  0  0  0  0
   -4.7652   -2.2435    1.1234 H   0  0  0  0  0  0  0  0  0  0  0  0
   -4.1352   -3.2385   -0.2156 H   0  0  0  0  0  0  0  0  0  0  0  0
   -2.6362   -2.3395    1.0094 C   0  0  0  0  0  0  0  0  0  0  0  0
   -1.8292   -2.8395    1.7814 O   0  0  0  0  0  0  0  0  0  0  0  0
   -2.3832   -1.2445    0.2964 N   0  0  0  0  0  0  0  0  0  0  0  0
   -3.1102   -0.8685   -0.2946 H   0  0  0  0  0  0  0  0  0  0  0  0
   -1.1292   -0.4875    0.3524 C   0  0  1  0  0  0  0  0  0  0  0  0
   -0.5898   -0.7762    1.2552 H   0  0  0  0  0  0  0  0  0  0  0  0
   -0.2608   -0.8470   -0.8656 C   0  0  0  0  0  0  0  0  0  0  0  0
    0.1578    0.0687   -1.2851 H   0  0  0  0  0  0  0  0  0  0  0  0
    0.5744   -1.4660   -0.5337 H   0  0  0  0  0  0  0  0  0  0  0  0
   -1.0136   -1.5681   -1.9669 C   0  0  0  0  0  0  0  0  0  0  0  0
   -0.4512   -2.7005   -2.5895 C   0  0  0  0  0  0  0  0  0  0  0  0
    0.5335   -3.0440   -2.3005 H   0  0  0  0  0  0  0  0  0  0  0  0
   -1.1716   -3.3909   -3.5836 C   0  0  0  0  0  0  0  0  0  0  0  0
   -0.7372   -4.2567   -4.0593 H   0  0  0  0  0  0  0  0  0  0  0  0
   -2.4606   -2.9490   -3.9535 C   0  0  0  0  0  0  0  0  0  0  0  0
   -3.1646   -3.6096   -4.9090 O   0  0  0  0  0  0  0  0  0  0  0  0
   -2.6487   -4.3024   -5.3235 H   0  0  0  0  0  0  0  0  0  0  0  0
   -3.0239   -1.8185   -3.3260 C   0  0  0  0  0  0  0  0  0  0  0  0
   -4.0085   -1.4878   -3.6206 H   0  0  0  0  0  0  0  0  0  0  0  0
   -2.2994   -1.1279   -2.3359 C   0  0  0  0  0  0  0  0  0  0  0  0
   -2.7291   -0.2540   -1.8609 H   0  0  0  0  0  0  0  0  0  0  0  0
   -1.4018    1.0238    0.4329 C   0  0  0  0  0  0  0  0  0  0  0  0
   -2.2416    1.5423   -0.3033 O   0  0  0  0  0  0  0  0  0  0  0  0
   -0.6927    1.7304    1.3223 N   0  0  0  0  0  0  0  0  0  0  0  0
    0.0178    1.2410    1.8469 H   0  0  0  0  0  0  0  0  0  0  0  0
   -0.8259    3.1712    1.5254 C   0  0  0  0  0  0  0  0  0  0  0  0
   -1.8769    3.4302    1.6645 H   0  0  0  0  0  0  0  0  0  0  0  0
   -0.2598    3.4806    2.4054 H   0  0  0  0  0  0  0  0  0  0  0  0
   -0.4486    3.7020    0.6489 H   0  0  0  0  0  0  0  0  0  0  0  0
  5  6  2  0  0  0  0
  5  7  1  0  0  0  0
  2  3  1  0  0  0  0
  2  4  1  0  0  0  0
  2  5  1  0  0  0  0
  1  2  1  0  0  0  0
 26 27  2  0  0  0  0
 26 28  1  0  0  0  0
 24 25  1  0  0  0  0
 22 23  1  0  0  0  0
 22 24  2  0  0  0  0
 20 21  1  0  0  0  0
 19 20  1  0  0  0  0
 19 22  1  0  0  0  0
 17 18  1  0  0  0  0
 17 19  2  0  0  0  0
 15 16  1  0  0  0  0
 15 17  1  0  0  0  0
 14 15  2  0  0  0  0
 14 24  1  0  0  0  0
 11 12  1  0  0  0  0
 11 13  1  0  0  0  0
 11 14  1  0  0  0  0
  9 10  1  0  0  0  0
  9 11  1  0  0  0  0
  9 26  1  0  0  0  0
  7  8  1  0  0  0  0
  7  9  1  0  0  0  0
 30 31  1  0  0  0  0
 30 32  1  0  0  0  0
 30 33  1  0  0  0  0
 28 29  1  0  0  0  0
 28 30  1  0  0  0  0
M  END
$$$$
default_name
  -OEChem-02102213163D

 33 33  0     1  0  0  0  0  0999 V2000
   -4.0702   -3.8485    1.4554 H   0  0  0  0  0  0  0  0  0  0  0  0
   -4.0012   -2.9605    0.8284 C   0  0  0  0  0  0  0  0  0  0  0  0
   -4.7652   -2.2435    1.1234 H   0  0  0  0  0  0  0  0  0  0  0  0
   -4.1352   -3.2385   -0.2156 H   0  0  0  0  0  0  0  0  0  0  0  0
   -2.6362   -2.3395    1.0094 C   0  0  0  0  0  0  0  0  0  0  0  0
   -1.8292   -2.8395    1.7814 O   0  0  0  0  0  0  0  0  0  0  0  0
   -2.3832   -1.2445    0.2964 N   0  0  0  0  0  0  0  0  0  0  0  0
   -3.1102   -0.8685   -0.2946 H   0  0  0  0  0  0  0  0  0  0  0  0
   -1.1292   -0.4875    0.3524 C   0  0  1  0  0  0  0  0  0  0  0  0
   -0.5898   -0.7762    1.2552 H   0  0  0  0  0  0  0  0  0  0  0  0
   -0.2608   -0.8470   -0.8656 C   0  0  0  0  0  0  0  0  0  0  0  0
    0.1578    0.0687   -1.2851 H   0  0  0  0  0  0  0  0  0  0  0  0
    0.5744   -1.4660   -0.5337 H   0  0  0  0  0  0  0  0  0  0  0  0
   -1.0136   -1.5681   -1.9669 C   0  0  0  0  0  0  0  0  0  0  0  0
   -0.6186   -2.8592   -2.3711 C   0  0  0  0  0  0  0  0  0  0  0  0
    0.2414   -3.3302   -1.9135 H   0  0  0  0  0  0  0  0  0  0  0  0
   -1.3457   -3.5411   -3.3662 C   0  0  0  0  0  0  0  0  0  0  0  0
   -1.0395   -4.5290   -3.6744 H   0  0  0  0  0  0  0  0  0  0  0  0
   -2.4740   -2.9308   -3.9562 C   0  0  0  0  0  0  0  0  0  0  0  0
   -3.1836   -3.5814   -4.9145 O   0  0  0  0  0  0  0  0  0  0  0  0
   -2.7708   -4.4068   -5.1717 H   0  0  0  0  0  0  0  0  0  0  0  0
   -2.8708   -1.6408   -3.5470 C   0  0  0  0  0  0  0  0  0  0  0  0
   -3.7326   -1.1830   -4.0087 H   0  0  0  0  0  0  0  0  0  0  0  0
   -2.1393   -0.9599   -2.5554 C   0  0  0  0  0  0  0  0  0  0  0  0
   -2.4392    0.0349   -2.2481 H   0  0  0  0  0  0  0  0  0  0  0  0
   -1.4018    1.0238    0.4329 C   0  0  0  0  0  0  0  0  0  0  0  0
   -2.2416    1.5423   -0.3033 O   0  0  0  0  0  0  0  0  0  0  0  0
   -0.6927    1.7304    1.3223 N   0  0  0  0  0  0  0  0  0  0  0  0
    0.0178    1.2410    1.8469 H   0  0  0  0  0  0  0  0  0  0  0  0
   -0.8259    3.1712    1.5254 C   0  0  0  0  0  0  0  0  0  0  0  0
   -1.8769    3.4302    1.6645 H   0  0  0  0  0  0  0  0  0  0  0  0
   -0.2598    3.4806    2.4054 H   0  0  0  0  0  0  0  0  0  0  0  0
   -0.4486    3.7020    0.6489 H   0  0  0  0  0  0  0  0  0  0  0  0
  5  6  2  0  0  0  0
  5  7  1  0  0  0  0
  2  3  1  0  0  0  0
  2  4  1  0  0  0  0
  2  5  1  0  0  0  0
  1  2  1  0  0  0  0
 26 27  2  0  0  0  0
 26 28  1  0  0  0  0
 24 25  1  0  0  0  0
 22 23  1  0  0  0  0
 22 24  2  0  0  0  0
 20 21  1  0  0  0  0
 19 20  1  0  0  0  0
 19 22  1  0  0  0  0
 17 18  1  0  0  0  0
 17 19  2  0  0  0  0
 15 16  1  0  0  0  0
 15 17  1  0  0  0  0
 14 15  2  0  0  0  0
 14 24  1  0  0  0  0
 11 12  1  0  0  0  0
 11 13  1  0  0  0  0
 11 14  1  0  0  0  0
  9 10  1  0  0  0  0
  9 11  1  0  0  0  0
  9 26  1  0  0  0  0
  7  8  1  0  0  0  0
  7  9  1  0  0  0  0
 30 31  1  0  0  0  0
 30 32  1  0  0  0  0
 30 33  1  0  0  0  0
 28 29  1  0  0  0  0
 28 30  1  0  0  0  0
M  END
$$$$
default_name
  -OEChem-02102213163D

 33 33  0     1  0  0  0  0  0999 V2000
   -4.0702   -3.8485    1.4554 H   0  0  0  0  0  0  0  0  0  0  0  0
   -4.0012   -2.9605    0.8284 C   0  0  0  0  0  0  0  0  0  0  0  0
   -4.7652   -2.2435    1.1234 H   0  0  0  0  0  0  0  0  0  0  0  0
   -4.1352   -3.2385   -0.2156 H   0  0  0  0  0  0  0  0  0  0  0  0
   -2.6362   -2.3395    1.0094 C   0  0  0  0  0  0  0  0  0  0  0  0
   -1.8292   -2.8395    1.7814 O   0  0  0  0  0  0  0  0  0  0  0  0
   -2.3832   -1.2445    0.2964 N   0  0  0  0  0  0  0  0  0  0  0  0
   -3.1102   -0.8685   -0.2946 H   0  0  0  0  0  0  0  0  0  0  0  0
   -1.1292   -0.4875    0.3524 C   0  0  1  0  0  0  0  0  0  0  0  0
   -0.5898   -0.7762    1.2552 H   0  0  0  0  0  0  0  0  0  0  0  0
   -0.2608   -0.8470   -0.8656 C   0  0  0  0  0  0  0  0  0  0  0  0
    0.1578    0.0687   -1.2851 H   0  0  0  0  0  0  0  0  0  0  0  0
    0.5744   -1.4660   -0.5337 H   0  0  0  0  0  0  0  0  0  0  0  0
   -1.0136   -1.5681   -1.9669 C   0  0  0  0  0  0  0  0  0  0  0  0
   -0.8371   -2.9529   -2.1605 C   0  0  0  0  0  0  0  0  0  0  0  0
   -0.1421   -3.5021   -1.5388 H   0  0  0  0  0  0  0  0  0  0  0  0
   -1.5689   -3.6256   -3.1583 C   0  0  0  0  0  0  0  0  0  0  0  0
   -1.4300   -4.6857   -3.3048 H   0  0  0  0  0  0  0  0  0  0  0  0
   -2.4833   -2.9111   -3.9628 C   0  0  0  0  0  0  0  0  0  0  0  0
   -3.1960   -3.5512   -4.9258 O   0  0  0  0  0  0  0  0  0  0  0  0
   -2.9270   -4.4653   -5.0266 H   0  0  0  0  0  0  0  0  0  0  0  0
   -2.6623   -1.5264   -3.7644 C   0  0  0  0  0  0  0  0  0  0  0  0
   -3.3611   -0.9903   -4.3888 H   0  0  0  0  0  0  0  0  0  0  0  0
   -1.9259   -0.8560   -2.7693 C   0  0  0  0  0  0  0  0  0  0  0  0
   -2.0572    0.2097   -2.6237 H   0  0  0  0  0  0  0  0  0  0  0  0
   -1.4018    1.0238    0.4329 C   0  0  0  0  0  0  0  0  0  0  0  0
   -2.2416    1.5423   -0.3033 O   0  0  0  0  0  0  0  0  0  0  0  0
   -0.6927    1.7304    1.3223 N   0  0  0  0  0  0  0  0  0  0  0  0
    0.0178    1.2410    1.8469 H   0  0  0  0  0  0  0  0  0  0  0  0
   -0.8259    3.1712    1.5254 C   0  0  0  0  0  0  0  0  0  0  0  0
   -1.8769    3.4302    1.6645 H   0  0  0  0  0  0  0  0  0  0  0  0
   -0.2598    3.4806    2.4054 H   0  0  0  0  0  0  0  0  0  0  0  0
   -0.4486    3.7020    0.6489 H   0  0  0  0  0  0  0  0  0  0  0  0
  5  6  2  0  0  0  0
  5  7  1  0  0  0  0
  2  3  1  0  0  0  0
  2  4  1  0  0  0  0
  2  5  1  0  0  0  0
  1  2  1  0  0  0  0
 26 27  2  0  0  0  0
 26 28  1  0  0  0  0
 24 25  1  0  0  0  0
 22 23  1  0  0  0  0
 22 24  2  0  0  0  0
 20 21  1  0  0  0  0
 19 20  1  0  0  0  0
 19 22  1  0  0  0  0
 17 18  1  0  0  0  0
 17 19  2  0  0  0  0
 15 16  1  0  0  0  0
 15 17  1  0  0  0  0
 14 15  2  0  0  0  0
 14 24  1  0  0  0  0
 11 12  1  0  0  0  0
 11 13  1  0  0  0  0
 11 14  1  0  0  0  0
  9 10  1  0  0  0  0
  9 11  1  0  0  0  0
  9 26  1  0  0  0  0
  7  8  1  0  0  0  0
  7  9  1  0  0  0  0
 30 31  1  0  0  0  0
 30 32  1  0  0  0  0
 30 33  1  0  0  0  0
 28 29  1  0  0  0  0
 28 30  1  0  0  0  0
M  END
$$$$
default_name
  -OEChem-02102213163D

 33 33  0     1  0  0  0  0  0999 V2000
   -4.0702   -3.8485    1.4554 H   0  0  0  0  0  0  0  0  0  0  0  0
   -4.0012   -2.9605    0.8284 C   0  0  0  0  0  0  0  0  0  0  0  0
   -4.7652   -2.2435    1.1234 H   0  0  0  0  0  0  0  0  0  0  0  0
   -4.1352   -3.2385   -0.2156 H   0  0  0  0  0  0  0  0  0  0  0  0
   -2.6362   -2.3395    1.0094 C   0  0  0  0  0  0  0  0  0  0  0  0
   -1.8292   -2.8395    1.7814 O   0  0  0  0  0  0  0  0  0  0  0  0
   -2.3832   -1.2445    0.2964 N   0  0  0  0  0  0  0  0  0  0  0  0
   -3.1102   -0.8685   -0.2946 H   0  0  0  0  0  0  0  0  0  0  0  0
   -1.1292   -0.4875    0.3524 C   0  0  1  0  0  0  0  0  0  0  0  0
   -0.5898   -0.7762    1.2552 H   0  0  0  0  0  0  0  0  0  0  0  0
   -0.2608   -0.8470   -0.8656 C   0  0  0  0  0  0  0  0  0  0  0  0
    0.1578    0.0687   -1.2851 H   0  0  0  0  0  0  0  0  0  0  0  0
    0.5744   -1.4660   -0.5337 H   0  0  0  0  0  0  0  0  0  0  0  0
   -1.0136   -1.5681   -1.9669 C   0  0  0  0  0  0  0  0  0  0  0  0
   -1.0916   -2.9753   -1.9718 C   0  0  0  0  0  0  0  0  0  0  0  0
   -0.5910   -3.5478   -1.2020 H   0  0  0  0  0  0  0  0  0  0  0  0
   -1.8259   -3.6385   -2.9742 C   0  0  0  0  0  0  0  0  0  0  0  0
   -1.8822   -4.7162   -2.9758 H   0  0  0  0  0  0  0  0  0  0  0  0
   -2.4876   -2.8912   -3.9728 C   0  0  0  0  0  0  0  0  0  0  0  0
   -3.2008   -3.5213   -4.9421 O   0  0  0  0  0  0  0  0  0  0  0  0
   -3.1068   -4.4737   -4.8982 H   0  0  0  0  0  0  0  0  0  0  0  0
   -2.4126   -1.4829   -3.9635 C   0  0  0  0  0  0  0  0  0  0  0  0
   -2.9192   -0.9228   -4.7350 H   0  0  0  0  0  0  0  0  0  0  0  0
   -1.6740   -0.8231   -2.9630 C   0  0  0  0  0  0  0  0  0  0  0  0
   -1.6092    0.2584   -2.9618 H   0  0  0  0  0  0  0  0  0  0  0  0
   -1.4018    1.0238    0.4329 C   0  0  0  0  0  0  0  0  0  0  0  0
   -2.2416    1.5423   -0.3033 O   0  0  0  0  0  0  0  0  0  0  0  0
   -0.6927    1.7304    1.3223 N   0  0  0  0  0  0  0  0  0  0  0  0
    0.0178    1.2410    1.8469 H   0  0  0  0  0  0  0  0  0  0  0  0
   -0.8259    3.1712    1.5254 C   0  0  0  0  0  0  0  0  0  0  0  0
   -1.8769    3.4302    1.6645 H   0  0  0  0  0  0  0  0  0  0  0  0
   -0.2598    3.4806    2.4054 H   0  0  0  0  0  0  0  0  0  0  0  0
   -0.4486    3.7020    0.6489 H   0  0  0  0  0  0  0  0  0  0  0  0
  5  6  2  0  0  0  0
  5  7  1  0  0  0  0
  2  3  1  0  0  0  0
  2  4  1  0  0  0  0
  2  5  1  0  0  0  0
  1  2  1  0  0  0  0
 26 27  2  0  0  0  0
 26 28  1  0  0  0  0
 24 25  1  0  0  0  0
 22 23  1  0  0  0  0
 22 24  2  0  0  0  0
 20 21  1  0  0  0  0
 19 20  1  0  0  0  0
 19 22  1  0  0  0  0
 17 18  1  0  0  0  0
 17 19  2  0  0  0  0
 15 16  1  0  0  0  0
 15 17  1  0  0  0  0
 14 15  2  0  0  0  0
 14 24  1  0  0  0  0
 11 12  1  0  0  0  0
 11 13  1  0  0  0  0
 11 14  1  0  0  0  0
  9 10  1  0  0  0  0
  9 11  1  0  0  0  0
  9 26  1  0  0  0  0
  7  8  1  0  0  0  0
  7  9  1  0  0  0  0
 30 31  1  0  0  0  0
 30 32  1  0  0  0  0
 30 33  1  0  0  0  0
 28 29  1  0  0  0  0
 28 30  1  0  0  0  0
M  END
$$$$
default_name
  -OEChem-02102213163D

 33 33  0     1  0  0  0  0  0999 V2000
   -4.0702   -3.8485    1.4554 H   0  0  0  0  0  0  0  0  0  0  0  0
   -4.0012   -2.9605    0.8284 C   0  0  0  0  0  0  0  0  0  0  0  0
   -4.7652   -2.2435    1.1234 H   0  0  0  0  0  0  0  0  0  0  0  0
   -4.1352   -3.2385   -0.2156 H   0  0  0  0  0  0  0  0  0  0  0  0
   -2.6362   -2.3395    1.0094 C   0  0  0  0  0  0  0  0  0  0  0  0
   -1.8292   -2.8395    1.7814 O   0  0  0  0  0  0  0  0  0  0  0  0
   -2.3832   -1.2445    0.2964 N   0  0  0  0  0  0  0  0  0  0  0  0
   -3.1102   -0.8685   -0.2946 H   0  0  0  0  0  0  0  0  0  0  0  0
   -1.1292   -0.4875    0.3524 C   0  0  1  0  0  0  0  0  0  0  0  0
   -0.5898   -0.7762    1.2552 H   0  0  0  0  0  0  0  0  0  0  0  0
   -0.2608   -0.8470   -0.8656 C   0  0  0  0  0  0  0  0  0  0  0  0
    0.1578    0.0687   -1.2851 H   0  0  0  0  0  0  0  0  0  0  0  0
    0.5744   -1.4660   -0.5337 H   0  0  0  0  0  0  0  0  0  0  0  0
   -1.0136   -1.5681   -1.9669 C   0  0  0  0  0  0  0  0  0  0  0  0
   -1.3649   -2.9248   -1.8181 C   0  0  0  0  0  0  0  0  0  0  0  0
   -1.0746   -3.4644   -0.9260 H   0  0  0  0  0  0  0  0  0  0  0  0
   -2.0993   -3.5790   -2.8263 C   0  0  0  0  0  0  0  0  0  0  0  0
   -2.3652   -4.6184   -2.7096 H   0  0  0  0  0  0  0  0  0  0  0  0
   -2.4869   -2.8724   -3.9856 C   0  0  0  0  0  0  0  0  0  0  0  0
   -3.1979   -3.4935   -4.9623 O   0  0  0  0  0  0  0  0  0  0  0  0
   -3.2978   -4.4316   -4.7952 H   0  0  0  0  0  0  0  0  0  0  0  0
   -2.1388   -1.5135   -4.1307 C   0  0  0  0  0  0  0  0  0  0  0  0
   -2.4372   -0.9852   -5.0237 H   0  0  0  0  0  0  0  0  0  0  0  0
   -1.4007   -0.8637   -3.1233 C   0  0  0  0  0  0  0  0  0  0  0  0
   -1.1256    0.1779   -3.2396 H   0  0  0  0  0  0  0  0  0  0  0  0
   -1.4018    1.0238    0.4329 C   0  0  0  0  0  0  0  0  0  0  0  0
   -2.2416    1.5423   -0.3033 O   0  0  0  0  0  0  0  0  0  0  0  0
   -0.6927    1.7304    1.3223 N   0  0  0  0  0  0  0  0  0  0  0  0
    0.0178    1.2410    1.8469 H   0  0  0  0  0  0  0  0  0  0  0  0
   -0.8259    3.1712    1.5254 C   0  0  0  0  0  0  0  0  0  0  0  0
   -1.8769    3.4302    1.6645 H   0  0  0  0  0  0  0  0  0  0  0  0
   -0.2598    3.4806    2.4054 H   0  0  0  0  0  0  0  0  0  0  0  0
   -0.4486    3.7020    0.6489 H   0  0  0  0  0  0  0  0  0  0  0  0
  5  6  2  0  0  0  0
  5  7  1  0  0  0  0
  2  3  1  0  0  0  0
  2  4  1  0  0  0  0
  2  5  1  0  0  0  0
  1  2  1  0  0  0  0
 26 27  2  0  0  0  0
 26 28  1  0  0  0  0
 24 25  1  0  0  0  0
 22 23  1  0  0  0  0
 22 24  2  0  0  0  0
 20 21  1  0  0  0  0
 19 20  1  0  0  0  0
 19 22  1  0  0  0  0
 17 18  1  0  0  0  0
 17 19  2  0  0  0  0
 15 16  1  0  0  0  0
 15 17  1  0  0  0  0
 14 15  2  0  0  0  0
 14 24  1  0  0  0  0
 11 12  1  0  0  0  0
 11 13  1  0  0  0  0
 11 14  1  0  0  0  0
  9 10  1  0  0  0  0
  9 11  1  0  0  0  0
  9 26  1  0  0  0  0
  7  8  1  0  0  0  0
  7  9  1  0  0  0  0
 30 31  1  0  0  0  0
 30 32  1  0  0  0  0
 30 33  1  0  0  0  0
 28 29  1  0  0  0  0
 28 30  1  0  0  0  0
M  END
$$$$
default_name
  -OEChem-02102213163D

 33 33  0     1  0  0  0  0  0999 V2000
   -4.0702   -3.8485    1.4554 H   0  0  0  0  0  0  0  0  0  0  0  0
   -4.0012   -2.9605    0.8284 C   0  0  0  0  0  0  0  0  0  0  0  0
   -4.7652   -2.2435    1.1234 H   0  0  0  0  0  0  0  0  0  0  0  0
   -4.1352   -3.2385   -0.2156 H   0  0  0  0  0  0  0  0  0  0  0  0
   -2.6362   -2.3395    1.0094 C   0  0  0  0  0  0  0  0  0  0  0  0
   -1.8292   -2.8395    1.7814 O   0  0  0  0  0  0  0  0  0  0  0  0
   -2.3832   -1.2445    0.2964 N   0  0  0  0  0  0  0  0  0  0  0  0
   -3.1102   -0.8685   -0.2946 H   0  0  0  0  0  0  0  0  0  0  0  0
   -1.1292   -0.4875    0.3524 C   0  0  1  0  0  0  0  0  0  0  0  0
   -0.5898   -0.7762    1.2552 H   0  0  0  0  0  0  0  0  0  0  0  0
   -0.2608   -0.8470   -0.8656 C   0  0  0  0  0  0  0  0  0  0  0  0
    0.1578    0.0687   -1.2851 H   0  0  0  0  0  0  0  0  0  0  0  0
    0.5744   -1.4660   -0.5337 H   0  0  0  0  0  0  0  0  0  0  0  0
   -1.0136   -1.5681   -1.9669 C   0  0  0  0  0  0  0  0  0  0  0  0
   -1.6383   -2.8050   -1.7097 C   0  0  0  0  0  0  0  0  0  0  0  0
   -1.5601   -3.2574   -0.7297 H   0  0  0  0  0  0  0  0  0  0  0  0
   -2.3704   -3.4512   -2.7247 C   0  0  0  0  0  0  0  0  0  0  0  0
   -2.8461   -4.3990   -2.5246 H   0  0  0  0  0  0  0  0  0  0  0  0
   -2.4811   -2.8561   -4.0003 C   0  0  0  0  0  0  0  0  0  0  0  0
   -3.1874   -3.4698   -4.9850 O   0  0  0  0  0  0  0  0  0  0  0  0
   -3.4871   -4.3418   -4.7246 H   0  0  0  0  0  0  0  0  0  0  0  0
   -1.8595   -1.6159   -4.2545 C   0  0  0  0  0  0  0  0  0  0  0  0
   -1.9477   -1.1731   -5.2352 H   0  0  0  0  0  0  0  0  0  0  0  0
   -1.1246   -0.9748   -3.2393 C   0  0  0  0  0  0  0  0  0  0  0  0
   -0.6395   -0.0265   -3.4381 H   0  0  0  0  0  0  0  0  0  0  0  0
   -1.4018    1.0238    0.4329 C   0  0  0  0  0  0  0  0  0  0  0  0
   -2.2416    1.5423   -0.3033 O   0  0  0  0  0  0  0  0  0  0  0  0
   -0.6927    1.7304    1.3223 N   0  0  0  0  0  0  0  0  0  0  0  0
    0.0178    1.2410    1.8469 H   0  0  0  0  0  0  0  0  0  0  0  0
   -0.8259    3.1712    1.5254 C   0  0  0  0  0  0  0  0  0  0  0  0
   -1.8769    3.4302    1.6645 H   0  0  0  0  0  0  0  0  0  0  0  0
   -0.2598    3.4806    2.4054 H   0  0  0  0  0  0  0  0  0  0  0  0
   -0.4486    3.7020    0.6489 H   0  0  0  0  0  0  0  0  0  0  0  0
  5  6  2  0  0  0  0
  5  7  1  0  0  0  0
  2  3  1  0  0  0  0
  2  4  1  0  0  0  0
  2  5  1  0  0  0  0
  1  2  1  0  0  0  0
 26 27  2  0  0  0  0
 26 28  1  0  0  0  0
 24 25  1  0  0  0  0
 22 23  1  0  0  0  0
 22 24  2  0  0  0  0
 20 21  1  0  0  0  0
 19 20  1  0  0  0  0
 19 22  1  0  0  0  0
 17 18  1  0  0  0  0
 17 19  2  0  0  0  0
 15 16  1  0  0  0  0
 15 17  1  0  0  0  0
 14 15  2  0  0  0  0
 14 24  1  0  0  0  0
 11 12  1  0  0  0  0
 11 13  1  0  0  0  0
 11 14  1  0  0  0  0
  9 10  1  0  0  0  0
  9 11  1  0  0  0  0
  9 26  1  0  0  0  0
  7  8  1  0  0  0  0
  7  9  1  0  0  0  0
 30 31  1  0  0  0  0
 30 32  1  0  0  0  0
 30 33  1  0  0  0  0
 28 29  1  0  0  0  0
 28 30  1  0  0  0  0
M  END
$$$$
default_name
  -OEChem-02102213163D

 33 33  0     1  0  0  0  0  0999 V2000
   -4.0702   -3.8485    1.4554 H   0  0  0  0  0  0  0  0  0  0  0  0
   -4.0012   -2.9605    0.8284 C   0  0  0  0  0  0  0  0  0  0  0  0
   -4.7652   -2.2435    1.1234 H   0  0  0  0  0  0  0  0  0  0  0  0
   -4.1352   -3.2385   -0.2156 H   0  0  0  0  0  0  0  0  0  0  0  0
   -2.6362   -2.3395    1.0094 C   0  0  0  0  0  0  0  0  0  0  0  0
   -1.8292   -2.8395    1.7814 O   0  0  0  0  0  0  0  0  0  0  0  0
   -2.3832   -1.2445    0.2964 N   0  0  0  0  0  0  0  0  0  0  0  0
   -3.1102   -0.8685   -0.2946 H   0  0  0  0  0  0  0  0  0  0  0  0
   -1.1292   -0.4875    0.3524 C   0  0  1  0  0  0  0  0  0  0  0  0
   -0.5898   -0.7762    1.2552 H   0  0  0  0  0  0  0  0  0  0  0  0
   -0.2608   -0.8470   -0.8656 C   0  0  0  0  0  0  0  0  0  0  0  0
    0.1578    0.0687   -1.2851 H   0  0  0  0  0  0  0  0  0  0  0  0
    0.5744   -1.4660   -0.5337 H   0  0  0  0  0  0  0  0  0  0  0  0
   -1.0136   -1.5681   -1.9669 C   0  0  0  0  0  0  0  0  0  0  0  0
   -1.8932   -2.6239   -1.6540 C   0  0  0  0  0  0  0  0  0  0  0  0
   -2.0143   -2.9411   -0.6265 H   0  0  0  0  0  0  0  0  0  0  0  0
   -2.6207   -3.2637   -2.6763 C   0  0  0  0  0  0  0  0  0  0  0  0
   -3.2922   -4.0728   -2.4333 H   0  0  0  0  0  0  0  0  0  0  0  0
   -2.4706   -2.8433   -4.0159 C   0  0  0  0  0  0  0  0  0  0  0  0
   -3.1699   -3.4518   -5.0087 O   0  0  0  0  0  0  0  0  0  0  0  0
   -3.6618   -4.2103   -4.6913 H   0  0  0  0  0  0  0  0  0  0  0  0
   -1.5937   -1.7833   -4.3266 C   0  0  0  0  0  0  0  0  0  0  0  0
   -1.4842   -1.4739   -5.3551 H   0  0  0  0  0  0  0  0  0  0  0  0
   -0.8645   -1.1489   -3.3030 C   0  0  0  0  0  0  0  0  0  0  0  0
   -0.1840   -0.3408   -3.5437 H   0  0  0  0  0  0  0  0  0  0  0  0
   -1.4018    1.0238    0.4329 C   0  0  0  0  0  0  0  0  0  0  0  0
   -2.2416    1.5423   -0.3033 O   0  0  0  0  0  0  0  0  0  0  0  0
   -0.6927    1.7304    1.3223 N   0  0  0  0  0  0  0  0  0  0  0  0
    0.0178    1.2410    1.8469 H   0  0  0  0  0  0  0  0  0  0  0  0
   -0.8259    3.1712    1.5254 C   0  0  0  0  0  0  0  0  0  0  0  0
   -1.8769    3.4302    1.6645 H   0  0  0  0  0  0  0  0  0  0  0  0
   -0.2598    3.4806    2.4054 H   0  0  0  0  0  0  0  0  0  0  0  0
   -0.4486    3.7020    0.6489 H   0  0  0  0  0  0  0  0  0  0  0  0
  5  6  2  0  0  0  0
  5  7  1  0  0  0  0
  2  3  1  0  0  0  0
  2  4  1  0  0  0  0
  2  5  1  0  0  0  0
  1  2  1  0  0  0  0
 26 27  2  0  0  0  0
 26 28  1  0  0  0  0
 24 25  1  0  0  0  0
 22 23  1  0  0  0  0
 22 24  2  0  0  0  0
 20 21  1  0  0  0  0
 19 20  1  0  0  0  0
 19 22  1  0  0  0  0
 17 18  1  0  0  0  0
 17 19  2  0  0  0  0
 15 16  1  0  0  0  0
 15 17  1  0  0  0  0
 14 15  2  0  0  0  0
 14 24  1  0  0  0  0
 11 12  1  0  0  0  0
 11 13  1  0  0  0  0
 11 14  1  0  0  0  0
  9 10  1  0  0  0  0
  9 11  1  0  0  0  0
  9 26  1  0  0  0  0
  7  8  1  0  0  0  0
  7  9  1  0  0  0  0
 30 31  1  0  0  0  0
 30 32  1  0  0  0  0
 30 33  1  0  0  0  0
 28 29  1  0  0  0  0
 28 30  1  0  0  0  0
M  END
$$$$
default_name
  -OEChem-02102213163D

 33 33  0     1  0  0  0  0  0999 V2000
   -4.0702   -3.8485    1.4554 H   0  0  0  0  0  0  0  0  0  0  0  0
   -4.0012   -2.9605    0.8284 C   0  0  0  0  0  0  0  0  0  0  0  0
   -4.7652   -2.2435    1.1234 H   0  0  0  0  0  0  0  0  0  0  0  0
   -4.1352   -3.2385   -0.2156 H   0  0  0  0  0  0  0  0  0  0  0  0
   -2.6362   -2.3395    1.0094 C   0  0  0  0  0  0  0  0  0  0  0  0
   -1.8292   -2.8395    1.7814 O   0  0  0  0  0  0  0  0  0  0  0  0
   -2.3832   -1.2445    0.2964 N   0  0  0  0  0  0  0  0  0  0  0  0
   -3.1102   -0.8685   -0.2946 H   0  0  0  0  0  0  0  0  0  0  0  0
   -1.1292   -0.4875    0.3524 C   0  0  1  0  0  0  0  0  0  0  0  0
   -0.5898   -0.7762    1.2552 H   0  0  0  0  0  0  0  0  0  0  0  0
   -0.2608   -0.8470   -0.8656 C   0  0  0  0  0  0  0  0  0  0  0  0
    0.1578    0.0687   -1.2851 H   0  0  0  0  0  0  0  0  0  0  0  0
    0.5744   -1.4660   -0.5337 H   0  0  0  0  0  0  0  0  0  0  0  0
   -1.0136   -1.5681   -1.9669 C   0  0  0  0  0  0  0  0  0  0  0  0
   -2.1122   -2.3939   -1.6549 C   0  0  0  0  0  0  0  0  0  0  0  0
   -2.4062   -2.5368   -0.6232 H   0  0  0  0  0  0  0  0  0  0  0  0
   -2.8332   -3.0293   -2.6846 C   0  0  0  0  0  0  0  0  0  0  0  0
   -3.6730   -3.6622   -2.4418 H   0  0  0  0  0  0  0  0  0  0  0  0
   -2.4561   -2.8348   -4.0313 C   0  0  0  0  0  0  0  0  0  0  0  0
   -3.1468   -3.4408   -5.0317 O   0  0  0  0  0  0  0  0  0  0  0  0
   -3.8099   -4.0463   -4.6975 H   0  0  0  0  0  0  0  0  0  0  0  0
   -1.3596   -2.0042   -4.3420 C   0  0  0  0  0  0  0  0  0  0  0  0
   -1.0783   -1.8669   -5.3752 H   0  0  0  0  0  0  0  0  0  0  0  0
   -0.6381   -1.3742   -3.3103 C   0  0  0  0  0  0  0  0  0  0  0  0
    0.2100   -0.7436   -3.5492 H   0  0  0  0  0  0  0  0  0  0  0  0
   -1.4018    1.0238    0.4329 C   0  0  0  0  0  0  0  0  0  0  0  0
   -2.2416    1.5423   -0.3033 O   0  0  0  0  0  0  0  0  0  0  0  0
   -0.6927    1.7304    1.3223 N   0  0  0  0  0  0  0  0  0  0  0  0
    0.0178    1.2410    1.8469 H   0  0  0  0  0  0  0  0  0  0  0  0
   -0.8259    3.1712    1.5254 C   0  0  0  0  0  0  0  0  0  0  0  0
   -1.8769    3.4302    1.6645 H   0  0  0  0  0  0  0  0  0  0  0  0
   -0.2598    3.4806    2.4054 H   0  0  0  0  0  0  0  0  0  0  0  0
   -0.4486    3.7020    0.6489 H   0  0  0  0  0  0  0  0  0  0  0  0
  5  6  2  0  0  0  0
  5  7  1  0  0  0  0
  2  3  1  0  0  0  0
  2  4  1  0  0  0  0
  2  5  1  0  0  0  0
  1  2  1  0  0  0  0
 26 27  2  0  0  0  0
 26 28  1  0  0  0  0
 24 25  1  0  0  0  0
 22 23  1  0  0  0  0
 22 24  2  0  0  0  0
 20 21  1  0  0  0  0
 19 20  1  0  0  0  0
 19 22  1  0  0  0  0
 17 18  1  0  0  0  0
 17 19  2  0  0  0  0
 15 16  1  0  0  0  0
 15 17  1  0  0  0  0
 14 15  2  0  0  0  0
 14 24  1  0  0  0  0
 11 12  1  0  0  0  0
 11 13  1  0  0  0  0
 11 14  1  0  0  0  0
  9 10  1  0  0  0  0
  9 11  1  0  0  0  0
  9 26  1  0  0  0  0
  7  8  1  0  0  0  0
  7  9  1  0  0  0  0
 30 31  1  0  0  0  0
 30 32  1  0  0  0  0
 30 33  1  0  0  0  0
 28 29  1  0  0  0  0
 28 30  1  0  0  0  0
M  END
$$$$
default_name
  -OEChem-02102213163D

 33 33  0     1  0  0  0  0  0999 V2000
   -4.0702   -3.8485    1.4554 H   0  0  0  0  0  0  0  0  0  0  0  0
   -4.0012   -2.9605    0.8284 C   0  0  0  0  0  0  0  0  0  0  0  0
   -4.7652   -2.2435    1.1234 H   0  0  0  0  0  0  0  0  0  0  0  0
   -4.1352   -3.2385   -0.2156 H   0  0  0  0  0  0  0  0  0  0  0  0
   -2.6362   -2.3395    1.0094 C   0  0  0  0  0  0  0  0  0  0  0  0
   -1.8292   -2.8395    1.7814 O   0  0  0  0  0  0  0  0  0  0  0  0
   -2.3832   -1.2445    0.2964 N   0  0  0  0  0  0  0  0  0  0  0  0
   -3.1102   -0.8685   -0.2946 H   0  0  0  0  0  0  0  0  0  0  0  0
   -1.1292   -0.4875    0.3524 C   0  0  1  0  0  0  0  0  0  0  0  0
   -0.5898   -0.7762    1.2552 H   0  0  0  0  0  0  0  0  0  0  0  0
   -0.2608   -0.8470   -0.8656 C   0  0  0  0  0  0  0  0  0  0  0  0
    0.1578    0.0687   -1.2851 H   0  0  0  0  0  0  0  0  0  0  0  0
    0.5744   -1.4660   -0.5337 H   0  0  0  0  0  0  0  0  0  0  0  0
   -1.0136   -1.5681   -1.9669 C   0  0  0  0  0  0  0  0  0  0  0  0
   -2.2805   -2.1307   -1.7122 C   0  0  0  0  0  0  0  0  0  0  0  0
   -2.7092   -2.0723   -0.7203 H   0  0  0  0  0  0  0  0  0  0  0  0
   -2.9934   -2.7640   -2.7488 C   0  0  0  0  0  0  0  0  0  0  0  0
   -3.9625   -3.1951   -2.5497 H   0  0  0  0  0  0  0  0  0  0  0  0
   -2.4387   -2.8314   -4.0454 C   0  0  0  0  0  0  0  0  0  0  0  0
   -3.1196   -3.4374   -5.0525 O   0  0  0  0  0  0  0  0  0  0  0  0
   -3.9213   -3.8608   -4.7428 H   0  0  0  0  0  0  0  0  0  0  0  0
   -1.1731   -2.2636   -4.2997 C   0  0  0  0  0  0  0  0  0  0  0  0
   -0.7576   -2.3254   -5.2942 H   0  0  0  0  0  0  0  0  0  0  0  0
   -0.4609   -1.6353   -3.2604 C   0  0  0  0  0  0  0  0  0  0  0  0
    0.5155   -1.2074   -3.4544 H   0  0  0  0  0  0  0  0  0  0  0  0
   -1.4018    1.0238    0.4329 C   0  0  0  0  0  0  0  0  0  0  0  0
   -2.2416    1.5423   -0.3033 O   0  0  0  0  0  0  0  0  0  0  0  0
   -0.6927    1.7304    1.3223 N   0  0  0  0  0  0  0  0  0  0  0  0
    0.0178    1.2410    1.8469 H   0  0  0  0  0  0  0  0  0  0  0  0
   -0.8259    3.1712    1.5254 C   0  0  0  0  0  0  0  0  0  0  0  0
   -1.8769    3.4302    1.6645 H   0  0  0  0  0  0  0  0  0  0  0  0
   -0.2598    3.4806    2.4054 H   0  0  0  0  0  0  0  0  0  0  0  0
   -0.4486    3.7020    0.6489 H   0  0  0  0  0  0  0  0  0  0  0  0
  5  6  2  0  0  0  0
  5  7  1  0  0  0  0
  2  3  1  0  0  0  0
  2  4  1  0  0  0  0
  2  5  1  0  0  0  0
  1  2  1  0  0  0  0
 26 27  2  0  0  0  0
 26 28  1  0  0  0  0
 24 25  1  0  0  0  0
 22 23  1  0  0  0  0
 22 24  2  0  0  0  0
 20 21  1  0  0  0  0
 19 20  1  0  0  0  0
 19 22  1  0  0  0  0
 17 18  1  0  0  0  0
 17 19  2  0  0  0  0
 15 16  1  0  0  0  0
 15 17  1  0  0  0  0
 14 15  2  0  0  0  0
 14 24  1  0  0  0  0
 11 12  1  0  0  0  0
 11 13  1  0  0  0  0
 11 14  1  0  0  0  0
  9 10  1  0  0  0  0
  9 11  1  0  0  0  0
  9 26  1  0  0  0  0
  7  8  1  0  0  0  0
  7  9  1  0  0  0  0
 30 31  1  0  0  0  0
 30 32  1  0  0  0  0
 30 33  1  0  0  0  0
 28 29  1  0  0  0  0
 28 30  1  0  0  0  0
M  END
$$$$
default_name
  -OEChem-02102213163D

 33 33  0     1  0  0  0  0  0999 V2000
   -4.0702   -3.8485    1.4554 H   0  0  0  0  0  0  0  0  0  0  0  0
   -4.0012   -2.9605    0.8284 C   0  0  0  0  0  0  0  0  0  0  0  0
   -4.7652   -2.2435    1.1234 H   0  0  0  0  0  0  0  0  0  0  0  0
   -4.1352   -3.2385   -0.2156 H   0  0  0  0  0  0  0  0  0  0  0  0
   -2.6362   -2.3395    1.0094 C   0  0  0  0  0  0  0  0  0  0  0  0
   -1.8292   -2.8395    1.7814 O   0  0  0  0  0  0  0  0  0  0  0  0
   -2.3832   -1.2445    0.2964 N   0  0  0  0  0  0  0  0  0  0  0  0
   -3.1102   -0.8685   -0.2946 H   0  0  0  0  0  0  0  0  0  0  0  0
   -1.1292   -0.4875    0.3524 C   0  0  1  0  0  0  0  0  0  0  0  0
   -0.5898   -0.7762    1.2552 H   0  0  0  0  0  0  0  0  0  0  0  0
   -0.2608   -0.8470   -0.8656 C   0  0  0  0  0  0  0  0  0  0  0  0
    0.1578    0.0687   -1.2851 H   0  0  0  0  0  0  0  0  0  0  0  0
    0.5744   -1.4660   -0.5337 H   0  0  0  0  0  0  0  0  0  0  0  0
   -1.0136   -1.5681   -1.9669 C   0  0  0  0  0  0  0  0  0  0  0  0
   -2.3864   -1.8522   -1.8221 C   0  0  0  0  0  0  0  0  0  0  0  0
   -2.9026   -1.5791   -0.9110 H   0  0  0  0  0  0  0  0  0  0  0  0
   -3.0904   -2.4859   -2.8646 C   0  0  0  0  0  0  0  0  0  0  0  0
   -4.1412   -2.7034   -2.7496 H   0  0  0  0  0  0  0  0  0  0  0  0
   -2.4195   -2.8332   -4.0574 C   0  0  0  0  0  0  0  0  0  0  0  0
   -3.0901   -3.4420   -5.0697 O   0  0  0  0  0  0  0  0  0  0  0  0
   -3.9885   -3.6665   -4.8241 H   0  0  0  0  0  0  0  0  0  0  0  0
   -1.0468   -2.5437   -4.2025 C   0  0  0  0  0  0  0  0  0  0  0  0
   -0.5440   -2.8181   -5.1176 H   0  0  0  0  0  0  0  0  0  0  0  0
   -0.3450   -1.9144   -3.1569 C   0  0  0  0  0  0  0  0  0  0  0  0
    0.7117   -1.7006   -3.2655 H   0  0  0  0  0  0  0  0  0  0  0  0
   -1.4018    1.0238    0.4329 C   0  0  0  0  0  0  0  0  0  0  0  0
   -2.2416    1.5423   -0.3033 O   0  0  0  0  0  0  0  0  0  0  0  0
   -0.6927    1.7304    1.3223 N   0  0  0  0  0  0  0  0  0  0  0  0
    0.0178    1.2410    1.8469 H   0  0  0  0  0  0  0  0  0  0  0  0
   -0.8259    3.1712    1.5254 C   0  0  0  0  0  0  0  0  0  0  0  0
   -1.8769    3.4302    1.6645 H   0  0  0  0  0  0  0  0  0  0  0  0
   -0.2598    3.4806    2.4054 H   0  0  0  0  0  0  0  0  0  0  0  0
   -0.4486    3.7020    0.6489 H   0  0  0  0  0  0  0  0  0  0  0  0
  5  6  2  0  0  0  0
  5  7  1  0  0  0  0
  2  3  1  0  0  0  0
  2  4  1  0  0  0  0
  2  5  1  0  0  0  0
  1  2  1  0  0  0  0
 26 27  2  0  0  0  0
 26 28  1  0  0  0  0
 24 25  1  0  0  0  0
 22 23  1  0  0  0  0
 22 24  2  0  0  0  0
 20 21  1  0  0  0  0
 19 20  1  0  0  0  0
 19 22  1  0  0  0  0
 17 18  1  0  0  0  0
 17 19  2  0  0  0  0
 15 16  1  0  0  0  0
 15 17  1  0  0  0  0
 14 15  2  0  0  0  0
 14 24  1  0  0  0  0
 11 12  1  0  0  0  0
 11 13  1  0  0  0  0
 11 14  1  0  0  0  0
  9 10  1  0  0  0  0
  9 11  1  0  0  0  0
  9 26  1  0  0  0  0
  7  8  1  0  0  0  0
  7  9  1  0  0  0  0
 30 31  1  0  0  0  0
 30 32  1  0  0  0  0
 30 33  1  0  0  0  0
 28 29  1  0  0  0  0
 28 30  1  0  0  0  0
M  END
$$$$
default_name
  -OEChem-02102213163D

 33 33  0     1  0  0  0  0  0999 V2000
   -4.0702   -3.8485    1.4554 H   0  0  0  0  0  0  0  0  0  0  0  0
   -4.0012   -2.9605    0.8284 C   0  0  0  0  0  0  0  0  0  0  0  0
   -4.7652   -2.2435    1.1234 H   0  0  0  0  0  0  0  0  0  0  0  0
   -4.1352   -3.2385   -0.2156 H   0  0  0  0  0  0  0  0  0  0  0  0
   -2.6362   -2.3395    1.0094 C   0  0  0  0  0  0  0  0  0  0  0  0
   -1.8292   -2.8395    1.7814 O   0  0  0  0  0  0  0  0  0  0  0  0
   -2.3832   -1.2445    0.2964 N   0  0  0  0  0  0  0  0  0  0  0  0
   -3.1102   -0.8685   -0.2946 H   0  0  0  0  0  0  0  0  0  0  0  0
   -1.1292   -0.4875    0.3524 C   0  0  1  0  0  0  0  0  0  0  0  0
   -0.5898   -0.7762    1.2552 H   0  0  0  0  0  0  0  0  0  0  0  0
   -0.2608   -0.8470   -0.8656 C   0  0  0  0  0  0  0  0  0  0  0  0
    0.1578    0.0687   -1.2851 H   0  0  0  0  0  0  0  0  0  0  0  0
    0.5744   -1.4660   -0.5337 H   0  0  0  0  0  0  0  0  0  0  0  0
   -1.0136   -1.5681   -1.9669 C   0  0  0  0  0  0  0  0  0  0  0  0
   -2.4229   -1.5774   -1.9771 C   0  0  0  0  0  0  0  0  0  0  0  0
   -2.9732   -1.0908   -1.1824 H   0  0  0  0  0  0  0  0  0  0  0  0
   -3.1175   -2.2140   -3.0241 C   0  0  0  0  0  0  0  0  0  0  0  0
   -4.1967   -2.2205   -3.0278 H   0  0  0  0  0  0  0  0  0  0  0  0
   -2.3997   -2.8401   -4.0664 C   0  0  0  0  0  0  0  0  0  0  0  0
   -3.0603   -3.4541   -5.0821 O   0  0  0  0  0  0  0  0  0  0  0  0
   -4.0069   -3.4766   -4.9358 H   0  0  0  0  0  0  0  0  0  0  0  0
   -0.9895   -2.8256   -4.0572 C   0  0  0  0  0  0  0  0  0  0  0  0
   -0.4520   -3.3115   -4.8574 H   0  0  0  0  0  0  0  0  0  0  0  0
   -0.2981   -2.1924   -3.0069 C   0  0  0  0  0  0  0  0  0  0  0  0
    0.7853   -2.1897   -2.9956 H   0  0  0  0  0  0  0  0  0  0  0  0
   -1.4018    1.0238    0.4329 C   0  0  0  0  0  0  0  0  0  0  0  0
   -2.2416    1.5423   -0.3033 O   0  0  0  0  0  0  0  0  0  0  0  0
   -0.6927    1.7304    1.3223 N   0  0  0  0  0  0  0  0  0  0  0  0
    0.0178    1.2410    1.8469 H   0  0  0  0  0  0  0  0  0  0  0  0
   -0.8259    3.1712    1.5254 C   0  0  0  0  0  0  0  0  0  0  0  0
   -1.8769    3.4302    1.6645 H   0  0  0  0  0  0  0  0  0  0  0  0
   -0.2598    3.4806    2.4054 H   0  0  0  0  0  0  0  0  0  0  0  0
   -0.4486    3.7020    0.6489 H   0  0  0  0  0  0  0  0  0  0  0  0
  5  6  2  0  0  0  0
  5  7  1  0  0  0  0
  2  3  1  0  0  0  0
  2  4  1  0  0  0  0
  2  5  1  0  0  0  0
  1  2  1  0  0  0  0
 26 27  2  0  0  0  0
 26 28  1  0  0  0  0
 24 25  1  0  0  0  0
 22 23  1  0  0  0  0
 22 24  2  0  0  0  0
 20 21  1  0  0  0  0
 19 20  1  0  0  0  0
 19 22  1  0  0  0  0
 17 18  1  0  0  0  0
 17 19  2  0  0  0  0
 15 16  1  0  0  0  0
 15 17  1  0  0  0  0
 14 15  2  0  0  0  0
 14 24  1  0  0  0  0
 11 12  1  0  0  0  0
 11 13  1  0  0  0  0
 11 14  1  0  0  0  0
  9 10  1  0  0  0  0
  9 11  1  0  0  0  0
  9 26  1  0  0  0  0
  7  8  1  0  0  0  0
  7  9  1  0  0  0  0
 30 31  1  0  0  0  0
 30 32  1  0  0  0  0
 30 33  1  0  0  0  0
 28 29  1  0  0  0  0
 28 30  1  0  0  0  0
M  END
$$$$
default_name
  -OEChem-02102213163D

 33 33  0     1  0  0  0  0  0999 V2000
   -4.0702   -3.8485    1.4554 H   0  0  0  0  0  0  0  0  0  0  0  0
   -4.0012   -2.9605    0.8284 C   0  0  0  0  0  0  0  0  0  0  0  0
   -4.7652   -2.2435    1.1234 H   0  0  0  0  0  0  0  0  0  0  0  0
   -4.1352   -3.2385   -0.2156 H   0  0  0  0  0  0  0  0  0  0  0  0
   -2.6362   -2.3395    1.0094 C   0  0  0  0  0  0  0  0  0  0  0  0
   -1.8292   -2.8395    1.7814 O   0  0  0  0  0  0  0  0  0  0  0  0
   -2.3832   -1.2445    0.2964 N   0  0  0  0  0  0  0  0  0  0  0  0
   -3.1102   -0.8685   -0.2946 H   0  0  0  0  0  0  0  0  0  0  0  0
   -1.1292   -0.4875    0.3524 C   0  0  1  0  0  0  0  0  0  0  0  0
   -0.5898   -0.7762    1.2552 H   0  0  0  0  0  0  0  0  0  0  0  0
   -0.2608   -0.8470   -0.8656 C   0  0  0  0  0  0  0  0  0  0  0  0
    0.1578    0.0687   -1.2851 H   0  0  0  0  0  0  0  0  0  0  0  0
    0.5744   -1.4660   -0.5337 H   0  0  0  0  0  0  0  0  0  0  0  0
   -1.0136   -1.5681   -1.9669 C   0  0  0  0  0  0  0  0  0  0  0  0
   -2.3874   -1.3250   -2.1666 C   0  0  0  0  0  0  0  0  0  0  0  0
   -2.9162   -0.6408   -1.5160 H   0  0  0  0  0  0  0  0  0  0  0  0
   -3.0730   -1.9667   -3.2165 C   0  0  0  0  0  0  0  0  0  0  0  0
   -4.1253   -1.7794   -3.3655 H   0  0  0  0  0  0  0  0  0  0  0  0
   -2.3809   -2.8516   -4.0717 C   0  0  0  0  0  0  0  0  0  0  0  0
   -3.0323   -3.4730   -5.0889 O   0  0  0  0  0  0  0  0  0  0  0  0
   -3.9752   -3.3041   -5.0704 H   0  0  0  0  0  0  0  0  0  0  0  0
   -1.0051   -3.0899   -3.8735 C   0  0  0  0  0  0  0  0  0  0  0  0
   -0.4879   -3.7720   -4.5314 H   0  0  0  0  0  0  0  0  0  0  0  0
   -0.3237   -2.4506   -2.8204 C   0  0  0  0  0  0  0  0  0  0  0  0
    0.7312   -2.6413   -2.6630 H   0  0  0  0  0  0  0  0  0  0  0  0
   -1.4018    1.0238    0.4329 C   0  0  0  0  0  0  0  0  0  0  0  0
   -2.2416    1.5423   -0.3033 O   0  0  0  0  0  0  0  0  0  0  0  0
   -0.6927    1.7304    1.3223 N   0  0  0  0  0  0  0  0  0  0  0  0
    0.0178    1.2410    1.8469 H   0  0  0  0  0  0  0  0  0  0  0  0
   -0.8259    3.1712    1.5254 C   0  0  0  0  0  0  0  0  0  0  0  0
   -1.8769    3.4302    1.6645 H   0  0  0  0  0  0  0  0  0  0  0  0
   -0.2598    3.4806    2.4054 H   0  0  0  0  0  0  0  0  0  0  0  0
   -0.4486    3.7020    0.6489 H   0  0  0  0  0  0  0  0  0  0  0  0
  5  6  2  0  0  0  0
  5  7  1  0  0  0  0
  2  3  1  0  0  0  0
  2  4  1  0  0  0  0
  2  5  1  0  0  0  0
  1  2  1  0  0  0  0
 26 27  2  0  0  0  0
 26 28  1  0  0  0  0
 24 25  1  0  0  0  0
 22 23  1  0  0  0  0
 22 24  2  0  0  0  0
 20 21  1  0  0  0  0
 19 20  1  0  0  0  0
 19 22  1  0  0  0  0
 17 18  1  0  0  0  0
 17 19  2  0  0  0  0
 15 16  1  0  0  0  0
 15 17  1  0  0  0  0
 14 15  2  0  0  0  0
 14 24  1  0  0  0  0
 11 12  1  0  0  0  0
 11 13  1  0  0  0  0
 11 14  1  0  0  0  0
  9 10  1  0  0  0  0
  9 11  1  0  0  0  0
  9 26  1  0  0  0  0
  7  8  1  0  0  0  0
  7  9  1  0  0  0  0
 30 31  1  0  0  0  0
 30 32  1  0  0  0  0
 30 33  1  0  0  0  0
 28 29  1  0  0  0  0
 28 30  1  0  0  0  0
M  END
$$$$
default_name
  -OEChem-02102213163D

 33 33  0     1  0  0  0  0  0999 V2000
   -4.0702   -3.8485    1.4554 H   0  0  0  0  0  0  0  0  0  0  0  0
   -4.0012   -2.9605    0.8284 C   0  0  0  0  0  0  0  0  0  0  0  0
   -4.7652   -2.2435    1.1234 H   0  0  0  0  0  0  0  0  0  0  0  0
   -4.1352   -3.2385   -0.2156 H   0  0  0  0  0  0  0  0  0  0  0  0
   -2.6362   -2.3395    1.0094 C   0  0  0  0  0  0  0  0  0  0  0  0
   -1.8292   -2.8395    1.7814 O   0  0  0  0  0  0  0  0  0  0  0  0
   -2.3832   -1.2445    0.2964 N   0  0  0  0  0  0  0  0  0  0  0  0
   -3.1102   -0.8685   -0.2946 H   0  0  0  0  0  0  0  0  0  0  0  0
   -1.1292   -0.4875    0.3524 C   0  0  1  0  0  0  0  0  0  0  0  0
   -0.5898   -0.7762    1.2552 H   0  0  0  0  0  0  0  0  0  0  0  0
   -0.2608   -0.8470   -0.8656 C   0  0  0  0  0  0  0  0  0  0  0  0
    0.1578    0.0687   -1.2851 H   0  0  0  0  0  0  0  0  0  0  0  0
    0.5744   -1.4660   -0.5337 H   0  0  0  0  0  0  0  0  0  0  0  0
   -1.0136   -1.5681   -1.9669 C   0  0  0  0  0  0  0  0  0  0  0  0
   -2.2824   -1.1123   -2.3777 C   0  0  0  0  0  0  0  0  0  0  0  0
   -2.7356   -0.2597   -1.8890 H   0  0  0  0  0  0  0  0  0  0  0  0
   -2.9598   -1.7609   -3.4286 C   0  0  0  0  0  0  0  0  0  0  0  0
   -3.9318   -1.4101   -3.7395 H   0  0  0  0  0  0  0  0  0  0  0  0
   -2.3642   -2.8669   -4.0731 C   0  0  0  0  0  0  0  0  0  0  0  0
   -3.0080   -3.4974   -5.0895 O   0  0  0  0  0  0  0  0  0  0  0  0
   -3.8956   -3.1607   -5.2187 H   0  0  0  0  0  0  0  0  0  0  0  0
   -1.0924   -3.3187   -3.6640 C   0  0  0  0  0  0  0  0  0  0  0  0
   -0.6493   -4.1682   -4.1617 H   0  0  0  0  0  0  0  0  0  0  0  0
   -0.4198   -2.6711   -2.6103 C   0  0  0  0  0  0  0  0  0  0  0  0
    0.5532   -3.0245   -2.2904 H   0  0  0  0  0  0  0  0  0  0  0  0
   -1.4018    1.0238    0.4329 C   0  0  0  0  0  0  0  0  0  0  0  0
   -2.2416    1.5423   -0.3033 O   0  0  0  0  0  0  0  0  0  0  0  0
   -0.6927    1.7304    1.3223 N   0  0  0  0  0  0  0  0  0  0  0  0
    0.0178    1.2410    1.8469 H   0  0  0  0  0  0  0  0  0  0  0  0
   -0.8259    3.1712    1.5254 C   0  0  0  0  0  0  0  0  0  0  0  0
   -1.8769    3.4302    1.6645 H   0  0  0  0  0  0  0  0  0  0  0  0
   -0.2598    3.4806    2.4054 H   0  0  0  0  0  0  0  0  0  0  0  0
   -0.4486    3.7020    0.6489 H   0  0  0  0  0  0  0  0  0  0  0  0
  5  6  2  0  0  0  0
  5  7  1  0  0  0  0
  2  3  1  0  0  0  0
  2  4  1  0  0  0  0
  2  5  1  0  0  0  0
  1  2  1  0  0  0  0
 26 27  2  0  0  0  0
 26 28  1  0  0  0  0
 24 25  1  0  0  0  0
 22 23  1  0  0  0  0
 22 24  2  0  0  0  0
 20 21  1  0  0  0  0
 19 20  1  0  0  0  0
 19 22  1  0  0  0  0
 17 18  1  0  0  0  0
 17 19  2  0  0  0  0
 15 16  1  0  0  0  0
 15 17  1  0  0  0  0
 14 15  2  0  0  0  0
 14 24  1  0  0  0  0
 11 12  1  0  0  0  0
 11 13  1  0  0  0  0
 11 14  1  0  0  0  0
  9 10  1  0  0  0  0
  9 11  1  0  0  0  0
  9 26  1  0  0  0  0
  7  8  1  0  0  0  0
  7  9  1  0  0  0  0
 30 31  1  0  0  0  0
 30 32  1  0  0  0  0
 30 33  1  0  0  0  0
 28 29  1  0  0  0  0
 28 30  1  0  0  0  0
M  END
$$$$
default_name
  -OEChem-02102213163D

 33 33  0     1  0  0  0  0  0999 V2000
   -4.0702   -3.8485    1.4554 H   0  0  0  0  0  0  0  0  0  0  0  0
   -4.0012   -2.9605    0.8284 C   0  0  0  0  0  0  0  0  0  0  0  0
   -4.7652   -2.2435    1.1234 H   0  0  0  0  0  0  0  0  0  0  0  0
   -4.1352   -3.2385   -0.2156 H   0  0  0  0  0  0  0  0  0  0  0  0
   -2.6362   -2.3395    1.0094 C   0  0  0  0  0  0  0  0  0  0  0  0
   -1.8292   -2.8395    1.7814 O   0  0  0  0  0  0  0  0  0  0  0  0
   -2.3832   -1.2445    0.2964 N   0  0  0  0  0  0  0  0  0  0  0  0
   -3.1102   -0.8685   -0.2946 H   0  0  0  0  0  0  0  0  0  0  0  0
   -1.1292   -0.4875    0.3524 C   0  0  1  0  0  0  0  0  0  0  0  0
   -0.5898   -0.7762    1.2552 H   0  0  0  0  0  0  0  0  0  0  0  0
   -0.2608   -0.8470   -0.8656 C   0  0  0  0  0  0  0  0  0  0  0  0
    0.1578    0.0687   -1.2851 H   0  0  0  0  0  0  0  0  0  0  0  0
    0.5744   -1.4660   -0.5337 H   0  0  0  0  0  0  0  0  0  0  0  0
   -1.0136   -1.5681   -1.9669 C   0  0  0  0  0  0  0  0  0  0  0  0
   -2.1149   -0.9536   -2.5960 C   0  0  0  0  0  0  0  0  0  0  0  0
   -2.4435    0.0266   -2.2761 H   0  0  0  0  0  0  0  0  0  0  0  0
   -2.7857   -1.6106   -3.6460 C   0  0  0  0  0  0  0  0  0  0  0  0
   -3.6296   -1.1378   -4.1244 H   0  0  0  0  0  0  0  0  0  0  0  0
   -2.3507   -2.8851   -4.0704 C   0  0  0  0  0  0  0  0  0  0  0  0
   -2.9890   -3.5257   -5.0840 O   0  0  0  0  0  0  0  0  0  0  0  0
   -3.7735   -3.0562   -5.3706 H   0  0  0  0  0  0  0  0  0  0  0  0
   -1.2455   -3.4964   -3.4430 C   0  0  0  0  0  0  0  0  0  0  0  0
   -0.9251   -4.4730   -3.7736 H   0  0  0  0  0  0  0  0  0  0  0  0
   -0.5800   -2.8391   -2.3908 C   0  0  0  0  0  0  0  0  0  0  0  0
    0.2633   -3.3134   -1.9031 H   0  0  0  0  0  0  0  0  0  0  0  0
   -1.4018    1.0238    0.4329 C   0  0  0  0  0  0  0  0  0  0  0  0
   -2.2416    1.5423   -0.3033 O   0  0  0  0  0  0  0  0  0  0  0  0
   -0.6927    1.7304    1.3223 N   0  0  0  0  0  0  0  0  0  0  0  0
    0.0178    1.2410    1.8469 H   0  0  0  0  0  0  0  0  0  0  0  0
   -0.8259    3.1712    1.5254 C   0  0  0  0  0  0  0  0  0  0  0  0
   -1.8769    3.4302    1.6645 H   0  0  0  0  0  0  0  0  0  0  0  0
   -0.2598    3.4806    2.4054 H   0  0  0  0  0  0  0  0  0  0  0  0
   -0.4486    3.7020    0.6489 H   0  0  0  0  0  0  0  0  0  0  0  0
  5  6  2  0  0  0  0
  5  7  1  0  0  0  0
  2  3  1  0  0  0  0
  2  4  1  0  0  0  0
  2  5  1  0  0  0  0
  1  2  1  0  0  0  0
 26 27  2  0  0  0  0
 26 28  1  0  0  0  0
 24 25  1  0  0  0  0
 22 23  1  0  0  0  0
 22 24  2  0  0  0  0
 20 21  1  0  0  0  0
 19 20  1  0  0  0  0
 19 22  1  0  0  0  0
 17 18  1  0  0  0  0
 17 19  2  0  0  0  0
 15 16  1  0  0  0  0
 15 17  1  0  0  0  0
 14 15  2  0  0  0  0
 14 24  1  0  0  0  0
 11 12  1  0  0  0  0
 11 13  1  0  0  0  0
 11 14  1  0  0  0  0
  9 10  1  0  0  0  0
  9 11  1  0  0  0  0
  9 26  1  0  0  0  0
  7  8  1  0  0  0  0
  7  9  1  0  0  0  0
 30 31  1  0  0  0  0
 30 32  1  0  0  0  0
 30 33  1  0  0  0  0
 28 29  1  0  0  0  0
 28 30  1  0  0  0  0
M  END
$$$$
default_name
  -OEChem-02102213163D

 33 33  0     1  0  0  0  0  0999 V2000
   -4.0702   -3.8485    1.4554 H   0  0  0  0  0  0  0  0  0  0  0  0
   -4.0012   -2.9605    0.8284 C   0  0  0  0  0  0  0  0  0  0  0  0
   -4.7652   -2.2435    1.1234 H   0  0  0  0  0  0  0  0  0  0  0  0
   -4.1352   -3.2385   -0.2156 H   0  0  0  0  0  0  0  0  0  0  0  0
   -2.6362   -2.3395    1.0094 C   0  0  0  0  0  0  0  0  0  0  0  0
   -1.8292   -2.8395    1.7814 O   0  0  0  0  0  0  0  0  0  0  0  0
   -2.3832   -1.2445    0.2964 N   0  0  0  0  0  0  0  0  0  0  0  0
   -3.1102   -0.8685   -0.2946 H   0  0  0  0  0  0  0  0  0  0  0  0
   -1.1292   -0.4875    0.3524 C   0  0  1  0  0  0  0  0  0  0  0  0
   -0.5898   -0.7762    1.2552 H   0  0  0  0  0  0  0  0  0  0  0  0
   -0.2608   -0.8470   -0.8656 C   0  0  0  0  0  0  0  0  0  0  0  0
    0.1578    0.0687   -1.2851 H   0  0  0  0  0  0  0  0  0  0  0  0
    0.5744   -1.4660   -0.5337 H   0  0  0  0  0  0  0  0  0  0  0  0
   -1.0136   -1.5681   -1.9669 C   0  0  0  0  0  0  0  0  0  0  0  0
   -1.8965   -0.8599   -2.8067 C   0  0  0  0  0  0  0  0  0  0  0  0
   -2.0600    0.1984   -2.6508 H   0  0  0  0  0  0  0  0  0  0  0  0
   -2.5625   -1.5261   -3.8538 C   0  0  0  0  0  0  0  0  0  0  0  0
   -3.2390   -0.9810   -4.4940 H   0  0  0  0  0  0  0  0  0  0  0  0
   -2.3415   -2.9048   -4.0638 C   0  0  0  0  0  0  0  0  0  0  0  0
   -2.9766   -3.5558   -5.0727 O   0  0  0  0  0  0  0  0  0  0  0  0
   -3.6172   -2.9978   -5.5157 H   0  0  0  0  0  0  0  0  0  0  0  0
   -1.4539   -3.6108   -3.2256 C   0  0  0  0  0  0  0  0  0  0  0  0
   -1.2966   -4.6657   -3.3935 H   0  0  0  0  0  0  0  0  0  0  0  0
   -0.7933   -2.9431   -2.1769 C   0  0  0  0  0  0  0  0  0  0  0  0
   -0.1187   -3.4882   -1.5276 H   0  0  0  0  0  0  0  0  0  0  0  0
   -1.4018    1.0238    0.4329 C   0  0  0  0  0  0  0  0  0  0  0  0
   -2.2416    1.5423   -0.3033 O   0  0  0  0  0  0  0  0  0  0  0  0
   -0.6927    1.7304    1.3223 N   0  0  0  0  0  0  0  0  0  0  0  0
    0.0178    1.2410    1.8469 H   0  0  0  0  0  0  0  0  0  0  0  0
   -0.8259    3.1712    1.5254 C   0  0  0  0  0  0  0  0  0  0  0  0
   -1.8769    3.4302    1.6645 H   0  0  0  0  0  0  0  0  0  0  0  0
   -0.2598    3.4806    2.4054 H   0  0  0  0  0  0  0  0  0  0  0  0
   -0.4486    3.7020    0.6489 H   0  0  0  0  0  0  0  0  0  0  0  0
  5  6  2  0  0  0  0
  5  7  1  0  0  0  0
  2  3  1  0  0  0  0
  2  4  1  0  0  0  0
  2  5  1  0  0  0  0
  1  2  1  0  0  0  0
 26 27  2  0  0  0  0
 26 28  1  0  0  0  0
 24 25  1  0  0  0  0
 22 23  1  0  0  0  0
 22 24  2  0  0  0  0
 20 21  1  0  0  0  0
 19 20  1  0  0  0  0
 19 22  1  0  0  0  0
 17 18  1  0  0  0  0
 17 19  2  0  0  0  0
 15 16  1  0  0  0  0
 15 17  1  0  0  0  0
 14 15  2  0  0  0  0
 14 24  1  0  0  0  0
 11 12  1  0  0  0  0
 11 13  1  0  0  0  0
 11 14  1  0  0  0  0
  9 10  1  0  0  0  0
  9 11  1  0  0  0  0
  9 26  1  0  0  0  0
  7  8  1  0  0  0  0
  7  9  1  0  0  0  0
 30 31  1  0  0  0  0
 30 32  1  0  0  0  0
 30 33  1  0  0  0  0
 28 29  1  0  0  0  0
 28 30  1  0  0  0  0
M  END
$$$$
default_name
  -OEChem-02102213163D

 33 33  0     1  0  0  0  0  0999 V2000
   -4.0702   -3.8485    1.4554 H   0  0  0  0  0  0  0  0  0  0  0  0
   -4.0012   -2.9605    0.8284 C   0  0  0  0  0  0  0  0  0  0  0  0
   -4.7652   -2.2435    1.1234 H   0  0  0  0  0  0  0  0  0  0  0  0
   -4.1352   -3.2385   -0.2156 H   0  0  0  0  0  0  0  0  0  0  0  0
   -2.6362   -2.3395    1.0094 C   0  0  0  0  0  0  0  0  0  0  0  0
   -1.8292   -2.8395    1.7814 O   0  0  0  0  0  0  0  0  0  0  0  0
   -2.3832   -1.2445    0.2964 N   0  0  0  0  0  0  0  0  0  0  0  0
   -3.1102   -0.8685   -0.2946 H   0  0  0  0  0  0  0  0  0  0  0  0
   -1.1292   -0.4875    0.3524 C   0  0  1  0  0  0  0  0  0  0  0  0
   -0.5898   -0.7762    1.2552 H   0  0  0  0  0  0  0  0  0  0  0  0
   -0.2608   -0.8470   -0.8656 C   0  0  0  0  0  0  0  0  0  0  0  0
    0.1578    0.0687   -1.2851 H   0  0  0  0  0  0  0  0  0  0  0  0
    0.5744   -1.4660   -0.5337 H   0  0  0  0  0  0  0  0  0  0  0  0
   -1.0136   -1.5681   -1.9669 C   0  0  0  0  0  0  0  0  0  0  0  0
   -1.6420   -0.8375   -2.9953 C   0  0  0  0  0  0  0  0  0  0  0  0
   -1.6111    0.2442   -2.9876 H   0  0  0  0  0  0  0  0  0  0  0  0
   -2.3054   -1.5132   -4.0380 C   0  0  0  0  0  0  0  0  0  0  0  0
   -2.7868   -0.9505   -4.8230 H   0  0  0  0  0  0  0  0  0  0  0  0
   -2.3371   -2.9247   -4.0538 C   0  0  0  0  0  0  0  0  0  0  0  0
   -2.9718   -3.5858   -5.0564 O   0  0  0  0  0  0  0  0  0  0  0  0
   -3.4375   -2.9893   -5.6441 H   0  0  0  0  0  0  0  0  0  0  0  0
   -1.7036   -3.6543   -3.0265 C   0  0  0  0  0  0  0  0  0  0  0  0
   -1.7385   -4.7331   -3.0473 H   0  0  0  0  0  0  0  0  0  0  0  0
   -1.0452   -2.9759   -1.9832 C   0  0  0  0  0  0  0  0  0  0  0  0
   -0.5667   -3.5370   -1.1894 H   0  0  0  0  0  0  0  0  0  0  0  0
   -1.4018    1.0238    0.4329 C   0  0  0  0  0  0  0  0  0  0  0  0
   -2.2416    1.5423   -0.3033 O   0  0  0  0  0  0  0  0  0  0  0  0
   -0.6927    1.7304    1.3223 N   0  0  0  0  0  0  0  0  0  0  0  0
    0.0178    1.2410    1.8469 H   0  0  0  0  0  0  0  0  0  0  0  0
   -0.8259    3.1712    1.5254 C   0  0  0  0  0  0  0  0  0  0  0  0
   -1.8769    3.4302    1.6645 H   0  0  0  0  0  0  0  0  0  0  0  0
   -0.2598    3.4806    2.4054 H   0  0  0  0  0  0  0  0  0  0  0  0
   -0.4486    3.7020    0.6489 H   0  0  0  0  0  0  0  0  0  0  0  0
  5  6  2  0  0  0  0
  5  7  1  0  0  0  0
  2  3  1  0  0  0  0
  2  4  1  0  0  0  0
  2  5  1  0  0  0  0
  1  2  1  0  0  0  0
 26 27  2  0  0  0  0
 26 28  1  0  0  0  0
 24 25  1  0  0  0  0
 22 23  1  0  0  0  0
 22 24  2  0  0  0  0
 20 21  1  0  0  0  0
 19 20  1  0  0  0  0
 19 22  1  0  0  0  0
 17 18  1  0  0  0  0
 17 19  2  0  0  0  0
 15 16  1  0  0  0  0
 15 17  1  0  0  0  0
 14 15  2  0  0  0  0
 14 24  1  0  0  0  0
 11 12  1  0  0  0  0
 11 13  1  0  0  0  0
 11 14  1  0  0  0  0
  9 10  1  0  0  0  0
  9 11  1  0  0  0  0
  9 26  1  0  0  0  0
  7  8  1  0  0  0  0
  7  9  1  0  0  0  0
 30 31  1  0  0  0  0
 30 32  1  0  0  0  0
 30 33  1  0  0  0  0
 28 29  1  0  0  0  0
 28 30  1  0  0  0  0
M  END
$$$$
default_name
  -OEChem-02102213163D

 33 33  0     1  0  0  0  0  0999 V2000
   -4.0702   -3.8485    1.4554 H   0  0  0  0  0  0  0  0  0  0  0  0
   -4.0012   -2.9605    0.8284 C   0  0  0  0  0  0  0  0  0  0  0  0
   -4.7652   -2.2435    1.1234 H   0  0  0  0  0  0  0  0  0  0  0  0
   -4.1352   -3.2385   -0.2156 H   0  0  0  0  0  0  0  0  0  0  0  0
   -2.6362   -2.3395    1.0094 C   0  0  0  0  0  0  0  0  0  0  0  0
   -1.8292   -2.8395    1.7814 O   0  0  0  0  0  0  0  0  0  0  0  0
   -2.3832   -1.2445    0.2964 N   0  0  0  0  0  0  0  0  0  0  0  0
   -3.1102   -0.8685   -0.2946 H   0  0  0  0  0  0  0  0  0  0  0  0
   -1.1292   -0.4875    0.3524 C   0  0  1  0  0  0  0  0  0  0  0  0
   -0.5898   -0.7762    1.2552 H   0  0  0  0  0  0  0  0  0  0  0  0
   -0.2608   -0.8470   -0.8656 C   0  0  0  0  0  0  0  0  0  0  0  0
    0.1578    0.0687   -1.2851 H   0  0  0  0  0  0  0  0  0  0  0  0
    0.5744   -1.4660   -0.5337 H   0  0  0  0  0  0  0  0  0  0  0  0
   -1.0136   -1.5681   -1.9669 C   0  0  0  0  0  0  0  0  0  0  0  0
   -1.3687   -0.8879   -3.1491 C   0  0  0  0  0  0  0  0  0  0  0  0
   -1.1274    0.1608   -3.2635 H   0  0  0  0  0  0  0  0  0  0  0  0
   -2.0321   -1.5727   -4.1859 C   0  0  0  0  0  0  0  0  0  0  0  0
   -2.3038   -1.0483   -5.0891 H   0  0  0  0  0  0  0  0  0  0  0  0
   -2.3378   -2.9435   -4.0410 C   0  0  0  0  0  0  0  0  0  0  0  0
   -2.9747   -3.6135   -5.0362 O   0  0  0  0  0  0  0  0  0  0  0  0
   -3.2464   -3.0314   -5.7471 H   0  0  0  0  0  0  0  0  0  0  0  0
   -1.9774   -3.6237   -2.8593 C   0  0  0  0  0  0  0  0  0  0  0  0
   -2.2206   -4.6708   -2.7586 H   0  0  0  0  0  0  0  0  0  0  0  0
   -1.3185   -2.9354   -1.8229 C   0  0  0  0  0  0  0  0  0  0  0  0
   -1.0502   -3.4564   -0.9116 H   0  0  0  0  0  0  0  0  0  0  0  0
   -1.4018    1.0238    0.4329 C   0  0  0  0  0  0  0  0  0  0  0  0
   -2.2416    1.5423   -0.3033 O   0  0  0  0  0  0  0  0  0  0  0  0
   -0.6927    1.7304    1.3223 N   0  0  0  0  0  0  0  0  0  0  0  0
    0.0178    1.2410    1.8469 H   0  0  0  0  0  0  0  0  0  0  0  0
   -0.8259    3.1712    1.5254 C   0  0  0  0  0  0  0  0  0  0  0  0
   -1.8769    3.4302    1.6645 H   0  0  0  0  0  0  0  0  0  0  0  0
   -0.2598    3.4806    2.4054 H   0  0  0  0  0  0  0  0  0  0  0  0
   -0.4486    3.7020    0.6489 H   0  0  0  0  0  0  0  0  0  0  0  0
  5  6  2  0  0  0  0
  5  7  1  0  0  0  0
  2  3  1  0  0  0  0
  2  4  1  0  0  0  0
  2  5  1  0  0  0  0
  1  2  1  0  0  0  0
 26 27  2  0  0  0  0
 26 28  1  0  0  0  0
 24 25  1  0  0  0  0
 22 23  1  0  0  0  0
 22 24  2  0  0  0  0
 20 21  1  0  0  0  0
 19 20  1  0  0  0  0
 19 22  1  0  0  0  0
 17 18  1  0  0  0  0
 17 19  2  0  0  0  0
 15 16  1  0  0  0  0
 15 17  1  0  0  0  0
 14 15  2  0  0  0  0
 14 24  1  0  0  0  0
 11 12  1  0  0  0  0
 11 13  1  0  0  0  0
 11 14  1  0  0  0  0
  9 10  1  0  0  0  0
  9 11  1  0  0  0  0
  9 26  1  0  0  0  0
  7  8  1  0  0  0  0
  7  9  1  0  0  0  0
 30 31  1  0  0  0  0
 30 32  1  0  0  0  0
 30 33  1  0  0  0  0
 28 29  1  0  0  0  0
 28 30  1  0  0  0  0
M  END
$$$$
default_name
  -OEChem-02102213163D

 33 33  0     1  0  0  0  0  0999 V2000
   -4.0702   -3.8485    1.4554 H   0  0  0  0  0  0  0  0  0  0  0  0
   -4.0012   -2.9605    0.8284 C   0  0  0  0  0  0  0  0  0  0  0  0
   -4.7652   -2.2435    1.1234 H   0  0  0  0  0  0  0  0  0  0  0  0
   -4.1352   -3.2385   -0.2156 H   0  0  0  0  0  0  0  0  0  0  0  0
   -2.6362   -2.3395    1.0094 C   0  0  0  0  0  0  0  0  0  0  0  0
   -1.8292   -2.8395    1.7814 O   0  0  0  0  0  0  0  0  0  0  0  0
   -2.3832   -1.2445    0.2964 N   0  0  0  0  0  0  0  0  0  0  0  0
   -3.1102   -0.8685   -0.2946 H   0  0  0  0  0  0  0  0  0  0  0  0
   -1.1292   -0.4875    0.3524 C   0  0  1  0  0  0  0  0  0  0  0  0
   -0.5898   -0.7762    1.2552 H   0  0  0  0  0  0  0  0  0  0  0  0
   -0.2608   -0.8470   -0.8656 C   0  0  0  0  0  0  0  0  0  0  0  0
    0.1578    0.0687   -1.2851 H   0  0  0  0  0  0  0  0  0  0  0  0
    0.5744   -1.4660   -0.5337 H   0  0  0  0  0  0  0  0  0  0  0  0
   -1.0136   -1.5681   -1.9669 C   0  0  0  0  0  0  0  0  0  0  0  0
   -1.0953   -1.0078   -3.2575 C   0  0  0  0  0  0  0  0  0  0  0  0
   -0.6420   -0.0462   -3.4598 H   0  0  0  0  0  0  0  0  0  0  0  0
   -1.7610   -1.7005   -4.2875 C   0  0  0  0  0  0  0  0  0  0  0  0
   -1.8229   -1.2678   -5.2741 H   0  0  0  0  0  0  0  0  0  0  0  0
   -2.3436   -2.9599   -4.0263 C   0  0  0  0  0  0  0  0  0  0  0  0
   -2.9852   -3.6372   -5.0135 O   0  0  0  0  0  0  0  0  0  0  0  0
   -3.0571   -3.1213   -5.8176 H   0  0  0  0  0  0  0  0  0  0  0  0
   -2.2567   -3.5213   -2.7355 C   0  0  0  0  0  0  0  0  0  0  0  0
   -2.7101   -4.4828   -2.5471 H   0  0  0  0  0  0  0  0  0  0  0  0
   -1.5947   -2.8243   -1.7070 C   0  0  0  0  0  0  0  0  0  0  0  0
   -1.5363   -3.2521   -0.7132 H   0  0  0  0  0  0  0  0  0  0  0  0
   -1.4018    1.0238    0.4329 C   0  0  0  0  0  0  0  0  0  0  0  0
   -2.2416    1.5423   -0.3033 O   0  0  0  0  0  0  0  0  0  0  0  0
   -0.6927    1.7304    1.3223 N   0  0  0  0  0  0  0  0  0  0  0  0
    0.0178    1.2410    1.8469 H   0  0  0  0  0  0  0  0  0  0  0  0
   -0.8259    3.1712    1.5254 C   0  0  0  0  0  0  0  0  0  0  0  0
   -1.8769    3.4302    1.6645 H   0  0  0  0  0  0  0  0  0  0  0  0
   -0.2598    3.4806    2.4054 H   0  0  0  0  0  0  0  0  0  0  0  0
   -0.4486    3.7020    0.6489 H   0  0  0  0  0  0  0  0  0  0  0  0
  5  6  2  0  0  0  0
  5  7  1  0  0  0  0
  2  3  1  0  0  0  0
  2  4  1  0  0  0  0
  2  5  1  0  0  0  0
  1  2  1  0  0  0  0
 26 27  2  0  0  0  0
 26 28  1  0  0  0  0
 24 25  1  0  0  0  0
 22 23  1  0  0  0  0
 22 24  2  0  0  0  0
 20 21  1  0  0  0  0
 19 20  1  0  0  0  0
 19 22  1  0  0  0  0
 17 18  1  0  0  0  0
 17 19  2  0  0  0  0
 15 16  1  0  0  0  0
 15 17  1  0  0  0  0
 14 15  2  0  0  0  0
 14 24  1  0  0  0  0
 11 12  1  0  0  0  0
 11 13  1  0  0  0  0
 11 14  1  0  0  0  0
  9 10  1  0  0  0  0
  9 11  1  0  0  0  0
  9 26  1  0  0  0  0
  7  8  1  0  0  0  0
  7  9  1  0  0  0  0
 30 31  1  0  0  0  0
 30 32  1  0  0  0  0
 30 33  1  0  0  0  0
 28 29  1  0  0  0  0
 28 30  1  0  0  0  0
M  END
$$$$
default_name
  -OEChem-02102213163D

 33 33  0     1  0  0  0  0  0999 V2000
   -4.0702   -3.8485    1.4554 H   0  0  0  0  0  0  0  0  0  0  0  0
   -4.0012   -2.9605    0.8284 C   0  0  0  0  0  0  0  0  0  0  0  0
   -4.7652   -2.2435    1.1234 H   0  0  0  0  0  0  0  0  0  0  0  0
   -4.1352   -3.2385   -0.2156 H   0  0  0  0  0  0  0  0  0  0  0  0
   -2.6362   -2.3395    1.0094 C   0  0  0  0  0  0  0  0  0  0  0  0
   -1.8292   -2.8395    1.7814 O   0  0  0  0  0  0  0  0  0  0  0  0
   -2.3832   -1.2445    0.2964 N   0  0  0  0  0  0  0  0  0  0  0  0
   -3.1102   -0.8685   -0.2946 H   0  0  0  0  0  0  0  0  0  0  0  0
   -1.1292   -0.4875    0.3524 C   0  0  1  0  0  0  0  0  0  0  0  0
   -0.5898   -0.7762    1.2552 H   0  0  0  0  0  0  0  0  0  0  0  0
   -0.2608   -0.8470   -0.8656 C   0  0  0  0  0  0  0  0  0  0  0  0
    0.1578    0.0687   -1.2851 H   0  0  0  0  0  0  0  0  0  0  0  0
    0.5744   -1.4660   -0.5337 H   0  0  0  0  0  0  0  0  0  0  0  0
   -1.0136   -1.5681   -1.9669 C   0  0  0  0  0  0  0  0  0  0  0  0
   -0.8404   -1.1889   -3.3132 C   0  0  0  0  0  0  0  0  0  0  0  0
   -0.1878   -0.3626   -3.5631 H   0  0  0  0  0  0  0  0  0  0  0  0
   -1.5106   -1.8880   -4.3358 C   0  0  0  0  0  0  0  0  0  0  0  0
   -1.3769   -1.5939   -5.3655 H   0  0  0  0  0  0  0  0  0  0  0  0
   -2.3541   -2.9727   -4.0107 C   0  0  0  0  0  0  0  0  0  0  0  0
   -3.0027   -3.6552   -4.9899 O   0  0  0  0  0  0  0  0  0  0  0  0
   -2.8825   -3.2527   -5.8510 H   0  0  0  0  0  0  0  0  0  0  0  0
   -2.5225   -3.3539   -2.6634 C   0  0  0  0  0  0  0  0  0  0  0  0
   -3.1735   -4.1821   -2.4272 H   0  0  0  0  0  0  0  0  0  0  0  0
   -1.8548   -2.6502   -1.6432 C   0  0  0  0  0  0  0  0  0  0  0  0
   -1.9919   -2.9378   -0.6076 H   0  0  0  0  0  0  0  0  0  0  0  0
   -1.4018    1.0238    0.4329 C   0  0  0  0  0  0  0  0  0  0  0  0
   -2.2416    1.5423   -0.3033 O   0  0  0  0  0  0  0  0  0  0  0  0
   -0.6927    1.7304    1.3223 N   0  0  0  0  0  0  0  0  0  0  0  0
    0.0178    1.2410    1.8469 H   0  0  0  0  0  0  0  0  0  0  0  0
   -0.8259    3.1712    1.5254 C   0  0  0  0  0  0  0  0  0  0  0  0
   -1.8769    3.4302    1.6645 H   0  0  0  0  0  0  0  0  0  0  0  0
   -0.2598    3.4806    2.4054 H   0  0  0  0  0  0  0  0  0  0  0  0
   -0.4486    3.7020    0.6489 H   0  0  0  0  0  0  0  0  0  0  0  0
  5  6  2  0  0  0  0
  5  7  1  0  0  0  0
  2  3  1  0  0  0  0
  2  4  1  0  0  0  0
  2  5  1  0  0  0  0
  1  2  1  0  0  0  0
 26 27  2  0  0  0  0
 26 28  1  0  0  0  0
 24 25  1  0  0  0  0
 22 23  1  0  0  0  0
 22 24  2  0  0  0  0
 20 21  1  0  0  0  0
 19 20  1  0  0  0  0
 19 22  1  0  0  0  0
 17 18  1  0  0  0  0
 17 19  2  0  0  0  0
 15 16  1  0  0  0  0
 15 17  1  0  0  0  0
 14 15  2  0  0  0  0
 14 24  1  0  0  0  0
 11 12  1  0  0  0  0
 11 13  1  0  0  0  0
 11 14  1  0  0  0  0
  9 10  1  0  0  0  0
  9 11  1  0  0  0  0
  9 26  1  0  0  0  0
  7  8  1  0  0  0  0
  7  9  1  0  0  0  0
 30 31  1  0  0  0  0
 30 32  1  0  0  0  0
 30 33  1  0  0  0  0
 28 29  1  0  0  0  0
 28 30  1  0  0  0  0
M  END
$$$$
default_name
  -OEChem-02102213163D

 33 33  0     1  0  0  0  0  0999 V2000
   -4.0702   -3.8485    1.4554 H   0  0  0  0  0  0  0  0  0  0  0  0
   -4.0012   -2.9605    0.8284 C   0  0  0  0  0  0  0  0  0  0  0  0
   -4.7652   -2.2435    1.1234 H   0  0  0  0  0  0  0  0  0  0  0  0
   -4.1352   -3.2385   -0.2156 H   0  0  0  0  0  0  0  0  0  0  0  0
   -2.6362   -2.3395    1.0094 C   0  0  0  0  0  0  0  0  0  0  0  0
   -1.8292   -2.8395    1.7814 O   0  0  0  0  0  0  0  0  0  0  0  0
   -2.3832   -1.2445    0.2964 N   0  0  0  0  0  0  0  0  0  0  0  0
   -3.1102   -0.8685   -0.2946 H   0  0  0  0  0  0  0  0  0  0  0  0
   -1.1292   -0.4875    0.3524 C   0  0  1  0  0  0  0  0  0  0  0  0
   -0.5898   -0.7762    1.2552 H   0  0  0  0  0  0  0  0  0  0  0  0
   -0.2608   -0.8470   -0.8656 C   0  0  0  0  0  0  0  0  0  0  0  0
    0.1578    0.0687   -1.2851 H   0  0  0  0  0  0  0  0  0  0  0  0
    0.5744   -1.4660   -0.5337 H   0  0  0  0  0  0  0  0  0  0  0  0
   -1.0136   -1.5681   -1.9669 C   0  0  0  0  0  0  0  0  0  0  0  0
   -0.6214   -1.4189   -3.3123 C   0  0  0  0  0  0  0  0  0  0  0  0
    0.2041   -0.7668   -3.5663 H   0  0  0  0  0  0  0  0  0  0  0  0
   -1.2981   -2.1224   -4.3276 C   0  0  0  0  0  0  0  0  0  0  0  0
   -0.9961   -2.0045   -5.3569 H   0  0  0  0  0  0  0  0  0  0  0  0
   -2.3686   -2.9811   -3.9953 C   0  0  0  0  0  0  0  0  0  0  0  0
   -3.0258   -3.6663   -4.9668 O   0  0  0  0  0  0  0  0  0  0  0  0
   -2.7344   -3.4168   -5.8448 H   0  0  0  0  0  0  0  0  0  0  0  0
   -2.7566   -3.1330   -2.6480 C   0  0  0  0  0  0  0  0  0  0  0  0
   -3.5795   -3.7891   -2.4070 H   0  0  0  0  0  0  0  0  0  0  0  0
   -2.0812   -2.4249   -1.6360 C   0  0  0  0  0  0  0  0  0  0  0  0
   -2.3858   -2.5350   -0.6020 H   0  0  0  0  0  0  0  0  0  0  0  0
   -1.4018    1.0238    0.4329 C   0  0  0  0  0  0  0  0  0  0  0  0
   -2.2416    1.5423   -0.3033 O   0  0  0  0  0  0  0  0  0  0  0  0
   -0.6927    1.7304    1.3223 N   0  0  0  0  0  0  0  0  0  0  0  0
    0.0178    1.2410    1.8469 H   0  0  0  0  0  0  0  0  0  0  0  0
   -0.8259    3.1712    1.5254 C   0  0  0  0  0  0  0  0  0  0  0  0
   -1.8769    3.4302    1.6645 H   0  0  0  0  0  0  0  0  0  0  0  0
   -0.2598    3.4806    2.4054 H   0  0  0  0  0  0  0  0  0  0  0  0
   -0.4486    3.7020    0.6489 H   0  0  0  0  0  0  0  0  0  0  0  0
  5  6  2  0  0  0  0
  5  7  1  0  0  0  0
  2  3  1  0  0  0  0
  2  4  1  0  0  0  0
  2  5  1  0  0  0  0
  1  2  1  0  0  0  0
 26 27  2  0  0  0  0
 26 28  1  0  0  0  0
 24 25  1  0  0  0  0
 22 23  1  0  0  0  0
 22 24  2  0  0  0  0
 20 21  1  0  0  0  0
 19 20  1  0  0  0  0
 19 22  1  0  0  0  0
 17 18  1  0  0  0  0
 17 19  2  0  0  0  0
 15 16  1  0  0  0  0
 15 17  1  0  0  0  0
 14 15  2  0  0  0  0
 14 24  1  0  0  0  0
 11 12  1  0  0  0  0
 11 13  1  0  0  0  0
 11 14  1  0  0  0  0
  9 10  1  0  0  0  0
  9 11  1  0  0  0  0
  9 26  1  0  0  0  0
  7  8  1  0  0  0  0
  7  9  1  0  0  0  0
 30 31  1  0  0  0  0
 30 32  1  0  0  0  0
 30 33  1  0  0  0  0
 28 29  1  0  0  0  0
 28 30  1  0  0  0  0
M  END
$$$$
default_name
  -OEChem-02102213163D

 33 33  0     1  0  0  0  0  0999 V2000
   -4.0702   -3.8485    1.4554 H   0  0  0  0  0  0  0  0  0  0  0  0
   -4.0012   -2.9605    0.8284 C   0  0  0  0  0  0  0  0  0  0  0  0
   -4.7652   -2.2435    1.1234 H   0  0  0  0  0  0  0  0  0  0  0  0
   -4.1352   -3.2385   -0.2156 H   0  0  0  0  0  0  0  0  0  0  0  0
   -2.6362   -2.3395    1.0094 C   0  0  0  0  0  0  0  0  0  0  0  0
   -1.8292   -2.8395    1.7814 O   0  0  0  0  0  0  0  0  0  0  0  0
   -2.3832   -1.2445    0.2964 N   0  0  0  0  0  0  0  0  0  0  0  0
   -3.1102   -0.8685   -0.2946 H   0  0  0  0  0  0  0  0  0  0  0  0
   -1.1292   -0.4875    0.3524 C   0  0  1  0  0  0  0  0  0  0  0  0
   -0.5898   -0.7762    1.2552 H   0  0  0  0  0  0  0  0  0  0  0  0
   -0.2608   -0.8470   -0.8656 C   0  0  0  0  0  0  0  0  0  0  0  0
    0.1578    0.0687   -1.2851 H   0  0  0  0  0  0  0  0  0  0  0  0
    0.5744   -1.4660   -0.5337 H   0  0  0  0  0  0  0  0  0  0  0  0
   -1.0136   -1.5681   -1.9669 C   0  0  0  0  0  0  0  0  0  0  0  0
   -0.4531   -1.6821   -3.2550 C   0  0  0  0  0  0  0  0  0  0  0  0
    0.5071   -1.2314   -3.4693 H   0  0  0  0  0  0  0  0  0  0  0  0
   -1.1380   -2.3877   -4.2634 C   0  0  0  0  0  0  0  0  0  0  0  0
   -0.7065   -2.4716   -5.2490 H   0  0  0  0  0  0  0  0  0  0  0  0
   -2.3861   -2.9845   -3.9812 C   0  0  0  0  0  0  0  0  0  0  0  0
   -3.0530   -3.6696   -4.9460 O   0  0  0  0  0  0  0  0  0  0  0  0
   -2.6229   -3.6023   -5.7995 H   0  0  0  0  0  0  0  0  0  0  0  0
   -2.9432   -2.8737   -2.6903 C   0  0  0  0  0  0  0  0  0  0  0  0
   -3.9002   -3.3306   -2.4880 H   0  0  0  0  0  0  0  0  0  0  0  0
   -2.2584   -2.1638   -1.6858 C   0  0  0  0  0  0  0  0  0  0  0  0
   -2.6913   -2.0712   -0.6969 H   0  0  0  0  0  0  0  0  0  0  0  0
   -1.4018    1.0238    0.4329 C   0  0  0  0  0  0  0  0  0  0  0  0
   -2.2416    1.5423   -0.3033 O   0  0  0  0  0  0  0  0  0  0  0  0
   -0.6927    1.7304    1.3223 N   0  0  0  0  0  0  0  0  0  0  0  0
    0.0178    1.2410    1.8469 H   0  0  0  0  0  0  0  0  0  0  0  0
   -0.8259    3.1712    1.5254 C   0  0  0  0  0  0  0  0  0  0  0  0
   -1.8769    3.4302    1.6645 H   0  0  0  0  0  0  0  0  0  0  0  0
   -0.2598    3.4806    2.4054 H   0  0  0  0  0  0  0  0  0  0  0  0
   -0.4486    3.7020    0.6489 H   0  0  0  0  0  0  0  0  0  0  0  0
  5  6  2  0  0  0  0
  5  7  1  0  0  0  0
  2  3  1  0  0  0  0
  2  4  1  0  0  0  0
  2  5  1  0  0  0  0
  1  2  1  0  0  0  0
 26 27  2  0  0  0  0
 26 28  1  0  0  0  0
 24 25  1  0  0  0  0
 22 23  1  0  0  0  0
 22 24  2  0  0  0  0
 20 21  1  0  0  0  0
 19 20  1  0  0  0  0
 19 22  1  0  0  0  0
 17 18  1  0  0  0  0
 17 19  2  0  0  0  0
 15 16  1  0  0  0  0
 15 17  1  0  0  0  0
 14 15  2  0  0  0  0
 14 24  1  0  0  0  0
 11 12  1  0  0  0  0
 11 13  1  0  0  0  0
 11 14  1  0  0  0  0
  9 10  1  0  0  0  0
  9 11  1  0  0  0  0
  9 26  1  0  0  0  0
  7  8  1  0  0  0  0
  7  9  1  0  0  0  0
 30 31  1  0  0  0  0
 30 32  1  0  0  0  0
 30 33  1  0  0  0  0
 28 29  1  0  0  0  0
 28 30  1  0  0  0  0
M  END
$$$$
default_name
  -OEChem-02102213163D

 33 33  0     1  0  0  0  0  0999 V2000
   -4.0702   -3.8485    1.4554 H   0  0  0  0  0  0  0  0  0  0  0  0
   -4.0012   -2.9605    0.8284 C   0  0  0  0  0  0  0  0  0  0  0  0
   -4.7652   -2.2435    1.1234 H   0  0  0  0  0  0  0  0  0  0  0  0
   -4.1352   -3.2385   -0.2156 H   0  0  0  0  0  0  0  0  0  0  0  0
   -2.6362   -2.3395    1.0094 C   0  0  0  0  0  0  0  0  0  0  0  0
   -1.8292   -2.8395    1.7814 O   0  0  0  0  0  0  0  0  0  0  0  0
   -2.3832   -1.2445    0.2964 N   0  0  0  0  0  0  0  0  0  0  0  0
   -3.1102   -0.8685   -0.2946 H   0  0  0  0  0  0  0  0  0  0  0  0
   -1.1292   -0.4875    0.3524 C   0  0  1  0  0  0  0  0  0  0  0  0
   -0.5898   -0.7762    1.2552 H   0  0  0  0  0  0  0  0  0  0  0  0
   -0.2608   -0.8470   -0.8656 C   0  0  0  0  0  0  0  0  0  0  0  0
    0.3633    0.0102   -1.1212 H   0  0  0  0  0  0  0  0  0  0  0  0
    0.4058   -1.6673   -0.5944 H   0  0  0  0  0  0  0  0  0  0  0  0
   -1.0573   -1.2333   -2.0969 C   0  0  0  0  0  0  0  0  0  0  0  0
   -0.3957   -1.5880   -3.2897 C   0  0  0  0  0  0  0  0  0  0  0  0
    0.6850   -1.5603   -3.3381 H   0  0  0  0  0  0  0  0  0  0  0  0
   -1.1389   -1.9850   -4.4184 C   0  0  0  0  0  0  0  0  0  0  0  0
   -0.6291   -2.2545   -5.3306 H   0  0  0  0  0  0  0  0  0  0  0  0
   -2.5485   -2.0310   -4.3523 C   0  0  0  0  0  0  0  0  0  0  0  0
   -3.2741   -2.4154   -5.4343 O   0  0  0  0  0  0  0  0  0  0  0  0
   -2.7262   -2.5427   -6.2099 H   0  0  0  0  0  0  0  0  0  0  0  0
   -3.2087   -1.6805   -3.1563 C   0  0  0  0  0  0  0  0  0  0  0  0
   -4.2871   -1.7154   -3.1195 H   0  0  0  0  0  0  0  0  0  0  0  0
   -2.4633   -1.2796   -2.0313 C   0  0  0  0  0  0  0  0  0  0  0  0
   -2.9716   -1.0015   -1.1157 H   0  0  0  0  0  0  0  0  0  0  0  0
   -1.4018    1.0238    0.4329 C   0  0  0  0  0  0  0  0  0  0  0  0
   -2.2416    1.5423   -0.3033 O   0  0  0  0  0  0  0  0  0  0  0  0
   -0.6927    1.7304    1.3223 N   0  0  0  0  0  0  0  0  0  0  0  0
    0.0178    1.2410    1.8469 H   0  0  0  0  0  0  0  0  0  0  0  0
   -0.8259    3.1712    1.5254 C   0  0  0  0  0  0  0  0  0  0  0  0
   -1.8769    3.4302    1.6645 H   0  0  0  0  0  0  0  0  0  0  0  0
   -0.2598    3.4806    2.4054 H   0  0  0  0  0  0  0  0  0  0  0  0
   -0.4486    3.7020    0.6489 H   0  0  0  0  0  0  0  0  0  0  0  0
  5  6  2  0  0  0  0
  5  7  1  0  0  0  0
  2  3  1  0  0  0  0
  2  4  1  0  0  0  0
  2  5  1  0  0  0  0
  1  2  1  0  0  0  0
 26 27  2  0  0  0  0
 26 28  1  0  0  0  0
 24 25  1  0  0  0  0
 22 23  1  0  0  0  0
 22 24  2  0  0  0  0
 20 21  1  0  0  0  0
 19 20  1  0  0  0  0
 19 22  1  0  0  0  0
 17 18  1  0  0  0  0
 17 19  2  0  0  0  0
 15 16  1  0  0  0  0
 15 17  1  0  0  0  0
 14 15  2  0  0  0  0
 14 24  1  0  0  0  0
 11 12  1  0  0  0  0
 11 13  1  0  0  0  0
 11 14  1  0  0  0  0
  9 10  1  0  0  0  0
  9 11  1  0  0  0  0
  9 26  1  0  0  0  0
  7  8  1  0  0  0  0
  7  9  1  0  0  0  0
 30 31  1  0  0  0  0
 30 32  1  0  0  0  0
 30 33  1  0  0  0  0
 28 29  1  0  0  0  0
 28 30  1  0  0  0  0
M  END
$$$$
default_name
  -OEChem-02102213163D

 33 33  0     1  0  0  0  0  0999 V2000
   -4.0702   -3.8485    1.4554 H   0  0  0  0  0  0  0  0  0  0  0  0
   -4.0012   -2.9605    0.8284 C   0  0  0  0  0  0  0  0  0  0  0  0
   -4.7652   -2.2435    1.1234 H   0  0  0  0  0  0  0  0  0  0  0  0
   -4.1352   -3.2385   -0.2156 H   0  0  0  0  0  0  0  0  0  0  0  0
   -2.6362   -2.3395    1.0094 C   0  0  0  0  0  0  0  0  0  0  0  0
   -1.8292   -2.8395    1.7814 O   0  0  0  0  0  0  0  0  0  0  0  0
   -2.3832   -1.2445    0.2964 N   0  0  0  0  0  0  0  0  0  0  0  0
   -3.1102   -0.8685   -0.2946 H   0  0  0  0  0  0  0  0  0  0  0  0
   -1.1292   -0.4875    0.3524 C   0  0  1  0  0  0  0  0  0  0  0  0
   -0.5898   -0.7762    1.2552 H   0  0  0  0  0  0  0  0  0  0  0  0
   -0.2608   -0.8470   -0.8656 C   0  0  0  0  0  0  0  0  0  0  0  0
    0.3633    0.0102   -1.1212 H   0  0  0  0  0  0  0  0  0  0  0  0
    0.4058   -1.6673   -0.5944 H   0  0  0  0  0  0  0  0  0  0  0  0
   -1.0573   -1.2333   -2.0969 C   0  0  0  0  0  0  0  0  0  0  0  0
   -0.4269   -1.8832   -3.1769 C   0  0  0  0  0  0  0  0  0  0  0  0
    0.6356   -2.0856   -3.1413 H   0  0  0  0  0  0  0  0  0  0  0  0
   -1.1790   -2.2762   -4.3011 C   0  0  0  0  0  0  0  0  0  0  0  0
   -0.6927   -2.7723   -5.1269 H   0  0  0  0  0  0  0  0  0  0  0  0
   -2.5671   -2.0215   -4.3432 C   0  0  0  0  0  0  0  0  0  0  0  0
   -3.3017   -2.3992   -5.4216 O   0  0  0  0  0  0  0  0  0  0  0  0
   -2.7547   -2.7459   -6.1276 H   0  0  0  0  0  0  0  0  0  0  0  0
   -3.1972   -1.3754   -3.2595 C   0  0  0  0  0  0  0  0  0  0  0  0
   -4.2584   -1.1822   -3.3054 H   0  0  0  0  0  0  0  0  0  0  0  0
   -2.4419   -0.9797   -2.1392 C   0  0  0  0  0  0  0  0  0  0  0  0
   -2.9250   -0.4751   -1.3110 H   0  0  0  0  0  0  0  0  0  0  0  0
   -1.4018    1.0238    0.4329 C   0  0  0  0  0  0  0  0  0  0  0  0
   -2.2416    1.5423   -0.3033 O   0  0  0  0  0  0  0  0  0  0  0  0
   -0.6927    1.7304    1.3223 N   0  0  0  0  0  0  0  0  0  0  0  0
    0.0178    1.2410    1.8469 H   0  0  0  0  0  0  0  0  0  0  0  0
   -0.8259    3.1712    1.5254 C   0  0  0  0  0  0  0  0  0  0  0  0
   -1.8769    3.4302    1.6645 H   0  0  0  0  0  0  0  0  0  0  0  0
   -0.2598    3.4806    2.4054 H   0  0  0  0  0  0  0  0  0  0  0  0
   -0.4486    3.7020    0.6489 H   0  0  0  0  0  0  0  0  0  0  0  0
  5  6  2  0  0  0  0
  5  7  1  0  0  0  0
  2  3  1  0  0  0  0
  2  4  1  0  0  0  0
  2  5  1  0  0  0  0
  1  2  1  0  0  0  0
 26 27  2  0  0  0  0
 26 28  1  0  0  0  0
 24 25  1  0  0  0  0
 22 23  1  0  0  0  0
 22 24  2  0  0  0  0
 20 21  1  0  0  0  0
 19 20  1  0  0  0  0
 19 22  1  0  0  0  0
 17 18  1  0  0  0  0
 17 19  2  0  0  0  0
 15 16  1  0  0  0  0
 15 17  1  0  0  0  0
 14 15  2  0  0  0  0
 14 24  1  0  0  0  0
 11 12  1  0  0  0  0
 11 13  1  0  0  0  0
 11 14  1  0  0  0  0
  9 10  1  0  0  0  0
  9 11  1  0  0  0  0
  9 26  1  0  0  0  0
  7  8  1  0  0  0  0
  7  9  1  0  0  0  0
 30 31  1  0  0  0  0
 30 32  1  0  0  0  0
 30 33  1  0  0  0  0
 28 29  1  0  0  0  0
 28 30  1  0  0  0  0
M  END
$$$$
default_name
  -OEChem-02102213163D

 33 33  0     1  0  0  0  0  0999 V2000
   -4.0702   -3.8485    1.4554 H   0  0  0  0  0  0  0  0  0  0  0  0
   -4.0012   -2.9605    0.8284 C   0  0  0  0  0  0  0  0  0  0  0  0
   -4.7652   -2.2435    1.1234 H   0  0  0  0  0  0  0  0  0  0  0  0
   -4.1352   -3.2385   -0.2156 H   0  0  0  0  0  0  0  0  0  0  0  0
   -2.6362   -2.3395    1.0094 C   0  0  0  0  0  0  0  0  0  0  0  0
   -1.8292   -2.8395    1.7814 O   0  0  0  0  0  0  0  0  0  0  0  0
   -2.3832   -1.2445    0.2964 N   0  0  0  0  0  0  0  0  0  0  0  0
   -3.1102   -0.8685   -0.2946 H   0  0  0  0  0  0  0  0  0  0  0  0
   -1.1292   -0.4875    0.3524 C   0  0  1  0  0  0  0  0  0  0  0  0
   -0.5898   -0.7762    1.2552 H   0  0  0  0  0  0  0  0  0  0  0  0
   -0.2608   -0.8470   -0.8656 C   0  0  0  0  0  0  0  0  0  0  0  0
    0.3633    0.0102   -1.1212 H   0  0  0  0  0  0  0  0  0  0  0  0
    0.4058   -1.6673   -0.5944 H   0  0  0  0  0  0  0  0  0  0  0  0
   -1.0573   -1.2333   -2.0969 C   0  0  0  0  0  0  0  0  0  0  0  0
   -0.5265   -2.1465   -3.0299 C   0  0  0  0  0  0  0  0  0  0  0  0
    0.4645   -2.5558   -2.8832 H   0  0  0  0  0  0  0  0  0  0  0  0
   -1.2866   -2.5331   -4.1509 C   0  0  0  0  0  0  0  0  0  0  0  0
   -0.8764   -3.2315   -4.8641 H   0  0  0  0  0  0  0  0  0  0  0  0
   -2.5836   -2.0071   -4.3370 C   0  0  0  0  0  0  0  0  0  0  0  0
   -3.3258   -2.3759   -5.4133 O   0  0  0  0  0  0  0  0  0  0  0  0
   -2.8305   -2.9250   -6.0224 H   0  0  0  0  0  0  0  0  0  0  0  0
   -3.1151   -1.0972   -3.3998 C   0  0  0  0  0  0  0  0  0  0  0  0
   -4.1063   -0.6985   -3.5555 H   0  0  0  0  0  0  0  0  0  0  0  0
   -2.3511   -0.7092   -2.2828 C   0  0  0  0  0  0  0  0  0  0  0  0
   -2.7565   -0.0029   -1.5681 H   0  0  0  0  0  0  0  0  0  0  0  0
   -1.4018    1.0238    0.4329 C   0  0  0  0  0  0  0  0  0  0  0  0
   -2.2416    1.5423   -0.3033 O   0  0  0  0  0  0  0  0  0  0  0  0
   -0.6927    1.7304    1.3223 N   0  0  0  0  0  0  0  0  0  0  0  0
    0.0178    1.2410    1.8469 H   0  0  0  0  0  0  0  0  0  0  0  0
   -0.8259    3.1712    1.5254 C   0  0  0  0  0  0  0  0  0  0  0  0
   -1.8769    3.4302    1.6645 H   0  0  0  0  0  0  0  0  0  0  0  0
   -0.2598    3.4806    2.4054 H   0  0  0  0  0  0  0  0  0  0  0  0
   -0.4486    3.7020    0.6489 H   0  0  0  0  0  0  0  0  0  0  0  0
  5  6  2  0  0  0  0
  5  7  1  0  0  0  0
  2  3  1  0  0  0  0
  2  4  1  0  0  0  0
  2  5  1  0  0  0  0
  1  2  1  0  0  0  0
 26 27  2  0  0  0  0
 26 28  1  0  0  0  0
 24 25  1  0  0  0  0
 22 23  1  0  0  0  0
 22 24  2  0  0  0  0
 20 21  1  0  0  0  0
 19 20  1  0  0  0  0
 19 22  1  0  0  0  0
 17 18  1  0  0  0  0
 17 19  2  0  0  0  0
 15 16  1  0  0  0  0
 15 17  1  0  0  0  0
 14 15  2  0  0  0  0
 14 24  1  0  0  0  0
 11 12  1  0  0  0  0
 11 13  1  0  0  0  0
 11 14  1  0  0  0  0
  9 10  1  0  0  0  0
  9 11  1  0  0  0  0
  9 26  1  0  0  0  0
  7  8  1  0  0  0  0
  7  9  1  0  0  0  0
 30 31  1  0  0  0  0
 30 32  1  0  0  0  0
 30 33  1  0  0  0  0
 28 29  1  0  0  0  0
 28 30  1  0  0  0  0
M  END
$$$$
default_name
  -OEChem-02102213163D

 33 33  0     1  0  0  0  0  0999 V2000
   -4.0702   -3.8485    1.4554 H   0  0  0  0  0  0  0  0  0  0  0  0
   -4.0012   -2.9605    0.8284 C   0  0  0  0  0  0  0  0  0  0  0  0
   -4.7652   -2.2435    1.1234 H   0  0  0  0  0  0  0  0  0  0  0  0
   -4.1352   -3.2385   -0.2156 H   0  0  0  0  0  0  0  0  0  0  0  0
   -2.6362   -2.3395    1.0094 C   0  0  0  0  0  0  0  0  0  0  0  0
   -1.8292   -2.8395    1.7814 O   0  0  0  0  0  0  0  0  0  0  0  0
   -2.3832   -1.2445    0.2964 N   0  0  0  0  0  0  0  0  0  0  0  0
   -3.1102   -0.8685   -0.2946 H   0  0  0  0  0  0  0  0  0  0  0  0
   -1.1292   -0.4875    0.3524 C   0  0  1  0  0  0  0  0  0  0  0  0
   -0.5898   -0.7762    1.2552 H   0  0  0  0  0  0  0  0  0  0  0  0
   -0.2608   -0.8470   -0.8656 C   0  0  0  0  0  0  0  0  0  0  0  0
    0.3633    0.0102   -1.1212 H   0  0  0  0  0  0  0  0  0  0  0  0
    0.4058   -1.6673   -0.5944 H   0  0  0  0  0  0  0  0  0  0  0  0
   -1.0573   -1.2333   -2.0969 C   0  0  0  0  0  0  0  0  0  0  0  0
   -0.6877   -2.3600   -2.8586 C   0  0  0  0  0  0  0  0  0  0  0  0
    0.1834   -2.9389   -2.5811 H   0  0  0  0  0  0  0  0  0  0  0  0
   -1.4545   -2.7383   -3.9779 C   0  0  0  0  0  0  0  0  0  0  0  0
   -1.1676   -3.6006   -4.5599 H   0  0  0  0  0  0  0  0  0  0  0  0
   -2.5970   -1.9890   -4.3341 C   0  0  0  0  0  0  0  0  0  0  0  0
   -3.3447   -2.3473   -5.4100 O   0  0  0  0  0  0  0  0  0  0  0  0
   -2.9482   -3.0679   -5.9015 H   0  0  0  0  0  0  0  0  0  0  0  0
   -2.9681   -0.8647   -3.5678 C   0  0  0  0  0  0  0  0  0  0  0  0
   -3.8413   -0.2973   -3.8528 H   0  0  0  0  0  0  0  0  0  0  0  0
   -2.1971   -0.4864   -2.4523 C   0  0  0  0  0  0  0  0  0  0  0  0
   -2.4776    0.3829   -1.8696 H   0  0  0  0  0  0  0  0  0  0  0  0
   -1.4018    1.0238    0.4329 C   0  0  0  0  0  0  0  0  0  0  0  0
   -2.2416    1.5423   -0.3033 O   0  0  0  0  0  0  0  0  0  0  0  0
   -0.6927    1.7304    1.3223 N   0  0  0  0  0  0  0  0  0  0  0  0
    0.0178    1.2410    1.8469 H   0  0  0  0  0  0  0  0  0  0  0  0
   -0.8259    3.1712    1.5254 C   0  0  0  0  0  0  0  0  0  0  0  0
   -1.8769    3.4302    1.6645 H   0  0  0  0  0  0  0  0  0  0  0  0
   -0.2598    3.4806    2.4054 H   0  0  0  0  0  0  0  0  0  0  0  0
   -0.4486    3.7020    0.6489 H   0  0  0  0  0  0  0  0  0  0  0  0
  5  6  2  0  0  0  0
  5  7  1  0  0  0  0
  2  3  1  0  0  0  0
  2  4  1  0  0  0  0
  2  5  1  0  0  0  0
  1  2  1  0  0  0  0
 26 27  2  0  0  0  0
 26 28  1  0  0  0  0
 24 25  1  0  0  0  0
 22 23  1  0  0  0  0
 22 24  2  0  0  0  0
 20 21  1  0  0  0  0
 19 20  1  0  0  0  0
 19 22  1  0  0  0  0
 17 18  1  0  0  0  0
 17 19  2  0  0  0  0
 15 16  1  0  0  0  0
 15 17  1  0  0  0  0
 14 15  2  0  0  0  0
 14 24  1  0  0  0  0
 11 12  1  0  0  0  0
 11 13  1  0  0  0  0
 11 14  1  0  0  0  0
  9 10  1  0  0  0  0
  9 11  1  0  0  0  0
  9 26  1  0  0  0  0
  7  8  1  0  0  0  0
  7  9  1  0  0  0  0
 30 31  1  0  0  0  0
 30 32  1  0  0  0  0
 30 33  1  0  0  0  0
 28 29  1  0  0  0  0
 28 30  1  0  0  0  0
M  END
$$$$
default_name
  -OEChem-02102213163D

 33 33  0     1  0  0  0  0  0999 V2000
   -4.0702   -3.8485    1.4554 H   0  0  0  0  0  0  0  0  0  0  0  0
   -4.0012   -2.9605    0.8284 C   0  0  0  0  0  0  0  0  0  0  0  0
   -4.7652   -2.2435    1.1234 H   0  0  0  0  0  0  0  0  0  0  0  0
   -4.1352   -3.2385   -0.2156 H   0  0  0  0  0  0  0  0  0  0  0  0
   -2.6362   -2.3395    1.0094 C   0  0  0  0  0  0  0  0  0  0  0  0
   -1.8292   -2.8395    1.7814 O   0  0  0  0  0  0  0  0  0  0  0  0
   -2.3832   -1.2445    0.2964 N   0  0  0  0  0  0  0  0  0  0  0  0
   -3.1102   -0.8685   -0.2946 H   0  0  0  0  0  0  0  0  0  0  0  0
   -1.1292   -0.4875    0.3524 C   0  0  1  0  0  0  0  0  0  0  0  0
   -0.5898   -0.7762    1.2552 H   0  0  0  0  0  0  0  0  0  0  0  0
   -0.2608   -0.8470   -0.8656 C   0  0  0  0  0  0  0  0  0  0  0  0
    0.3633    0.0102   -1.1212 H   0  0  0  0  0  0  0  0  0  0  0  0
    0.4058   -1.6673   -0.5944 H   0  0  0  0  0  0  0  0  0  0  0  0
   -1.0573   -1.2333   -2.0969 C   0  0  0  0  0  0  0  0  0  0  0  0
   -0.8996   -2.5090   -2.6748 C   0  0  0  0  0  0  0  0  0  0  0  0
   -0.1885   -3.2089   -2.2559 H   0  0  0  0  0  0  0  0  0  0  0  0
   -1.6711   -2.8776   -3.7941 C   0  0  0  0  0  0  0  0  0  0  0  0
   -1.5466   -3.8547   -4.2350 H   0  0  0  0  0  0  0  0  0  0  0  0
   -2.6063   -1.9682   -4.3346 C   0  0  0  0  0  0  0  0  0  0  0  0
   -3.3572   -2.3153   -5.4120 O   0  0  0  0  0  0  0  0  0  0  0  0
   -3.0999   -3.1646   -5.7730 H   0  0  0  0  0  0  0  0  0  0  0  0
   -2.7662   -0.6939   -3.7520 C   0  0  0  0  0  0  0  0  0  0  0  0
   -3.4814   -0.0058   -4.1771 H   0  0  0  0  0  0  0  0  0  0  0  0
   -1.9903   -0.3267   -2.6361 C   0  0  0  0  0  0  0  0  0  0  0  0
   -2.1072    0.6559   -2.1948 H   0  0  0  0  0  0  0  0  0  0  0  0
   -1.4018    1.0238    0.4329 C   0  0  0  0  0  0  0  0  0  0  0  0
   -2.2416    1.5423   -0.3033 O   0  0  0  0  0  0  0  0  0  0  0  0
   -0.6927    1.7304    1.3223 N   0  0  0  0  0  0  0  0  0  0  0  0
    0.0178    1.2410    1.8469 H   0  0  0  0  0  0  0  0  0  0  0  0
   -0.8259    3.1712    1.5254 C   0  0  0  0  0  0  0  0  0  0  0  0
   -1.8769    3.4302    1.6645 H   0  0  0  0  0  0  0  0  0  0  0  0
   -0.2598    3.4806    2.4054 H   0  0  0  0  0  0  0  0  0  0  0  0
   -0.4486    3.7020    0.6489 H   0  0  0  0  0  0  0  0  0  0  0  0
  5  6  2  0  0  0  0
  5  7  1  0  0  0  0
  2  3  1  0  0  0  0
  2  4  1  0  0  0  0
  2  5  1  0  0  0  0
  1  2  1  0  0  0  0
 26 27  2  0  0  0  0
 26 28  1  0  0  0  0
 24 25  1  0  0  0  0
 22 23  1  0  0  0  0
 22 24  2  0  0  0  0
 20 21  1  0  0  0  0
 19 20  1  0  0  0  0
 19 22  1  0  0  0  0
 17 18  1  0  0  0  0
 17 19  2  0  0  0  0
 15 16  1  0  0  0  0
 15 17  1  0  0  0  0
 14 15  2  0  0  0  0
 14 24  1  0  0  0  0
 11 12  1  0  0  0  0
 11 13  1  0  0  0  0
 11 14  1  0  0  0  0
  9 10  1  0  0  0  0
  9 11  1  0  0  0  0
  9 26  1  0  0  0  0
  7  8  1  0  0  0  0
  7  9  1  0  0  0  0
 30 31  1  0  0  0  0
 30 32  1  0  0  0  0
 30 33  1  0  0  0  0
 28 29  1  0  0  0  0
 28 30  1  0  0  0  0
M  END
$$$$
default_name
  -OEChem-02102213163D

 33 33  0     1  0  0  0  0  0999 V2000
   -4.0702   -3.8485    1.4554 H   0  0  0  0  0  0  0  0  0  0  0  0
   -4.0012   -2.9605    0.8284 C   0  0  0  0  0  0  0  0  0  0  0  0
   -4.7652   -2.2435    1.1234 H   0  0  0  0  0  0  0  0  0  0  0  0
   -4.1352   -3.2385   -0.2156 H   0  0  0  0  0  0  0  0  0  0  0  0
   -2.6362   -2.3395    1.0094 C   0  0  0  0  0  0  0  0  0  0  0  0
   -1.8292   -2.8395    1.7814 O   0  0  0  0  0  0  0  0  0  0  0  0
   -2.3832   -1.2445    0.2964 N   0  0  0  0  0  0  0  0  0  0  0  0
   -3.1102   -0.8685   -0.2946 H   0  0  0  0  0  0  0  0  0  0  0  0
   -1.1292   -0.4875    0.3524 C   0  0  1  0  0  0  0  0  0  0  0  0
   -0.5898   -0.7762    1.2552 H   0  0  0  0  0  0  0  0  0  0  0  0
   -0.2608   -0.8470   -0.8656 C   0  0  0  0  0  0  0  0  0  0  0  0
    0.3633    0.0102   -1.1212 H   0  0  0  0  0  0  0  0  0  0  0  0
    0.4058   -1.6673   -0.5944 H   0  0  0  0  0  0  0  0  0  0  0  0
   -1.0573   -1.2333   -2.0969 C   0  0  0  0  0  0  0  0  0  0  0  0
   -1.1477   -2.5834   -2.4910 C   0  0  0  0  0  0  0  0  0  0  0  0
   -0.6260   -3.3473   -1.9295 H   0  0  0  0  0  0  0  0  0  0  0  0
   -1.9218   -2.9417   -3.6118 C   0  0  0  0  0  0  0  0  0  0  0  0
   -1.9875   -3.9763   -3.9117 H   0  0  0  0  0  0  0  0  0  0  0  0
   -2.6108   -1.9463   -4.3385 C   0  0  0  0  0  0  0  0  0  0  0  0
   -3.3623   -2.2819   -5.4191 O   0  0  0  0  0  0  0  0  0  0  0  0
   -3.2752   -3.2088   -5.6458 H   0  0  0  0  0  0  0  0  0  0  0  0
   -2.5232   -0.5964   -3.9398 C   0  0  0  0  0  0  0  0  0  0  0  0
   -3.0511    0.1560   -4.5061 H   0  0  0  0  0  0  0  0  0  0  0  0
   -1.7449   -0.2409   -2.8218 C   0  0  0  0  0  0  0  0  0  0  0  0
   -1.6706    0.7975   -2.5216 H   0  0  0  0  0  0  0  0  0  0  0  0
   -1.4018    1.0238    0.4329 C   0  0  0  0  0  0  0  0  0  0  0  0
   -2.2416    1.5423   -0.3033 O   0  0  0  0  0  0  0  0  0  0  0  0
   -0.6927    1.7304    1.3223 N   0  0  0  0  0  0  0  0  0  0  0  0
    0.0178    1.2410    1.8469 H   0  0  0  0  0  0  0  0  0  0  0  0
   -0.8259    3.1712    1.5254 C   0  0  0  0  0  0  0  0  0  0  0  0
   -1.8769    3.4302    1.6645 H   0  0  0  0  0  0  0  0  0  0  0  0
   -0.2598    3.4806    2.4054 H   0  0  0  0  0  0  0  0  0  0  0  0
   -0.4486    3.7020    0.6489 H   0  0  0  0  0  0  0  0  0  0  0  0
  5  6  2  0  0  0  0
  5  7  1  0  0  0  0
  2  3  1  0  0  0  0
  2  4  1  0  0  0  0
  2  5  1  0  0  0  0
  1  2  1  0  0  0  0
 26 27  2  0  0  0  0
 26 28  1  0  0  0  0
 24 25  1  0  0  0  0
 22 23  1  0  0  0  0
 22 24  2  0  0  0  0
 20 21  1  0  0  0  0
 19 20  1  0  0  0  0
 19 22  1  0  0  0  0
 17 18  1  0  0  0  0
 17 19  2  0  0  0  0
 15 16  1  0  0  0  0
 15 17  1  0  0  0  0
 14 15  2  0  0  0  0
 14 24  1  0  0  0  0
 11 12  1  0  0  0  0
 11 13  1  0  0  0  0
 11 14  1  0  0  0  0
  9 10  1  0  0  0  0
  9 11  1  0  0  0  0
  9 26  1  0  0  0  0
  7  8  1  0  0  0  0
  7  9  1  0  0  0  0
 30 31  1  0  0  0  0
 30 32  1  0  0  0  0
 30 33  1  0  0  0  0
 28 29  1  0  0  0  0
 28 30  1  0  0  0  0
M  END
$$$$
default_name
  -OEChem-02102213163D

 33 33  0     1  0  0  0  0  0999 V2000
   -4.0702   -3.8485    1.4554 H   0  0  0  0  0  0  0  0  0  0  0  0
   -4.0012   -2.9605    0.8284 C   0  0  0  0  0  0  0  0  0  0  0  0
   -4.7652   -2.2435    1.1234 H   0  0  0  0  0  0  0  0  0  0  0  0
   -4.1352   -3.2385   -0.2156 H   0  0  0  0  0  0  0  0  0  0  0  0
   -2.6362   -2.3395    1.0094 C   0  0  0  0  0  0  0  0  0  0  0  0
   -1.8292   -2.8395    1.7814 O   0  0  0  0  0  0  0  0  0  0  0  0
   -2.3832   -1.2445    0.2964 N   0  0  0  0  0  0  0  0  0  0  0  0
   -3.1102   -0.8685   -0.2946 H   0  0  0  0  0  0  0  0  0  0  0  0
   -1.1292   -0.4875    0.3524 C   0  0  1  0  0  0  0  0  0  0  0  0
   -0.5898   -0.7762    1.2552 H   0  0  0  0  0  0  0  0  0  0  0  0
   -0.2608   -0.8470   -0.8656 C   0  0  0  0  0  0  0  0  0  0  0  0
    0.3633    0.0102   -1.1212 H   0  0  0  0  0  0  0  0  0  0  0  0
    0.4058   -1.6673   -0.5944 H   0  0  0  0  0  0  0  0  0  0  0  0
   -1.0573   -1.2333   -2.0969 C   0  0  0  0  0  0  0  0  0  0  0  0
   -1.4151   -2.5781   -2.3197 C   0  0  0  0  0  0  0  0  0  0  0  0
   -1.0991   -3.3447   -1.6243 H   0  0  0  0  0  0  0  0  0  0  0  0
   -2.1894   -2.9261   -3.4436 C   0  0  0  0  0  0  0  0  0  0  0  0
   -2.4602   -3.9571   -3.6120 H   0  0  0  0  0  0  0  0  0  0  0  0
   -2.6104   -1.9247   -4.3456 C   0  0  0  0  0  0  0  0  0  0  0  0
   -3.3599   -2.2496   -5.4309 O   0  0  0  0  0  0  0  0  0  0  0  0
   -3.4622   -3.1972   -5.5284 H   0  0  0  0  0  0  0  0  0  0  0  0
   -2.2556   -0.5788   -4.1184 C   0  0  0  0  0  0  0  0  0  0  0  0
   -2.5798    0.1772   -4.8177 H   0  0  0  0  0  0  0  0  0  0  0  0
   -1.4776   -0.2348   -2.9966 C   0  0  0  0  0  0  0  0  0  0  0  0
   -1.1976    0.7982   -2.8277 H   0  0  0  0  0  0  0  0  0  0  0  0
   -1.4018    1.0238    0.4329 C   0  0  0  0  0  0  0  0  0  0  0  0
   -2.2416    1.5423   -0.3033 O   0  0  0  0  0  0  0  0  0  0  0  0
   -0.6927    1.7304    1.3223 N   0  0  0  0  0  0  0  0  0  0  0  0
    0.0178    1.2410    1.8469 H   0  0  0  0  0  0  0  0  0  0  0  0
   -0.8259    3.1712    1.5254 C   0  0  0  0  0  0  0  0  0  0  0  0
   -1.8769    3.4302    1.6645 H   0  0  0  0  0  0  0  0  0  0  0  0
   -0.2598    3.4806    2.4054 H   0  0  0  0  0  0  0  0  0  0  0  0
   -0.4486    3.7020    0.6489 H   0  0  0  0  0  0  0  0  0  0  0  0
  5  6  2  0  0  0  0
  5  7  1  0  0  0  0
  2  3  1  0  0  0  0
  2  4  1  0  0  0  0
  2  5  1  0  0  0  0
  1  2  1  0  0  0  0
 26 27  2  0  0  0  0
 26 28  1  0  0  0  0
 24 25  1  0  0  0  0
 22 23  1  0  0  0  0
 22 24  2  0  0  0  0
 20 21  1  0  0  0  0
 19 20  1  0  0  0  0
 19 22  1  0  0  0  0
 17 18  1  0  0  0  0
 17 19  2  0  0  0  0
 15 16  1  0  0  0  0
 15 17  1  0  0  0  0
 14 15  2  0  0  0  0
 14 24  1  0  0  0  0
 11 12  1  0  0  0  0
 11 13  1  0  0  0  0
 11 14  1  0  0  0  0
  9 10  1  0  0  0  0
  9 11  1  0  0  0  0
  9 26  1  0  0  0  0
  7  8  1  0  0  0  0
  7  9  1  0  0  0  0
 30 31  1  0  0  0  0
 30 32  1  0  0  0  0
 30 33  1  0  0  0  0
 28 29  1  0  0  0  0
 28 30  1  0  0  0  0
M  END
$$$$
default_name
  -OEChem-02102213163D

 33 33  0     1  0  0  0  0  0999 V2000
   -4.0702   -3.8485    1.4554 H   0  0  0  0  0  0  0  0  0  0  0  0
   -4.0012   -2.9605    0.8284 C   0  0  0  0  0  0  0  0  0  0  0  0
   -4.7652   -2.2435    1.1234 H   0  0  0  0  0  0  0  0  0  0  0  0
   -4.1352   -3.2385   -0.2156 H   0  0  0  0  0  0  0  0  0  0  0  0
   -2.6362   -2.3395    1.0094 C   0  0  0  0  0  0  0  0  0  0  0  0
   -1.8292   -2.8395    1.7814 O   0  0  0  0  0  0  0  0  0  0  0  0
   -2.3832   -1.2445    0.2964 N   0  0  0  0  0  0  0  0  0  0  0  0
   -3.1102   -0.8685   -0.2946 H   0  0  0  0  0  0  0  0  0  0  0  0
   -1.1292   -0.4875    0.3524 C   0  0  1  0  0  0  0  0  0  0  0  0
   -0.5898   -0.7762    1.2552 H   0  0  0  0  0  0  0  0  0  0  0  0
   -0.2608   -0.8470   -0.8656 C   0  0  0  0  0  0  0  0  0  0  0  0
    0.3633    0.0102   -1.1212 H   0  0  0  0  0  0  0  0  0  0  0  0
    0.4058   -1.6673   -0.5944 H   0  0  0  0  0  0  0  0  0  0  0  0
   -1.0573   -1.2333   -2.0969 C   0  0  0  0  0  0  0  0  0  0  0  0
   -1.6835   -2.4936   -2.1726 C   0  0  0  0  0  0  0  0  0  0  0  0
   -1.5757   -3.2012   -1.3610 H   0  0  0  0  0  0  0  0  0  0  0  0
   -2.4557   -2.8320   -3.3009 C   0  0  0  0  0  0  0  0  0  0  0  0
   -2.9325   -3.7985   -3.3562 H   0  0  0  0  0  0  0  0  0  0  0  0
   -2.6049   -1.9049   -4.3554 C   0  0  0  0  0  0  0  0  0  0  0  0
   -3.3499   -2.2205   -5.4464 O   0  0  0  0  0  0  0  0  0  0  0  0
   -3.6482   -3.1309   -5.4289 H   0  0  0  0  0  0  0  0  0  0  0  0
   -1.9816   -0.6423   -4.2757 C   0  0  0  0  0  0  0  0  0  0  0  0
   -2.0995    0.0563   -5.0903 H   0  0  0  0  0  0  0  0  0  0  0  0
   -1.2066   -0.3088   -3.1487 C   0  0  0  0  0  0  0  0  0  0  0  0
   -0.7204    0.6578   -3.0924 H   0  0  0  0  0  0  0  0  0  0  0  0
   -1.4018    1.0238    0.4329 C   0  0  0  0  0  0  0  0  0  0  0  0
   -2.2416    1.5423   -0.3033 O   0  0  0  0  0  0  0  0  0  0  0  0
   -0.6927    1.7304    1.3223 N   0  0  0  0  0  0  0  0  0  0  0  0
    0.0178    1.2410    1.8469 H   0  0  0  0  0  0  0  0  0  0  0  0
   -0.8259    3.1712    1.5254 C   0  0  0  0  0  0  0  0  0  0  0  0
   -1.8769    3.4302    1.6645 H   0  0  0  0  0  0  0  0  0  0  0  0
   -0.2598    3.4806    2.4054 H   0  0  0  0  0  0  0  0  0  0  0  0
   -0.4486    3.7020    0.6489 H   0  0  0  0  0  0  0  0  0  0  0  0
  5  6  2  0  0  0  0
  5  7  1  0  0  0  0
  2  3  1  0  0  0  0
  2  4  1  0  0  0  0
  2  5  1  0  0  0  0
  1  2  1  0  0  0  0
 26 27  2  0  0  0  0
 26 28  1  0  0  0  0
 24 25  1  0  0  0  0
 22 23  1  0  0  0  0
 22 24  2  0  0  0  0
 20 21  1  0  0  0  0
 19 20  1  0  0  0  0
 19 22  1  0  0  0  0
 17 18  1  0  0  0  0
 17 19  2  0  0  0  0
 15 16  1  0  0  0  0
 15 17  1  0  0  0  0
 14 15  2  0  0  0  0
 14 24  1  0  0  0  0
 11 12  1  0  0  0  0
 11 13  1  0  0  0  0
 11 14  1  0  0  0  0
  9 10  1  0  0  0  0
  9 11  1  0  0  0  0
  9 26  1  0  0  0  0
  7  8  1  0  0  0  0
  7  9  1  0  0  0  0
 30 31  1  0  0  0  0
 30 32  1  0  0  0  0
 30 33  1  0  0  0  0
 28 29  1  0  0  0  0
 28 30  1  0  0  0  0
M  END
$$$$
default_name
  -OEChem-02102213163D

 33 33  0     1  0  0  0  0  0999 V2000
   -4.0702   -3.8485    1.4554 H   0  0  0  0  0  0  0  0  0  0  0  0
   -4.0012   -2.9605    0.8284 C   0  0  0  0  0  0  0  0  0  0  0  0
   -4.7652   -2.2435    1.1234 H   0  0  0  0  0  0  0  0  0  0  0  0
   -4.1352   -3.2385   -0.2156 H   0  0  0  0  0  0  0  0  0  0  0  0
   -2.6362   -2.3395    1.0094 C   0  0  0  0  0  0  0  0  0  0  0  0
   -1.8292   -2.8395    1.7814 O   0  0  0  0  0  0  0  0  0  0  0  0
   -2.3832   -1.2445    0.2964 N   0  0  0  0  0  0  0  0  0  0  0  0
   -3.1102   -0.8685   -0.2946 H   0  0  0  0  0  0  0  0  0  0  0  0
   -1.1292   -0.4875    0.3524 C   0  0  1  0  0  0  0  0  0  0  0  0
   -0.5898   -0.7762    1.2552 H   0  0  0  0  0  0  0  0  0  0  0  0
   -0.2608   -0.8470   -0.8656 C   0  0  0  0  0  0  0  0  0  0  0  0
    0.3633    0.0102   -1.1212 H   0  0  0  0  0  0  0  0  0  0  0  0
    0.4058   -1.6673   -0.5944 H   0  0  0  0  0  0  0  0  0  0  0  0
   -1.0573   -1.2333   -2.0969 C   0  0  0  0  0  0  0  0  0  0  0  0
   -1.9348   -2.3355   -2.0597 C   0  0  0  0  0  0  0  0  0  0  0  0
   -2.0233   -2.9267   -1.1576 H   0  0  0  0  0  0  0  0  0  0  0  0
   -2.7026   -2.6657   -3.1934 C   0  0  0  0  0  0  0  0  0  0  0  0
   -3.3723   -3.5113   -3.1618 H   0  0  0  0  0  0  0  0  0  0  0  0
   -2.5948   -1.8882   -4.3671 C   0  0  0  0  0  0  0  0  0  0  0  0
   -3.3332   -2.1967   -5.4648 O   0  0  0  0  0  0  0  0  0  0  0  0
   -3.8204   -3.0141   -5.3541 H   0  0  0  0  0  0  0  0  0  0  0  0
   -1.7199   -0.7827   -4.4010 C   0  0  0  0  0  0  0  0  0  0  0  0
   -1.6430   -0.1986   -5.3057 H   0  0  0  0  0  0  0  0  0  0  0  0
   -0.9504   -0.4580   -3.2676 C   0  0  0  0  0  0  0  0  0  0  0  0
   -0.2715    0.3860   -3.2974 H   0  0  0  0  0  0  0  0  0  0  0  0
   -1.4018    1.0238    0.4329 C   0  0  0  0  0  0  0  0  0  0  0  0
   -2.2416    1.5423   -0.3033 O   0  0  0  0  0  0  0  0  0  0  0  0
   -0.6927    1.7304    1.3223 N   0  0  0  0  0  0  0  0  0  0  0  0
    0.0178    1.2410    1.8469 H   0  0  0  0  0  0  0  0  0  0  0  0
   -0.8259    3.1712    1.5254 C   0  0  0  0  0  0  0  0  0  0  0  0
   -1.8769    3.4302    1.6645 H   0  0  0  0  0  0  0  0  0  0  0  0
   -0.2598    3.4806    2.4054 H   0  0  0  0  0  0  0  0  0  0  0  0
   -0.4486    3.7020    0.6489 H   0  0  0  0  0  0  0  0  0  0  0  0
  5  6  2  0  0  0  0
  5  7  1  0  0  0  0
  2  3  1  0  0  0  0
  2  4  1  0  0  0  0
  2  5  1  0  0  0  0
  1  2  1  0  0  0  0
 26 27  2  0  0  0  0
 26 28  1  0  0  0  0
 24 25  1  0  0  0  0
 22 23  1  0  0  0  0
 22 24  2  0  0  0  0
 20 21  1  0  0  0  0
 19 20  1  0  0  0  0
 19 22  1  0  0  0  0
 17 18  1  0  0  0  0
 17 19  2  0  0  0  0
 15 16  1  0  0  0  0
 15 17  1  0  0  0  0
 14 15  2  0  0  0  0
 14 24  1  0  0  0  0
 11 12  1  0  0  0  0
 11 13  1  0  0  0  0
 11 14  1  0  0  0  0
  9 10  1  0  0  0  0
  9 11  1  0  0  0  0
  9 26  1  0  0  0  0
  7  8  1  0  0  0  0
  7  9  1  0  0  0  0
 30 31  1  0  0  0  0
 30 32  1  0  0  0  0
 30 33  1  0  0  0  0
 28 29  1  0  0  0  0
 28 30  1  0  0  0  0
M  END
$$$$
default_name
  -OEChem-02102213163D

 33 33  0     1  0  0  0  0  0999 V2000
   -4.0702   -3.8485    1.4554 H   0  0  0  0  0  0  0  0  0  0  0  0
   -4.0012   -2.9605    0.8284 C   0  0  0  0  0  0  0  0  0  0  0  0
   -4.7652   -2.2435    1.1234 H   0  0  0  0  0  0  0  0  0  0  0  0
   -4.1352   -3.2385   -0.2156 H   0  0  0  0  0  0  0  0  0  0  0  0
   -2.6362   -2.3395    1.0094 C   0  0  0  0  0  0  0  0  0  0  0  0
   -1.8292   -2.8395    1.7814 O   0  0  0  0  0  0  0  0  0  0  0  0
   -2.3832   -1.2445    0.2964 N   0  0  0  0  0  0  0  0  0  0  0  0
   -3.1102   -0.8685   -0.2946 H   0  0  0  0  0  0  0  0  0  0  0  0
   -1.1292   -0.4875    0.3524 C   0  0  1  0  0  0  0  0  0  0  0  0
   -0.5898   -0.7762    1.2552 H   0  0  0  0  0  0  0  0  0  0  0  0
   -0.2608   -0.8470   -0.8656 C   0  0  0  0  0  0  0  0  0  0  0  0
    0.3633    0.0102   -1.1212 H   0  0  0  0  0  0  0  0  0  0  0  0
    0.4058   -1.6673   -0.5944 H   0  0  0  0  0  0  0  0  0  0  0  0
   -1.0573   -1.2333   -2.0969 C   0  0  0  0  0  0  0  0  0  0  0  0
   -2.1517   -2.1146   -1.9886 C   0  0  0  0  0  0  0  0  0  0  0  0
   -2.4113   -2.5399   -1.0280 H   0  0  0  0  0  0  0  0  0  0  0  0
   -2.9132   -2.4386   -3.1284 C   0  0  0  0  0  0  0  0  0  0  0  0
   -3.7496   -3.1150   -3.0422 H   0  0  0  0  0  0  0  0  0  0  0  0
   -2.5808   -1.8758   -4.3800 C   0  0  0  0  0  0  0  0  0  0  0  0
   -3.3107   -2.1796   -5.4846 O   0  0  0  0  0  0  0  0  0  0  0  0
   -3.9672   -2.8550   -5.3091 H   0  0  0  0  0  0  0  0  0  0  0  0
   -1.4884   -0.9902   -4.4856 C   0  0  0  0  0  0  0  0  0  0  0  0
   -1.2415   -0.5699   -5.4489 H   0  0  0  0  0  0  0  0  0  0  0  0
   -0.7264   -0.6720   -3.3454 C   0  0  0  0  0  0  0  0  0  0  0  0
    0.1185    0.0012   -3.4290 H   0  0  0  0  0  0  0  0  0  0  0  0
   -1.4018    1.0238    0.4329 C   0  0  0  0  0  0  0  0  0  0  0  0
   -2.2416    1.5423   -0.3033 O   0  0  0  0  0  0  0  0  0  0  0  0
   -0.6927    1.7304    1.3223 N   0  0  0  0  0  0  0  0  0  0  0  0
    0.0178    1.2410    1.8469 H   0  0  0  0  0  0  0  0  0  0  0  0
   -0.8259    3.1712    1.5254 C   0  0  0  0  0  0  0  0  0  0  0  0
   -1.8769    3.4302    1.6645 H   0  0  0  0  0  0  0  0  0  0  0  0
   -0.2598    3.4806    2.4054 H   0  0  0  0  0  0  0  0  0  0  0  0
   -0.4486    3.7020    0.6489 H   0  0  0  0  0  0  0  0  0  0  0  0
  5  6  2  0  0  0  0
  5  7  1  0  0  0  0
  2  3  1  0  0  0  0
  2  4  1  0  0  0  0
  2  5  1  0  0  0  0
  1  2  1  0  0  0  0
 26 27  2  0  0  0  0
 26 28  1  0  0  0  0
 24 25  1  0  0  0  0
 22 23  1  0  0  0  0
 22 24  2  0  0  0  0
 20 21  1  0  0  0  0
 19 20  1  0  0  0  0
 19 22  1  0  0  0  0
 17 18  1  0  0  0  0
 17 19  2  0  0  0  0
 15 16  1  0  0  0  0
 15 17  1  0  0  0  0
 14 15  2  0  0  0  0
 14 24  1  0  0  0  0
 11 12  1  0  0  0  0
 11 13  1  0  0  0  0
 11 14  1  0  0  0  0
  9 10  1  0  0  0  0
  9 11  1  0  0  0  0
  9 26  1  0  0  0  0
  7  8  1  0  0  0  0
  7  9  1  0  0  0  0
 30 31  1  0  0  0  0
 30 32  1  0  0  0  0
 30 33  1  0  0  0  0
 28 29  1  0  0  0  0
 28 30  1  0  0  0  0
M  END
$$$$
default_name
  -OEChem-02102213163D

 33 33  0     1  0  0  0  0  0999 V2000
   -4.0702   -3.8485    1.4554 H   0  0  0  0  0  0  0  0  0  0  0  0
   -4.0012   -2.9605    0.8284 C   0  0  0  0  0  0  0  0  0  0  0  0
   -4.7652   -2.2435    1.1234 H   0  0  0  0  0  0  0  0  0  0  0  0
   -4.1352   -3.2385   -0.2156 H   0  0  0  0  0  0  0  0  0  0  0  0
   -2.6362   -2.3395    1.0094 C   0  0  0  0  0  0  0  0  0  0  0  0
   -1.8292   -2.8395    1.7814 O   0  0  0  0  0  0  0  0  0  0  0  0
   -2.3832   -1.2445    0.2964 N   0  0  0  0  0  0  0  0  0  0  0  0
   -3.1102   -0.8685   -0.2946 H   0  0  0  0  0  0  0  0  0  0  0  0
   -1.1292   -0.4875    0.3524 C   0  0  1  0  0  0  0  0  0  0  0  0
   -0.5898   -0.7762    1.2552 H   0  0  0  0  0  0  0  0  0  0  0  0
   -0.2608   -0.8470   -0.8656 C   0  0  0  0  0  0  0  0  0  0  0  0
    0.3633    0.0102   -1.1212 H   0  0  0  0  0  0  0  0  0  0  0  0
    0.4058   -1.6673   -0.5944 H   0  0  0  0  0  0  0  0  0  0  0  0
   -1.0573   -1.2333   -2.0969 C   0  0  0  0  0  0  0  0  0  0  0  0
   -2.3195   -1.8461   -1.9644 C   0  0  0  0  0  0  0  0  0  0  0  0
   -2.7134   -2.0670   -0.9809 H   0  0  0  0  0  0  0  0  0  0  0  0
   -3.0731   -2.1661   -3.1104 C   0  0  0  0  0  0  0  0  0  0  0  0
   -4.0386   -2.6367   -3.0053 H   0  0  0  0  0  0  0  0  0  0  0  0
   -2.5639   -1.8686   -4.3933 C   0  0  0  0  0  0  0  0  0  0  0  0
   -3.2842   -2.1705   -5.5046 O   0  0  0  0  0  0  0  0  0  0  0  0
   -4.0785   -2.6644   -5.2969 H   0  0  0  0  0  0  0  0  0  0  0  0
   -1.3028   -1.2509   -4.5239 C   0  0  0  0  0  0  0  0  0  0  0  0
   -0.9222   -1.0324   -5.5103 H   0  0  0  0  0  0  0  0  0  0  0  0
   -0.5499   -0.9364   -3.3766 C   0  0  0  0  0  0  0  0  0  0  0  0
    0.4230   -0.4703   -3.4780 H   0  0  0  0  0  0  0  0  0  0  0  0
   -1.4018    1.0238    0.4329 C   0  0  0  0  0  0  0  0  0  0  0  0
   -2.2416    1.5423   -0.3033 O   0  0  0  0  0  0  0  0  0  0  0  0
   -0.6927    1.7304    1.3223 N   0  0  0  0  0  0  0  0  0  0  0  0
    0.0178    1.2410    1.8469 H   0  0  0  0  0  0  0  0  0  0  0  0
   -0.8259    3.1712    1.5254 C   0  0  0  0  0  0  0  0  0  0  0  0
   -1.8769    3.4302    1.6645 H   0  0  0  0  0  0  0  0  0  0  0  0
   -0.2598    3.4806    2.4054 H   0  0  0  0  0  0  0  0  0  0  0  0
   -0.4486    3.7020    0.6489 H   0  0  0  0  0  0  0  0  0  0  0  0
  5  6  2  0  0  0  0
  5  7  1  0  0  0  0
  2  3  1  0  0  0  0
  2  4  1  0  0  0  0
  2  5  1  0  0  0  0
  1  2  1  0  0  0  0
 26 27  2  0  0  0  0
 26 28  1  0  0  0  0
 24 25  1  0  0  0  0
 22 23  1  0  0  0  0
 22 24  2  0  0  0  0
 20 21  1  0  0  0  0
 19 20  1  0  0  0  0
 19 22  1  0  0  0  0
 17 18  1  0  0  0  0
 17 19  2  0  0  0  0
 15 16  1  0  0  0  0
 15 17  1  0  0  0  0
 14 15  2  0  0  0  0
 14 24  1  0  0  0  0
 11 12  1  0  0  0  0
 11 13  1  0  0  0  0
 11 14  1  0  0  0  0
  9 10  1  0  0  0  0
  9 11  1  0  0  0  0
  9 26  1  0  0  0  0
  7  8  1  0  0  0  0
  7  9  1  0  0  0  0
 30 31  1  0  0  0  0
 30 32  1  0  0  0  0
 30 33  1  0  0  0  0
 28 29  1  0  0  0  0
 28 30  1  0  0  0  0
M  END
$$$$
default_name
  -OEChem-02102213163D

 33 33  0     1  0  0  0  0  0999 V2000
   -4.0702   -3.8485    1.4554 H   0  0  0  0  0  0  0  0  0  0  0  0
   -4.0012   -2.9605    0.8284 C   0  0  0  0  0  0  0  0  0  0  0  0
   -4.7652   -2.2435    1.1234 H   0  0  0  0  0  0  0  0  0  0  0  0
   -4.1352   -3.2385   -0.2156 H   0  0  0  0  0  0  0  0  0  0  0  0
   -2.6362   -2.3395    1.0094 C   0  0  0  0  0  0  0  0  0  0  0  0
   -1.8292   -2.8395    1.7814 O   0  0  0  0  0  0  0  0  0  0  0  0
   -2.3832   -1.2445    0.2964 N   0  0  0  0  0  0  0  0  0  0  0  0
   -3.1102   -0.8685   -0.2946 H   0  0  0  0  0  0  0  0  0  0  0  0
   -1.1292   -0.4875    0.3524 C   0  0  1  0  0  0  0  0  0  0  0  0
   -0.5898   -0.7762    1.2552 H   0  0  0  0  0  0  0  0  0  0  0  0
   -0.2608   -0.8470   -0.8656 C   0  0  0  0  0  0  0  0  0  0  0  0
    0.3633    0.0102   -1.1212 H   0  0  0  0  0  0  0  0  0  0  0  0
    0.4058   -1.6673   -0.5944 H   0  0  0  0  0  0  0  0  0  0  0  0
   -1.0573   -1.2333   -2.0969 C   0  0  0  0  0  0  0  0  0  0  0  0
   -2.4267   -1.5481   -1.9885 C   0  0  0  0  0  0  0  0  0  0  0  0
   -2.9089   -1.5404   -1.0197 H   0  0  0  0  0  0  0  0  0  0  0  0
   -3.1716   -1.8668   -3.1406 C   0  0  0  0  0  0  0  0  0  0  0  0
   -4.2197   -2.1089   -3.0537 H   0  0  0  0  0  0  0  0  0  0  0  0
   -2.5451   -1.8669   -4.4060 C   0  0  0  0  0  0  0  0  0  0  0  0
   -3.2553   -2.1701   -5.5234 O   0  0  0  0  0  0  0  0  0  0  0  0
   -4.1468   -2.4552   -5.3184 H   0  0  0  0  0  0  0  0  0  0  0  0
   -1.1758   -1.5469   -4.5132 C   0  0  0  0  0  0  0  0  0  0  0  0
   -0.7070   -1.5546   -5.4857 H   0  0  0  0  0  0  0  0  0  0  0  0
   -0.4329   -1.2332   -3.3592 C   0  0  0  0  0  0  0  0  0  0  0  0
    0.6212   -0.9964   -3.4412 H   0  0  0  0  0  0  0  0  0  0  0  0
   -1.4018    1.0238    0.4329 C   0  0  0  0  0  0  0  0  0  0  0  0
   -2.2416    1.5423   -0.3033 O   0  0  0  0  0  0  0  0  0  0  0  0
   -0.6927    1.7304    1.3223 N   0  0  0  0  0  0  0  0  0  0  0  0
    0.0178    1.2410    1.8469 H   0  0  0  0  0  0  0  0  0  0  0  0
   -0.8259    3.1712    1.5254 C   0  0  0  0  0  0  0  0  0  0  0  0
   -1.8769    3.4302    1.6645 H   0  0  0  0  0  0  0  0  0  0  0  0
   -0.2598    3.4806    2.4054 H   0  0  0  0  0  0  0  0  0  0  0  0
   -0.4486    3.7020    0.6489 H   0  0  0  0  0  0  0  0  0  0  0  0
  5  6  2  0  0  0  0
  5  7  1  0  0  0  0
  2  3  1  0  0  0  0
  2  4  1  0  0  0  0
  2  5  1  0  0  0  0
  1  2  1  0  0  0  0
 26 27  2  0  0  0  0
 26 28  1  0  0  0  0
 24 25  1  0  0  0  0
 22 23  1  0  0  0  0
 22 24  2  0  0  0  0
 20 21  1  0  0  0  0
 19 20  1  0  0  0  0
 19 22  1  0  0  0  0
 17 18  1  0  0  0  0
 17 19  2  0  0  0  0
 15 16  1  0  0  0  0
 15 17  1  0  0  0  0
 14 15  2  0  0  0  0
 14 24  1  0  0  0  0
 11 12  1  0  0  0  0
 11 13  1  0  0  0  0
 11 14  1  0  0  0  0
  9 10  1  0  0  0  0
  9 11  1  0  0  0  0
  9 26  1  0  0  0  0
  7  8  1  0  0  0  0
  7  9  1  0  0  0  0
 30 31  1  0  0  0  0
 30 32  1  0  0  0  0
 30 33  1  0  0  0  0
 28 29  1  0  0  0  0
 28 30  1  0  0  0  0
M  END
$$$$
default_name
  -OEChem-02102213163D

 33 33  0     1  0  0  0  0  0999 V2000
   -4.0702   -3.8485    1.4554 H   0  0  0  0  0  0  0  0  0  0  0  0
   -4.0012   -2.9605    0.8284 C   0  0  0  0  0  0  0  0  0  0  0  0
   -4.7652   -2.2435    1.1234 H   0  0  0  0  0  0  0  0  0  0  0  0
   -4.1352   -3.2385   -0.2156 H   0  0  0  0  0  0  0  0  0  0  0  0
   -2.6362   -2.3395    1.0094 C   0  0  0  0  0  0  0  0  0  0  0  0
   -1.8292   -2.8395    1.7814 O   0  0  0  0  0  0  0  0  0  0  0  0
   -2.3832   -1.2445    0.2964 N   0  0  0  0  0  0  0  0  0  0  0  0
   -3.1102   -0.8685   -0.2946 H   0  0  0  0  0  0  0  0  0  0  0  0
   -1.1292   -0.4875    0.3524 C   0  0  1  0  0  0  0  0  0  0  0  0
   -0.5898   -0.7762    1.2552 H   0  0  0  0  0  0  0  0  0  0  0  0
   -0.2608   -0.8470   -0.8656 C   0  0  0  0  0  0  0  0  0  0  0  0
    0.3633    0.0102   -1.1212 H   0  0  0  0  0  0  0  0  0  0  0  0
    0.4058   -1.6673   -0.5944 H   0  0  0  0  0  0  0  0  0  0  0  0
   -1.0573   -1.2333   -2.0969 C   0  0  0  0  0  0  0  0  0  0  0  0
   -2.4661   -1.2410   -2.0593 C   0  0  0  0  0  0  0  0  0  0  0  0
   -2.9845   -0.9959   -1.1416 H   0  0  0  0  0  0  0  0  0  0  0  0
   -3.2018   -1.5612   -3.2170 C   0  0  0  0  0  0  0  0  0  0  0  0
   -4.2805   -1.5677   -3.1842 H   0  0  0  0  0  0  0  0  0  0  0  0
   -2.5257   -1.8710   -4.4172 C   0  0  0  0  0  0  0  0  0  0  0  0
   -3.2261   -2.1782   -5.5398 O   0  0  0  0  0  0  0  0  0  0  0  0
   -4.1673   -2.2417   -5.3721 H   0  0  0  0  0  0  0  0  0  0  0  0
   -1.1160   -1.8580   -4.4542 C   0  0  0  0  0  0  0  0  0  0  0  0
   -0.6105   -2.1009   -5.3767 H   0  0  0  0  0  0  0  0  0  0  0  0
   -0.3834   -1.5420   -3.2943 C   0  0  0  0  0  0  0  0  0  0  0  0
    0.6998   -1.5413   -3.3211 H   0  0  0  0  0  0  0  0  0  0  0  0
   -1.4018    1.0238    0.4329 C   0  0  0  0  0  0  0  0  0  0  0  0
   -2.2416    1.5423   -0.3033 O   0  0  0  0  0  0  0  0  0  0  0  0
   -0.6927    1.7304    1.3223 N   0  0  0  0  0  0  0  0  0  0  0  0
    0.0178    1.2410    1.8469 H   0  0  0  0  0  0  0  0  0  0  0  0
   -0.8259    3.1712    1.5254 C   0  0  0  0  0  0  0  0  0  0  0  0
   -1.8769    3.4302    1.6645 H   0  0  0  0  0  0  0  0  0  0  0  0
   -0.2598    3.4806    2.4054 H   0  0  0  0  0  0  0  0  0  0  0  0
   -0.4486    3.7020    0.6489 H   0  0  0  0  0  0  0  0  0  0  0  0
  5  6  2  0  0  0  0
  5  7  1  0  0  0  0
  2  3  1  0  0  0  0
  2  4  1  0  0  0  0
  2  5  1  0  0  0  0
  1  2  1  0  0  0  0
 26 27  2  0  0  0  0
 26 28  1  0  0  0  0
 24 25  1  0  0  0  0
 22 23  1  0  0  0  0
 22 24  2  0  0  0  0
 20 21  1  0  0  0  0
 19 20  1  0  0  0  0
 19 22  1  0  0  0  0
 17 18  1  0  0  0  0
 17 19  2  0  0  0  0
 15 16  1  0  0  0  0
 15 17  1  0  0  0  0
 14 15  2  0  0  0  0
 14 24  1  0  0  0  0
 11 12  1  0  0  0  0
 11 13  1  0  0  0  0
 11 14  1  0  0  0  0
  9 10  1  0  0  0  0
  9 11  1  0  0  0  0
  9 26  1  0  0  0  0
  7  8  1  0  0  0  0
  7  9  1  0  0  0  0
 30 31  1  0  0  0  0
 30 32  1  0  0  0  0
 30 33  1  0  0  0  0
 28 29  1  0  0  0  0
 28 30  1  0  0  0  0
M  END
$$$$
default_name
  -OEChem-02102213163D

 33 33  0     1  0  0  0  0  0999 V2000
   -4.0702   -3.8485    1.4554 H   0  0  0  0  0  0  0  0  0  0  0  0
   -4.0012   -2.9605    0.8284 C   0  0  0  0  0  0  0  0  0  0  0  0
   -4.7652   -2.2435    1.1234 H   0  0  0  0  0  0  0  0  0  0  0  0
   -4.1352   -3.2385   -0.2156 H   0  0  0  0  0  0  0  0  0  0  0  0
   -2.6362   -2.3395    1.0094 C   0  0  0  0  0  0  0  0  0  0  0  0
   -1.8292   -2.8395    1.7814 O   0  0  0  0  0  0  0  0  0  0  0  0
   -2.3832   -1.2445    0.2964 N   0  0  0  0  0  0  0  0  0  0  0  0
   -3.1102   -0.8685   -0.2946 H   0  0  0  0  0  0  0  0  0  0  0  0
   -1.1292   -0.4875    0.3524 C   0  0  1  0  0  0  0  0  0  0  0  0
   -0.5898   -0.7762    1.2552 H   0  0  0  0  0  0  0  0  0  0  0  0
   -0.2608   -0.8470   -0.8656 C   0  0  0  0  0  0  0  0  0  0  0  0
    0.3633    0.0102   -1.1212 H   0  0  0  0  0  0  0  0  0  0  0  0
    0.4058   -1.6673   -0.5944 H   0  0  0  0  0  0  0  0  0  0  0  0
   -1.0573   -1.2333   -2.0969 C   0  0  0  0  0  0  0  0  0  0  0  0
   -2.4349   -0.9458   -2.1721 C   0  0  0  0  0  0  0  0  0  0  0  0
   -2.9351   -0.4707   -1.3383 H   0  0  0  0  0  0  0  0  0  0  0  0
   -3.1617   -1.2700   -3.3343 C   0  0  0  0  0  0  0  0  0  0  0  0
   -4.2168   -1.0498   -3.3878 H   0  0  0  0  0  0  0  0  0  0  0  0
   -2.5072   -1.8806   -4.4262 C   0  0  0  0  0  0  0  0  0  0  0  0
   -3.1985   -2.1945   -5.5525 O   0  0  0  0  0  0  0  0  0  0  0  0
   -4.1387   -2.0385   -5.4543 H   0  0  0  0  0  0  0  0  0  0  0  0
   -1.1275   -2.1631   -4.3511 C   0  0  0  0  0  0  0  0  0  0  0  0
   -0.6392   -2.6341   -5.1909 H   0  0  0  0  0  0  0  0  0  0  0  0
   -0.4048   -1.8419   -3.1864 C   0  0  0  0  0  0  0  0  0  0  0  0
    0.6532   -2.0678   -3.1258 H   0  0  0  0  0  0  0  0  0  0  0  0
   -1.4018    1.0238    0.4329 C   0  0  0  0  0  0  0  0  0  0  0  0
   -2.2416    1.5423   -0.3033 O   0  0  0  0  0  0  0  0  0  0  0  0
   -0.6927    1.7304    1.3223 N   0  0  0  0  0  0  0  0  0  0  0  0
    0.0178    1.2410    1.8469 H   0  0  0  0  0  0  0  0  0  0  0  0
   -0.8259    3.1712    1.5254 C   0  0  0  0  0  0  0  0  0  0  0  0
   -1.8769    3.4302    1.6645 H   0  0  0  0  0  0  0  0  0  0  0  0
   -0.2598    3.4806    2.4054 H   0  0  0  0  0  0  0  0  0  0  0  0
   -0.4486    3.7020    0.6489 H   0  0  0  0  0  0  0  0  0  0  0  0
  5  6  2  0  0  0  0
  5  7  1  0  0  0  0
  2  3  1  0  0  0  0
  2  4  1  0  0  0  0
  2  5  1  0  0  0  0
  1  2  1  0  0  0  0
 26 27  2  0  0  0  0
 26 28  1  0  0  0  0
 24 25  1  0  0  0  0
 22 23  1  0  0  0  0
 22 24  2  0  0  0  0
 20 21  1  0  0  0  0
 19 20  1  0  0  0  0
 19 22  1  0  0  0  0
 17 18  1  0  0  0  0
 17 19  2  0  0  0  0
 15 16  1  0  0  0  0
 15 17  1  0  0  0  0
 14 15  2  0  0  0  0
 14 24  1  0  0  0  0
 11 12  1  0  0  0  0
 11 13  1  0  0  0  0
 11 14  1  0  0  0  0
  9 10  1  0  0  0  0
  9 11  1  0  0  0  0
  9 26  1  0  0  0  0
  7  8  1  0  0  0  0
  7  9  1  0  0  0  0
 30 31  1  0  0  0  0
 30 32  1  0  0  0  0
 30 33  1  0  0  0  0
 28 29  1  0  0  0  0
 28 30  1  0  0  0  0
M  END
$$$$
default_name
  -OEChem-02102213163D

 33 33  0     1  0  0  0  0  0999 V2000
   -4.0702   -3.8485    1.4554 H   0  0  0  0  0  0  0  0  0  0  0  0
   -4.0012   -2.9605    0.8284 C   0  0  0  0  0  0  0  0  0  0  0  0
   -4.7652   -2.2435    1.1234 H   0  0  0  0  0  0  0  0  0  0  0  0
   -4.1352   -3.2385   -0.2156 H   0  0  0  0  0  0  0  0  0  0  0  0
   -2.6362   -2.3395    1.0094 C   0  0  0  0  0  0  0  0  0  0  0  0
   -1.8292   -2.8395    1.7814 O   0  0  0  0  0  0  0  0  0  0  0  0
   -2.3832   -1.2445    0.2964 N   0  0  0  0  0  0  0  0  0  0  0  0
   -3.1102   -0.8685   -0.2946 H   0  0  0  0  0  0  0  0  0  0  0  0
   -1.1292   -0.4875    0.3524 C   0  0  1  0  0  0  0  0  0  0  0  0
   -0.5898   -0.7762    1.2552 H   0  0  0  0  0  0  0  0  0  0  0  0
   -0.2608   -0.8470   -0.8656 C   0  0  0  0  0  0  0  0  0  0  0  0
    0.3633    0.0102   -1.1212 H   0  0  0  0  0  0  0  0  0  0  0  0
    0.4058   -1.6673   -0.5944 H   0  0  0  0  0  0  0  0  0  0  0  0
   -1.0573   -1.2333   -2.0969 C   0  0  0  0  0  0  0  0  0  0  0  0
   -2.3354   -0.6824   -2.3192 C   0  0  0  0  0  0  0  0  0  0  0  0
   -2.7640   -0.0005   -1.5965 H   0  0  0  0  0  0  0  0  0  0  0  0
   -3.0541   -1.0131   -3.4845 C   0  0  0  0  0  0  0  0  0  0  0  0
   -4.0331   -0.5907   -3.6507 H   0  0  0  0  0  0  0  0  0  0  0  0
   -2.4906   -1.8949   -4.4324 C   0  0  0  0  0  0  0  0  0  0  0  0
   -3.1745   -2.2177   -5.5608 O   0  0  0  0  0  0  0  0  0  0  0  0
   -4.0630   -1.8593   -5.5595 H   0  0  0  0  0  0  0  0  0  0  0  0
   -1.2095   -2.4413   -4.2107 C   0  0  0  0  0  0  0  0  0  0  0  0
   -0.7913   -3.1178   -4.9408 H   0  0  0  0  0  0  0  0  0  0  0  0
   -0.4956   -2.1125   -3.0428 C   0  0  0  0  0  0  0  0  0  0  0  0
    0.4847   -2.5399   -2.8687 H   0  0  0  0  0  0  0  0  0  0  0  0
   -1.4018    1.0238    0.4329 C   0  0  0  0  0  0  0  0  0  0  0  0
   -2.2416    1.5423   -0.3033 O   0  0  0  0  0  0  0  0  0  0  0  0
   -0.6927    1.7304    1.3223 N   0  0  0  0  0  0  0  0  0  0  0  0
    0.0178    1.2410    1.8469 H   0  0  0  0  0  0  0  0  0  0  0  0
   -0.8259    3.1712    1.5254 C   0  0  0  0  0  0  0  0  0  0  0  0
   -1.8769    3.4302    1.6645 H   0  0  0  0  0  0  0  0  0  0  0  0
   -0.2598    3.4806    2.4054 H   0  0  0  0  0  0  0  0  0  0  0  0
   -0.4486    3.7020    0.6489 H   0  0  0  0  0  0  0  0  0  0  0  0
  5  6  2  0  0  0  0
  5  7  1  0  0  0  0
  2  3  1  0  0  0  0
  2  4  1  0  0  0  0
  2  5  1  0  0  0  0
  1  2  1  0  0  0  0
 26 27  2  0  0  0  0
 26 28  1  0  0  0  0
 24 25  1  0  0  0  0
 22 23  1  0  0  0  0
 22 24  2  0  0  0  0
 20 21  1  0  0  0  0
 19 20  1  0  0  0  0
 19 22  1  0  0  0  0
 17 18  1  0  0  0  0
 17 19  2  0  0  0  0
 15 16  1  0  0  0  0
 15 17  1  0  0  0  0
 14 15  2  0  0  0  0
 14 24  1  0  0  0  0
 11 12  1  0  0  0  0
 11 13  1  0  0  0  0
 11 14  1  0  0  0  0
  9 10  1  0  0  0  0
  9 11  1  0  0  0  0
  9 26  1  0  0  0  0
  7  8  1  0  0  0  0
  7  9  1  0  0  0  0
 30 31  1  0  0  0  0
 30 32  1  0  0  0  0
 30 33  1  0  0  0  0
 28 29  1  0  0  0  0
 28 30  1  0  0  0  0
M  END
$$$$
default_name
  -OEChem-02102213163D

 33 33  0     1  0  0  0  0  0999 V2000
   -4.0702   -3.8485    1.4554 H   0  0  0  0  0  0  0  0  0  0  0  0
   -4.0012   -2.9605    0.8284 C   0  0  0  0  0  0  0  0  0  0  0  0
   -4.7652   -2.2435    1.1234 H   0  0  0  0  0  0  0  0  0  0  0  0
   -4.1352   -3.2385   -0.2156 H   0  0  0  0  0  0  0  0  0  0  0  0
   -2.6362   -2.3395    1.0094 C   0  0  0  0  0  0  0  0  0  0  0  0
   -1.8292   -2.8395    1.7814 O   0  0  0  0  0  0  0  0  0  0  0  0
   -2.3832   -1.2445    0.2964 N   0  0  0  0  0  0  0  0  0  0  0  0
   -3.1102   -0.8685   -0.2946 H   0  0  0  0  0  0  0  0  0  0  0  0
   -1.1292   -0.4875    0.3524 C   0  0  1  0  0  0  0  0  0  0  0  0
   -0.5898   -0.7762    1.2552 H   0  0  0  0  0  0  0  0  0  0  0  0
   -0.2608   -0.8470   -0.8656 C   0  0  0  0  0  0  0  0  0  0  0  0
    0.3633    0.0102   -1.1212 H   0  0  0  0  0  0  0  0  0  0  0  0
    0.4058   -1.6673   -0.5944 H   0  0  0  0  0  0  0  0  0  0  0  0
   -1.0573   -1.2333   -2.0969 C   0  0  0  0  0  0  0  0  0  0  0  0
   -2.1741   -0.4690   -2.4904 C   0  0  0  0  0  0  0  0  0  0  0  0
   -2.4829    0.3827   -1.8985 H   0  0  0  0  0  0  0  0  0  0  0  0
   -2.8862   -0.8080   -3.6574 C   0  0  0  0  0  0  0  0  0  0  0  0
   -3.7419   -0.2215   -3.9549 H   0  0  0  0  0  0  0  0  0  0  0  0
   -2.4773   -1.9131   -4.4353 C   0  0  0  0  0  0  0  0  0  0  0  0
   -3.1556   -2.2463   -5.5640 O   0  0  0  0  0  0  0  0  0  0  0  0
   -3.9453   -1.7165   -5.6805 H   0  0  0  0  0  0  0  0  0  0  0  0
   -1.3565   -2.6738   -4.0427 C   0  0  0  0  0  0  0  0  0  0  0  0
   -1.0563   -3.5191   -4.6435 H   0  0  0  0  0  0  0  0  0  0  0  0
   -0.6496   -2.3352   -2.8733 C   0  0  0  0  0  0  0  0  0  0  0  0
    0.2058   -2.9257   -2.5673 H   0  0  0  0  0  0  0  0  0  0  0  0
   -1.4018    1.0238    0.4329 C   0  0  0  0  0  0  0  0  0  0  0  0
   -2.2416    1.5423   -0.3033 O   0  0  0  0  0  0  0  0  0  0  0  0
   -0.6927    1.7304    1.3223 N   0  0  0  0  0  0  0  0  0  0  0  0
    0.0178    1.2410    1.8469 H   0  0  0  0  0  0  0  0  0  0  0  0
   -0.8259    3.1712    1.5254 C   0  0  0  0  0  0  0  0  0  0  0  0
   -1.8769    3.4302    1.6645 H   0  0  0  0  0  0  0  0  0  0  0  0
   -0.2598    3.4806    2.4054 H   0  0  0  0  0  0  0  0  0  0  0  0
   -0.4486    3.7020    0.6489 H   0  0  0  0  0  0  0  0  0  0  0  0
  5  6  2  0  0  0  0
  5  7  1  0  0  0  0
  2  3  1  0  0  0  0
  2  4  1  0  0  0  0
  2  5  1  0  0  0  0
  1  2  1  0  0  0  0
 26 27  2  0  0  0  0
 26 28  1  0  0  0  0
 24 25  1  0  0  0  0
 22 23  1  0  0  0  0
 22 24  2  0  0  0  0
 20 21  1  0  0  0  0
 19 20  1  0  0  0  0
 19 22  1  0  0  0  0
 17 18  1  0  0  0  0
 17 19  2  0  0  0  0
 15 16  1  0  0  0  0
 15 17  1  0  0  0  0
 14 15  2  0  0  0  0
 14 24  1  0  0  0  0
 11 12  1  0  0  0  0
 11 13  1  0  0  0  0
 11 14  1  0  0  0  0
  9 10  1  0  0  0  0
  9 11  1  0  0  0  0
  9 26  1  0  0  0  0
  7  8  1  0  0  0  0
  7  9  1  0  0  0  0
 30 31  1  0  0  0  0
 30 32  1  0  0  0  0
 30 33  1  0  0  0  0
 28 29  1  0  0  0  0
 28 30  1  0  0  0  0
M  END
$$$$
default_name
  -OEChem-02102213163D

 33 33  0     1  0  0  0  0  0999 V2000
   -4.0702   -3.8485    1.4554 H   0  0  0  0  0  0  0  0  0  0  0  0
   -4.0012   -2.9605    0.8284 C   0  0  0  0  0  0  0  0  0  0  0  0
   -4.7652   -2.2435    1.1234 H   0  0  0  0  0  0  0  0  0  0  0  0
   -4.1352   -3.2385   -0.2156 H   0  0  0  0  0  0  0  0  0  0  0  0
   -2.6362   -2.3395    1.0094 C   0  0  0  0  0  0  0  0  0  0  0  0
   -1.8292   -2.8395    1.7814 O   0  0  0  0  0  0  0  0  0  0  0  0
   -2.3832   -1.2445    0.2964 N   0  0  0  0  0  0  0  0  0  0  0  0
   -3.1102   -0.8685   -0.2946 H   0  0  0  0  0  0  0  0  0  0  0  0
   -1.1292   -0.4875    0.3524 C   0  0  1  0  0  0  0  0  0  0  0  0
   -0.5898   -0.7762    1.2552 H   0  0  0  0  0  0  0  0  0  0  0  0
   -0.2608   -0.8470   -0.8656 C   0  0  0  0  0  0  0  0  0  0  0  0
    0.3633    0.0102   -1.1212 H   0  0  0  0  0  0  0  0  0  0  0  0
    0.4058   -1.6673   -0.5944 H   0  0  0  0  0  0  0  0  0  0  0  0
   -1.0573   -1.2333   -2.0969 C   0  0  0  0  0  0  0  0  0  0  0  0
   -1.9622   -0.3200   -2.6742 C   0  0  0  0  0  0  0  0  0  0  0  0
   -2.1110    0.6526   -2.2238 H   0  0  0  0  0  0  0  0  0  0  0  0
   -2.6696   -0.6686   -3.8412 C   0  0  0  0  0  0  0  0  0  0  0  0
   -3.3629    0.0325   -4.2797 H   0  0  0  0  0  0  0  0  0  0  0  0
   -2.4680   -1.9338   -4.4348 C   0  0  0  0  0  0  0  0  0  0  0  0
   -3.1431   -2.2784   -5.5621 O   0  0  0  0  0  0  0  0  0  0  0  0
   -3.7936   -1.6197   -5.8090 H   0  0  0  0  0  0  0  0  0  0  0  0
   -1.5584   -2.8446   -3.8586 C   0  0  0  0  0  0  0  0  0  0  0  0
   -1.4162   -3.8105   -4.3192 H   0  0  0  0  0  0  0  0  0  0  0  0
   -0.8563   -2.4949   -2.6894 C   0  0  0  0  0  0  0  0  0  0  0  0
   -0.1646   -3.1987   -2.2420 H   0  0  0  0  0  0  0  0  0  0  0  0
   -1.4018    1.0238    0.4329 C   0  0  0  0  0  0  0  0  0  0  0  0
   -2.2416    1.5423   -0.3033 O   0  0  0  0  0  0  0  0  0  0  0  0
   -0.6927    1.7304    1.3223 N   0  0  0  0  0  0  0  0  0  0  0  0
    0.0178    1.2410    1.8469 H   0  0  0  0  0  0  0  0  0  0  0  0
   -0.8259    3.1712    1.5254 C   0  0  0  0  0  0  0  0  0  0  0  0
   -1.8769    3.4302    1.6645 H   0  0  0  0  0  0  0  0  0  0  0  0
   -0.2598    3.4806    2.4054 H   0  0  0  0  0  0  0  0  0  0  0  0
   -0.4486    3.7020    0.6489 H   0  0  0  0  0  0  0  0  0  0  0  0
  5  6  2  0  0  0  0
  5  7  1  0  0  0  0
  2  3  1  0  0  0  0
  2  4  1  0  0  0  0
  2  5  1  0  0  0  0
  1  2  1  0  0  0  0
 26 27  2  0  0  0  0
 26 28  1  0  0  0  0
 24 25  1  0  0  0  0
 22 23  1  0  0  0  0
 22 24  2  0  0  0  0
 20 21  1  0  0  0  0
 19 20  1  0  0  0  0
 19 22  1  0  0  0  0
 17 18  1  0  0  0  0
 17 19  2  0  0  0  0
 15 16  1  0  0  0  0
 15 17  1  0  0  0  0
 14 15  2  0  0  0  0
 14 24  1  0  0  0  0
 11 12  1  0  0  0  0
 11 13  1  0  0  0  0
 11 14  1  0  0  0  0
  9 10  1  0  0  0  0
  9 11  1  0  0  0  0
  9 26  1  0  0  0  0
  7  8  1  0  0  0  0
  7  9  1  0  0  0  0
 30 31  1  0  0  0  0
 30 32  1  0  0  0  0
 30 33  1  0  0  0  0
 28 29  1  0  0  0  0
 28 30  1  0  0  0  0
M  END
$$$$
default_name
  -OEChem-02102213163D

 33 33  0     1  0  0  0  0  0999 V2000
   -4.0702   -3.8485    1.4554 H   0  0  0  0  0  0  0  0  0  0  0  0
   -4.0012   -2.9605    0.8284 C   0  0  0  0  0  0  0  0  0  0  0  0
   -4.7652   -2.2435    1.1234 H   0  0  0  0  0  0  0  0  0  0  0  0
   -4.1352   -3.2385   -0.2156 H   0  0  0  0  0  0  0  0  0  0  0  0
   -2.6362   -2.3395    1.0094 C   0  0  0  0  0  0  0  0  0  0  0  0
   -1.8292   -2.8395    1.7814 O   0  0  0  0  0  0  0  0  0  0  0  0
   -2.3832   -1.2445    0.2964 N   0  0  0  0  0  0  0  0  0  0  0  0
   -3.1102   -0.8685   -0.2946 H   0  0  0  0  0  0  0  0  0  0  0  0
   -1.1292   -0.4875    0.3524 C   0  0  1  0  0  0  0  0  0  0  0  0
   -0.5898   -0.7762    1.2552 H   0  0  0  0  0  0  0  0  0  0  0  0
   -0.2608   -0.8470   -0.8656 C   0  0  0  0  0  0  0  0  0  0  0  0
    0.3633    0.0102   -1.1212 H   0  0  0  0  0  0  0  0  0  0  0  0
    0.4058   -1.6673   -0.5944 H   0  0  0  0  0  0  0  0  0  0  0  0
   -1.0573   -1.2333   -2.0969 C   0  0  0  0  0  0  0  0  0  0  0  0
   -1.7142   -0.2456   -2.8580 C   0  0  0  0  0  0  0  0  0  0  0  0
   -1.6735    0.7910   -2.5502 H   0  0  0  0  0  0  0  0  0  0  0  0
   -2.4189   -0.6046   -4.0235 C   0  0  0  0  0  0  0  0  0  0  0  0
   -2.9220    0.1541   -4.6030 H   0  0  0  0  0  0  0  0  0  0  0  0
   -2.4634   -1.9557   -4.4309 C   0  0  0  0  0  0  0  0  0  0  0  0
   -3.1379   -2.3117   -5.5549 O   0  0  0  0  0  0  0  0  0  0  0  0
   -3.6183   -1.5756   -5.9362 H   0  0  0  0  0  0  0  0  0  0  0  0
   -1.8014   -2.9421   -3.6708 C   0  0  0  0  0  0  0  0  0  0  0  0
   -1.8465   -3.9724   -3.9901 H   0  0  0  0  0  0  0  0  0  0  0  0
   -1.1017   -2.5807   -2.5038 C   0  0  0  0  0  0  0  0  0  0  0  0
   -0.6011   -3.3403   -1.9152 H   0  0  0  0  0  0  0  0  0  0  0  0
   -1.4018    1.0238    0.4329 C   0  0  0  0  0  0  0  0  0  0  0  0
   -2.2416    1.5423   -0.3033 O   0  0  0  0  0  0  0  0  0  0  0  0
   -0.6927    1.7304    1.3223 N   0  0  0  0  0  0  0  0  0  0  0  0
    0.0178    1.2410    1.8469 H   0  0  0  0  0  0  0  0  0  0  0  0
   -0.8259    3.1712    1.5254 C   0  0  0  0  0  0  0  0  0  0  0  0
   -1.8769    3.4302    1.6645 H   0  0  0  0  0  0  0  0  0  0  0  0
   -0.2598    3.4806    2.4054 H   0  0  0  0  0  0  0  0  0  0  0  0
   -0.4486    3.7020    0.6489 H   0  0  0  0  0  0  0  0  0  0  0  0
  5  6  2  0  0  0  0
  5  7  1  0  0  0  0
  2  3  1  0  0  0  0
  2  4  1  0  0  0  0
  2  5  1  0  0  0  0
  1  2  1  0  0  0  0
 26 27  2  0  0  0  0
 26 28  1  0  0  0  0
 24 25  1  0  0  0  0
 22 23  1  0  0  0  0
 22 24  2  0  0  0  0
 20 21  1  0  0  0  0
 19 20  1  0  0  0  0
 19 22  1  0  0  0  0
 17 18  1  0  0  0  0
 17 19  2  0  0  0  0
 15 16  1  0  0  0  0
 15 17  1  0  0  0  0
 14 15  2  0  0  0  0
 14 24  1  0  0  0  0
 11 12  1  0  0  0  0
 11 13  1  0  0  0  0
 11 14  1  0  0  0  0
  9 10  1  0  0  0  0
  9 11  1  0  0  0  0
  9 26  1  0  0  0  0
  7  8  1  0  0  0  0
  7  9  1  0  0  0  0
 30 31  1  0  0  0  0
 30 32  1  0  0  0  0
 30 33  1  0  0  0  0
 28 29  1  0  0  0  0
 28 30  1  0  0  0  0
M  END
$$$$
default_name
  -OEChem-02102213163D

 33 33  0     1  0  0  0  0  0999 V2000
   -4.0702   -3.8485    1.4554 H   0  0  0  0  0  0  0  0  0  0  0  0
   -4.0012   -2.9605    0.8284 C   0  0  0  0  0  0  0  0  0  0  0  0
   -4.7652   -2.2435    1.1234 H   0  0  0  0  0  0  0  0  0  0  0  0
   -4.1352   -3.2385   -0.2156 H   0  0  0  0  0  0  0  0  0  0  0  0
   -2.6362   -2.3395    1.0094 C   0  0  0  0  0  0  0  0  0  0  0  0
   -1.8292   -2.8395    1.7814 O   0  0  0  0  0  0  0  0  0  0  0  0
   -2.3832   -1.2445    0.2964 N   0  0  0  0  0  0  0  0  0  0  0  0
   -3.1102   -0.8685   -0.2946 H   0  0  0  0  0  0  0  0  0  0  0  0
   -1.1292   -0.4875    0.3524 C   0  0  1  0  0  0  0  0  0  0  0  0
   -0.5898   -0.7762    1.2552 H   0  0  0  0  0  0  0  0  0  0  0  0
   -0.2608   -0.8470   -0.8656 C   0  0  0  0  0  0  0  0  0  0  0  0
    0.3633    0.0102   -1.1212 H   0  0  0  0  0  0  0  0  0  0  0  0
    0.4058   -1.6673   -0.5944 H   0  0  0  0  0  0  0  0  0  0  0  0
   -1.0573   -1.2333   -2.0969 C   0  0  0  0  0  0  0  0  0  0  0  0
   -1.4468   -0.2509   -3.0293 C   0  0  0  0  0  0  0  0  0  0  0  0
   -1.2004    0.7884   -2.8554 H   0  0  0  0  0  0  0  0  0  0  0  0
   -2.1513   -0.6201   -4.1917 C   0  0  0  0  0  0  0  0  0  0  0  0
   -2.4493    0.1350   -4.9028 H   0  0  0  0  0  0  0  0  0  0  0  0
   -2.4639   -1.9773   -4.4238 C   0  0  0  0  0  0  0  0  0  0  0  0
   -3.1404   -2.3440   -5.5432 O   0  0  0  0  0  0  0  0  0  0  0  0
   -3.4312   -1.5871   -6.0536 H   0  0  0  0  0  0  0  0  0  0  0  0
   -2.0691   -2.9597   -3.4921 C   0  0  0  0  0  0  0  0  0  0  0  0
   -2.3178   -3.9935   -3.6786 H   0  0  0  0  0  0  0  0  0  0  0  0
   -1.3690   -2.5868   -2.3290 C   0  0  0  0  0  0  0  0  0  0  0  0
   -1.0741   -3.3410   -1.6091 H   0  0  0  0  0  0  0  0  0  0  0  0
   -1.4018    1.0238    0.4329 C   0  0  0  0  0  0  0  0  0  0  0  0
   -2.2416    1.5423   -0.3033 O   0  0  0  0  0  0  0  0  0  0  0  0
   -0.6927    1.7304    1.3223 N   0  0  0  0  0  0  0  0  0  0  0  0
    0.0178    1.2410    1.8469 H   0  0  0  0  0  0  0  0  0  0  0  0
   -0.8259    3.1712    1.5254 C   0  0  0  0  0  0  0  0  0  0  0  0
   -1.8769    3.4302    1.6645 H   0  0  0  0  0  0  0  0  0  0  0  0
   -0.2598    3.4806    2.4054 H   0  0  0  0  0  0  0  0  0  0  0  0
   -0.4486    3.7020    0.6489 H   0  0  0  0  0  0  0  0  0  0  0  0
  5  6  2  0  0  0  0
  5  7  1  0  0  0  0
  2  3  1  0  0  0  0
  2  4  1  0  0  0  0
  2  5  1  0  0  0  0
  1  2  1  0  0  0  0
 26 27  2  0  0  0  0
 26 28  1  0  0  0  0
 24 25  1  0  0  0  0
 22 23  1  0  0  0  0
 22 24  2  0  0  0  0
 20 21  1  0  0  0  0
 19 20  1  0  0  0  0
 19 22  1  0  0  0  0
 17 18  1  0  0  0  0
 17 19  2  0  0  0  0
 15 16  1  0  0  0  0
 15 17  1  0  0  0  0
 14 15  2  0  0  0  0
 14 24  1  0  0  0  0
 11 12  1  0  0  0  0
 11 13  1  0  0  0  0
 11 14  1  0  0  0  0
  9 10  1  0  0  0  0
  9 11  1  0  0  0  0
  9 26  1  0  0  0  0
  7  8  1  0  0  0  0
  7  9  1  0  0  0  0
 30 31  1  0  0  0  0
 30 32  1  0  0  0  0
 30 33  1  0  0  0  0
 28 29  1  0  0  0  0
 28 30  1  0  0  0  0
M  END
$$$$
default_name
  -OEChem-02102213163D

 33 33  0     1  0  0  0  0  0999 V2000
   -4.0702   -3.8485    1.4554 H   0  0  0  0  0  0  0  0  0  0  0  0
   -4.0012   -2.9605    0.8284 C   0  0  0  0  0  0  0  0  0  0  0  0
   -4.7652   -2.2435    1.1234 H   0  0  0  0  0  0  0  0  0  0  0  0
   -4.1352   -3.2385   -0.2156 H   0  0  0  0  0  0  0  0  0  0  0  0
   -2.6362   -2.3395    1.0094 C   0  0  0  0  0  0  0  0  0  0  0  0
   -1.8292   -2.8395    1.7814 O   0  0  0  0  0  0  0  0  0  0  0  0
   -2.3832   -1.2445    0.2964 N   0  0  0  0  0  0  0  0  0  0  0  0
   -3.1102   -0.8685   -0.2946 H   0  0  0  0  0  0  0  0  0  0  0  0
   -1.1292   -0.4875    0.3524 C   0  0  1  0  0  0  0  0  0  0  0  0
   -0.5898   -0.7762    1.2552 H   0  0  0  0  0  0  0  0  0  0  0  0
   -0.2608   -0.8470   -0.8656 C   0  0  0  0  0  0  0  0  0  0  0  0
    0.3633    0.0102   -1.1212 H   0  0  0  0  0  0  0  0  0  0  0  0
    0.4058   -1.6673   -0.5944 H   0  0  0  0  0  0  0  0  0  0  0  0
   -1.0573   -1.2333   -2.0969 C   0  0  0  0  0  0  0  0  0  0  0  0
   -1.1783   -0.3354   -3.1765 C   0  0  0  0  0  0  0  0  0  0  0  0
   -0.7238    0.6450   -3.1187 H   0  0  0  0  0  0  0  0  0  0  0  0
   -1.8850   -0.7143   -4.3344 C   0  0  0  0  0  0  0  0  0  0  0  0
   -1.9770   -0.0236   -5.1585 H   0  0  0  0  0  0  0  0  0  0  0  0
   -2.4693   -1.9971   -4.4141 C   0  0  0  0  0  0  0  0  0  0  0  0
   -3.1503   -2.3731   -5.5276 O   0  0  0  0  0  0  0  0  0  0  0  0
   -3.2453   -1.6535   -6.1530 H   0  0  0  0  0  0  0  0  0  0  0  0
   -2.3431   -2.8961   -3.3348 C   0  0  0  0  0  0  0  0  0  0  0  0
   -2.7981   -3.8726   -3.4059 H   0  0  0  0  0  0  0  0  0  0  0  0
   -1.6400   -2.5128   -2.1769 C   0  0  0  0  0  0  0  0  0  0  0  0
   -1.5514   -3.2006   -1.3444 H   0  0  0  0  0  0  0  0  0  0  0  0
   -1.4018    1.0238    0.4329 C   0  0  0  0  0  0  0  0  0  0  0  0
   -2.2416    1.5423   -0.3033 O   0  0  0  0  0  0  0  0  0  0  0  0
   -0.6927    1.7304    1.3223 N   0  0  0  0  0  0  0  0  0  0  0  0
    0.0178    1.2410    1.8469 H   0  0  0  0  0  0  0  0  0  0  0  0
   -0.8259    3.1712    1.5254 C   0  0  0  0  0  0  0  0  0  0  0  0
   -1.8769    3.4302    1.6645 H   0  0  0  0  0  0  0  0  0  0  0  0
   -0.2598    3.4806    2.4054 H   0  0  0  0  0  0  0  0  0  0  0  0
   -0.4486    3.7020    0.6489 H   0  0  0  0  0  0  0  0  0  0  0  0
  5  6  2  0  0  0  0
  5  7  1  0  0  0  0
  2  3  1  0  0  0  0
  2  4  1  0  0  0  0
  2  5  1  0  0  0  0
  1  2  1  0  0  0  0
 26 27  2  0  0  0  0
 26 28  1  0  0  0  0
 24 25  1  0  0  0  0
 22 23  1  0  0  0  0
 22 24  2  0  0  0  0
 20 21  1  0  0  0  0
 19 20  1  0  0  0  0
 19 22  1  0  0  0  0
 17 18  1  0  0  0  0
 17 19  2  0  0  0  0
 15 16  1  0  0  0  0
 15 17  1  0  0  0  0
 14 15  2  0  0  0  0
 14 24  1  0  0  0  0
 11 12  1  0  0  0  0
 11 13  1  0  0  0  0
 11 14  1  0  0  0  0
  9 10  1  0  0  0  0
  9 11  1  0  0  0  0
  9 26  1  0  0  0  0
  7  8  1  0  0  0  0
  7  9  1  0  0  0  0
 30 31  1  0  0  0  0
 30 32  1  0  0  0  0
 30 33  1  0  0  0  0
 28 29  1  0  0  0  0
 28 30  1  0  0  0  0
M  END
$$$$
default_name
  -OEChem-02102213163D

 33 33  0     1  0  0  0  0  0999 V2000
   -4.0702   -3.8485    1.4554 H   0  0  0  0  0  0  0  0  0  0  0  0
   -4.0012   -2.9605    0.8284 C   0  0  0  0  0  0  0  0  0  0  0  0
   -4.7652   -2.2435    1.1234 H   0  0  0  0  0  0  0  0  0  0  0  0
   -4.1352   -3.2385   -0.2156 H   0  0  0  0  0  0  0  0  0  0  0  0
   -2.6362   -2.3395    1.0094 C   0  0  0  0  0  0  0  0  0  0  0  0
   -1.8292   -2.8395    1.7814 O   0  0  0  0  0  0  0  0  0  0  0  0
   -2.3832   -1.2445    0.2964 N   0  0  0  0  0  0  0  0  0  0  0  0
   -3.1102   -0.8685   -0.2946 H   0  0  0  0  0  0  0  0  0  0  0  0
   -1.1292   -0.4875    0.3524 C   0  0  1  0  0  0  0  0  0  0  0  0
   -0.5898   -0.7762    1.2552 H   0  0  0  0  0  0  0  0  0  0  0  0
   -0.2608   -0.8470   -0.8656 C   0  0  0  0  0  0  0  0  0  0  0  0
    0.3633    0.0102   -1.1212 H   0  0  0  0  0  0  0  0  0  0  0  0
    0.4058   -1.6673   -0.5944 H   0  0  0  0  0  0  0  0  0  0  0  0
   -1.0573   -1.2333   -2.0969 C   0  0  0  0  0  0  0  0  0  0  0  0
   -0.9270   -0.4935   -3.2894 C   0  0  0  0  0  0  0  0  0  0  0  0
   -0.2762    0.3705   -3.3220 H   0  0  0  0  0  0  0  0  0  0  0  0
   -1.6381   -0.8806   -4.4419 C   0  0  0  0  0  0  0  0  0  0  0  0
   -1.5372   -0.3108   -5.3529 H   0  0  0  0  0  0  0  0  0  0  0  0
   -2.4794   -2.0138   -4.4024 C   0  0  0  0  0  0  0  0  0  0  0  0
   -3.1671   -2.3970   -5.5093 O   0  0  0  0  0  0  0  0  0  0  0  0
   -3.0730   -1.7702   -6.2278 H   0  0  0  0  0  0  0  0  0  0  0  0
   -2.6048   -2.7558   -3.2096 C   0  0  0  0  0  0  0  0  0  0  0  0
   -3.2545   -3.6178   -3.1906 H   0  0  0  0  0  0  0  0  0  0  0  0
   -1.8963   -2.3637   -2.0580 C   0  0  0  0  0  0  0  0  0  0  0  0
   -2.0002   -2.9288   -1.1394 H   0  0  0  0  0  0  0  0  0  0  0  0
   -1.4018    1.0238    0.4329 C   0  0  0  0  0  0  0  0  0  0  0  0
   -2.2416    1.5423   -0.3033 O   0  0  0  0  0  0  0  0  0  0  0  0
   -0.6927    1.7304    1.3223 N   0  0  0  0  0  0  0  0  0  0  0  0
    0.0178    1.2410    1.8469 H   0  0  0  0  0  0  0  0  0  0  0  0
   -0.8259    3.1712    1.5254 C   0  0  0  0  0  0  0  0  0  0  0  0
   -1.8769    3.4302    1.6645 H   0  0  0  0  0  0  0  0  0  0  0  0
   -0.2598    3.4806    2.4054 H   0  0  0  0  0  0  0  0  0  0  0  0
   -0.4486    3.7020    0.6489 H   0  0  0  0  0  0  0  0  0  0  0  0
  5  6  2  0  0  0  0
  5  7  1  0  0  0  0
  2  3  1  0  0  0  0
  2  4  1  0  0  0  0
  2  5  1  0  0  0  0
  1  2  1  0  0  0  0
 26 27  2  0  0  0  0
 26 28  1  0  0  0  0
 24 25  1  0  0  0  0
 22 23  1  0  0  0  0
 22 24  2  0  0  0  0
 20 21  1  0  0  0  0
 19 20  1  0  0  0  0
 19 22  1  0  0  0  0
 17 18  1  0  0  0  0
 17 19  2  0  0  0  0
 15 16  1  0  0  0  0
 15 17  1  0  0  0  0
 14 15  2  0  0  0  0
 14 24  1  0  0  0  0
 11 12  1  0  0  0  0
 11 13  1  0  0  0  0
 11 14  1  0  0  0  0
  9 10  1  0  0  0  0
  9 11  1  0  0  0  0
  9 26  1  0  0  0  0
  7  8  1  0  0  0  0
  7  9  1  0  0  0  0
 30 31  1  0  0  0  0
 30 32  1  0  0  0  0
 30 33  1  0  0  0  0
 28 29  1  0  0  0  0
 28 30  1  0  0  0  0
M  END
$$$$
default_name
  -OEChem-02102213163D

 33 33  0     1  0  0  0  0  0999 V2000
   -4.0702   -3.8485    1.4554 H   0  0  0  0  0  0  0  0  0  0  0  0
   -4.0012   -2.9605    0.8284 C   0  0  0  0  0  0  0  0  0  0  0  0
   -4.7652   -2.2435    1.1234 H   0  0  0  0  0  0  0  0  0  0  0  0
   -4.1352   -3.2385   -0.2156 H   0  0  0  0  0  0  0  0  0  0  0  0
   -2.6362   -2.3395    1.0094 C   0  0  0  0  0  0  0  0  0  0  0  0
   -1.8292   -2.8395    1.7814 O   0  0  0  0  0  0  0  0  0  0  0  0
   -2.3832   -1.2445    0.2964 N   0  0  0  0  0  0  0  0  0  0  0  0
   -3.1102   -0.8685   -0.2946 H   0  0  0  0  0  0  0  0  0  0  0  0
   -1.1292   -0.4875    0.3524 C   0  0  1  0  0  0  0  0  0  0  0  0
   -0.5898   -0.7762    1.2552 H   0  0  0  0  0  0  0  0  0  0  0  0
   -0.2608   -0.8470   -0.8656 C   0  0  0  0  0  0  0  0  0  0  0  0
    0.3633    0.0102   -1.1212 H   0  0  0  0  0  0  0  0  0  0  0  0
    0.4058   -1.6673   -0.5944 H   0  0  0  0  0  0  0  0  0  0  0  0
   -1.0573   -1.2333   -2.0969 C   0  0  0  0  0  0  0  0  0  0  0  0
   -0.7101   -0.7143   -3.3604 C   0  0  0  0  0  0  0  0  0  0  0  0
    0.1118   -0.0164   -3.4517 H   0  0  0  0  0  0  0  0  0  0  0  0
   -1.4275   -1.1077   -4.5069 C   0  0  0  0  0  0  0  0  0  0  0  0
   -1.1599   -0.7071   -5.4726 H   0  0  0  0  0  0  0  0  0  0  0  0
   -2.4934   -2.0262   -4.3894 C   0  0  0  0  0  0  0  0  0  0  0  0
   -3.1895   -2.4141   -5.4895 O   0  0  0  0  0  0  0  0  0  0  0  0
   -2.9263   -1.9293   -6.2728 H   0  0  0  0  0  0  0  0  0  0  0  0
   -2.8363   -2.5482   -3.1250 C   0  0  0  0  0  0  0  0  0  0  0  0
   -3.6561   -3.2464   -3.0474 H   0  0  0  0  0  0  0  0  0  0  0  0
   -2.1203   -2.1496   -1.9802 C   0  0  0  0  0  0  0  0  0  0  0  0
   -2.3902   -2.5440   -1.0078 H   0  0  0  0  0  0  0  0  0  0  0  0
   -1.4018    1.0238    0.4329 C   0  0  0  0  0  0  0  0  0  0  0  0
   -2.2416    1.5423   -0.3033 O   0  0  0  0  0  0  0  0  0  0  0  0
   -0.6927    1.7304    1.3223 N   0  0  0  0  0  0  0  0  0  0  0  0
    0.0178    1.2410    1.8469 H   0  0  0  0  0  0  0  0  0  0  0  0
   -0.8259    3.1712    1.5254 C   0  0  0  0  0  0  0  0  0  0  0  0
   -1.8769    3.4302    1.6645 H   0  0  0  0  0  0  0  0  0  0  0  0
   -0.2598    3.4806    2.4054 H   0  0  0  0  0  0  0  0  0  0  0  0
   -0.4486    3.7020    0.6489 H   0  0  0  0  0  0  0  0  0  0  0  0
  5  6  2  0  0  0  0
  5  7  1  0  0  0  0
  2  3  1  0  0  0  0
  2  4  1  0  0  0  0
  2  5  1  0  0  0  0
  1  2  1  0  0  0  0
 26 27  2  0  0  0  0
 26 28  1  0  0  0  0
 24 25  1  0  0  0  0
 22 23  1  0  0  0  0
 22 24  2  0  0  0  0
 20 21  1  0  0  0  0
 19 20  1  0  0  0  0
 19 22  1  0  0  0  0
 17 18  1  0  0  0  0
 17 19  2  0  0  0  0
 15 16  1  0  0  0  0
 15 17  1  0  0  0  0
 14 15  2  0  0  0  0
 14 24  1  0  0  0  0
 11 12  1  0  0  0  0
 11 13  1  0  0  0  0
 11 14  1  0  0  0  0
  9 10  1  0  0  0  0
  9 11  1  0  0  0  0
  9 26  1  0  0  0  0
  7  8  1  0  0  0  0
  7  9  1  0  0  0  0
 30 31  1  0  0  0  0
 30 32  1  0  0  0  0
 30 33  1  0  0  0  0
 28 29  1  0  0  0  0
 28 30  1  0  0  0  0
M  END
$$$$
default_name
  -OEChem-02102213163D

 33 33  0     1  0  0  0  0  0999 V2000
   -4.0702   -3.8485    1.4554 H   0  0  0  0  0  0  0  0  0  0  0  0
   -4.0012   -2.9605    0.8284 C   0  0  0  0  0  0  0  0  0  0  0  0
   -4.7652   -2.2435    1.1234 H   0  0  0  0  0  0  0  0  0  0  0  0
   -4.1352   -3.2385   -0.2156 H   0  0  0  0  0  0  0  0  0  0  0  0
   -2.6362   -2.3395    1.0094 C   0  0  0  0  0  0  0  0  0  0  0  0
   -1.8292   -2.8395    1.7814 O   0  0  0  0  0  0  0  0  0  0  0  0
   -2.3832   -1.2445    0.2964 N   0  0  0  0  0  0  0  0  0  0  0  0
   -3.1102   -0.8685   -0.2946 H   0  0  0  0  0  0  0  0  0  0  0  0
   -1.1292   -0.4875    0.3524 C   0  0  1  0  0  0  0  0  0  0  0  0
   -0.5898   -0.7762    1.2552 H   0  0  0  0  0  0  0  0  0  0  0  0
   -0.2608   -0.8470   -0.8656 C   0  0  0  0  0  0  0  0  0  0  0  0
    0.3633    0.0102   -1.1212 H   0  0  0  0  0  0  0  0  0  0  0  0
    0.4058   -1.6673   -0.5944 H   0  0  0  0  0  0  0  0  0  0  0  0
   -1.0573   -1.2333   -2.0969 C   0  0  0  0  0  0  0  0  0  0  0  0
   -0.5423   -0.9829   -3.3847 C   0  0  0  0  0  0  0  0  0  0  0  0
    0.4139   -0.4892   -3.4987 H   0  0  0  0  0  0  0  0  0  0  0  0
   -1.2675   -1.3802   -4.5249 C   0  0  0  0  0  0  0  0  0  0  0  0
   -0.8709   -1.1854   -5.5095 H   0  0  0  0  0  0  0  0  0  0  0  0
   -2.5104   -2.0335   -4.3762 C   0  0  0  0  0  0  0  0  0  0  0  0
   -3.2161   -2.4231   -5.4694 O   0  0  0  0  0  0  0  0  0  0  0  0
   -2.8150   -2.1200   -6.2850 H   0  0  0  0  0  0  0  0  0  0  0  0
   -3.0219   -2.2876   -3.0867 C   0  0  0  0  0  0  0  0  0  0  0  0
   -3.9753   -2.7839   -2.9860 H   0  0  0  0  0  0  0  0  0  0  0  0
   -2.2968   -1.8852   -1.9490 C   0  0  0  0  0  0  0  0  0  0  0  0
   -2.6947   -2.0725   -0.9588 H   0  0  0  0  0  0  0  0  0  0  0  0
   -1.4018    1.0238    0.4329 C   0  0  0  0  0  0  0  0  0  0  0  0
   -2.2416    1.5423   -0.3033 O   0  0  0  0  0  0  0  0  0  0  0  0
   -0.6927    1.7304    1.3223 N   0  0  0  0  0  0  0  0  0  0  0  0
    0.0178    1.2410    1.8469 H   0  0  0  0  0  0  0  0  0  0  0  0
   -0.8259    3.1712    1.5254 C   0  0  0  0  0  0  0  0  0  0  0  0
   -1.8769    3.4302    1.6645 H   0  0  0  0  0  0  0  0  0  0  0  0
   -0.2598    3.4806    2.4054 H   0  0  0  0  0  0  0  0  0  0  0  0
   -0.4486    3.7020    0.6489 H   0  0  0  0  0  0  0  0  0  0  0  0
  5  6  2  0  0  0  0
  5  7  1  0  0  0  0
  2  3  1  0  0  0  0
  2  4  1  0  0  0  0
  2  5  1  0  0  0  0
  1  2  1  0  0  0  0
 26 27  2  0  0  0  0
 26 28  1  0  0  0  0
 24 25  1  0  0  0  0
 22 23  1  0  0  0  0
 22 24  2  0  0  0  0
 20 21  1  0  0  0  0
 19 20  1  0  0  0  0
 19 22  1  0  0  0  0
 17 18  1  0  0  0  0
 17 19  2  0  0  0  0
 15 16  1  0  0  0  0
 15 17  1  0  0  0  0
 14 15  2  0  0  0  0
 14 24  1  0  0  0  0
 11 12  1  0  0  0  0
 11 13  1  0  0  0  0
 11 14  1  0  0  0  0
  9 10  1  0  0  0  0
  9 11  1  0  0  0  0
  9 26  1  0  0  0  0
  7  8  1  0  0  0  0
  7  9  1  0  0  0  0
 30 31  1  0  0  0  0
 30 32  1  0  0  0  0
 30 33  1  0  0  0  0
 28 29  1  0  0  0  0
 28 30  1  0  0  0  0
M  END
$$$$
default_name
  -OEChem-02102213163D

 33 33  0     1  0  0  0  0  0999 V2000
   -4.0702   -3.8485    1.4554 H   0  0  0  0  0  0  0  0  0  0  0  0
   -4.0012   -2.9605    0.8284 C   0  0  0  0  0  0  0  0  0  0  0  0
   -4.7652   -2.2435    1.1234 H   0  0  0  0  0  0  0  0  0  0  0  0
   -4.1352   -3.2385   -0.2156 H   0  0  0  0  0  0  0  0  0  0  0  0
   -2.6362   -2.3395    1.0094 C   0  0  0  0  0  0  0  0  0  0  0  0
   -1.8292   -2.8395    1.7814 O   0  0  0  0  0  0  0  0  0  0  0  0
   -2.3832   -1.2445    0.2964 N   0  0  0  0  0  0  0  0  0  0  0  0
   -3.1102   -0.8685   -0.2946 H   0  0  0  0  0  0  0  0  0  0  0  0
   -1.1292   -0.4875    0.3524 C   0  0  1  0  0  0  0  0  0  0  0  0
   -0.5898   -0.7762    1.2552 H   0  0  0  0  0  0  0  0  0  0  0  0
   -0.2608   -0.8470   -0.8656 C   0  0  0  0  0  0  0  0  0  0  0  0
    0.3633    0.0102   -1.1212 H   0  0  0  0  0  0  0  0  0  0  0  0
    0.4058   -1.6673   -0.5944 H   0  0  0  0  0  0  0  0  0  0  0  0
   -1.0573   -1.2333   -2.0969 C   0  0  0  0  0  0  0  0  0  0  0  0
   -0.4351   -1.2809   -3.3606 C   0  0  0  0  0  0  0  0  0  0  0  0
    0.6094   -1.0158   -3.4600 H   0  0  0  0  0  0  0  0  0  0  0  0
   -1.1691   -1.6794   -4.4947 C   0  0  0  0  0  0  0  0  0  0  0  0
   -0.6899   -1.7132   -5.4610 H   0  0  0  0  0  0  0  0  0  0  0  0
   -2.5292   -2.0351   -4.3635 C   0  0  0  0  0  0  0  0  0  0  0  0
   -3.2449   -2.4236   -5.4506 O   0  0  0  0  0  0  0  0  0  0  0  0
   -2.7467   -2.3292   -6.2635 H   0  0  0  0  0  0  0  0  0  0  0  0
   -3.1489   -1.9916   -3.0974 C   0  0  0  0  0  0  0  0  0  0  0  0
   -4.1906   -2.2617   -3.0106 H   0  0  0  0  0  0  0  0  0  0  0  0
   -2.4138   -1.5884   -1.9664 C   0  0  0  0  0  0  0  0  0  0  0  0
   -2.8930   -1.5464   -0.9956 H   0  0  0  0  0  0  0  0  0  0  0  0
   -1.4018    1.0238    0.4329 C   0  0  0  0  0  0  0  0  0  0  0  0
   -2.2416    1.5423   -0.3033 O   0  0  0  0  0  0  0  0  0  0  0  0
   -0.6927    1.7304    1.3223 N   0  0  0  0  0  0  0  0  0  0  0  0
    0.0178    1.2410    1.8469 H   0  0  0  0  0  0  0  0  0  0  0  0
   -0.8259    3.1712    1.5254 C   0  0  0  0  0  0  0  0  0  0  0  0
   -1.8769    3.4302    1.6645 H   0  0  0  0  0  0  0  0  0  0  0  0
   -0.2598    3.4806    2.4054 H   0  0  0  0  0  0  0  0  0  0  0  0
   -0.4486    3.7020    0.6489 H   0  0  0  0  0  0  0  0  0  0  0  0
  5  6  2  0  0  0  0
  5  7  1  0  0  0  0
  2  3  1  0  0  0  0
  2  4  1  0  0  0  0
  2  5  1  0  0  0  0
  1  2  1  0  0  0  0
 26 27  2  0  0  0  0
 26 28  1  0  0  0  0
 24 25  1  0  0  0  0
 22 23  1  0  0  0  0
 22 24  2  0  0  0  0
 20 21  1  0  0  0  0
 19 20  1  0  0  0  0
 19 22  1  0  0  0  0
 17 18  1  0  0  0  0
 17 19  2  0  0  0  0
 15 16  1  0  0  0  0
 15 17  1  0  0  0  0
 14 15  2  0  0  0  0
 14 24  1  0  0  0  0
 11 12  1  0  0  0  0
 11 13  1  0  0  0  0
 11 14  1  0  0  0  0
  9 10  1  0  0  0  0
  9 11  1  0  0  0  0
  9 26  1  0  0  0  0
  7  8  1  0  0  0  0
  7  9  1  0  0  0  0
 30 31  1  0  0  0  0
 30 32  1  0  0  0  0
 30 33  1  0  0  0  0
 28 29  1  0  0  0  0
 28 30  1  0  0  0  0
M  END
$$$$
default_name
  -OEChem-02102213163D

 33 33  0     1  0  0  0  0  0999 V2000
   -4.0702   -3.8485    1.4554 H   0  0  0  0  0  0  0  0  0  0  0  0
   -4.0012   -2.9605    0.8284 C   0  0  0  0  0  0  0  0  0  0  0  0
   -4.7652   -2.2435    1.1234 H   0  0  0  0  0  0  0  0  0  0  0  0
   -4.1352   -3.2385   -0.2156 H   0  0  0  0  0  0  0  0  0  0  0  0
   -2.6362   -2.3395    1.0094 C   0  0  0  0  0  0  0  0  0  0  0  0
   -1.8292   -2.8395    1.7814 O   0  0  0  0  0  0  0  0  0  0  0  0
   -2.3832   -1.2445    0.2964 N   0  0  0  0  0  0  0  0  0  0  0  0
   -3.1102   -0.8685   -0.2946 H   0  0  0  0  0  0  0  0  0  0  0  0
   -1.1292   -0.4875    0.3524 C   0  0  1  0  0  0  0  0  0  0  0  0
   -0.5898   -0.7762    1.2552 H   0  0  0  0  0  0  0  0  0  0  0  0
   -0.2608   -0.8470   -0.8656 C   0  0  0  0  0  0  0  0  0  0  0  0
    0.5400   -0.1123   -0.9591 H   0  0  0  0  0  0  0  0  0  0  0  0
    0.2054   -1.8184   -0.6927 H   0  0  0  0  0  0  0  0  0  0  0  0
   -1.0230   -0.8819   -2.1762 C   0  0  0  0  0  0  0  0  0  0  0  0
   -0.3575   -1.1970   -3.3779 C   0  0  0  0  0  0  0  0  0  0  0  0
    0.7073   -1.3897   -3.3725 H   0  0  0  0  0  0  0  0  0  0  0  0
   -1.0776   -1.2679   -4.5864 C   0  0  0  0  0  0  0  0  0  0  0  0
   -0.5645   -1.5078   -5.5049 H   0  0  0  0  0  0  0  0  0  0  0  0
   -2.4687   -1.0264   -4.5919 C   0  0  0  0  0  0  0  0  0  0  0  0
   -3.1726   -1.0953   -5.7516 O   0  0  0  0  0  0  0  0  0  0  0  0
   -2.6041   -1.2247   -6.5119 H   0  0  0  0  0  0  0  0  0  0  0  0
   -3.1338   -0.7161   -3.3876 C   0  0  0  0  0  0  0  0  0  0  0  0
   -4.1970   -0.5293   -3.4055 H   0  0  0  0  0  0  0  0  0  0  0  0
   -2.4106   -0.6415   -2.1821 C   0  0  0  0  0  0  0  0  0  0  0  0
   -2.9206   -0.3940   -1.2588 H   0  0  0  0  0  0  0  0  0  0  0  0
   -1.4018    1.0238    0.4329 C   0  0  0  0  0  0  0  0  0  0  0  0
   -2.2416    1.5423   -0.3033 O   0  0  0  0  0  0  0  0  0  0  0  0
   -0.6927    1.7304    1.3223 N   0  0  0  0  0  0  0  0  0  0  0  0
    0.0178    1.2410    1.8469 H   0  0  0  0  0  0  0  0  0  0  0  0
   -0.8259    3.1712    1.5254 C   0  0  0  0  0  0  0  0  0  0  0  0
   -1.8769    3.4302    1.6645 H   0  0  0  0  0  0  0  0  0  0  0  0
   -0.2598    3.4806    2.4054 H   0  0  0  0  0  0  0  0  0  0  0  0
   -0.4486    3.7020    0.6489 H   0  0  0  0  0  0  0  0  0  0  0  0
  5  6  2  0  0  0  0
  5  7  1  0  0  0  0
  2  3  1  0  0  0  0
  2  4  1  0  0  0  0
  2  5  1  0  0  0  0
  1  2  1  0  0  0  0
 26 27  2  0  0  0  0
 26 28  1  0  0  0  0
 24 25  1  0  0  0  0
 22 23  1  0  0  0  0
 22 24  2  0  0  0  0
 20 21  1  0  0  0  0
 19 20  1  0  0  0  0
 19 22  1  0  0  0  0
 17 18  1  0  0  0  0
 17 19  2  0  0  0  0
 15 16  1  0  0  0  0
 15 17  1  0  0  0  0
 14 15  2  0  0  0  0
 14 24  1  0  0  0  0
 11 12  1  0  0  0  0
 11 13  1  0  0  0  0
 11 14  1  0  0  0  0
  9 10  1  0  0  0  0
  9 11  1  0  0  0  0
  9 26  1  0  0  0  0
  7  8  1  0  0  0  0
  7  9  1  0  0  0  0
 30 31  1  0  0  0  0
 30 32  1  0  0  0  0
 30 33  1  0  0  0  0
 28 29  1  0  0  0  0
 28 30  1  0  0  0  0
M  END
$$$$
default_name
  -OEChem-02102213163D

 33 33  0     1  0  0  0  0  0999 V2000
   -4.0702   -3.8485    1.4554 H   0  0  0  0  0  0  0  0  0  0  0  0
   -4.0012   -2.9605    0.8284 C   0  0  0  0  0  0  0  0  0  0  0  0
   -4.7652   -2.2435    1.1234 H   0  0  0  0  0  0  0  0  0  0  0  0
   -4.1352   -3.2385   -0.2156 H   0  0  0  0  0  0  0  0  0  0  0  0
   -2.6362   -2.3395    1.0094 C   0  0  0  0  0  0  0  0  0  0  0  0
   -1.8292   -2.8395    1.7814 O   0  0  0  0  0  0  0  0  0  0  0  0
   -2.3832   -1.2445    0.2964 N   0  0  0  0  0  0  0  0  0  0  0  0
   -3.1102   -0.8685   -0.2946 H   0  0  0  0  0  0  0  0  0  0  0  0
   -1.1292   -0.4875    0.3524 C   0  0  1  0  0  0  0  0  0  0  0  0
   -0.5898   -0.7762    1.2552 H   0  0  0  0  0  0  0  0  0  0  0  0
   -0.2608   -0.8470   -0.8656 C   0  0  0  0  0  0  0  0  0  0  0  0
    0.5400   -0.1123   -0.9591 H   0  0  0  0  0  0  0  0  0  0  0  0
    0.2054   -1.8184   -0.6927 H   0  0  0  0  0  0  0  0  0  0  0  0
   -1.0230   -0.8819   -2.1762 C   0  0  0  0  0  0  0  0  0  0  0  0
   -0.4557   -1.4920   -3.3129 C   0  0  0  0  0  0  0  0  0  0  0  0
    0.5389   -1.9152   -3.2606 H   0  0  0  0  0  0  0  0  0  0  0  0
   -1.1840   -1.5577   -4.5168 C   0  0  0  0  0  0  0  0  0  0  0  0
   -0.7459   -2.0242   -5.3857 H   0  0  0  0  0  0  0  0  0  0  0  0
   -2.4856   -1.0146   -4.5824 C   0  0  0  0  0  0  0  0  0  0  0  0
   -3.1972   -1.0755   -5.7378 O   0  0  0  0  0  0  0  0  0  0  0  0
   -2.6790   -1.4269   -6.4630 H   0  0  0  0  0  0  0  0  0  0  0  0
   -3.0536   -0.4089   -3.4425 C   0  0  0  0  0  0  0  0  0  0  0  0
   -4.0480    0.0067   -3.5064 H   0  0  0  0  0  0  0  0  0  0  0  0
   -2.3214   -0.3407   -2.2420 C   0  0  0  0  0  0  0  0  0  0  0  0
   -2.7549    0.1331   -1.3692 H   0  0  0  0  0  0  0  0  0  0  0  0
   -1.4018    1.0238    0.4329 C   0  0  0  0  0  0  0  0  0  0  0  0
   -2.2416    1.5423   -0.3033 O   0  0  0  0  0  0  0  0  0  0  0  0
   -0.6927    1.7304    1.3223 N   0  0  0  0  0  0  0  0  0  0  0  0
    0.0178    1.2410    1.8469 H   0  0  0  0  0  0  0  0  0  0  0  0
   -0.8259    3.1712    1.5254 C   0  0  0  0  0  0  0  0  0  0  0  0
   -1.8769    3.4302    1.6645 H   0  0  0  0  0  0  0  0  0  0  0  0
   -0.2598    3.4806    2.4054 H   0  0  0  0  0  0  0  0  0  0  0  0
   -0.4486    3.7020    0.6489 H   0  0  0  0  0  0  0  0  0  0  0  0
  5  6  2  0  0  0  0
  5  7  1  0  0  0  0
  2  3  1  0  0  0  0
  2  4  1  0  0  0  0
  2  5  1  0  0  0  0
  1  2  1  0  0  0  0
 26 27  2  0  0  0  0
 26 28  1  0  0  0  0
 24 25  1  0  0  0  0
 22 23  1  0  0  0  0
 22 24  2  0  0  0  0
 20 21  1  0  0  0  0
 19 20  1  0  0  0  0
 19 22  1  0  0  0  0
 17 18  1  0  0  0  0
 17 19  2  0  0  0  0
 15 16  1  0  0  0  0
 15 17  1  0  0  0  0
 14 15  2  0  0  0  0
 14 24  1  0  0  0  0
 11 12  1  0  0  0  0
 11 13  1  0  0  0  0
 11 14  1  0  0  0  0
  9 10  1  0  0  0  0
  9 11  1  0  0  0  0
  9 26  1  0  0  0  0
  7  8  1  0  0  0  0
  7  9  1  0  0  0  0
 30 31  1  0  0  0  0
 30 32  1  0  0  0  0
 30 33  1  0  0  0  0
 28 29  1  0  0  0  0
 28 30  1  0  0  0  0
M  END
$$$$
default_name
  -OEChem-02102213163D

 33 33  0     1  0  0  0  0  0999 V2000
   -4.0702   -3.8485    1.4554 H   0  0  0  0  0  0  0  0  0  0  0  0
   -4.0012   -2.9605    0.8284 C   0  0  0  0  0  0  0  0  0  0  0  0
   -4.7652   -2.2435    1.1234 H   0  0  0  0  0  0  0  0  0  0  0  0
   -4.1352   -3.2385   -0.2156 H   0  0  0  0  0  0  0  0  0  0  0  0
   -2.6362   -2.3395    1.0094 C   0  0  0  0  0  0  0  0  0  0  0  0
   -1.8292   -2.8395    1.7814 O   0  0  0  0  0  0  0  0  0  0  0  0
   -2.3832   -1.2445    0.2964 N   0  0  0  0  0  0  0  0  0  0  0  0
   -3.1102   -0.8685   -0.2946 H   0  0  0  0  0  0  0  0  0  0  0  0
   -1.1292   -0.4875    0.3524 C   0  0  1  0  0  0  0  0  0  0  0  0
   -0.5898   -0.7762    1.2552 H   0  0  0  0  0  0  0  0  0  0  0  0
   -0.2608   -0.8470   -0.8656 C   0  0  0  0  0  0  0  0  0  0  0  0
    0.5400   -0.1123   -0.9591 H   0  0  0  0  0  0  0  0  0  0  0  0
    0.2054   -1.8184   -0.6927 H   0  0  0  0  0  0  0  0  0  0  0  0
   -1.0230   -0.8819   -2.1762 C   0  0  0  0  0  0  0  0  0  0  0  0
   -0.6169   -1.7465   -3.2124 C   0  0  0  0  0  0  0  0  0  0  0  0
    0.2580   -2.3706   -3.0851 H   0  0  0  0  0  0  0  0  0  0  0  0
   -1.3520   -1.8048   -4.4125 C   0  0  0  0  0  0  0  0  0  0  0  0
   -1.0372   -2.4668   -5.2045 H   0  0  0  0  0  0  0  0  0  0  0  0
   -2.4994   -0.9981   -4.5748 C   0  0  0  0  0  0  0  0  0  0  0  0
   -3.2167   -1.0492   -5.7272 O   0  0  0  0  0  0  0  0  0  0  0  0
   -2.7968   -1.5991   -6.3899 H   0  0  0  0  0  0  0  0  0  0  0  0
   -2.9071   -0.1371   -3.5349 C   0  0  0  0  0  0  0  0  0  0  0  0
   -3.7836    0.4779   -3.6727 H   0  0  0  0  0  0  0  0  0  0  0  0
   -2.1676   -0.0778   -2.3384 C   0  0  0  0  0  0  0  0  0  0  0  0
   -2.4762    0.5907   -1.5435 H   0  0  0  0  0  0  0  0  0  0  0  0
   -1.4018    1.0238    0.4329 C   0  0  0  0  0  0  0  0  0  0  0  0
   -2.2416    1.5423   -0.3033 O   0  0  0  0  0  0  0  0  0  0  0  0
   -0.6927    1.7304    1.3223 N   0  0  0  0  0  0  0  0  0  0  0  0
    0.0178    1.2410    1.8469 H   0  0  0  0  0  0  0  0  0  0  0  0
   -0.8259    3.1712    1.5254 C   0  0  0  0  0  0  0  0  0  0  0  0
   -1.8769    3.4302    1.6645 H   0  0  0  0  0  0  0  0  0  0  0  0
   -0.2598    3.4806    2.4054 H   0  0  0  0  0  0  0  0  0  0  0  0
   -0.4486    3.7020    0.6489 H   0  0  0  0  0  0  0  0  0  0  0  0
  5  6  2  0  0  0  0
  5  7  1  0  0  0  0
  2  3  1  0  0  0  0
  2  4  1  0  0  0  0
  2  5  1  0  0  0  0
  1  2  1  0  0  0  0
 26 27  2  0  0  0  0
 26 28  1  0  0  0  0
 24 25  1  0  0  0  0
 22 23  1  0  0  0  0
 22 24  2  0  0  0  0
 20 21  1  0  0  0  0
 19 20  1  0  0  0  0
 19 22  1  0  0  0  0
 17 18  1  0  0  0  0
 17 19  2  0  0  0  0
 15 16  1  0  0  0  0
 15 17  1  0  0  0  0
 14 15  2  0  0  0  0
 14 24  1  0  0  0  0
 11 12  1  0  0  0  0
 11 13  1  0  0  0  0
 11 14  1  0  0  0  0
  9 10  1  0  0  0  0
  9 11  1  0  0  0  0
  9 26  1  0  0  0  0
  7  8  1  0  0  0  0
  7  9  1  0  0  0  0
 30 31  1  0  0  0  0
 30 32  1  0  0  0  0
 30 33  1  0  0  0  0
 28 29  1  0  0  0  0
 28 30  1  0  0  0  0
M  END
$$$$
default_name
  -OEChem-02102213163D

 33 33  0     1  0  0  0  0  0999 V2000
   -4.0702   -3.8485    1.4554 H   0  0  0  0  0  0  0  0  0  0  0  0
   -4.0012   -2.9605    0.8284 C   0  0  0  0  0  0  0  0  0  0  0  0
   -4.7652   -2.2435    1.1234 H   0  0  0  0  0  0  0  0  0  0  0  0
   -4.1352   -3.2385   -0.2156 H   0  0  0  0  0  0  0  0  0  0  0  0
   -2.6362   -2.3395    1.0094 C   0  0  0  0  0  0  0  0  0  0  0  0
   -1.8292   -2.8395    1.7814 O   0  0  0  0  0  0  0  0  0  0  0  0
   -2.3832   -1.2445    0.2964 N   0  0  0  0  0  0  0  0  0  0  0  0
   -3.1102   -0.8685   -0.2946 H   0  0  0  0  0  0  0  0  0  0  0  0
   -1.1292   -0.4875    0.3524 C   0  0  1  0  0  0  0  0  0  0  0  0
   -0.5898   -0.7762    1.2552 H   0  0  0  0  0  0  0  0  0  0  0  0
   -0.2608   -0.8470   -0.8656 C   0  0  0  0  0  0  0  0  0  0  0  0
    0.5400   -0.1123   -0.9591 H   0  0  0  0  0  0  0  0  0  0  0  0
    0.2054   -1.8184   -0.6927 H   0  0  0  0  0  0  0  0  0  0  0  0
   -1.0230   -0.8819   -2.1762 C   0  0  0  0  0  0  0  0  0  0  0  0
   -0.8301   -1.9432   -3.0832 C   0  0  0  0  0  0  0  0  0  0  0  0
   -0.1162   -2.7247   -2.8580 H   0  0  0  0  0  0  0  0  0  0  0  0
   -1.5701   -1.9923   -4.2806 C   0  0  0  0  0  0  0  0  0  0  0  0
   -1.4187   -2.8056   -4.9736 H   0  0  0  0  0  0  0  0  0  0  0  0
   -2.5090   -0.9781   -4.5698 C   0  0  0  0  0  0  0  0  0  0  0  0
   -3.2297   -1.0180   -5.7204 O   0  0  0  0  0  0  0  0  0  0  0  0
   -2.9496   -1.7296   -6.2975 H   0  0  0  0  0  0  0  0  0  0  0  0
   -2.7042    0.0805   -3.6587 C   0  0  0  0  0  0  0  0  0  0  0  0
   -3.4218    0.8523   -3.8931 H   0  0  0  0  0  0  0  0  0  0  0  0
   -1.9597    0.1292   -2.4648 C   0  0  0  0  0  0  0  0  0  0  0  0
   -2.1036    0.9478   -1.7697 H   0  0  0  0  0  0  0  0  0  0  0  0
   -1.4018    1.0238    0.4329 C   0  0  0  0  0  0  0  0  0  0  0  0
   -2.2416    1.5423   -0.3033 O   0  0  0  0  0  0  0  0  0  0  0  0
   -0.6927    1.7304    1.3223 N   0  0  0  0  0  0  0  0  0  0  0  0
    0.0178    1.2410    1.8469 H   0  0  0  0  0  0  0  0  0  0  0  0
   -0.8259    3.1712    1.5254 C   0  0  0  0  0  0  0  0  0  0  0  0
   -1.8769    3.4302    1.6645 H   0  0  0  0  0  0  0  0  0  0  0  0
   -0.2598    3.4806    2.4054 H   0  0  0  0  0  0  0  0  0  0  0  0
   -0.4486    3.7020    0.6489 H   0  0  0  0  0  0  0  0  0  0  0  0
  5  6  2  0  0  0  0
  5  7  1  0  0  0  0
  2  3  1  0  0  0  0
  2  4  1  0  0  0  0
  2  5  1  0  0  0  0
  1  2  1  0  0  0  0
 26 27  2  0  0  0  0
 26 28  1  0  0  0  0
 24 25  1  0  0  0  0
 22 23  1  0  0  0  0
 22 24  2  0  0  0  0
 20 21  1  0  0  0  0
 19 20  1  0  0  0  0
 19 22  1  0  0  0  0
 17 18  1  0  0  0  0
 17 19  2  0  0  0  0
 15 16  1  0  0  0  0
 15 17  1  0  0  0  0
 14 15  2  0  0  0  0
 14 24  1  0  0  0  0
 11 12  1  0  0  0  0
 11 13  1  0  0  0  0
 11 14  1  0  0  0  0
  9 10  1  0  0  0  0
  9 11  1  0  0  0  0
  9 26  1  0  0  0  0
  7  8  1  0  0  0  0
  7  9  1  0  0  0  0
 30 31  1  0  0  0  0
 30 32  1  0  0  0  0
 30 33  1  0  0  0  0
 28 29  1  0  0  0  0
 28 30  1  0  0  0  0
M  END
$$$$
default_name
  -OEChem-02102213163D

 33 33  0     1  0  0  0  0  0999 V2000
   -4.0702   -3.8485    1.4554 H   0  0  0  0  0  0  0  0  0  0  0  0
   -4.0012   -2.9605    0.8284 C   0  0  0  0  0  0  0  0  0  0  0  0
   -4.7652   -2.2435    1.1234 H   0  0  0  0  0  0  0  0  0  0  0  0
   -4.1352   -3.2385   -0.2156 H   0  0  0  0  0  0  0  0  0  0  0  0
   -2.6362   -2.3395    1.0094 C   0  0  0  0  0  0  0  0  0  0  0  0
   -1.8292   -2.8395    1.7814 O   0  0  0  0  0  0  0  0  0  0  0  0
   -2.3832   -1.2445    0.2964 N   0  0  0  0  0  0  0  0  0  0  0  0
   -3.1102   -0.8685   -0.2946 H   0  0  0  0  0  0  0  0  0  0  0  0
   -1.1292   -0.4875    0.3524 C   0  0  1  0  0  0  0  0  0  0  0  0
   -0.5898   -0.7762    1.2552 H   0  0  0  0  0  0  0  0  0  0  0  0
   -0.2608   -0.8470   -0.8656 C   0  0  0  0  0  0  0  0  0  0  0  0
    0.5400   -0.1123   -0.9591 H   0  0  0  0  0  0  0  0  0  0  0  0
    0.2054   -1.8184   -0.6927 H   0  0  0  0  0  0  0  0  0  0  0  0
   -1.0230   -0.8819   -2.1762 C   0  0  0  0  0  0  0  0  0  0  0  0
   -1.0808   -2.0687   -2.9340 C   0  0  0  0  0  0  0  0  0  0  0  0
   -0.5583   -2.9536   -2.5949 H   0  0  0  0  0  0  0  0  0  0  0  0
   -1.8236   -2.1075   -4.1301 C   0  0  0  0  0  0  0  0  0  0  0  0
   -1.8644   -3.0175   -4.7087 H   0  0  0  0  0  0  0  0  0  0  0  0
   -2.5138   -0.9560   -4.5675 C   0  0  0  0  0  0  0  0  0  0  0  0
   -3.2353   -0.9840   -5.7181 O   0  0  0  0  0  0  0  0  0  0  0  0
   -3.1269   -1.8095   -6.1923 H   0  0  0  0  0  0  0  0  0  0  0  0
   -2.4589    0.2293   -3.8053 C   0  0  0  0  0  0  0  0  0  0  0  0
   -2.9873    1.1044   -4.1525 H   0  0  0  0  0  0  0  0  0  0  0  0
   -1.7119    0.2662   -2.6126 C   0  0  0  0  0  0  0  0  0  0  0  0
   -1.6625    1.1799   -2.0324 H   0  0  0  0  0  0  0  0  0  0  0  0
   -1.4018    1.0238    0.4329 C   0  0  0  0  0  0  0  0  0  0  0  0
   -2.2416    1.5423   -0.3033 O   0  0  0  0  0  0  0  0  0  0  0  0
   -0.6927    1.7304    1.3223 N   0  0  0  0  0  0  0  0  0  0  0  0
    0.0178    1.2410    1.8469 H   0  0  0  0  0  0  0  0  0  0  0  0
   -0.8259    3.1712    1.5254 C   0  0  0  0  0  0  0  0  0  0  0  0
   -1.8769    3.4302    1.6645 H   0  0  0  0  0  0  0  0  0  0  0  0
   -0.2598    3.4806    2.4054 H   0  0  0  0  0  0  0  0  0  0  0  0
   -0.4486    3.7020    0.6489 H   0  0  0  0  0  0  0  0  0  0  0  0
  5  6  2  0  0  0  0
  5  7  1  0  0  0  0
  2  3  1  0  0  0  0
  2  4  1  0  0  0  0
  2  5  1  0  0  0  0
  1  2  1  0  0  0  0
 26 27  2  0  0  0  0
 26 28  1  0  0  0  0
 24 25  1  0  0  0  0
 22 23  1  0  0  0  0
 22 24  2  0  0  0  0
 20 21  1  0  0  0  0
 19 20  1  0  0  0  0
 19 22  1  0  0  0  0
 17 18  1  0  0  0  0
 17 19  2  0  0  0  0
 15 16  1  0  0  0  0
 15 17  1  0  0  0  0
 14 15  2  0  0  0  0
 14 24  1  0  0  0  0
 11 12  1  0  0  0  0
 11 13  1  0  0  0  0
 11 14  1  0  0  0  0
  9 10  1  0  0  0  0
  9 11  1  0  0  0  0
  9 26  1  0  0  0  0
  7  8  1  0  0  0  0
  7  9  1  0  0  0  0
 30 31  1  0  0  0  0
 30 32  1  0  0  0  0
 30 33  1  0  0  0  0
 28 29  1  0  0  0  0
 28 30  1  0  0  0  0
M  END
$$$$
default_name
  -OEChem-02102213163D

 33 33  0     1  0  0  0  0  0999 V2000
   -4.0702   -3.8485    1.4554 H   0  0  0  0  0  0  0  0  0  0  0  0
   -4.0012   -2.9605    0.8284 C   0  0  0  0  0  0  0  0  0  0  0  0
   -4.7652   -2.2435    1.1234 H   0  0  0  0  0  0  0  0  0  0  0  0
   -4.1352   -3.2385   -0.2156 H   0  0  0  0  0  0  0  0  0  0  0  0
   -2.6362   -2.3395    1.0094 C   0  0  0  0  0  0  0  0  0  0  0  0
   -1.8292   -2.8395    1.7814 O   0  0  0  0  0  0  0  0  0  0  0  0
   -2.3832   -1.2445    0.2964 N   0  0  0  0  0  0  0  0  0  0  0  0
   -3.1102   -0.8685   -0.2946 H   0  0  0  0  0  0  0  0  0  0  0  0
   -1.1292   -0.4875    0.3524 C   0  0  1  0  0  0  0  0  0  0  0  0
   -0.5898   -0.7762    1.2552 H   0  0  0  0  0  0  0  0  0  0  0  0
   -0.2608   -0.8470   -0.8656 C   0  0  0  0  0  0  0  0  0  0  0  0
    0.5400   -0.1123   -0.9591 H   0  0  0  0  0  0  0  0  0  0  0  0
    0.2054   -1.8184   -0.6927 H   0  0  0  0  0  0  0  0  0  0  0  0
   -1.0230   -0.8819   -2.1762 C   0  0  0  0  0  0  0  0  0  0  0  0
   -1.3520   -2.1145   -2.7751 C   0  0  0  0  0  0  0  0  0  0  0  0
   -1.0380   -3.0416   -2.3135 H   0  0  0  0  0  0  0  0  0  0  0  0
   -2.0951   -2.1425   -3.9713 C   0  0  0  0  0  0  0  0  0  0  0  0
   -2.3439   -3.0881   -4.4280 H   0  0  0  0  0  0  0  0  0  0  0  0
   -2.5136   -0.9333   -4.5683 C   0  0  0  0  0  0  0  0  0  0  0  0
   -3.2331   -0.9497   -5.7203 O   0  0  0  0  0  0  0  0  0  0  0  0
   -3.3166   -1.8333   -6.0813 H   0  0  0  0  0  0  0  0  0  0  0  0
   -2.1877    0.2990   -3.9649 C   0  0  0  0  0  0  0  0  0  0  0  0
   -2.5096    1.2169   -4.4333 H   0  0  0  0  0  0  0  0  0  0  0  0
   -1.4409    0.3238   -2.7717 C   0  0  0  0  0  0  0  0  0  0  0  0
   -1.1829    1.2713   -2.3137 H   0  0  0  0  0  0  0  0  0  0  0  0
   -1.4018    1.0238    0.4329 C   0  0  0  0  0  0  0  0  0  0  0  0
   -2.2416    1.5423   -0.3033 O   0  0  0  0  0  0  0  0  0  0  0  0
   -0.6927    1.7304    1.3223 N   0  0  0  0  0  0  0  0  0  0  0  0
    0.0178    1.2410    1.8469 H   0  0  0  0  0  0  0  0  0  0  0  0
   -0.8259    3.1712    1.5254 C   0  0  0  0  0  0  0  0  0  0  0  0
   -1.8769    3.4302    1.6645 H   0  0  0  0  0  0  0  0  0  0  0  0
   -0.2598    3.4806    2.4054 H   0  0  0  0  0  0  0  0  0  0  0  0
   -0.4486    3.7020    0.6489 H   0  0  0  0  0  0  0  0  0  0  0  0
  5  6  2  0  0  0  0
  5  7  1  0  0  0  0
  2  3  1  0  0  0  0
  2  4  1  0  0  0  0
  2  5  1  0  0  0  0
  1  2  1  0  0  0  0
 26 27  2  0  0  0  0
 26 28  1  0  0  0  0
 24 25  1  0  0  0  0
 22 23  1  0  0  0  0
 22 24  2  0  0  0  0
 20 21  1  0  0  0  0
 19 20  1  0  0  0  0
 19 22  1  0  0  0  0
 17 18  1  0  0  0  0
 17 19  2  0  0  0  0
 15 16  1  0  0  0  0
 15 17  1  0  0  0  0
 14 15  2  0  0  0  0
 14 24  1  0  0  0  0
 11 12  1  0  0  0  0
 11 13  1  0  0  0  0
 11 14  1  0  0  0  0
  9 10  1  0  0  0  0
  9 11  1  0  0  0  0
  9 26  1  0  0  0  0
  7  8  1  0  0  0  0
  7  9  1  0  0  0  0
 30 31  1  0  0  0  0
 30 32  1  0  0  0  0
 30 33  1  0  0  0  0
 28 29  1  0  0  0  0
 28 30  1  0  0  0  0
M  END
$$$$
default_name
  -OEChem-02102213163D

 33 33  0     1  0  0  0  0  0999 V2000
   -4.0702   -3.8485    1.4554 H   0  0  0  0  0  0  0  0  0  0  0  0
   -4.0012   -2.9605    0.8284 C   0  0  0  0  0  0  0  0  0  0  0  0
   -4.7652   -2.2435    1.1234 H   0  0  0  0  0  0  0  0  0  0  0  0
   -4.1352   -3.2385   -0.2156 H   0  0  0  0  0  0  0  0  0  0  0  0
   -2.6362   -2.3395    1.0094 C   0  0  0  0  0  0  0  0  0  0  0  0
   -1.8292   -2.8395    1.7814 O   0  0  0  0  0  0  0  0  0  0  0  0
   -2.3832   -1.2445    0.2964 N   0  0  0  0  0  0  0  0  0  0  0  0
   -3.1102   -0.8685   -0.2946 H   0  0  0  0  0  0  0  0  0  0  0  0
   -1.1292   -0.4875    0.3524 C   0  0  1  0  0  0  0  0  0  0  0  0
   -0.5898   -0.7762    1.2552 H   0  0  0  0  0  0  0  0  0  0  0  0
   -0.2608   -0.8470   -0.8656 C   0  0  0  0  0  0  0  0  0  0  0  0
    0.5400   -0.1123   -0.9591 H   0  0  0  0  0  0  0  0  0  0  0  0
    0.2054   -1.8184   -0.6927 H   0  0  0  0  0  0  0  0  0  0  0  0
   -1.0230   -0.8819   -2.1762 C   0  0  0  0  0  0  0  0  0  0  0  0
   -1.6251   -2.0774   -2.6173 C   0  0  0  0  0  0  0  0  0  0  0  0
   -1.5228   -2.9826   -2.0332 H   0  0  0  0  0  0  0  0  0  0  0  0
   -2.3661   -2.0949   -3.8150 C   0  0  0  0  0  0  0  0  0  0  0  0
   -2.8245   -3.0124   -4.1506 H   0  0  0  0  0  0  0  0  0  0  0  0
   -2.5083   -0.9115   -4.5719 C   0  0  0  0  0  0  0  0  0  0  0  0
   -3.2234   -0.9173   -5.7268 O   0  0  0  0  0  0  0  0  0  0  0  0
   -3.5059   -1.7994   -5.9722 H   0  0  0  0  0  0  0  0  0  0  0  0
   -1.9092    0.2850   -4.1265 C   0  0  0  0  0  0  0  0  0  0  0  0
   -2.0214    1.1823   -4.7163 H   0  0  0  0  0  0  0  0  0  0  0  0
   -1.1654    0.2982   -2.9313 C   0  0  0  0  0  0  0  0  0  0  0  0
   -0.6976    1.2157   -2.5945 H   0  0  0  0  0  0  0  0  0  0  0  0
   -1.4018    1.0238    0.4329 C   0  0  0  0  0  0  0  0  0  0  0  0
   -2.2416    1.5423   -0.3033 O   0  0  0  0  0  0  0  0  0  0  0  0
   -0.6927    1.7304    1.3223 N   0  0  0  0  0  0  0  0  0  0  0  0
    0.0178    1.2410    1.8469 H   0  0  0  0  0  0  0  0  0  0  0  0
   -0.8259    3.1712    1.5254 C   0  0  0  0  0  0  0  0  0  0  0  0
   -1.8769    3.4302    1.6645 H   0  0  0  0  0  0  0  0  0  0  0  0
   -0.2598    3.4806    2.4054 H   0  0  0  0  0  0  0  0  0  0  0  0
   -0.4486    3.7020    0.6489 H   0  0  0  0  0  0  0  0  0  0  0  0
  5  6  2  0  0  0  0
  5  7  1  0  0  0  0
  2  3  1  0  0  0  0
  2  4  1  0  0  0  0
  2  5  1  0  0  0  0
  1  2  1  0  0  0  0
 26 27  2  0  0  0  0
 26 28  1  0  0  0  0
 24 25  1  0  0  0  0
 22 23  1  0  0  0  0
 22 24  2  0  0  0  0
 20 21  1  0  0  0  0
 19 20  1  0  0  0  0
 19 22  1  0  0  0  0
 17 18  1  0  0  0  0
 17 19  2  0  0  0  0
 15 16  1  0  0  0  0
 15 17  1  0  0  0  0
 14 15  2  0  0  0  0
 14 24  1  0  0  0  0
 11 12  1  0  0  0  0
 11 13  1  0  0  0  0
 11 14  1  0  0  0  0
  9 10  1  0  0  0  0
  9 11  1  0  0  0  0
  9 26  1  0  0  0  0
  7  8  1  0  0  0  0
  7  9  1  0  0  0  0
 30 31  1  0  0  0  0
 30 32  1  0  0  0  0
 30 33  1  0  0  0  0
 28 29  1  0  0  0  0
 28 30  1  0  0  0  0
M  END
$$$$
default_name
  -OEChem-02102213163D

 33 33  0     1  0  0  0  0  0999 V2000
   -4.0702   -3.8485    1.4554 H   0  0  0  0  0  0  0  0  0  0  0  0
   -4.0012   -2.9605    0.8284 C   0  0  0  0  0  0  0  0  0  0  0  0
   -4.7652   -2.2435    1.1234 H   0  0  0  0  0  0  0  0  0  0  0  0
   -4.1352   -3.2385   -0.2156 H   0  0  0  0  0  0  0  0  0  0  0  0
   -2.6362   -2.3395    1.0094 C   0  0  0  0  0  0  0  0  0  0  0  0
   -1.8292   -2.8395    1.7814 O   0  0  0  0  0  0  0  0  0  0  0  0
   -2.3832   -1.2445    0.2964 N   0  0  0  0  0  0  0  0  0  0  0  0
   -3.1102   -0.8685   -0.2946 H   0  0  0  0  0  0  0  0  0  0  0  0
   -1.1292   -0.4875    0.3524 C   0  0  1  0  0  0  0  0  0  0  0  0
   -0.5898   -0.7762    1.2552 H   0  0  0  0  0  0  0  0  0  0  0  0
   -0.2608   -0.8470   -0.8656 C   0  0  0  0  0  0  0  0  0  0  0  0
    0.5400   -0.1123   -0.9591 H   0  0  0  0  0  0  0  0  0  0  0  0
    0.2054   -1.8184   -0.6927 H   0  0  0  0  0  0  0  0  0  0  0  0
   -1.0230   -0.8819   -2.1762 C   0  0  0  0  0  0  0  0  0  0  0  0
   -1.8815   -1.9599   -2.4713 C   0  0  0  0  0  0  0  0  0  0  0  0
   -1.9795   -2.7808   -1.7730 H   0  0  0  0  0  0  0  0  0  0  0  0
   -2.6182   -1.9680   -3.6718 C   0  0  0  0  0  0  0  0  0  0  0  0
   -3.2734   -2.7958   -3.8953 H   0  0  0  0  0  0  0  0  0  0  0  0
   -2.4983   -0.8921   -4.5783 C   0  0  0  0  0  0  0  0  0  0  0  0
   -3.2066   -0.8891   -5.7373 O   0  0  0  0  0  0  0  0  0  0  0  0
   -3.6817   -1.7101   -5.8723 H   0  0  0  0  0  0  0  0  0  0  0  0
   -1.6424    0.1881   -4.2790 C   0  0  0  0  0  0  0  0  0  0  0  0
   -1.5559    1.0028   -4.9822 H   0  0  0  0  0  0  0  0  0  0  0  0
   -0.9040    0.1911   -3.0804 C   0  0  0  0  0  0  0  0  0  0  0  0
   -0.2396    1.0169   -2.8555 H   0  0  0  0  0  0  0  0  0  0  0  0
   -1.4018    1.0238    0.4329 C   0  0  0  0  0  0  0  0  0  0  0  0
   -2.2416    1.5423   -0.3033 O   0  0  0  0  0  0  0  0  0  0  0  0
   -0.6927    1.7304    1.3223 N   0  0  0  0  0  0  0  0  0  0  0  0
    0.0178    1.2410    1.8469 H   0  0  0  0  0  0  0  0  0  0  0  0
   -0.8259    3.1712    1.5254 C   0  0  0  0  0  0  0  0  0  0  0  0
   -1.8769    3.4302    1.6645 H   0  0  0  0  0  0  0  0  0  0  0  0
   -0.2598    3.4806    2.4054 H   0  0  0  0  0  0  0  0  0  0  0  0
   -0.4486    3.7020    0.6489 H   0  0  0  0  0  0  0  0  0  0  0  0
  5  6  2  0  0  0  0
  5  7  1  0  0  0  0
  2  3  1  0  0  0  0
  2  4  1  0  0  0  0
  2  5  1  0  0  0  0
  1  2  1  0  0  0  0
 26 27  2  0  0  0  0
 26 28  1  0  0  0  0
 24 25  1  0  0  0  0
 22 23  1  0  0  0  0
 22 24  2  0  0  0  0
 20 21  1  0  0  0  0
 19 20  1  0  0  0  0
 19 22  1  0  0  0  0
 17 18  1  0  0  0  0
 17 19  2  0  0  0  0
 15 16  1  0  0  0  0
 15 17  1  0  0  0  0
 14 15  2  0  0  0  0
 14 24  1  0  0  0  0
 11 12  1  0  0  0  0
 11 13  1  0  0  0  0
 11 14  1  0  0  0  0
  9 10  1  0  0  0  0
  9 11  1  0  0  0  0
  9 26  1  0  0  0  0
  7  8  1  0  0  0  0
  7  9  1  0  0  0  0
 30 31  1  0  0  0  0
 30 32  1  0  0  0  0
 30 33  1  0  0  0  0
 28 29  1  0  0  0  0
 28 30  1  0  0  0  0
M  END
$$$$
default_name
  -OEChem-02102213163D

 33 33  0     1  0  0  0  0  0999 V2000
   -4.0702   -3.8485    1.4554 H   0  0  0  0  0  0  0  0  0  0  0  0
   -4.0012   -2.9605    0.8284 C   0  0  0  0  0  0  0  0  0  0  0  0
   -4.7652   -2.2435    1.1234 H   0  0  0  0  0  0  0  0  0  0  0  0
   -4.1352   -3.2385   -0.2156 H   0  0  0  0  0  0  0  0  0  0  0  0
   -2.6362   -2.3395    1.0094 C   0  0  0  0  0  0  0  0  0  0  0  0
   -1.8292   -2.8395    1.7814 O   0  0  0  0  0  0  0  0  0  0  0  0
   -2.3832   -1.2445    0.2964 N   0  0  0  0  0  0  0  0  0  0  0  0
   -3.1102   -0.8685   -0.2946 H   0  0  0  0  0  0  0  0  0  0  0  0
   -1.1292   -0.4875    0.3524 C   0  0  1  0  0  0  0  0  0  0  0  0
   -0.5898   -0.7762    1.2552 H   0  0  0  0  0  0  0  0  0  0  0  0
   -0.2608   -0.8470   -0.8656 C   0  0  0  0  0  0  0  0  0  0  0  0
    0.5400   -0.1123   -0.9591 H   0  0  0  0  0  0  0  0  0  0  0  0
    0.2054   -1.8184   -0.6927 H   0  0  0  0  0  0  0  0  0  0  0  0
   -1.0230   -0.8819   -2.1762 C   0  0  0  0  0  0  0  0  0  0  0  0
   -2.1038   -1.7701   -2.3471 C   0  0  0  0  0  0  0  0  0  0  0  0
   -2.3770   -2.4498   -1.5506 H   0  0  0  0  0  0  0  0  0  0  0  0
   -2.8341   -1.7704   -3.5515 C   0  0  0  0  0  0  0  0  0  0  0  0
   -3.6602   -2.4529   -3.6795 H   0  0  0  0  0  0  0  0  0  0  0  0
   -2.4842   -0.8765   -4.5869 C   0  0  0  0  0  0  0  0  0  0  0  0
   -3.1841   -0.8669   -5.7510 O   0  0  0  0  0  0  0  0  0  0  0  0
   -3.8323   -1.5715   -5.7884 H   0  0  0  0  0  0  0  0  0  0  0  0
   -1.4055    0.0150   -4.4122 C   0  0  0  0  0  0  0  0  0  0  0  0
   -1.1448    0.6907   -5.2129 H   0  0  0  0  0  0  0  0  0  0  0  0
   -0.6746    0.0097   -3.2090 C   0  0  0  0  0  0  0  0  0  0  0  0
    0.1599    0.6885   -3.0791 H   0  0  0  0  0  0  0  0  0  0  0  0
   -1.4018    1.0238    0.4329 C   0  0  0  0  0  0  0  0  0  0  0  0
   -2.2416    1.5423   -0.3033 O   0  0  0  0  0  0  0  0  0  0  0  0
   -0.6927    1.7304    1.3223 N   0  0  0  0  0  0  0  0  0  0  0  0
    0.0178    1.2410    1.8469 H   0  0  0  0  0  0  0  0  0  0  0  0
   -0.8259    3.1712    1.5254 C   0  0  0  0  0  0  0  0  0  0  0  0
   -1.8769    3.4302    1.6645 H   0  0  0  0  0  0  0  0  0  0  0  0
   -0.2598    3.4806    2.4054 H   0  0  0  0  0  0  0  0  0  0  0  0
   -0.4486    3.7020    0.6489 H   0  0  0  0  0  0  0  0  0  0  0  0
  5  6  2  0  0  0  0
  5  7  1  0  0  0  0
  2  3  1  0  0  0  0
  2  4  1  0  0  0  0
  2  5  1  0  0  0  0
  1  2  1  0  0  0  0
 26 27  2  0  0  0  0
 26 28  1  0  0  0  0
 24 25  1  0  0  0  0
 22 23  1  0  0  0  0
 22 24  2  0  0  0  0
 20 21  1  0  0  0  0
 19 20  1  0  0  0  0
 19 22  1  0  0  0  0
 17 18  1  0  0  0  0
 17 19  2  0  0  0  0
 15 16  1  0  0  0  0
 15 17  1  0  0  0  0
 14 15  2  0  0  0  0
 14 24  1  0  0  0  0
 11 12  1  0  0  0  0
 11 13  1  0  0  0  0
 11 14  1  0  0  0  0
  9 10  1  0  0  0  0
  9 11  1  0  0  0  0
  9 26  1  0  0  0  0
  7  8  1  0  0  0  0
  7  9  1  0  0  0  0
 30 31  1  0  0  0  0
 30 32  1  0  0  0  0
 30 33  1  0  0  0  0
 28 29  1  0  0  0  0
 28 30  1  0  0  0  0
M  END
$$$$
default_name
  -OEChem-02102213163D

 33 33  0     1  0  0  0  0  0999 V2000
   -4.0702   -3.8485    1.4554 H   0  0  0  0  0  0  0  0  0  0  0  0
   -4.0012   -2.9605    0.8284 C   0  0  0  0  0  0  0  0  0  0  0  0
   -4.7652   -2.2435    1.1234 H   0  0  0  0  0  0  0  0  0  0  0  0
   -4.1352   -3.2385   -0.2156 H   0  0  0  0  0  0  0  0  0  0  0  0
   -2.6362   -2.3395    1.0094 C   0  0  0  0  0  0  0  0  0  0  0  0
   -1.8292   -2.8395    1.7814 O   0  0  0  0  0  0  0  0  0  0  0  0
   -2.3832   -1.2445    0.2964 N   0  0  0  0  0  0  0  0  0  0  0  0
   -3.1102   -0.8685   -0.2946 H   0  0  0  0  0  0  0  0  0  0  0  0
   -1.1292   -0.4875    0.3524 C   0  0  1  0  0  0  0  0  0  0  0  0
   -0.5898   -0.7762    1.2552 H   0  0  0  0  0  0  0  0  0  0  0  0
   -0.2608   -0.8470   -0.8656 C   0  0  0  0  0  0  0  0  0  0  0  0
    0.5400   -0.1123   -0.9591 H   0  0  0  0  0  0  0  0  0  0  0  0
    0.2054   -1.8184   -0.6927 H   0  0  0  0  0  0  0  0  0  0  0  0
   -1.0230   -0.8819   -2.1762 C   0  0  0  0  0  0  0  0  0  0  0  0
   -2.2768   -1.5209   -2.2531 C   0  0  0  0  0  0  0  0  0  0  0  0
   -2.6884   -2.0123   -1.3812 H   0  0  0  0  0  0  0  0  0  0  0  0
   -2.9992   -1.5156   -3.4622 C   0  0  0  0  0  0  0  0  0  0  0  0
   -3.9583   -2.0072   -3.5180 H   0  0  0  0  0  0  0  0  0  0  0  0
   -2.4671   -0.8656   -4.5971 C   0  0  0  0  0  0  0  0  0  0  0  0
   -3.1573   -0.8523   -5.7670 O   0  0  0  0  0  0  0  0  0  0  0  0
   -3.9471   -1.3931   -5.7264 H   0  0  0  0  0  0  0  0  0  0  0  0
   -1.2145   -0.2225   -4.5169 C   0  0  0  0  0  0  0  0  0  0  0  0
   -0.8162    0.2672   -5.3927 H   0  0  0  0  0  0  0  0  0  0  0  0
   -0.4928   -0.2335   -3.3082 C   0  0  0  0  0  0  0  0  0  0  0  0
    0.4737    0.2528   -3.2500 H   0  0  0  0  0  0  0  0  0  0  0  0
   -1.4018    1.0238    0.4329 C   0  0  0  0  0  0  0  0  0  0  0  0
   -2.2416    1.5423   -0.3033 O   0  0  0  0  0  0  0  0  0  0  0  0
   -0.6927    1.7304    1.3223 N   0  0  0  0  0  0  0  0  0  0  0  0
    0.0178    1.2410    1.8469 H   0  0  0  0  0  0  0  0  0  0  0  0
   -0.8259    3.1712    1.5254 C   0  0  0  0  0  0  0  0  0  0  0  0
   -1.8769    3.4302    1.6645 H   0  0  0  0  0  0  0  0  0  0  0  0
   -0.2598    3.4806    2.4054 H   0  0  0  0  0  0  0  0  0  0  0  0
   -0.4486    3.7020    0.6489 H   0  0  0  0  0  0  0  0  0  0  0  0
  5  6  2  0  0  0  0
  5  7  1  0  0  0  0
  2  3  1  0  0  0  0
  2  4  1  0  0  0  0
  2  5  1  0  0  0  0
  1  2  1  0  0  0  0
 26 27  2  0  0  0  0
 26 28  1  0  0  0  0
 24 25  1  0  0  0  0
 22 23  1  0  0  0  0
 22 24  2  0  0  0  0
 20 21  1  0  0  0  0
 19 20  1  0  0  0  0
 19 22  1  0  0  0  0
 17 18  1  0  0  0  0
 17 19  2  0  0  0  0
 15 16  1  0  0  0  0
 15 17  1  0  0  0  0
 14 15  2  0  0  0  0
 14 24  1  0  0  0  0
 11 12  1  0  0  0  0
 11 13  1  0  0  0  0
 11 14  1  0  0  0  0
  9 10  1  0  0  0  0
  9 11  1  0  0  0  0
  9 26  1  0  0  0  0
  7  8  1  0  0  0  0
  7  9  1  0  0  0  0
 30 31  1  0  0  0  0
 30 32  1  0  0  0  0
 30 33  1  0  0  0  0
 28 29  1  0  0  0  0
 28 30  1  0  0  0  0
M  END
$$$$
default_name
  -OEChem-02102213163D

 33 33  0     1  0  0  0  0  0999 V2000
   -4.0702   -3.8485    1.4554 H   0  0  0  0  0  0  0  0  0  0  0  0
   -4.0012   -2.9605    0.8284 C   0  0  0  0  0  0  0  0  0  0  0  0
   -4.7652   -2.2435    1.1234 H   0  0  0  0  0  0  0  0  0  0  0  0
   -4.1352   -3.2385   -0.2156 H   0  0  0  0  0  0  0  0  0  0  0  0
   -2.6362   -2.3395    1.0094 C   0  0  0  0  0  0  0  0  0  0  0  0
   -1.8292   -2.8395    1.7814 O   0  0  0  0  0  0  0  0  0  0  0  0
   -2.3832   -1.2445    0.2964 N   0  0  0  0  0  0  0  0  0  0  0  0
   -3.1102   -0.8685   -0.2946 H   0  0  0  0  0  0  0  0  0  0  0  0
   -1.1292   -0.4875    0.3524 C   0  0  1  0  0  0  0  0  0  0  0  0
   -0.5898   -0.7762    1.2552 H   0  0  0  0  0  0  0  0  0  0  0  0
   -0.2608   -0.8470   -0.8656 C   0  0  0  0  0  0  0  0  0  0  0  0
    0.5400   -0.1123   -0.9591 H   0  0  0  0  0  0  0  0  0  0  0  0
    0.2054   -1.8184   -0.6927 H   0  0  0  0  0  0  0  0  0  0  0  0
   -1.0230   -0.8819   -2.1762 C   0  0  0  0  0  0  0  0  0  0  0  0
   -2.3887   -1.2292   -2.1958 C   0  0  0  0  0  0  0  0  0  0  0  0
   -2.8922   -1.4980   -1.2764 H   0  0  0  0  0  0  0  0  0  0  0  0
   -3.1022   -1.2209   -3.4102 C   0  0  0  0  0  0  0  0  0  0  0  0
   -4.1475   -1.4889   -3.4218 H   0  0  0  0  0  0  0  0  0  0  0  0
   -2.4480   -0.8603   -4.6084 C   0  0  0  0  0  0  0  0  0  0  0  0
   -3.1280   -0.8463   -5.7842 O   0  0  0  0  0  0  0  0  0  0  0  0
   -4.0186   -1.1870   -5.6903 H   0  0  0  0  0  0  0  0  0  0  0  0
   -1.0826   -0.5083   -4.5861 C   0  0  0  0  0  0  0  0  0  0  0  0
   -0.5924   -0.2387   -5.5094 H   0  0  0  0  0  0  0  0  0  0  0  0
   -0.3710   -0.5220   -3.3714 C   0  0  0  0  0  0  0  0  0  0  0  0
    0.6804   -0.2604   -3.3564 H   0  0  0  0  0  0  0  0  0  0  0  0
   -1.4018    1.0238    0.4329 C   0  0  0  0  0  0  0  0  0  0  0  0
   -2.2416    1.5423   -0.3033 O   0  0  0  0  0  0  0  0  0  0  0  0
   -0.6927    1.7304    1.3223 N   0  0  0  0  0  0  0  0  0  0  0  0
    0.0178    1.2410    1.8469 H   0  0  0  0  0  0  0  0  0  0  0  0
   -0.8259    3.1712    1.5254 C   0  0  0  0  0  0  0  0  0  0  0  0
   -1.8769    3.4302    1.6645 H   0  0  0  0  0  0  0  0  0  0  0  0
   -0.2598    3.4806    2.4054 H   0  0  0  0  0  0  0  0  0  0  0  0
   -0.4486    3.7020    0.6489 H   0  0  0  0  0  0  0  0  0  0  0  0
  5  6  2  0  0  0  0
  5  7  1  0  0  0  0
  2  3  1  0  0  0  0
  2  4  1  0  0  0  0
  2  5  1  0  0  0  0
  1  2  1  0  0  0  0
 26 27  2  0  0  0  0
 26 28  1  0  0  0  0
 24 25  1  0  0  0  0
 22 23  1  0  0  0  0
 22 24  2  0  0  0  0
 20 21  1  0  0  0  0
 19 20  1  0  0  0  0
 19 22  1  0  0  0  0
 17 18  1  0  0  0  0
 17 19  2  0  0  0  0
 15 16  1  0  0  0  0
 15 17  1  0  0  0  0
 14 15  2  0  0  0  0
 14 24  1  0  0  0  0
 11 12  1  0  0  0  0
 11 13  1  0  0  0  0
 11 14  1  0  0  0  0
  9 10  1  0  0  0  0
  9 11  1  0  0  0  0
  9 26  1  0  0  0  0
  7  8  1  0  0  0  0
  7  9  1  0  0  0  0
 30 31  1  0  0  0  0
 30 32  1  0  0  0  0
 30 33  1  0  0  0  0
 28 29  1  0  0  0  0
 28 30  1  0  0  0  0
M  END
$$$$
default_name
  -OEChem-02102213163D

 33 33  0     1  0  0  0  0  0999 V2000
   -4.0702   -3.8485    1.4554 H   0  0  0  0  0  0  0  0  0  0  0  0
   -4.0012   -2.9605    0.8284 C   0  0  0  0  0  0  0  0  0  0  0  0
   -4.7652   -2.2435    1.1234 H   0  0  0  0  0  0  0  0  0  0  0  0
   -4.1352   -3.2385   -0.2156 H   0  0  0  0  0  0  0  0  0  0  0  0
   -2.6362   -2.3395    1.0094 C   0  0  0  0  0  0  0  0  0  0  0  0
   -1.8292   -2.8395    1.7814 O   0  0  0  0  0  0  0  0  0  0  0  0
   -2.3832   -1.2445    0.2964 N   0  0  0  0  0  0  0  0  0  0  0  0
   -3.1102   -0.8685   -0.2946 H   0  0  0  0  0  0  0  0  0  0  0  0
   -1.1292   -0.4875    0.3524 C   0  0  1  0  0  0  0  0  0  0  0  0
   -0.5898   -0.7762    1.2552 H   0  0  0  0  0  0  0  0  0  0  0  0
   -0.2608   -0.8470   -0.8656 C   0  0  0  0  0  0  0  0  0  0  0  0
    0.5400   -0.1123   -0.9591 H   0  0  0  0  0  0  0  0  0  0  0  0
    0.2054   -1.8184   -0.6927 H   0  0  0  0  0  0  0  0  0  0  0  0
   -1.0230   -0.8819   -2.1762 C   0  0  0  0  0  0  0  0  0  0  0  0
   -2.4319   -0.9150   -2.1791 C   0  0  0  0  0  0  0  0  0  0  0  0
   -2.9747   -0.9420   -1.2433 H   0  0  0  0  0  0  0  0  0  0  0  0
   -3.1361   -0.9065   -3.3989 C   0  0  0  0  0  0  0  0  0  0  0  0
   -4.2150   -0.9334   -3.3974 H   0  0  0  0  0  0  0  0  0  0  0  0
   -2.4284   -0.8608   -4.6198 C   0  0  0  0  0  0  0  0  0  0  0  0
   -3.0983   -0.8493   -5.8014 O   0  0  0  0  0  0  0  0  0  0  0  0
   -4.0417   -0.9672   -5.6828 H   0  0  0  0  0  0  0  0  0  0  0  0
   -1.0186   -0.8228   -4.6149 C   0  0  0  0  0  0  0  0  0  0  0  0
   -0.4887   -0.7926   -5.5550 H   0  0  0  0  0  0  0  0  0  0  0  0
   -0.3175   -0.8361   -3.3941 C   0  0  0  0  0  0  0  0  0  0  0  0
    0.7658   -0.8163   -3.3913 H   0  0  0  0  0  0  0  0  0  0  0  0
   -1.4018    1.0238    0.4329 C   0  0  0  0  0  0  0  0  0  0  0  0
   -2.2416    1.5423   -0.3033 O   0  0  0  0  0  0  0  0  0  0  0  0
   -0.6927    1.7304    1.3223 N   0  0  0  0  0  0  0  0  0  0  0  0
    0.0178    1.2410    1.8469 H   0  0  0  0  0  0  0  0  0  0  0  0
   -0.8259    3.1712    1.5254 C   0  0  0  0  0  0  0  0  0  0  0  0
   -1.8769    3.4302    1.6645 H   0  0  0  0  0  0  0  0  0  0  0  0
   -0.2598    3.4806    2.4054 H   0  0  0  0  0  0  0  0  0  0  0  0
   -0.4486    3.7020    0.6489 H   0  0  0  0  0  0  0  0  0  0  0  0
  5  6  2  0  0  0  0
  5  7  1  0  0  0  0
  2  3  1  0  0  0  0
  2  4  1  0  0  0  0
  2  5  1  0  0  0  0
  1  2  1  0  0  0  0
 26 27  2  0  0  0  0
 26 28  1  0  0  0  0
 24 25  1  0  0  0  0
 22 23  1  0  0  0  0
 22 24  2  0  0  0  0
 20 21  1  0  0  0  0
 19 20  1  0  0  0  0
 19 22  1  0  0  0  0
 17 18  1  0  0  0  0
 17 19  2  0  0  0  0
 15 16  1  0  0  0  0
 15 17  1  0  0  0  0
 14 15  2  0  0  0  0
 14 24  1  0  0  0  0
 11 12  1  0  0  0  0
 11 13  1  0  0  0  0
 11 14  1  0  0  0  0
  9 10  1  0  0  0  0
  9 11  1  0  0  0  0
  9 26  1  0  0  0  0
  7  8  1  0  0  0  0
  7  9  1  0  0  0  0
 30 31  1  0  0  0  0
 30 32  1  0  0  0  0
 30 33  1  0  0  0  0
 28 29  1  0  0  0  0
 28 30  1  0  0  0  0
M  END
$$$$
default_name
  -OEChem-02102213163D

 33 33  0     1  0  0  0  0  0999 V2000
   -4.0702   -3.8485    1.4554 H   0  0  0  0  0  0  0  0  0  0  0  0
   -4.0012   -2.9605    0.8284 C   0  0  0  0  0  0  0  0  0  0  0  0
   -4.7652   -2.2435    1.1234 H   0  0  0  0  0  0  0  0  0  0  0  0
   -4.1352   -3.2385   -0.2156 H   0  0  0  0  0  0  0  0  0  0  0  0
   -2.6362   -2.3395    1.0094 C   0  0  0  0  0  0  0  0  0  0  0  0
   -1.8292   -2.8395    1.7814 O   0  0  0  0  0  0  0  0  0  0  0  0
   -2.3832   -1.2445    0.2964 N   0  0  0  0  0  0  0  0  0  0  0  0
   -3.1102   -0.8685   -0.2946 H   0  0  0  0  0  0  0  0  0  0  0  0
   -1.1292   -0.4875    0.3524 C   0  0  1  0  0  0  0  0  0  0  0  0
   -0.5898   -0.7762    1.2552 H   0  0  0  0  0  0  0  0  0  0  0  0
   -0.2608   -0.8470   -0.8656 C   0  0  0  0  0  0  0  0  0  0  0  0
    0.5400   -0.1123   -0.9591 H   0  0  0  0  0  0  0  0  0  0  0  0
    0.2054   -1.8184   -0.6927 H   0  0  0  0  0  0  0  0  0  0  0  0
   -1.0230   -0.8819   -2.1762 C   0  0  0  0  0  0  0  0  0  0  0  0
   -2.4035   -0.5997   -2.2040 C   0  0  0  0  0  0  0  0  0  0  0  0
   -2.9302   -0.3822   -1.2841 H   0  0  0  0  0  0  0  0  0  0  0  0
   -3.0986   -0.5937   -3.4290 C   0  0  0  0  0  0  0  0  0  0  0  0
   -4.1560   -0.3786   -3.4465 H   0  0  0  0  0  0  0  0  0  0  0  0
   -2.4095   -0.8673   -4.6306 C   0  0  0  0  0  0  0  0  0  0  0  0
   -3.0702   -0.8610   -5.8174 O   0  0  0  0  0  0  0  0  0  0  0  0
   -4.0149   -0.7488   -5.7042 H   0  0  0  0  0  0  0  0  0  0  0  0
   -1.0270   -1.1447   -4.6014 C   0  0  0  0  0  0  0  0  0  0  0  0
   -0.5121   -1.3567   -5.5263 H   0  0  0  0  0  0  0  0  0  0  0  0
   -0.3360   -1.1545   -3.3749 C   0  0  0  0  0  0  0  0  0  0  0  0
    0.7242   -1.3768   -3.3522 H   0  0  0  0  0  0  0  0  0  0  0  0
   -1.4018    1.0238    0.4329 C   0  0  0  0  0  0  0  0  0  0  0  0
   -2.2416    1.5423   -0.3033 O   0  0  0  0  0  0  0  0  0  0  0  0
   -0.6927    1.7304    1.3223 N   0  0  0  0  0  0  0  0  0  0  0  0
    0.0178    1.2410    1.8469 H   0  0  0  0  0  0  0  0  0  0  0  0
   -0.8259    3.1712    1.5254 C   0  0  0  0  0  0  0  0  0  0  0  0
   -1.8769    3.4302    1.6645 H   0  0  0  0  0  0  0  0  0  0  0  0
   -0.2598    3.4806    2.4054 H   0  0  0  0  0  0  0  0  0  0  0  0
   -0.4486    3.7020    0.6489 H   0  0  0  0  0  0  0  0  0  0  0  0
  5  6  2  0  0  0  0
  5  7  1  0  0  0  0
  2  3  1  0  0  0  0
  2  4  1  0  0  0  0
  2  5  1  0  0  0  0
  1  2  1  0  0  0  0
 26 27  2  0  0  0  0
 26 28  1  0  0  0  0
 24 25  1  0  0  0  0
 22 23  1  0  0  0  0
 22 24  2  0  0  0  0
 20 21  1  0  0  0  0
 19 20  1  0  0  0  0
 19 22  1  0  0  0  0
 17 18  1  0  0  0  0
 17 19  2  0  0  0  0
 15 16  1  0  0  0  0
 15 17  1  0  0  0  0
 14 15  2  0  0  0  0
 14 24  1  0  0  0  0
 11 12  1  0  0  0  0
 11 13  1  0  0  0  0
 11 14  1  0  0  0  0
  9 10  1  0  0  0  0
  9 11  1  0  0  0  0
  9 26  1  0  0  0  0
  7  8  1  0  0  0  0
  7  9  1  0  0  0  0
 30 31  1  0  0  0  0
 30 32  1  0  0  0  0
 30 33  1  0  0  0  0
 28 29  1  0  0  0  0
 28 30  1  0  0  0  0
M  END
$$$$
default_name
  -OEChem-02102213163D

 33 33  0     1  0  0  0  0  0999 V2000
   -4.0702   -3.8485    1.4554 H   0  0  0  0  0  0  0  0  0  0  0  0
   -4.0012   -2.9605    0.8284 C   0  0  0  0  0  0  0  0  0  0  0  0
   -4.7652   -2.2435    1.1234 H   0  0  0  0  0  0  0  0  0  0  0  0
   -4.1352   -3.2385   -0.2156 H   0  0  0  0  0  0  0  0  0  0  0  0
   -2.6362   -2.3395    1.0094 C   0  0  0  0  0  0  0  0  0  0  0  0
   -1.8292   -2.8395    1.7814 O   0  0  0  0  0  0  0  0  0  0  0  0
   -2.3832   -1.2445    0.2964 N   0  0  0  0  0  0  0  0  0  0  0  0
   -3.1102   -0.8685   -0.2946 H   0  0  0  0  0  0  0  0  0  0  0  0
   -1.1292   -0.4875    0.3524 C   0  0  1  0  0  0  0  0  0  0  0  0
   -0.5898   -0.7762    1.2552 H   0  0  0  0  0  0  0  0  0  0  0  0
   -0.2608   -0.8470   -0.8656 C   0  0  0  0  0  0  0  0  0  0  0  0
    0.5400   -0.1123   -0.9591 H   0  0  0  0  0  0  0  0  0  0  0  0
    0.2054   -1.8184   -0.6927 H   0  0  0  0  0  0  0  0  0  0  0  0
   -1.0230   -0.8819   -2.1762 C   0  0  0  0  0  0  0  0  0  0  0  0
   -2.3053   -0.3047   -2.2690 C   0  0  0  0  0  0  0  0  0  0  0  0
   -2.7618    0.1432   -1.3960 H   0  0  0  0  0  0  0  0  0  0  0  0
   -2.9922   -0.3038   -3.4986 C   0  0  0  0  0  0  0  0  0  0  0  0
   -3.9747    0.1377   -3.5657 H   0  0  0  0  0  0  0  0  0  0  0  0
   -2.3925   -0.8791   -4.6401 C   0  0  0  0  0  0  0  0  0  0  0  0
   -3.0455   -0.8807   -5.8312 O   0  0  0  0  0  0  0  0  0  0  0  0
   -3.9401   -0.5466   -5.7531 H   0  0  0  0  0  0  0  0  0  0  0  0
   -1.1072   -1.4520   -4.5465 C   0  0  0  0  0  0  0  0  0  0  0  0
   -0.6611   -1.8927   -5.4254 H   0  0  0  0  0  0  0  0  0  0  0  0
   -0.4251   -1.4553   -3.3150 C   0  0  0  0  0  0  0  0  0  0  0  0
    0.5585   -1.9039   -3.2417 H   0  0  0  0  0  0  0  0  0  0  0  0
   -1.4018    1.0238    0.4329 C   0  0  0  0  0  0  0  0  0  0  0  0
   -2.2416    1.5423   -0.3033 O   0  0  0  0  0  0  0  0  0  0  0  0
   -0.6927    1.7304    1.3223 N   0  0  0  0  0  0  0  0  0  0  0  0
    0.0178    1.2410    1.8469 H   0  0  0  0  0  0  0  0  0  0  0  0
   -0.8259    3.1712    1.5254 C   0  0  0  0  0  0  0  0  0  0  0  0
   -1.8769    3.4302    1.6645 H   0  0  0  0  0  0  0  0  0  0  0  0
   -0.2598    3.4806    2.4054 H   0  0  0  0  0  0  0  0  0  0  0  0
   -0.4486    3.7020    0.6489 H   0  0  0  0  0  0  0  0  0  0  0  0
  5  6  2  0  0  0  0
  5  7  1  0  0  0  0
  2  3  1  0  0  0  0
  2  4  1  0  0  0  0
  2  5  1  0  0  0  0
  1  2  1  0  0  0  0
 26 27  2  0  0  0  0
 26 28  1  0  0  0  0
 24 25  1  0  0  0  0
 22 23  1  0  0  0  0
 22 24  2  0  0  0  0
 20 21  1  0  0  0  0
 19 20  1  0  0  0  0
 19 22  1  0  0  0  0
 17 18  1  0  0  0  0
 17 19  2  0  0  0  0
 15 16  1  0  0  0  0
 15 17  1  0  0  0  0
 14 15  2  0  0  0  0
 14 24  1  0  0  0  0
 11 12  1  0  0  0  0
 11 13  1  0  0  0  0
 11 14  1  0  0  0  0
  9 10  1  0  0  0  0
  9 11  1  0  0  0  0
  9 26  1  0  0  0  0
  7  8  1  0  0  0  0
  7  9  1  0  0  0  0
 30 31  1  0  0  0  0
 30 32  1  0  0  0  0
 30 33  1  0  0  0  0
 28 29  1  0  0  0  0
 28 30  1  0  0  0  0
M  END
$$$$
default_name
  -OEChem-02102213163D

 33 33  0     1  0  0  0  0  0999 V2000
   -4.0702   -3.8485    1.4554 H   0  0  0  0  0  0  0  0  0  0  0  0
   -4.0012   -2.9605    0.8284 C   0  0  0  0  0  0  0  0  0  0  0  0
   -4.7652   -2.2435    1.1234 H   0  0  0  0  0  0  0  0  0  0  0  0
   -4.1352   -3.2385   -0.2156 H   0  0  0  0  0  0  0  0  0  0  0  0
   -2.6362   -2.3395    1.0094 C   0  0  0  0  0  0  0  0  0  0  0  0
   -1.8292   -2.8395    1.7814 O   0  0  0  0  0  0  0  0  0  0  0  0
   -2.3832   -1.2445    0.2964 N   0  0  0  0  0  0  0  0  0  0  0  0
   -3.1102   -0.8685   -0.2946 H   0  0  0  0  0  0  0  0  0  0  0  0
   -1.1292   -0.4875    0.3524 C   0  0  1  0  0  0  0  0  0  0  0  0
   -0.5898   -0.7762    1.2552 H   0  0  0  0  0  0  0  0  0  0  0  0
   -0.2608   -0.8470   -0.8656 C   0  0  0  0  0  0  0  0  0  0  0  0
    0.5400   -0.1123   -0.9591 H   0  0  0  0  0  0  0  0  0  0  0  0
    0.2054   -1.8184   -0.6927 H   0  0  0  0  0  0  0  0  0  0  0  0
   -1.0230   -0.8819   -2.1762 C   0  0  0  0  0  0  0  0  0  0  0  0
   -2.1442   -0.0502   -2.3695 C   0  0  0  0  0  0  0  0  0  0  0  0
   -2.4809    0.5986   -1.5715 H   0  0  0  0  0  0  0  0  0  0  0  0
   -2.8242   -0.0568   -3.6029 C   0  0  0  0  0  0  0  0  0  0  0  0
   -3.6833    0.5803   -3.7469 H   0  0  0  0  0  0  0  0  0  0  0  0
   -2.3788   -0.8956   -4.6477 C   0  0  0  0  0  0  0  0  0  0  0  0
   -3.0260   -0.9071   -5.8419 O   0  0  0  0  0  0  0  0  0  0  0  0
   -3.8222   -0.3744   -5.8262 H   0  0  0  0  0  0  0  0  0  0  0  0
   -1.2538   -1.7237   -4.4541 C   0  0  0  0  0  0  0  0  0  0  0  0
   -0.9255   -2.3639   -5.2590 H   0  0  0  0  0  0  0  0  0  0  0  0
   -0.5789   -1.7182   -3.2186 C   0  0  0  0  0  0  0  0  0  0  0  0
    0.2798   -2.3615   -3.0675 H   0  0  0  0  0  0  0  0  0  0  0  0
   -1.4018    1.0238    0.4329 C   0  0  0  0  0  0  0  0  0  0  0  0
   -2.2416    1.5423   -0.3033 O   0  0  0  0  0  0  0  0  0  0  0  0
   -0.6927    1.7304    1.3223 N   0  0  0  0  0  0  0  0  0  0  0  0
    0.0178    1.2410    1.8469 H   0  0  0  0  0  0  0  0  0  0  0  0
   -0.8259    3.1712    1.5254 C   0  0  0  0  0  0  0  0  0  0  0  0
   -1.8769    3.4302    1.6645 H   0  0  0  0  0  0  0  0  0  0  0  0
   -0.2598    3.4806    2.4054 H   0  0  0  0  0  0  0  0  0  0  0  0
   -0.4486    3.7020    0.6489 H   0  0  0  0  0  0  0  0  0  0  0  0
  5  6  2  0  0  0  0
  5  7  1  0  0  0  0
  2  3  1  0  0  0  0
  2  4  1  0  0  0  0
  2  5  1  0  0  0  0
  1  2  1  0  0  0  0
 26 27  2  0  0  0  0
 26 28  1  0  0  0  0
 24 25  1  0  0  0  0
 22 23  1  0  0  0  0
 22 24  2  0  0  0  0
 20 21  1  0  0  0  0
 19 20  1  0  0  0  0
 19 22  1  0  0  0  0
 17 18  1  0  0  0  0
 17 19  2  0  0  0  0
 15 16  1  0  0  0  0
 15 17  1  0  0  0  0
 14 15  2  0  0  0  0
 14 24  1  0  0  0  0
 11 12  1  0  0  0  0
 11 13  1  0  0  0  0
 11 14  1  0  0  0  0
  9 10  1  0  0  0  0
  9 11  1  0  0  0  0
  9 26  1  0  0  0  0
  7  8  1  0  0  0  0
  7  9  1  0  0  0  0
 30 31  1  0  0  0  0
 30 32  1  0  0  0  0
 30 33  1  0  0  0  0
 28 29  1  0  0  0  0
 28 30  1  0  0  0  0
M  END
$$$$
default_name
  -OEChem-02102213163D

 33 33  0     1  0  0  0  0  0999 V2000
   -4.0702   -3.8485    1.4554 H   0  0  0  0  0  0  0  0  0  0  0  0
   -4.0012   -2.9605    0.8284 C   0  0  0  0  0  0  0  0  0  0  0  0
   -4.7652   -2.2435    1.1234 H   0  0  0  0  0  0  0  0  0  0  0  0
   -4.1352   -3.2385   -0.2156 H   0  0  0  0  0  0  0  0  0  0  0  0
   -2.6362   -2.3395    1.0094 C   0  0  0  0  0  0  0  0  0  0  0  0
   -1.8292   -2.8395    1.7814 O   0  0  0  0  0  0  0  0  0  0  0  0
   -2.3832   -1.2445    0.2964 N   0  0  0  0  0  0  0  0  0  0  0  0
   -3.1102   -0.8685   -0.2946 H   0  0  0  0  0  0  0  0  0  0  0  0
   -1.1292   -0.4875    0.3524 C   0  0  1  0  0  0  0  0  0  0  0  0
   -0.5898   -0.7762    1.2552 H   0  0  0  0  0  0  0  0  0  0  0  0
   -0.2608   -0.8470   -0.8656 C   0  0  0  0  0  0  0  0  0  0  0  0
    0.5400   -0.1123   -0.9591 H   0  0  0  0  0  0  0  0  0  0  0  0
    0.2054   -1.8184   -0.6927 H   0  0  0  0  0  0  0  0  0  0  0  0
   -1.0230   -0.8819   -2.1762 C   0  0  0  0  0  0  0  0  0  0  0  0
   -1.9309    0.1466   -2.4987 C   0  0  0  0  0  0  0  0  0  0  0  0
   -2.1067    0.9528   -1.7986 H   0  0  0  0  0  0  0  0  0  0  0  0
   -2.6061    0.1308   -3.7348 C   0  0  0  0  0  0  0  0  0  0  0  0
   -3.3018    0.9191   -3.9778 H   0  0  0  0  0  0  0  0  0  0  0  0
   -2.3692   -0.9156   -4.6527 C   0  0  0  0  0  0  0  0  0  0  0  0
   -3.0130   -0.9383   -5.8486 O   0  0  0  0  0  0  0  0  0  0  0  0
   -3.6695   -0.2439   -5.9185 H   0  0  0  0  0  0  0  0  0  0  0  0
   -1.4566   -1.9413   -4.3303 C   0  0  0  0  0  0  0  0  0  0  0  0
   -1.2873   -2.7383   -5.0387 H   0  0  0  0  0  0  0  0  0  0  0  0
   -0.7868   -1.9252   -3.0921 C   0  0  0  0  0  0  0  0  0  0  0  0
   -0.0928   -2.7185   -2.8413 H   0  0  0  0  0  0  0  0  0  0  0  0
   -1.4018    1.0238    0.4329 C   0  0  0  0  0  0  0  0  0  0  0  0
   -2.2416    1.5423   -0.3033 O   0  0  0  0  0  0  0  0  0  0  0  0
   -0.6927    1.7304    1.3223 N   0  0  0  0  0  0  0  0  0  0  0  0
    0.0178    1.2410    1.8469 H   0  0  0  0  0  0  0  0  0  0  0  0
   -0.8259    3.1712    1.5254 C   0  0  0  0  0  0  0  0  0  0  0  0
   -1.8769    3.4302    1.6645 H   0  0  0  0  0  0  0  0  0  0  0  0
   -0.2598    3.4806    2.4054 H   0  0  0  0  0  0  0  0  0  0  0  0
   -0.4486    3.7020    0.6489 H   0  0  0  0  0  0  0  0  0  0  0  0
  5  6  2  0  0  0  0
  5  7  1  0  0  0  0
  2  3  1  0  0  0  0
  2  4  1  0  0  0  0
  2  5  1  0  0  0  0
  1  2  1  0  0  0  0
 26 27  2  0  0  0  0
 26 28  1  0  0  0  0
 24 25  1  0  0  0  0
 22 23  1  0  0  0  0
 22 24  2  0  0  0  0
 20 21  1  0  0  0  0
 19 20  1  0  0  0  0
 19 22  1  0  0  0  0
 17 18  1  0  0  0  0
 17 19  2  0  0  0  0
 15 16  1  0  0  0  0
 15 17  1  0  0  0  0
 14 15  2  0  0  0  0
 14 24  1  0  0  0  0
 11 12  1  0  0  0  0
 11 13  1  0  0  0  0
 11 14  1  0  0  0  0
  9 10  1  0  0  0  0
  9 11  1  0  0  0  0
  9 26  1  0  0  0  0
  7  8  1  0  0  0  0
  7  9  1  0  0  0  0
 30 31  1  0  0  0  0
 30 32  1  0  0  0  0
 30 33  1  0  0  0  0
 28 29  1  0  0  0  0
 28 30  1  0  0  0  0
M  END
$$$$
default_name
  -OEChem-02102213163D

 33 33  0     1  0  0  0  0  0999 V2000
   -4.0702   -3.8485    1.4554 H   0  0  0  0  0  0  0  0  0  0  0  0
   -4.0012   -2.9605    0.8284 C   0  0  0  0  0  0  0  0  0  0  0  0
   -4.7652   -2.2435    1.1234 H   0  0  0  0  0  0  0  0  0  0  0  0
   -4.1352   -3.2385   -0.2156 H   0  0  0  0  0  0  0  0  0  0  0  0
   -2.6362   -2.3395    1.0094 C   0  0  0  0  0  0  0  0  0  0  0  0
   -1.8292   -2.8395    1.7814 O   0  0  0  0  0  0  0  0  0  0  0  0
   -2.3832   -1.2445    0.2964 N   0  0  0  0  0  0  0  0  0  0  0  0
   -3.1102   -0.8685   -0.2946 H   0  0  0  0  0  0  0  0  0  0  0  0
   -1.1292   -0.4875    0.3524 C   0  0  1  0  0  0  0  0  0  0  0  0
   -0.5898   -0.7762    1.2552 H   0  0  0  0  0  0  0  0  0  0  0  0
   -0.2608   -0.8470   -0.8656 C   0  0  0  0  0  0  0  0  0  0  0  0
    0.5400   -0.1123   -0.9591 H   0  0  0  0  0  0  0  0  0  0  0  0
    0.2054   -1.8184   -0.6927 H   0  0  0  0  0  0  0  0  0  0  0  0
   -1.0230   -0.8819   -2.1762 C   0  0  0  0  0  0  0  0  0  0  0  0
   -1.6802    0.2721   -2.6479 C   0  0  0  0  0  0  0  0  0  0  0  0
   -1.6646    1.1816   -2.0617 H   0  0  0  0  0  0  0  0  0  0  0  0
   -2.3526    0.2460   -3.8852 C   0  0  0  0  0  0  0  0  0  0  0  0
   -2.8561    1.1310   -4.2427 H   0  0  0  0  0  0  0  0  0  0  0  0
   -2.3643   -0.9377   -4.6550 C   0  0  0  0  0  0  0  0  0  0  0  0
   -3.0074   -0.9722   -5.8509 O   0  0  0  0  0  0  0  0  0  0  0  0
   -3.4922   -0.1641   -6.0237 H   0  0  0  0  0  0  0  0  0  0  0  0
   -1.7020   -2.0901   -4.1837 C   0  0  0  0  0  0  0  0  0  0  0  0
   -1.7218   -2.9903   -4.7793 H   0  0  0  0  0  0  0  0  0  0  0  0
   -1.0347   -2.0622   -2.9443 C   0  0  0  0  0  0  0  0  0  0  0  0
   -0.5339   -2.9507   -2.5786 H   0  0  0  0  0  0  0  0  0  0  0  0
   -1.4018    1.0238    0.4329 C   0  0  0  0  0  0  0  0  0  0  0  0
   -2.2416    1.5423   -0.3033 O   0  0  0  0  0  0  0  0  0  0  0  0
   -0.6927    1.7304    1.3223 N   0  0  0  0  0  0  0  0  0  0  0  0
    0.0178    1.2410    1.8469 H   0  0  0  0  0  0  0  0  0  0  0  0
   -0.8259    3.1712    1.5254 C   0  0  0  0  0  0  0  0  0  0  0  0
   -1.8769    3.4302    1.6645 H   0  0  0  0  0  0  0  0  0  0  0  0
   -0.2598    3.4806    2.4054 H   0  0  0  0  0  0  0  0  0  0  0  0
   -0.4486    3.7020    0.6489 H   0  0  0  0  0  0  0  0  0  0  0  0
  5  6  2  0  0  0  0
  5  7  1  0  0  0  0
  2  3  1  0  0  0  0
  2  4  1  0  0  0  0
  2  5  1  0  0  0  0
  1  2  1  0  0  0  0
 26 27  2  0  0  0  0
 26 28  1  0  0  0  0
 24 25  1  0  0  0  0
 22 23  1  0  0  0  0
 22 24  2  0  0  0  0
 20 21  1  0  0  0  0
 19 20  1  0  0  0  0
 19 22  1  0  0  0  0
 17 18  1  0  0  0  0
 17 19  2  0  0  0  0
 15 16  1  0  0  0  0
 15 17  1  0  0  0  0
 14 15  2  0  0  0  0
 14 24  1  0  0  0  0
 11 12  1  0  0  0  0
 11 13  1  0  0  0  0
 11 14  1  0  0  0  0
  9 10  1  0  0  0  0
  9 11  1  0  0  0  0
  9 26  1  0  0  0  0
  7  8  1  0  0  0  0
  7  9  1  0  0  0  0
 30 31  1  0  0  0  0
 30 32  1  0  0  0  0
 30 33  1  0  0  0  0
 28 29  1  0  0  0  0
 28 30  1  0  0  0  0
M  END
$$$$
default_name
  -OEChem-02102213163D

 33 33  0     1  0  0  0  0  0999 V2000
   -4.0702   -3.8485    1.4554 H   0  0  0  0  0  0  0  0  0  0  0  0
   -4.0012   -2.9605    0.8284 C   0  0  0  0  0  0  0  0  0  0  0  0
   -4.7652   -2.2435    1.1234 H   0  0  0  0  0  0  0  0  0  0  0  0
   -4.1352   -3.2385   -0.2156 H   0  0  0  0  0  0  0  0  0  0  0  0
   -2.6362   -2.3395    1.0094 C   0  0  0  0  0  0  0  0  0  0  0  0
   -1.8292   -2.8395    1.7814 O   0  0  0  0  0  0  0  0  0  0  0  0
   -2.3832   -1.2445    0.2964 N   0  0  0  0  0  0  0  0  0  0  0  0
   -3.1102   -0.8685   -0.2946 H   0  0  0  0  0  0  0  0  0  0  0  0
   -1.1292   -0.4875    0.3524 C   0  0  1  0  0  0  0  0  0  0  0  0
   -0.5898   -0.7762    1.2552 H   0  0  0  0  0  0  0  0  0  0  0  0
   -0.2608   -0.8470   -0.8656 C   0  0  0  0  0  0  0  0  0  0  0  0
    0.5400   -0.1123   -0.9591 H   0  0  0  0  0  0  0  0  0  0  0  0
    0.2054   -1.8184   -0.6927 H   0  0  0  0  0  0  0  0  0  0  0  0
   -1.0230   -0.8819   -2.1762 C   0  0  0  0  0  0  0  0  0  0  0  0
   -1.4090    0.3179   -2.8068 C   0  0  0  0  0  0  0  0  0  0  0  0
   -1.1849    1.2696   -2.3431 H   0  0  0  0  0  0  0  0  0  0  0  0
   -2.0811    0.2810   -4.0441 C   0  0  0  0  0  0  0  0  0  0  0  0
   -2.3766    1.2016   -4.5234 H   0  0  0  0  0  0  0  0  0  0  0  0
   -2.3646   -0.9604   -4.6542 C   0  0  0  0  0  0  0  0  0  0  0  0
   -3.0096   -1.0066   -5.8487 O   0  0  0  0  0  0  0  0  0  0  0  0
   -3.3024   -0.1403   -6.1347 H   0  0  0  0  0  0  0  0  0  0  0  0
   -1.9732   -2.1598   -4.0241 C   0  0  0  0  0  0  0  0  0  0  0  0
   -2.1994   -3.1029   -4.4985 H   0  0  0  0  0  0  0  0  0  0  0  0
   -1.3056   -2.1198   -2.7852 C   0  0  0  0  0  0  0  0  0  0  0  0
   -1.0135   -3.0420   -2.2973 H   0  0  0  0  0  0  0  0  0  0  0  0
   -1.4018    1.0238    0.4329 C   0  0  0  0  0  0  0  0  0  0  0  0
   -2.2416    1.5423   -0.3033 O   0  0  0  0  0  0  0  0  0  0  0  0
   -0.6927    1.7304    1.3223 N   0  0  0  0  0  0  0  0  0  0  0  0
    0.0178    1.2410    1.8469 H   0  0  0  0  0  0  0  0  0  0  0  0
   -0.8259    3.1712    1.5254 C   0  0  0  0  0  0  0  0  0  0  0  0
   -1.8769    3.4302    1.6645 H   0  0  0  0  0  0  0  0  0  0  0  0
   -0.2598    3.4806    2.4054 H   0  0  0  0  0  0  0  0  0  0  0  0
   -0.4486    3.7020    0.6489 H   0  0  0  0  0  0  0  0  0  0  0  0
  5  6  2  0  0  0  0
  5  7  1  0  0  0  0
  2  3  1  0  0  0  0
  2  4  1  0  0  0  0
  2  5  1  0  0  0  0
  1  2  1  0  0  0  0
 26 27  2  0  0  0  0
 26 28  1  0  0  0  0
 24 25  1  0  0  0  0
 22 23  1  0  0  0  0
 22 24  2  0  0  0  0
 20 21  1  0  0  0  0
 19 20  1  0  0  0  0
 19 22  1  0  0  0  0
 17 18  1  0  0  0  0
 17 19  2  0  0  0  0
 15 16  1  0  0  0  0
 15 17  1  0  0  0  0
 14 15  2  0  0  0  0
 14 24  1  0  0  0  0
 11 12  1  0  0  0  0
 11 13  1  0  0  0  0
 11 14  1  0  0  0  0
  9 10  1  0  0  0  0
  9 11  1  0  0  0  0
  9 26  1  0  0  0  0
  7  8  1  0  0  0  0
  7  9  1  0  0  0  0
 30 31  1  0  0  0  0
 30 32  1  0  0  0  0
 30 33  1  0  0  0  0
 28 29  1  0  0  0  0
 28 30  1  0  0  0  0
M  END
$$$$
default_name
  -OEChem-02102213163D

 33 33  0     1  0  0  0  0  0999 V2000
   -4.0702   -3.8485    1.4554 H   0  0  0  0  0  0  0  0  0  0  0  0
   -4.0012   -2.9605    0.8284 C   0  0  0  0  0  0  0  0  0  0  0  0
   -4.7652   -2.2435    1.1234 H   0  0  0  0  0  0  0  0  0  0  0  0
   -4.1352   -3.2385   -0.2156 H   0  0  0  0  0  0  0  0  0  0  0  0
   -2.6362   -2.3395    1.0094 C   0  0  0  0  0  0  0  0  0  0  0  0
   -1.8292   -2.8395    1.7814 O   0  0  0  0  0  0  0  0  0  0  0  0
   -2.3832   -1.2445    0.2964 N   0  0  0  0  0  0  0  0  0  0  0  0
   -3.1102   -0.8685   -0.2946 H   0  0  0  0  0  0  0  0  0  0  0  0
   -1.1292   -0.4875    0.3524 C   0  0  1  0  0  0  0  0  0  0  0  0
   -0.5898   -0.7762    1.2552 H   0  0  0  0  0  0  0  0  0  0  0  0
   -0.2608   -0.8470   -0.8656 C   0  0  0  0  0  0  0  0  0  0  0  0
    0.5400   -0.1123   -0.9591 H   0  0  0  0  0  0  0  0  0  0  0  0
    0.2054   -1.8184   -0.6927 H   0  0  0  0  0  0  0  0  0  0  0  0
   -1.0230   -0.8819   -2.1762 C   0  0  0  0  0  0  0  0  0  0  0  0
   -1.1359    0.2807   -2.9646 C   0  0  0  0  0  0  0  0  0  0  0  0
   -0.7002    1.2106   -2.6234 H   0  0  0  0  0  0  0  0  0  0  0  0
   -1.8101    0.2334   -4.2004 C   0  0  0  0  0  0  0  0  0  0  0  0
   -1.8960    1.1260   -4.8008 H   0  0  0  0  0  0  0  0  0  0  0  0
   -2.3699   -0.9822   -4.6506 C   0  0  0  0  0  0  0  0  0  0  0  0
   -3.0194   -1.0389   -5.8422 O   0  0  0  0  0  0  0  0  0  0  0  0
   -3.1132   -0.1742   -6.2439 H   0  0  0  0  0  0  0  0  0  0  0  0
   -2.2516   -2.1458   -3.8625 C   0  0  0  0  0  0  0  0  0  0  0  0
   -2.6877   -3.0682   -4.2155 H   0  0  0  0  0  0  0  0  0  0  0  0
   -1.5812   -2.0942   -2.6257 C   0  0  0  0  0  0  0  0  0  0  0  0
   -1.4988   -2.9864   -2.0165 H   0  0  0  0  0  0  0  0  0  0  0  0
   -1.4018    1.0238    0.4329 C   0  0  0  0  0  0  0  0  0  0  0  0
   -2.2416    1.5423   -0.3033 O   0  0  0  0  0  0  0  0  0  0  0  0
   -0.6927    1.7304    1.3223 N   0  0  0  0  0  0  0  0  0  0  0  0
    0.0178    1.2410    1.8469 H   0  0  0  0  0  0  0  0  0  0  0  0
   -0.8259    3.1712    1.5254 C   0  0  0  0  0  0  0  0  0  0  0  0
   -1.8769    3.4302    1.6645 H   0  0  0  0  0  0  0  0  0  0  0  0
   -0.2598    3.4806    2.4054 H   0  0  0  0  0  0  0  0  0  0  0  0
   -0.4486    3.7020    0.6489 H   0  0  0  0  0  0  0  0  0  0  0  0
  5  6  2  0  0  0  0
  5  7  1  0  0  0  0
  2  3  1  0  0  0  0
  2  4  1  0  0  0  0
  2  5  1  0  0  0  0
  1  2  1  0  0  0  0
 26 27  2  0  0  0  0
 26 28  1  0  0  0  0
 24 25  1  0  0  0  0
 22 23  1  0  0  0  0
 22 24  2  0  0  0  0
 20 21  1  0  0  0  0
 19 20  1  0  0  0  0
 19 22  1  0  0  0  0
 17 18  1  0  0  0  0
 17 19  2  0  0  0  0
 15 16  1  0  0  0  0
 15 17  1  0  0  0  0
 14 15  2  0  0  0  0
 14 24  1  0  0  0  0
 11 12  1  0  0  0  0
 11 13  1  0  0  0  0
 11 14  1  0  0  0  0
  9 10  1  0  0  0  0
  9 11  1  0  0  0  0
  9 26  1  0  0  0  0
  7  8  1  0  0  0  0
  7  9  1  0  0  0  0
 30 31  1  0  0  0  0
 30 32  1  0  0  0  0
 30 33  1  0  0  0  0
 28 29  1  0  0  0  0
 28 30  1  0  0  0  0
M  END
$$$$
default_name
  -OEChem-02102213163D

 33 33  0     1  0  0  0  0  0999 V2000
   -4.0702   -3.8485    1.4554 H   0  0  0  0  0  0  0  0  0  0  0  0
   -4.0012   -2.9605    0.8284 C   0  0  0  0  0  0  0  0  0  0  0  0
   -4.7652   -2.2435    1.1234 H   0  0  0  0  0  0  0  0  0  0  0  0
   -4.1352   -3.2385   -0.2156 H   0  0  0  0  0  0  0  0  0  0  0  0
   -2.6362   -2.3395    1.0094 C   0  0  0  0  0  0  0  0  0  0  0  0
   -1.8292   -2.8395    1.7814 O   0  0  0  0  0  0  0  0  0  0  0  0
   -2.3832   -1.2445    0.2964 N   0  0  0  0  0  0  0  0  0  0  0  0
   -3.1102   -0.8685   -0.2946 H   0  0  0  0  0  0  0  0  0  0  0  0
   -1.1292   -0.4875    0.3524 C   0  0  1  0  0  0  0  0  0  0  0  0
   -0.5898   -0.7762    1.2552 H   0  0  0  0  0  0  0  0  0  0  0  0
   -0.2608   -0.8470   -0.8656 C   0  0  0  0  0  0  0  0  0  0  0  0
    0.5400   -0.1123   -0.9591 H   0  0  0  0  0  0  0  0  0  0  0  0
    0.2054   -1.8184   -0.6927 H   0  0  0  0  0  0  0  0  0  0  0  0
   -1.0230   -0.8819   -2.1762 C   0  0  0  0  0  0  0  0  0  0  0  0
   -0.8795    0.1633   -3.1106 C   0  0  0  0  0  0  0  0  0  0  0  0
   -0.2435    1.0088   -2.8836 H   0  0  0  0  0  0  0  0  0  0  0  0
   -1.5580    0.1065   -4.3436 C   0  0  0  0  0  0  0  0  0  0  0  0
   -1.4471    0.9093   -5.0561 H   0  0  0  0  0  0  0  0  0  0  0  0
   -2.3799   -1.0016   -4.6442 C   0  0  0  0  0  0  0  0  0  0  0  0
   -3.0361   -1.0672   -5.8317 O   0  0  0  0  0  0  0  0  0  0  0  0
   -2.9373   -0.2634   -6.3438 H   0  0  0  0  0  0  0  0  0  0  0  0
   -2.5184   -2.0489   -3.7100 C   0  0  0  0  0  0  0  0  0  0  0  0
   -3.1532   -2.8887   -3.9496 H   0  0  0  0  0  0  0  0  0  0  0  0
   -1.8426   -1.9870   -2.4765 C   0  0  0  0  0  0  0  0  0  0  0  0
   -1.9568   -2.7877   -1.7554 H   0  0  0  0  0  0  0  0  0  0  0  0
   -1.4018    1.0238    0.4329 C   0  0  0  0  0  0  0  0  0  0  0  0
   -2.2416    1.5423   -0.3033 O   0  0  0  0  0  0  0  0  0  0  0  0
   -0.6927    1.7304    1.3223 N   0  0  0  0  0  0  0  0  0  0  0  0
    0.0178    1.2410    1.8469 H   0  0  0  0  0  0  0  0  0  0  0  0
   -0.8259    3.1712    1.5254 C   0  0  0  0  0  0  0  0  0  0  0  0
   -1.8769    3.4302    1.6645 H   0  0  0  0  0  0  0  0  0  0  0  0
   -0.2598    3.4806    2.4054 H   0  0  0  0  0  0  0  0  0  0  0  0
   -0.4486    3.7020    0.6489 H   0  0  0  0  0  0  0  0  0  0  0  0
  5  6  2  0  0  0  0
  5  7  1  0  0  0  0
  2  3  1  0  0  0  0
  2  4  1  0  0  0  0
  2  5  1  0  0  0  0
  1  2  1  0  0  0  0
 26 27  2  0  0  0  0
 26 28  1  0  0  0  0
 24 25  1  0  0  0  0
 22 23  1  0  0  0  0
 22 24  2  0  0  0  0
 20 21  1  0  0  0  0
 19 20  1  0  0  0  0
 19 22  1  0  0  0  0
 17 18  1  0  0  0  0
 17 19  2  0  0  0  0
 15 16  1  0  0  0  0
 15 17  1  0  0  0  0
 14 15  2  0  0  0  0
 14 24  1  0  0  0  0
 11 12  1  0  0  0  0
 11 13  1  0  0  0  0
 11 14  1  0  0  0  0
  9 10  1  0  0  0  0
  9 11  1  0  0  0  0
  9 26  1  0  0  0  0
  7  8  1  0  0  0  0
  7  9  1  0  0  0  0
 30 31  1  0  0  0  0
 30 32  1  0  0  0  0
 30 33  1  0  0  0  0
 28 29  1  0  0  0  0
 28 30  1  0  0  0  0
M  END
$$$$
default_name
  -OEChem-02102213163D

 33 33  0     1  0  0  0  0  0999 V2000
   -4.0702   -3.8485    1.4554 H   0  0  0  0  0  0  0  0  0  0  0  0
   -4.0012   -2.9605    0.8284 C   0  0  0  0  0  0  0  0  0  0  0  0
   -4.7652   -2.2435    1.1234 H   0  0  0  0  0  0  0  0  0  0  0  0
   -4.1352   -3.2385   -0.2156 H   0  0  0  0  0  0  0  0  0  0  0  0
   -2.6362   -2.3395    1.0094 C   0  0  0  0  0  0  0  0  0  0  0  0
   -1.8292   -2.8395    1.7814 O   0  0  0  0  0  0  0  0  0  0  0  0
   -2.3832   -1.2445    0.2964 N   0  0  0  0  0  0  0  0  0  0  0  0
   -3.1102   -0.8685   -0.2946 H   0  0  0  0  0  0  0  0  0  0  0  0
   -1.1292   -0.4875    0.3524 C   0  0  1  0  0  0  0  0  0  0  0  0
   -0.5898   -0.7762    1.2552 H   0  0  0  0  0  0  0  0  0  0  0  0
   -0.2608   -0.8470   -0.8656 C   0  0  0  0  0  0  0  0  0  0  0  0
    0.5400   -0.1123   -0.9591 H   0  0  0  0  0  0  0  0  0  0  0  0
    0.2054   -1.8184   -0.6927 H   0  0  0  0  0  0  0  0  0  0  0  0
   -1.0230   -0.8819   -2.1762 C   0  0  0  0  0  0  0  0  0  0  0  0
   -0.6572   -0.0266   -3.2348 C   0  0  0  0  0  0  0  0  0  0  0  0
    0.1541    0.6779   -3.1060 H   0  0  0  0  0  0  0  0  0  0  0  0
   -1.3421   -0.0911   -4.4639 C   0  0  0  0  0  0  0  0  0  0  0  0
   -1.0604    0.5664   -5.2719 H   0  0  0  0  0  0  0  0  0  0  0  0
   -2.3940   -1.0172   -4.6356 C   0  0  0  0  0  0  0  0  0  0  0  0
   -3.0587   -1.0894   -5.8180 O   0  0  0  0  0  0  0  0  0  0  0  0
   -2.7868   -0.4020   -6.4276 H   0  0  0  0  0  0  0  0  0  0  0  0
   -2.7554   -1.8758   -3.5768 C   0  0  0  0  0  0  0  0  0  0  0  0
   -3.5643   -2.5766   -3.7188 H   0  0  0  0  0  0  0  0  0  0  0  0
   -2.0720   -1.8057   -2.3480 C   0  0  0  0  0  0  0  0  0  0  0  0
   -2.3563   -2.4592   -1.5319 H   0  0  0  0  0  0  0  0  0  0  0  0
   -1.4018    1.0238    0.4329 C   0  0  0  0  0  0  0  0  0  0  0  0
   -2.2416    1.5423   -0.3033 O   0  0  0  0  0  0  0  0  0  0  0  0
   -0.6927    1.7304    1.3223 N   0  0  0  0  0  0  0  0  0  0  0  0
    0.0178    1.2410    1.8469 H   0  0  0  0  0  0  0  0  0  0  0  0
   -0.8259    3.1712    1.5254 C   0  0  0  0  0  0  0  0  0  0  0  0
   -1.8769    3.4302    1.6645 H   0  0  0  0  0  0  0  0  0  0  0  0
   -0.2598    3.4806    2.4054 H   0  0  0  0  0  0  0  0  0  0  0  0
   -0.4486    3.7020    0.6489 H   0  0  0  0  0  0  0  0  0  0  0  0
  5  6  2  0  0  0  0
  5  7  1  0  0  0  0
  2  3  1  0  0  0  0
  2  4  1  0  0  0  0
  2  5  1  0  0  0  0
  1  2  1  0  0  0  0
 26 27  2  0  0  0  0
 26 28  1  0  0  0  0
 24 25  1  0  0  0  0
 22 23  1  0  0  0  0
 22 24  2  0  0  0  0
 20 21  1  0  0  0  0
 19 20  1  0  0  0  0
 19 22  1  0  0  0  0
 17 18  1  0  0  0  0
 17 19  2  0  0  0  0
 15 16  1  0  0  0  0
 15 17  1  0  0  0  0
 14 15  2  0  0  0  0
 14 24  1  0  0  0  0
 11 12  1  0  0  0  0
 11 13  1  0  0  0  0
 11 14  1  0  0  0  0
  9 10  1  0  0  0  0
  9 11  1  0  0  0  0
  9 26  1  0  0  0  0
  7  8  1  0  0  0  0
  7  9  1  0  0  0  0
 30 31  1  0  0  0  0
 30 32  1  0  0  0  0
 30 33  1  0  0  0  0
 28 29  1  0  0  0  0
 28 30  1  0  0  0  0
M  END
$$$$
default_name
  -OEChem-02102213163D

 33 33  0     1  0  0  0  0  0999 V2000
   -4.0702   -3.8485    1.4554 H   0  0  0  0  0  0  0  0  0  0  0  0
   -4.0012   -2.9605    0.8284 C   0  0  0  0  0  0  0  0  0  0  0  0
   -4.7652   -2.2435    1.1234 H   0  0  0  0  0  0  0  0  0  0  0  0
   -4.1352   -3.2385   -0.2156 H   0  0  0  0  0  0  0  0  0  0  0  0
   -2.6362   -2.3395    1.0094 C   0  0  0  0  0  0  0  0  0  0  0  0
   -1.8292   -2.8395    1.7814 O   0  0  0  0  0  0  0  0  0  0  0  0
   -2.3832   -1.2445    0.2964 N   0  0  0  0  0  0  0  0  0  0  0  0
   -3.1102   -0.8685   -0.2946 H   0  0  0  0  0  0  0  0  0  0  0  0
   -1.1292   -0.4875    0.3524 C   0  0  1  0  0  0  0  0  0  0  0  0
   -0.5898   -0.7762    1.2552 H   0  0  0  0  0  0  0  0  0  0  0  0
   -0.2608   -0.8470   -0.8656 C   0  0  0  0  0  0  0  0  0  0  0  0
    0.5400   -0.1123   -0.9591 H   0  0  0  0  0  0  0  0  0  0  0  0
    0.2054   -1.8184   -0.6927 H   0  0  0  0  0  0  0  0  0  0  0  0
   -1.0230   -0.8819   -2.1762 C   0  0  0  0  0  0  0  0  0  0  0  0
   -0.4842   -0.2758   -3.3288 C   0  0  0  0  0  0  0  0  0  0  0  0
    0.4654    0.2403   -3.2753 H   0  0  0  0  0  0  0  0  0  0  0  0
   -1.1770   -0.3460   -4.5531 C   0  0  0  0  0  0  0  0  0  0  0  0
   -0.7622    0.1207   -5.4334 H   0  0  0  0  0  0  0  0  0  0  0  0
   -2.4111   -1.0281   -4.6254 C   0  0  0  0  0  0  0  0  0  0  0  0
   -3.0855   -1.1040   -5.8020 O   0  0  0  0  0  0  0  0  0  0  0  0
   -2.6719   -0.5804   -6.4897 H   0  0  0  0  0  0  0  0  0  0  0  0
   -2.9464   -1.6383   -3.4721 C   0  0  0  0  0  0  0  0  0  0  0  0
   -3.8929   -2.1532   -3.5390 H   0  0  0  0  0  0  0  0  0  0  0  0
   -2.2538   -1.5625   -2.2487 C   0  0  0  0  0  0  0  0  0  0  0  0
   -2.6701   -2.0236   -1.3610 H   0  0  0  0  0  0  0  0  0  0  0  0
   -1.4018    1.0238    0.4329 C   0  0  0  0  0  0  0  0  0  0  0  0
   -2.2416    1.5423   -0.3033 O   0  0  0  0  0  0  0  0  0  0  0  0
   -0.6927    1.7304    1.3223 N   0  0  0  0  0  0  0  0  0  0  0  0
    0.0178    1.2410    1.8469 H   0  0  0  0  0  0  0  0  0  0  0  0
   -0.8259    3.1712    1.5254 C   0  0  0  0  0  0  0  0  0  0  0  0
   -1.8769    3.4302    1.6645 H   0  0  0  0  0  0  0  0  0  0  0  0
   -0.2598    3.4806    2.4054 H   0  0  0  0  0  0  0  0  0  0  0  0
   -0.4486    3.7020    0.6489 H   0  0  0  0  0  0  0  0  0  0  0  0
  5  6  2  0  0  0  0
  5  7  1  0  0  0  0
  2  3  1  0  0  0  0
  2  4  1  0  0  0  0
  2  5  1  0  0  0  0
  1  2  1  0  0  0  0
 26 27  2  0  0  0  0
 26 28  1  0  0  0  0
 24 25  1  0  0  0  0
 22 23  1  0  0  0  0
 22 24  2  0  0  0  0
 20 21  1  0  0  0  0
 19 20  1  0  0  0  0
 19 22  1  0  0  0  0
 17 18  1  0  0  0  0
 17 19  2  0  0  0  0
 15 16  1  0  0  0  0
 15 17  1  0  0  0  0
 14 15  2  0  0  0  0
 14 24  1  0  0  0  0
 11 12  1  0  0  0  0
 11 13  1  0  0  0  0
 11 14  1  0  0  0  0
  9 10  1  0  0  0  0
  9 11  1  0  0  0  0
  9 26  1  0  0  0  0
  7  8  1  0  0  0  0
  7  9  1  0  0  0  0
 30 31  1  0  0  0  0
 30 32  1  0  0  0  0
 30 33  1  0  0  0  0
 28 29  1  0  0  0  0
 28 30  1  0  0  0  0
M  END
$$$$
default_name
  -OEChem-02102213163D

 33 33  0     1  0  0  0  0  0999 V2000
   -4.0702   -3.8485    1.4554 H   0  0  0  0  0  0  0  0  0  0  0  0
   -4.0012   -2.9605    0.8284 C   0  0  0  0  0  0  0  0  0  0  0  0
   -4.7652   -2.2435    1.1234 H   0  0  0  0  0  0  0  0  0  0  0  0
   -4.1352   -3.2385   -0.2156 H   0  0  0  0  0  0  0  0  0  0  0  0
   -2.6362   -2.3395    1.0094 C   0  0  0  0  0  0  0  0  0  0  0  0
   -1.8292   -2.8395    1.7814 O   0  0  0  0  0  0  0  0  0  0  0  0
   -2.3832   -1.2445    0.2964 N   0  0  0  0  0  0  0  0  0  0  0  0
   -3.1102   -0.8685   -0.2946 H   0  0  0  0  0  0  0  0  0  0  0  0
   -1.1292   -0.4875    0.3524 C   0  0  1  0  0  0  0  0  0  0  0  0
   -0.5898   -0.7762    1.2552 H   0  0  0  0  0  0  0  0  0  0  0  0
   -0.2608   -0.8470   -0.8656 C   0  0  0  0  0  0  0  0  0  0  0  0
    0.5400   -0.1123   -0.9591 H   0  0  0  0  0  0  0  0  0  0  0  0
    0.2054   -1.8184   -0.6927 H   0  0  0  0  0  0  0  0  0  0  0  0
   -1.0230   -0.8819   -2.1762 C   0  0  0  0  0  0  0  0  0  0  0  0
   -0.3723   -0.5674   -3.3861 C   0  0  0  0  0  0  0  0  0  0  0  0
    0.6693   -0.2739   -3.3802 H   0  0  0  0  0  0  0  0  0  0  0  0
   -1.0740   -0.6406   -4.6052 C   0  0  0  0  0  0  0  0  0  0  0  0
   -0.5730   -0.3976   -5.5296 H   0  0  0  0  0  0  0  0  0  0  0  0
   -2.4301   -1.0334   -4.6141 C   0  0  0  0  0  0  0  0  0  0  0  0
   -3.1147   -1.1100   -5.7849 O   0  0  0  0  0  0  0  0  0  0  0  0
   -2.6004   -0.7866   -6.5257 H   0  0  0  0  0  0  0  0  0  0  0  0
   -3.0783   -1.3525   -3.4029 C   0  0  0  0  0  0  0  0  0  0  0  0
   -4.1167   -1.6473   -3.4223 H   0  0  0  0  0  0  0  0  0  0  0  0
   -2.3755   -1.2740   -2.1856 C   0  0  0  0  0  0  0  0  0  0  0  0
   -2.8768   -1.5103   -1.2545 H   0  0  0  0  0  0  0  0  0  0  0  0
   -1.4018    1.0238    0.4329 C   0  0  0  0  0  0  0  0  0  0  0  0
   -2.2416    1.5423   -0.3033 O   0  0  0  0  0  0  0  0  0  0  0  0
   -0.6927    1.7304    1.3223 N   0  0  0  0  0  0  0  0  0  0  0  0
    0.0178    1.2410    1.8469 H   0  0  0  0  0  0  0  0  0  0  0  0
   -0.8259    3.1712    1.5254 C   0  0  0  0  0  0  0  0  0  0  0  0
   -1.8769    3.4302    1.6645 H   0  0  0  0  0  0  0  0  0  0  0  0
   -0.2598    3.4806    2.4054 H   0  0  0  0  0  0  0  0  0  0  0  0
   -0.4486    3.7020    0.6489 H   0  0  0  0  0  0  0  0  0  0  0  0
  5  6  2  0  0  0  0
  5  7  1  0  0  0  0
  2  3  1  0  0  0  0
  2  4  1  0  0  0  0
  2  5  1  0  0  0  0
  1  2  1  0  0  0  0
 26 27  2  0  0  0  0
 26 28  1  0  0  0  0
 24 25  1  0  0  0  0
 22 23  1  0  0  0  0
 22 24  2  0  0  0  0
 20 21  1  0  0  0  0
 19 20  1  0  0  0  0
 19 22  1  0  0  0  0
 17 18  1  0  0  0  0
 17 19  2  0  0  0  0
 15 16  1  0  0  0  0
 15 17  1  0  0  0  0
 14 15  2  0  0  0  0
 14 24  1  0  0  0  0
 11 12  1  0  0  0  0
 11 13  1  0  0  0  0
 11 14  1  0  0  0  0
  9 10  1  0  0  0  0
  9 11  1  0  0  0  0
  9 26  1  0  0  0  0
  7  8  1  0  0  0  0
  7  9  1  0  0  0  0
 30 31  1  0  0  0  0
 30 32  1  0  0  0  0
 30 33  1  0  0  0  0
 28 29  1  0  0  0  0
 28 30  1  0  0  0  0
M  END
$$$$
default_name
  -OEChem-02102213163D

 33 33  0     1  0  0  0  0  0999 V2000
   -4.0702   -3.8485    1.4554 H   0  0  0  0  0  0  0  0  0  0  0  0
   -4.0012   -2.9605    0.8284 C   0  0  0  0  0  0  0  0  0  0  0  0
   -4.7652   -2.2435    1.1234 H   0  0  0  0  0  0  0  0  0  0  0  0
   -4.1352   -3.2385   -0.2156 H   0  0  0  0  0  0  0  0  0  0  0  0
   -2.6362   -2.3395    1.0094 C   0  0  0  0  0  0  0  0  0  0  0  0
   -1.8292   -2.8395    1.7814 O   0  0  0  0  0  0  0  0  0  0  0  0
   -2.3832   -1.2445    0.2964 N   0  0  0  0  0  0  0  0  0  0  0  0
   -3.1102   -0.8685   -0.2946 H   0  0  0  0  0  0  0  0  0  0  0  0
   -1.1292   -0.4875    0.3524 C   0  0  1  0  0  0  0  0  0  0  0  0
   -0.5898   -0.7762    1.2552 H   0  0  0  0  0  0  0  0  0  0  0  0
   -0.2608   -0.8470   -0.8656 C   0  0  0  0  0  0  0  0  0  0  0  0
    0.5400   -0.1123   -0.9591 H   0  0  0  0  0  0  0  0  0  0  0  0
    0.2054   -1.8184   -0.6927 H   0  0  0  0  0  0  0  0  0  0  0  0
   -1.0230   -0.8819   -2.1762 C   0  0  0  0  0  0  0  0  0  0  0  0
   -0.3291   -0.8816   -3.4028 C   0  0  0  0  0  0  0  0  0  0  0  0
    0.7518   -0.8299   -3.4133 H   0  0  0  0  0  0  0  0  0  0  0  0
   -1.0401   -0.9551   -4.6165 C   0  0  0  0  0  0  0  0  0  0  0  0
   -0.5055   -0.9531   -5.5540 H   0  0  0  0  0  0  0  0  0  0  0  0
   -2.4498   -1.0329   -4.6027 C   0  0  0  0  0  0  0  0  0  0  0  0
   -3.1445   -1.1070   -5.7677 O   0  0  0  0  0  0  0  0  0  0  0  0
   -2.5773   -1.0063   -6.5333 H   0  0  0  0  0  0  0  0  0  0  0  0
   -3.1422   -1.0380   -3.3741 C   0  0  0  0  0  0  0  0  0  0  0  0
   -4.2204   -1.0934   -3.3768 H   0  0  0  0  0  0  0  0  0  0  0  0
   -2.4290   -0.9598   -2.1629 C   0  0  0  0  0  0  0  0  0  0  0  0
   -2.9622   -0.9545   -1.2196 H   0  0  0  0  0  0  0  0  0  0  0  0
   -1.4018    1.0238    0.4329 C   0  0  0  0  0  0  0  0  0  0  0  0
   -2.2416    1.5423   -0.3033 O   0  0  0  0  0  0  0  0  0  0  0  0
   -0.6927    1.7304    1.3223 N   0  0  0  0  0  0  0  0  0  0  0  0
    0.0178    1.2410    1.8469 H   0  0  0  0  0  0  0  0  0  0  0  0
   -0.8259    3.1712    1.5254 C   0  0  0  0  0  0  0  0  0  0  0  0
   -1.8769    3.4302    1.6645 H   0  0  0  0  0  0  0  0  0  0  0  0
   -0.2598    3.4806    2.4054 H   0  0  0  0  0  0  0  0  0  0  0  0
   -0.4486    3.7020    0.6489 H   0  0  0  0  0  0  0  0  0  0  0  0
  5  6  2  0  0  0  0
  5  7  1  0  0  0  0
  2  3  1  0  0  0  0
  2  4  1  0  0  0  0
  2  5  1  0  0  0  0
  1  2  1  0  0  0  0
 26 27  2  0  0  0  0
 26 28  1  0  0  0  0
 24 25  1  0  0  0  0
 22 23  1  0  0  0  0
 22 24  2  0  0  0  0
 20 21  1  0  0  0  0
 19 20  1  0  0  0  0
 19 22  1  0  0  0  0
 17 18  1  0  0  0  0
 17 19  2  0  0  0  0
 15 16  1  0  0  0  0
 15 17  1  0  0  0  0
 14 15  2  0  0  0  0
 14 24  1  0  0  0  0
 11 12  1  0  0  0  0
 11 13  1  0  0  0  0
 11 14  1  0  0  0  0
  9 10  1  0  0  0  0
  9 11  1  0  0  0  0
  9 26  1  0  0  0  0
  7  8  1  0  0  0  0
  7  9  1  0  0  0  0
 30 31  1  0  0  0  0
 30 32  1  0  0  0  0
 30 33  1  0  0  0  0
 28 29  1  0  0  0  0
 28 30  1  0  0  0  0
M  END
$$$$
default_name
  -OEChem-02102213163D

 33 33  0     1  0  0  0  0  0999 V2000
   -4.0702   -3.8485    1.4554 H   0  0  0  0  0  0  0  0  0  0  0  0
   -4.0012   -2.9605    0.8284 C   0  0  0  0  0  0  0  0  0  0  0  0
   -4.7652   -2.2435    1.1234 H   0  0  0  0  0  0  0  0  0  0  0  0
   -4.1352   -3.2385   -0.2156 H   0  0  0  0  0  0  0  0  0  0  0  0
   -2.6362   -2.3395    1.0094 C   0  0  0  0  0  0  0  0  0  0  0  0
   -1.8292   -2.8395    1.7814 O   0  0  0  0  0  0  0  0  0  0  0  0
   -2.3832   -1.2445    0.2964 N   0  0  0  0  0  0  0  0  0  0  0  0
   -3.1102   -0.8685   -0.2946 H   0  0  0  0  0  0  0  0  0  0  0  0
   -1.1292   -0.4875    0.3524 C   0  0  1  0  0  0  0  0  0  0  0  0
   -0.5898   -0.7762    1.2552 H   0  0  0  0  0  0  0  0  0  0  0  0
   -0.2608   -0.8470   -0.8656 C   0  0  0  0  0  0  0  0  0  0  0  0
    0.6757   -0.2906   -0.8097 H   0  0  0  0  0  0  0  0  0  0  0  0
   -0.0132   -1.9089   -0.8219 H   0  0  0  0  0  0  0  0  0  0  0  0
   -0.9131   -0.5380   -2.1993 C   0  0  0  0  0  0  0  0  0  0  0  0
   -0.2352   -0.8142   -3.4037 C   0  0  0  0  0  0  0  0  0  0  0  0
    0.7659   -1.2245   -3.3795 H   0  0  0  0  0  0  0  0  0  0  0  0
   -0.8612   -0.5631   -4.6401 C   0  0  0  0  0  0  0  0  0  0  0  0
   -0.3386   -0.7744   -5.5604 H   0  0  0  0  0  0  0  0  0  0  0  0
   -2.1713   -0.0374   -4.6718 C   0  0  0  0  0  0  0  0  0  0  0  0
   -2.7848    0.2055   -5.8591 O   0  0  0  0  0  0  0  0  0  0  0  0
   -2.1979    0.0674   -6.6037 H   0  0  0  0  0  0  0  0  0  0  0  0
   -2.8499    0.2338   -3.4656 C   0  0  0  0  0  0  0  0  0  0  0  0
   -3.8496    0.6398   -3.5029 H   0  0  0  0  0  0  0  0  0  0  0  0
   -2.2198   -0.0139   -2.2313 C   0  0  0  0  0  0  0  0  0  0  0  0
   -2.7383    0.2034   -1.3051 H   0  0  0  0  0  0  0  0  0  0  0  0
   -1.4018    1.0238    0.4329 C   0  0  0  0  0  0  0  0  0  0  0  0
   -2.2416    1.5423   -0.3033 O   0  0  0  0  0  0  0  0  0  0  0  0
   -0.6927    1.7304    1.3223 N   0  0  0  0  0  0  0  0  0  0  0  0
    0.0178    1.2410    1.8469 H   0  0  0  0  0  0  0  0  0  0  0  0
   -0.8259    3.1712    1.5254 C   0  0  0  0  0  0  0  0  0  0  0  0
   -1.8769    3.4302    1.6645 H   0  0  0  0  0  0  0  0  0  0  0  0
   -0.2598    3.4806    2.4054 H   0  0  0  0  0  0  0  0  0  0  0  0
   -0.4486    3.7020    0.6489 H   0  0  0  0  0  0  0  0  0  0  0  0
  5  6  2  0  0  0  0
  5  7  1  0  0  0  0
  2  3  1  0  0  0  0
  2  4  1  0  0  0  0
  2  5  1  0  0  0  0
  1  2  1  0  0  0  0
 26 27  2  0  0  0  0
 26 28  1  0  0  0  0
 24 25  1  0  0  0  0
 22 23  1  0  0  0  0
 22 24  2  0  0  0  0
 20 21  1  0  0  0  0
 19 20  1  0  0  0  0
 19 22  1  0  0  0  0
 17 18  1  0  0  0  0
 17 19  2  0  0  0  0
 15 16  1  0  0  0  0
 15 17  1  0  0  0  0
 14 15  2  0  0  0  0
 14 24  1  0  0  0  0
 11 12  1  0  0  0  0
 11 13  1  0  0  0  0
 11 14  1  0  0  0  0
  9 10  1  0  0  0  0
  9 11  1  0  0  0  0
  9 26  1  0  0  0  0
  7  8  1  0  0  0  0
  7  9  1  0  0  0  0
 30 31  1  0  0  0  0
 30 32  1  0  0  0  0
 30 33  1  0  0  0  0
 28 29  1  0  0  0  0
 28 30  1  0  0  0  0
M  END
$$$$
default_name
  -OEChem-02102213163D

 33 33  0     1  0  0  0  0  0999 V2000
   -4.0702   -3.8485    1.4554 H   0  0  0  0  0  0  0  0  0  0  0  0
   -4.0012   -2.9605    0.8284 C   0  0  0  0  0  0  0  0  0  0  0  0
   -4.7652   -2.2435    1.1234 H   0  0  0  0  0  0  0  0  0  0  0  0
   -4.1352   -3.2385   -0.2156 H   0  0  0  0  0  0  0  0  0  0  0  0
   -2.6362   -2.3395    1.0094 C   0  0  0  0  0  0  0  0  0  0  0  0
   -1.8292   -2.8395    1.7814 O   0  0  0  0  0  0  0  0  0  0  0  0
   -2.3832   -1.2445    0.2964 N   0  0  0  0  0  0  0  0  0  0  0  0
   -3.1102   -0.8685   -0.2946 H   0  0  0  0  0  0  0  0  0  0  0  0
   -1.1292   -0.4875    0.3524 C   0  0  1  0  0  0  0  0  0  0  0  0
   -0.5898   -0.7762    1.2552 H   0  0  0  0  0  0  0  0  0  0  0  0
   -0.2608   -0.8470   -0.8656 C   0  0  0  0  0  0  0  0  0  0  0  0
    0.6757   -0.2906   -0.8097 H   0  0  0  0  0  0  0  0  0  0  0  0
   -0.0132   -1.9089   -0.8219 H   0  0  0  0  0  0  0  0  0  0  0  0
   -0.9131   -0.5380   -2.1993 C   0  0  0  0  0  0  0  0  0  0  0  0
   -0.3951   -1.0883   -3.3889 C   0  0  0  0  0  0  0  0  0  0  0  0
    0.4876   -1.7135   -3.3567 H   0  0  0  0  0  0  0  0  0  0  0  0
   -1.0285   -0.8311   -4.6204 C   0  0  0  0  0  0  0  0  0  0  0  0
   -0.6283   -1.2528   -5.5296 H   0  0  0  0  0  0  0  0  0  0  0  0
   -2.1861   -0.0237   -4.6613 C   0  0  0  0  0  0  0  0  0  0  0  0
   -2.8060    0.2278   -5.8436 O   0  0  0  0  0  0  0  0  0  0  0  0
   -2.3153   -0.1194   -6.5896 H   0  0  0  0  0  0  0  0  0  0  0  0
   -2.7059    0.5220   -3.4693 C   0  0  0  0  0  0  0  0  0  0  0  0
   -3.5890    1.1414   -3.5141 H   0  0  0  0  0  0  0  0  0  0  0  0
   -2.0679    0.2669   -2.2406 C   0  0  0  0  0  0  0  0  0  0  0  0
   -2.4624    0.6942   -1.3263 H   0  0  0  0  0  0  0  0  0  0  0  0
   -1.4018    1.0238    0.4329 C   0  0  0  0  0  0  0  0  0  0  0  0
   -2.2416    1.5423   -0.3033 O   0  0  0  0  0  0  0  0  0  0  0  0
   -0.6927    1.7304    1.3223 N   0  0  0  0  0  0  0  0  0  0  0  0
    0.0178    1.2410    1.8469 H   0  0  0  0  0  0  0  0  0  0  0  0
   -0.8259    3.1712    1.5254 C   0  0  0  0  0  0  0  0  0  0  0  0
   -1.8769    3.4302    1.6645 H   0  0  0  0  0  0  0  0  0  0  0  0
   -0.2598    3.4806    2.4054 H   0  0  0  0  0  0  0  0  0  0  0  0
   -0.4486    3.7020    0.6489 H   0  0  0  0  0  0  0  0  0  0  0  0
  5  6  2  0  0  0  0
  5  7  1  0  0  0  0
  2  3  1  0  0  0  0
  2  4  1  0  0  0  0
  2  5  1  0  0  0  0
  1  2  1  0  0  0  0
 26 27  2  0  0  0  0
 26 28  1  0  0  0  0
 24 25  1  0  0  0  0
 22 23  1  0  0  0  0
 22 24  2  0  0  0  0
 20 21  1  0  0  0  0
 19 20  1  0  0  0  0
 19 22  1  0  0  0  0
 17 18  1  0  0  0  0
 17 19  2  0  0  0  0
 15 16  1  0  0  0  0
 15 17  1  0  0  0  0
 14 15  2  0  0  0  0
 14 24  1  0  0  0  0
 11 12  1  0  0  0  0
 11 13  1  0  0  0  0
 11 14  1  0  0  0  0
  9 10  1  0  0  0  0
  9 11  1  0  0  0  0
  9 26  1  0  0  0  0
  7  8  1  0  0  0  0
  7  9  1  0  0  0  0
 30 31  1  0  0  0  0
 30 32  1  0  0  0  0
 30 33  1  0  0  0  0
 28 29  1  0  0  0  0
 28 30  1  0  0  0  0
M  END
$$$$
default_name
  -OEChem-02102213163D

 33 33  0     1  0  0  0  0  0999 V2000
   -4.0702   -3.8485    1.4554 H   0  0  0  0  0  0  0  0  0  0  0  0
   -4.0012   -2.9605    0.8284 C   0  0  0  0  0  0  0  0  0  0  0  0
   -4.7652   -2.2435    1.1234 H   0  0  0  0  0  0  0  0  0  0  0  0
   -4.1352   -3.2385   -0.2156 H   0  0  0  0  0  0  0  0  0  0  0  0
   -2.6362   -2.3395    1.0094 C   0  0  0  0  0  0  0  0  0  0  0  0
   -1.8292   -2.8395    1.7814 O   0  0  0  0  0  0  0  0  0  0  0  0
   -2.3832   -1.2445    0.2964 N   0  0  0  0  0  0  0  0  0  0  0  0
   -3.1102   -0.8685   -0.2946 H   0  0  0  0  0  0  0  0  0  0  0  0
   -1.1292   -0.4875    0.3524 C   0  0  1  0  0  0  0  0  0  0  0  0
   -0.5898   -0.7762    1.2552 H   0  0  0  0  0  0  0  0  0  0  0  0
   -0.2608   -0.8470   -0.8656 C   0  0  0  0  0  0  0  0  0  0  0  0
    0.6757   -0.2906   -0.8097 H   0  0  0  0  0  0  0  0  0  0  0  0
   -0.0132   -1.9089   -0.8219 H   0  0  0  0  0  0  0  0  0  0  0  0
   -0.9131   -0.5380   -2.1993 C   0  0  0  0  0  0  0  0  0  0  0  0
   -0.6112   -1.3149   -3.3358 C   0  0  0  0  0  0  0  0  0  0  0  0
    0.1086   -2.1199   -3.2656 H   0  0  0  0  0  0  0  0  0  0  0  0
   -1.2500   -1.0496   -4.5627 C   0  0  0  0  0  0  0  0  0  0  0  0
   -1.0153   -1.6455   -5.4313 H   0  0  0  0  0  0  0  0  0  0  0  0
   -2.1968   -0.0060   -4.6520 C   0  0  0  0  0  0  0  0  0  0  0  0
   -2.8205    0.2559   -5.8299 O   0  0  0  0  0  0  0  0  0  0  0  0
   -2.4704   -0.2716   -6.5490 H   0  0  0  0  0  0  0  0  0  0  0  0
   -2.5013    0.7673   -3.5126 C   0  0  0  0  0  0  0  0  0  0  0  0
   -3.2237    1.5653   -3.5945 H   0  0  0  0  0  0  0  0  0  0  0  0
   -1.8577    0.5026   -2.2887 C   0  0  0  0  0  0  0  0  0  0  0  0
   -2.0853    1.1031   -1.4160 H   0  0  0  0  0  0  0  0  0  0  0  0
   -1.4018    1.0238    0.4329 C   0  0  0  0  0  0  0  0  0  0  0  0
   -2.2416    1.5423   -0.3033 O   0  0  0  0  0  0  0  0  0  0  0  0
   -0.6927    1.7304    1.3223 N   0  0  0  0  0  0  0  0  0  0  0  0
    0.0178    1.2410    1.8469 H   0  0  0  0  0  0  0  0  0  0  0  0
   -0.8259    3.1712    1.5254 C   0  0  0  0  0  0  0  0  0  0  0  0
   -1.8769    3.4302    1.6645 H   0  0  0  0  0  0  0  0  0  0  0  0
   -0.2598    3.4806    2.4054 H   0  0  0  0  0  0  0  0  0  0  0  0
   -0.4486    3.7020    0.6489 H   0  0  0  0  0  0  0  0  0  0  0  0
  5  6  2  0  0  0  0
  5  7  1  0  0  0  0
  2  3  1  0  0  0  0
  2  4  1  0  0  0  0
  2  5  1  0  0  0  0
  1  2  1  0  0  0  0
 26 27  2  0  0  0  0
 26 28  1  0  0  0  0
 24 25  1  0  0  0  0
 22 23  1  0  0  0  0
 22 24  2  0  0  0  0
 20 21  1  0  0  0  0
 19 20  1  0  0  0  0
 19 22  1  0  0  0  0
 17 18  1  0  0  0  0
 17 19  2  0  0  0  0
 15 16  1  0  0  0  0
 15 17  1  0  0  0  0
 14 15  2  0  0  0  0
 14 24  1  0  0  0  0
 11 12  1  0  0  0  0
 11 13  1  0  0  0  0
 11 14  1  0  0  0  0
  9 10  1  0  0  0  0
  9 11  1  0  0  0  0
  9 26  1  0  0  0  0
  7  8  1  0  0  0  0
  7  9  1  0  0  0  0
 30 31  1  0  0  0  0
 30 32  1  0  0  0  0
 30 33  1  0  0  0  0
 28 29  1  0  0  0  0
 28 30  1  0  0  0  0
M  END
$$$$
default_name
  -OEChem-02102213163D

 33 33  0     1  0  0  0  0  0999 V2000
   -4.0702   -3.8485    1.4554 H   0  0  0  0  0  0  0  0  0  0  0  0
   -4.0012   -2.9605    0.8284 C   0  0  0  0  0  0  0  0  0  0  0  0
   -4.7652   -2.2435    1.1234 H   0  0  0  0  0  0  0  0  0  0  0  0
   -4.1352   -3.2385   -0.2156 H   0  0  0  0  0  0  0  0  0  0  0  0
   -2.6362   -2.3395    1.0094 C   0  0  0  0  0  0  0  0  0  0  0  0
   -1.8292   -2.8395    1.7814 O   0  0  0  0  0  0  0  0  0  0  0  0
   -2.3832   -1.2445    0.2964 N   0  0  0  0  0  0  0  0  0  0  0  0
   -3.1102   -0.8685   -0.2946 H   0  0  0  0  0  0  0  0  0  0  0  0
   -1.1292   -0.4875    0.3524 C   0  0  1  0  0  0  0  0  0  0  0  0
   -0.5898   -0.7762    1.2552 H   0  0  0  0  0  0  0  0  0  0  0  0
   -0.2608   -0.8470   -0.8656 C   0  0  0  0  0  0  0  0  0  0  0  0
    0.6757   -0.2906   -0.8097 H   0  0  0  0  0  0  0  0  0  0  0  0
   -0.0132   -1.9089   -0.8219 H   0  0  0  0  0  0  0  0  0  0  0  0
   -0.9131   -0.5380   -2.1993 C   0  0  0  0  0  0  0  0  0  0  0  0
   -0.8687   -1.4787   -3.2478 C   0  0  0  0  0  0  0  0  0  0  0  0
   -0.3451   -2.4160   -3.1123 H   0  0  0  0  0  0  0  0  0  0  0  0
   -1.5107   -1.2039   -4.4710 C   0  0  0  0  0  0  0  0  0  0  0  0
   -1.4733   -1.9258   -5.2722 H   0  0  0  0  0  0  0  0  0  0  0  0
   -2.2026    0.0147   -4.6444 C   0  0  0  0  0  0  0  0  0  0  0  0
   -2.8275    0.2879   -5.8191 O   0  0  0  0  0  0  0  0  0  0  0  0
   -2.6528   -0.3788   -6.4847 H   0  0  0  0  0  0  0  0  0  0  0  0
   -2.2502    0.9527   -3.5924 C   0  0  0  0  0  0  0  0  0  0  0  0
   -2.7786    1.8827   -3.7387 H   0  0  0  0  0  0  0  0  0  0  0  0
   -1.6036    0.6771   -2.3726 C   0  0  0  0  0  0  0  0  0  0  0  0
   -1.6327    1.4022   -1.5681 H   0  0  0  0  0  0  0  0  0  0  0  0
   -1.4018    1.0238    0.4329 C   0  0  0  0  0  0  0  0  0  0  0  0
   -2.2416    1.5423   -0.3033 O   0  0  0  0  0  0  0  0  0  0  0  0
   -0.6927    1.7304    1.3223 N   0  0  0  0  0  0  0  0  0  0  0  0
    0.0178    1.2410    1.8469 H   0  0  0  0  0  0  0  0  0  0  0  0
   -0.8259    3.1712    1.5254 C   0  0  0  0  0  0  0  0  0  0  0  0
   -1.8769    3.4302    1.6645 H   0  0  0  0  0  0  0  0  0  0  0  0
   -0.2598    3.4806    2.4054 H   0  0  0  0  0  0  0  0  0  0  0  0
   -0.4486    3.7020    0.6489 H   0  0  0  0  0  0  0  0  0  0  0  0
  5  6  2  0  0  0  0
  5  7  1  0  0  0  0
  2  3  1  0  0  0  0
  2  4  1  0  0  0  0
  2  5  1  0  0  0  0
  1  2  1  0  0  0  0
 26 27  2  0  0  0  0
 26 28  1  0  0  0  0
 24 25  1  0  0  0  0
 22 23  1  0  0  0  0
 22 24  2  0  0  0  0
 20 21  1  0  0  0  0
 19 20  1  0  0  0  0
 19 22  1  0  0  0  0
 17 18  1  0  0  0  0
 17 19  2  0  0  0  0
 15 16  1  0  0  0  0
 15 17  1  0  0  0  0
 14 15  2  0  0  0  0
 14 24  1  0  0  0  0
 11 12  1  0  0  0  0
 11 13  1  0  0  0  0
 11 14  1  0  0  0  0
  9 10  1  0  0  0  0
  9 11  1  0  0  0  0
  9 26  1  0  0  0  0
  7  8  1  0  0  0  0
  7  9  1  0  0  0  0
 30 31  1  0  0  0  0
 30 32  1  0  0  0  0
 30 33  1  0  0  0  0
 28 29  1  0  0  0  0
 28 30  1  0  0  0  0
M  END
$$$$
default_name
  -OEChem-02102213163D

 33 33  0     1  0  0  0  0  0999 V2000
   -4.0702   -3.8485    1.4554 H   0  0  0  0  0  0  0  0  0  0  0  0
   -4.0012   -2.9605    0.8284 C   0  0  0  0  0  0  0  0  0  0  0  0
   -4.7652   -2.2435    1.1234 H   0  0  0  0  0  0  0  0  0  0  0  0
   -4.1352   -3.2385   -0.2156 H   0  0  0  0  0  0  0  0  0  0  0  0
   -2.6362   -2.3395    1.0094 C   0  0  0  0  0  0  0  0  0  0  0  0
   -1.8292   -2.8395    1.7814 O   0  0  0  0  0  0  0  0  0  0  0  0
   -2.3832   -1.2445    0.2964 N   0  0  0  0  0  0  0  0  0  0  0  0
   -3.1102   -0.8685   -0.2946 H   0  0  0  0  0  0  0  0  0  0  0  0
   -1.1292   -0.4875    0.3524 C   0  0  1  0  0  0  0  0  0  0  0  0
   -0.5898   -0.7762    1.2552 H   0  0  0  0  0  0  0  0  0  0  0  0
   -0.2608   -0.8470   -0.8656 C   0  0  0  0  0  0  0  0  0  0  0  0
    0.6757   -0.2906   -0.8097 H   0  0  0  0  0  0  0  0  0  0  0  0
   -0.0132   -1.9089   -0.8219 H   0  0  0  0  0  0  0  0  0  0  0  0
   -0.9131   -0.5380   -2.1993 C   0  0  0  0  0  0  0  0  0  0  0  0
   -1.1500   -1.5685   -3.1310 C   0  0  0  0  0  0  0  0  0  0  0  0
   -0.8426   -2.5817   -2.9074 H   0  0  0  0  0  0  0  0  0  0  0  0
   -1.7927   -1.2833   -4.3514 C   0  0  0  0  0  0  0  0  0  0  0  0
   -1.9712   -2.0746   -5.0632 H   0  0  0  0  0  0  0  0  0  0  0  0
   -2.2031    0.0367   -4.6390 C   0  0  0  0  0  0  0  0  0  0  0  0
   -2.8263    0.3216   -5.8119 O   0  0  0  0  0  0  0  0  0  0  0  0
   -2.8499   -0.4337   -6.4010 H   0  0  0  0  0  0  0  0  0  0  0  0
   -1.9696    1.0658   -3.7034 C   0  0  0  0  0  0  0  0  0  0  0  0
   -2.2841    2.0719   -3.9367 H   0  0  0  0  0  0  0  0  0  0  0  0
   -1.3228    0.7784   -2.4864 C   0  0  0  0  0  0  0  0  0  0  0  0
   -1.1354    1.5712   -1.7721 H   0  0  0  0  0  0  0  0  0  0  0  0
   -1.4018    1.0238    0.4329 C   0  0  0  0  0  0  0  0  0  0  0  0
   -2.2416    1.5423   -0.3033 O   0  0  0  0  0  0  0  0  0  0  0  0
   -0.6927    1.7304    1.3223 N   0  0  0  0  0  0  0  0  0  0  0  0
    0.0178    1.2410    1.8469 H   0  0  0  0  0  0  0  0  0  0  0  0
   -0.8259    3.1712    1.5254 C   0  0  0  0  0  0  0  0  0  0  0  0
   -1.8769    3.4302    1.6645 H   0  0  0  0  0  0  0  0  0  0  0  0
   -0.2598    3.4806    2.4054 H   0  0  0  0  0  0  0  0  0  0  0  0
   -0.4486    3.7020    0.6489 H   0  0  0  0  0  0  0  0  0  0  0  0
  5  6  2  0  0  0  0
  5  7  1  0  0  0  0
  2  3  1  0  0  0  0
  2  4  1  0  0  0  0
  2  5  1  0  0  0  0
  1  2  1  0  0  0  0
 26 27  2  0  0  0  0
 26 28  1  0  0  0  0
 24 25  1  0  0  0  0
 22 23  1  0  0  0  0
 22 24  2  0  0  0  0
 20 21  1  0  0  0  0
 19 20  1  0  0  0  0
 19 22  1  0  0  0  0
 17 18  1  0  0  0  0
 17 19  2  0  0  0  0
 15 16  1  0  0  0  0
 15 17  1  0  0  0  0
 14 15  2  0  0  0  0
 14 24  1  0  0  0  0
 11 12  1  0  0  0  0
 11 13  1  0  0  0  0
 11 14  1  0  0  0  0
  9 10  1  0  0  0  0
  9 11  1  0  0  0  0
  9 26  1  0  0  0  0
  7  8  1  0  0  0  0
  7  9  1  0  0  0  0
 30 31  1  0  0  0  0
 30 32  1  0  0  0  0
 30 33  1  0  0  0  0
 28 29  1  0  0  0  0
 28 30  1  0  0  0  0
M  END
$$$$
default_name
  -OEChem-02102213163D

 33 33  0     1  0  0  0  0  0999 V2000
   -4.0702   -3.8485    1.4554 H   0  0  0  0  0  0  0  0  0  0  0  0
   -4.0012   -2.9605    0.8284 C   0  0  0  0  0  0  0  0  0  0  0  0
   -4.7652   -2.2435    1.1234 H   0  0  0  0  0  0  0  0  0  0  0  0
   -4.1352   -3.2385   -0.2156 H   0  0  0  0  0  0  0  0  0  0  0  0
   -2.6362   -2.3395    1.0094 C   0  0  0  0  0  0  0  0  0  0  0  0
   -1.8292   -2.8395    1.7814 O   0  0  0  0  0  0  0  0  0  0  0  0
   -2.3832   -1.2445    0.2964 N   0  0  0  0  0  0  0  0  0  0  0  0
   -3.1102   -0.8685   -0.2946 H   0  0  0  0  0  0  0  0  0  0  0  0
   -1.1292   -0.4875    0.3524 C   0  0  1  0  0  0  0  0  0  0  0  0
   -0.5898   -0.7762    1.2552 H   0  0  0  0  0  0  0  0  0  0  0  0
   -0.2608   -0.8470   -0.8656 C   0  0  0  0  0  0  0  0  0  0  0  0
    0.6757   -0.2906   -0.8097 H   0  0  0  0  0  0  0  0  0  0  0  0
   -0.0132   -1.9089   -0.8219 H   0  0  0  0  0  0  0  0  0  0  0  0
   -0.9131   -0.5380   -2.1993 C   0  0  0  0  0  0  0  0  0  0  0  0
   -1.4361   -1.5782   -2.9934 C   0  0  0  0  0  0  0  0  0  0  0  0
   -1.3502   -2.6057   -2.6647 H   0  0  0  0  0  0  0  0  0  0  0  0
   -2.0770   -1.2825   -4.2123 C   0  0  0  0  0  0  0  0  0  0  0  0
   -2.4749   -2.0817   -4.8185 H   0  0  0  0  0  0  0  0  0  0  0  0
   -2.1983    0.0588   -4.6363 C   0  0  0  0  0  0  0  0  0  0  0  0
   -2.8172    0.3546   -5.8087 O   0  0  0  0  0  0  0  0  0  0  0  0
   -3.0484   -0.4325   -6.3036 H   0  0  0  0  0  0  0  0  0  0  0  0
   -1.6786    1.0988   -3.8380 C   0  0  0  0  0  0  0  0  0  0  0  0
   -1.7737    2.1201   -4.1751 H   0  0  0  0  0  0  0  0  0  0  0  0
   -1.0346    0.7997   -2.6225 C   0  0  0  0  0  0  0  0  0  0  0  0
   -0.6274    1.5986   -2.0142 H   0  0  0  0  0  0  0  0  0  0  0  0
   -1.4018    1.0238    0.4329 C   0  0  0  0  0  0  0  0  0  0  0  0
   -2.2416    1.5423   -0.3033 O   0  0  0  0  0  0  0  0  0  0  0  0
   -0.6927    1.7304    1.3223 N   0  0  0  0  0  0  0  0  0  0  0  0
    0.0178    1.2410    1.8469 H   0  0  0  0  0  0  0  0  0  0  0  0
   -0.8259    3.1712    1.5254 C   0  0  0  0  0  0  0  0  0  0  0  0
   -1.8769    3.4302    1.6645 H   0  0  0  0  0  0  0  0  0  0  0  0
   -0.2598    3.4806    2.4054 H   0  0  0  0  0  0  0  0  0  0  0  0
   -0.4486    3.7020    0.6489 H   0  0  0  0  0  0  0  0  0  0  0  0
  5  6  2  0  0  0  0
  5  7  1  0  0  0  0
  2  3  1  0  0  0  0
  2  4  1  0  0  0  0
  2  5  1  0  0  0  0
  1  2  1  0  0  0  0
 26 27  2  0  0  0  0
 26 28  1  0  0  0  0
 24 25  1  0  0  0  0
 22 23  1  0  0  0  0
 22 24  2  0  0  0  0
 20 21  1  0  0  0  0
 19 20  1  0  0  0  0
 19 22  1  0  0  0  0
 17 18  1  0  0  0  0
 17 19  2  0  0  0  0
 15 16  1  0  0  0  0
 15 17  1  0  0  0  0
 14 15  2  0  0  0  0
 14 24  1  0  0  0  0
 11 12  1  0  0  0  0
 11 13  1  0  0  0  0
 11 14  1  0  0  0  0
  9 10  1  0  0  0  0
  9 11  1  0  0  0  0
  9 26  1  0  0  0  0
  7  8  1  0  0  0  0
  7  9  1  0  0  0  0
 30 31  1  0  0  0  0
 30 32  1  0  0  0  0
 30 33  1  0  0  0  0
 28 29  1  0  0  0  0
 28 30  1  0  0  0  0
M  END
$$$$
default_name
  -OEChem-02102213163D

 33 33  0     1  0  0  0  0  0999 V2000
   -4.0702   -3.8485    1.4554 H   0  0  0  0  0  0  0  0  0  0  0  0
   -4.0012   -2.9605    0.8284 C   0  0  0  0  0  0  0  0  0  0  0  0
   -4.7652   -2.2435    1.1234 H   0  0  0  0  0  0  0  0  0  0  0  0
   -4.1352   -3.2385   -0.2156 H   0  0  0  0  0  0  0  0  0  0  0  0
   -2.6362   -2.3395    1.0094 C   0  0  0  0  0  0  0  0  0  0  0  0
   -1.8292   -2.8395    1.7814 O   0  0  0  0  0  0  0  0  0  0  0  0
   -2.3832   -1.2445    0.2964 N   0  0  0  0  0  0  0  0  0  0  0  0
   -3.1102   -0.8685   -0.2946 H   0  0  0  0  0  0  0  0  0  0  0  0
   -1.1292   -0.4875    0.3524 C   0  0  1  0  0  0  0  0  0  0  0  0
   -0.5898   -0.7762    1.2552 H   0  0  0  0  0  0  0  0  0  0  0  0
   -0.2608   -0.8470   -0.8656 C   0  0  0  0  0  0  0  0  0  0  0  0
    0.6757   -0.2906   -0.8097 H   0  0  0  0  0  0  0  0  0  0  0  0
   -0.0132   -1.9089   -0.8219 H   0  0  0  0  0  0  0  0  0  0  0  0
   -0.9131   -0.5380   -2.1993 C   0  0  0  0  0  0  0  0  0  0  0  0
   -1.7074   -1.5072   -2.8443 C   0  0  0  0  0  0  0  0  0  0  0  0
   -1.8331   -2.4863   -2.4009 H   0  0  0  0  0  0  0  0  0  0  0  0
   -2.3440   -1.2016   -4.0629 C   0  0  0  0  0  0  0  0  0  0  0  0
   -2.9502   -1.9466   -4.5548 H   0  0  0  0  0  0  0  0  0  0  0  0
   -2.1884    0.0793   -4.6364 C   0  0  0  0  0  0  0  0  0  0  0  0
   -2.8006    0.3848   -5.8098 O   0  0  0  0  0  0  0  0  0  0  0  0
   -3.2347   -0.3753   -6.1992 H   0  0  0  0  0  0  0  0  0  0  0  0
   -1.3972    1.0495   -3.9871 C   0  0  0  0  0  0  0  0  0  0  0  0
   -1.2823    2.0238   -4.4377 H   0  0  0  0  0  0  0  0  0  0  0  0
   -0.7584    0.7395   -2.7714 C   0  0  0  0  0  0  0  0  0  0  0  0
   -0.1432    1.4824   -2.2779 H   0  0  0  0  0  0  0  0  0  0  0  0
   -1.4018    1.0238    0.4329 C   0  0  0  0  0  0  0  0  0  0  0  0
   -2.2416    1.5423   -0.3033 O   0  0  0  0  0  0  0  0  0  0  0  0
   -0.6927    1.7304    1.3223 N   0  0  0  0  0  0  0  0  0  0  0  0
    0.0178    1.2410    1.8469 H   0  0  0  0  0  0  0  0  0  0  0  0
   -0.8259    3.1712    1.5254 C   0  0  0  0  0  0  0  0  0  0  0  0
   -1.8769    3.4302    1.6645 H   0  0  0  0  0  0  0  0  0  0  0  0
   -0.2598    3.4806    2.4054 H   0  0  0  0  0  0  0  0  0  0  0  0
   -0.4486    3.7020    0.6489 H   0  0  0  0  0  0  0  0  0  0  0  0
  5  6  2  0  0  0  0
  5  7  1  0  0  0  0
  2  3  1  0  0  0  0
  2  4  1  0  0  0  0
  2  5  1  0  0  0  0
  1  2  1  0  0  0  0
 26 27  2  0  0  0  0
 26 28  1  0  0  0  0
 24 25  1  0  0  0  0
 22 23  1  0  0  0  0
 22 24  2  0  0  0  0
 20 21  1  0  0  0  0
 19 20  1  0  0  0  0
 19 22  1  0  0  0  0
 17 18  1  0  0  0  0
 17 19  2  0  0  0  0
 15 16  1  0  0  0  0
 15 17  1  0  0  0  0
 14 15  2  0  0  0  0
 14 24  1  0  0  0  0
 11 12  1  0  0  0  0
 11 13  1  0  0  0  0
 11 14  1  0  0  0  0
  9 10  1  0  0  0  0
  9 11  1  0  0  0  0
  9 26  1  0  0  0  0
  7  8  1  0  0  0  0
  7  9  1  0  0  0  0
 30 31  1  0  0  0  0
 30 32  1  0  0  0  0
 30 33  1  0  0  0  0
 28 29  1  0  0  0  0
 28 30  1  0  0  0  0
M  END
$$$$
default_name
  -OEChem-02102213163D

 33 33  0     1  0  0  0  0  0999 V2000
   -4.0702   -3.8485    1.4554 H   0  0  0  0  0  0  0  0  0  0  0  0
   -4.0012   -2.9605    0.8284 C   0  0  0  0  0  0  0  0  0  0  0  0
   -4.7652   -2.2435    1.1234 H   0  0  0  0  0  0  0  0  0  0  0  0
   -4.1352   -3.2385   -0.2156 H   0  0  0  0  0  0  0  0  0  0  0  0
   -2.6362   -2.3395    1.0094 C   0  0  0  0  0  0  0  0  0  0  0  0
   -1.8292   -2.8395    1.7814 O   0  0  0  0  0  0  0  0  0  0  0  0
   -2.3832   -1.2445    0.2964 N   0  0  0  0  0  0  0  0  0  0  0  0
   -3.1102   -0.8685   -0.2946 H   0  0  0  0  0  0  0  0  0  0  0  0
   -1.1292   -0.4875    0.3524 C   0  0  1  0  0  0  0  0  0  0  0  0
   -0.5898   -0.7762    1.2552 H   0  0  0  0  0  0  0  0  0  0  0  0
   -0.2608   -0.8470   -0.8656 C   0  0  0  0  0  0  0  0  0  0  0  0
    0.6757   -0.2906   -0.8097 H   0  0  0  0  0  0  0  0  0  0  0  0
   -0.0132   -1.9089   -0.8219 H   0  0  0  0  0  0  0  0  0  0  0  0
   -0.9131   -0.5380   -2.1993 C   0  0  0  0  0  0  0  0  0  0  0  0
   -1.9454   -1.3602   -2.6938 C   0  0  0  0  0  0  0  0  0  0  0  0
   -2.2584   -2.2318   -2.1339 H   0  0  0  0  0  0  0  0  0  0  0  0
   -2.5756   -1.0460   -3.9136 C   0  0  0  0  0  0  0  0  0  0  0  0
   -3.3647   -1.6787   -4.2901 H   0  0  0  0  0  0  0  0  0  0  0  0
   -2.1743    0.0968   -4.6392 C   0  0  0  0  0  0  0  0  0  0  0  0
   -2.7778    0.4101   -5.8151 O   0  0  0  0  0  0  0  0  0  0  0  0
   -3.3962   -0.2660   -6.0950 H   0  0  0  0  0  0  0  0  0  0  0  0
   -1.1445    0.9212   -4.1404 C   0  0  0  0  0  0  0  0  0  0  0  0
   -0.8435    1.7898   -4.7065 H   0  0  0  0  0  0  0  0  0  0  0  0
   -0.5133    0.6019   -2.9232 C   0  0  0  0  0  0  0  0  0  0  0  0
    0.2841    1.2306   -2.5452 H   0  0  0  0  0  0  0  0  0  0  0  0
   -1.4018    1.0238    0.4329 C   0  0  0  0  0  0  0  0  0  0  0  0
   -2.2416    1.5423   -0.3033 O   0  0  0  0  0  0  0  0  0  0  0  0
   -0.6927    1.7304    1.3223 N   0  0  0  0  0  0  0  0  0  0  0  0
    0.0178    1.2410    1.8469 H   0  0  0  0  0  0  0  0  0  0  0  0
   -0.8259    3.1712    1.5254 C   0  0  0  0  0  0  0  0  0  0  0  0
   -1.8769    3.4302    1.6645 H   0  0  0  0  0  0  0  0  0  0  0  0
   -0.2598    3.4806    2.4054 H   0  0  0  0  0  0  0  0  0  0  0  0
   -0.4486    3.7020    0.6489 H   0  0  0  0  0  0  0  0  0  0  0  0
  5  6  2  0  0  0  0
  5  7  1  0  0  0  0
  2  3  1  0  0  0  0
  2  4  1  0  0  0  0
  2  5  1  0  0  0  0
  1  2  1  0  0  0  0
 26 27  2  0  0  0  0
 26 28  1  0  0  0  0
 24 25  1  0  0  0  0
 22 23  1  0  0  0  0
 22 24  2  0  0  0  0
 20 21  1  0  0  0  0
 19 20  1  0  0  0  0
 19 22  1  0  0  0  0
 17 18  1  0  0  0  0
 17 19  2  0  0  0  0
 15 16  1  0  0  0  0
 15 17  1  0  0  0  0
 14 15  2  0  0  0  0
 14 24  1  0  0  0  0
 11 12  1  0  0  0  0
 11 13  1  0  0  0  0
 11 14  1  0  0  0  0
  9 10  1  0  0  0  0
  9 11  1  0  0  0  0
  9 26  1  0  0  0  0
  7  8  1  0  0  0  0
  7  9  1  0  0  0  0
 30 31  1  0  0  0  0
 30 32  1  0  0  0  0
 30 33  1  0  0  0  0
 28 29  1  0  0  0  0
 28 30  1  0  0  0  0
M  END
$$$$
default_name
  -OEChem-02102213163D

 33 33  0     1  0  0  0  0  0999 V2000
   -4.0702   -3.8485    1.4554 H   0  0  0  0  0  0  0  0  0  0  0  0
   -4.0012   -2.9605    0.8284 C   0  0  0  0  0  0  0  0  0  0  0  0
   -4.7652   -2.2435    1.1234 H   0  0  0  0  0  0  0  0  0  0  0  0
   -4.1352   -3.2385   -0.2156 H   0  0  0  0  0  0  0  0  0  0  0  0
   -2.6362   -2.3395    1.0094 C   0  0  0  0  0  0  0  0  0  0  0  0
   -1.8292   -2.8395    1.7814 O   0  0  0  0  0  0  0  0  0  0  0  0
   -2.3832   -1.2445    0.2964 N   0  0  0  0  0  0  0  0  0  0  0  0
   -3.1102   -0.8685   -0.2946 H   0  0  0  0  0  0  0  0  0  0  0  0
   -1.1292   -0.4875    0.3524 C   0  0  1  0  0  0  0  0  0  0  0  0
   -0.5898   -0.7762    1.2552 H   0  0  0  0  0  0  0  0  0  0  0  0
   -0.2608   -0.8470   -0.8656 C   0  0  0  0  0  0  0  0  0  0  0  0
    0.6757   -0.2906   -0.8097 H   0  0  0  0  0  0  0  0  0  0  0  0
   -0.0132   -1.9089   -0.8219 H   0  0  0  0  0  0  0  0  0  0  0  0
   -0.9131   -0.5380   -2.1993 C   0  0  0  0  0  0  0  0  0  0  0  0
   -2.1339   -1.1473   -2.5523 C   0  0  0  0  0  0  0  0  0  0  0  0
   -2.5973   -1.8593   -1.8820 H   0  0  0  0  0  0  0  0  0  0  0  0
   -2.7561   -0.8263   -3.7745 C   0  0  0  0  0  0  0  0  0  0  0  0
   -3.6900   -1.2960   -4.0423 H   0  0  0  0  0  0  0  0  0  0  0  0
   -2.1567    0.1103   -4.6447 C   0  0  0  0  0  0  0  0  0  0  0  0
   -2.7503    0.4288   -5.8242 O   0  0  0  0  0  0  0  0  0  0  0  0
   -3.5218   -0.1121   -5.9979 H   0  0  0  0  0  0  0  0  0  0  0  0
   -0.9376    0.7227   -4.2876 C   0  0  0  0  0  0  0  0  0  0  0  0
   -0.4870    1.4340   -4.9633 H   0  0  0  0  0  0  0  0  0  0  0  0
   -0.3158    0.3963   -3.0674 C   0  0  0  0  0  0  0  0  0  0  0  0
    0.6255    0.8603   -2.7979 H   0  0  0  0  0  0  0  0  0  0  0  0
   -1.4018    1.0238    0.4329 C   0  0  0  0  0  0  0  0  0  0  0  0
   -2.2416    1.5423   -0.3033 O   0  0  0  0  0  0  0  0  0  0  0  0
   -0.6927    1.7304    1.3223 N   0  0  0  0  0  0  0  0  0  0  0  0
    0.0178    1.2410    1.8469 H   0  0  0  0  0  0  0  0  0  0  0  0
   -0.8259    3.1712    1.5254 C   0  0  0  0  0  0  0  0  0  0  0  0
   -1.8769    3.4302    1.6645 H   0  0  0  0  0  0  0  0  0  0  0  0
   -0.2598    3.4806    2.4054 H   0  0  0  0  0  0  0  0  0  0  0  0
   -0.4486    3.7020    0.6489 H   0  0  0  0  0  0  0  0  0  0  0  0
  5  6  2  0  0  0  0
  5  7  1  0  0  0  0
  2  3  1  0  0  0  0
  2  4  1  0  0  0  0
  2  5  1  0  0  0  0
  1  2  1  0  0  0  0
 26 27  2  0  0  0  0
 26 28  1  0  0  0  0
 24 25  1  0  0  0  0
 22 23  1  0  0  0  0
 22 24  2  0  0  0  0
 20 21  1  0  0  0  0
 19 20  1  0  0  0  0
 19 22  1  0  0  0  0
 17 18  1  0  0  0  0
 17 19  2  0  0  0  0
 15 16  1  0  0  0  0
 15 17  1  0  0  0  0
 14 15  2  0  0  0  0
 14 24  1  0  0  0  0
 11 12  1  0  0  0  0
 11 13  1  0  0  0  0
 11 14  1  0  0  0  0
  9 10  1  0  0  0  0
  9 11  1  0  0  0  0
  9 26  1  0  0  0  0
  7  8  1  0  0  0  0
  7  9  1  0  0  0  0
 30 31  1  0  0  0  0
 30 32  1  0  0  0  0
 30 33  1  0  0  0  0
 28 29  1  0  0  0  0
 28 30  1  0  0  0  0
M  END
$$$$
default_name
  -OEChem-02102213163D

 33 33  0     1  0  0  0  0  0999 V2000
   -4.0702   -3.8485    1.4554 H   0  0  0  0  0  0  0  0  0  0  0  0
   -4.0012   -2.9605    0.8284 C   0  0  0  0  0  0  0  0  0  0  0  0
   -4.7652   -2.2435    1.1234 H   0  0  0  0  0  0  0  0  0  0  0  0
   -4.1352   -3.2385   -0.2156 H   0  0  0  0  0  0  0  0  0  0  0  0
   -2.6362   -2.3395    1.0094 C   0  0  0  0  0  0  0  0  0  0  0  0
   -1.8292   -2.8395    1.7814 O   0  0  0  0  0  0  0  0  0  0  0  0
   -2.3832   -1.2445    0.2964 N   0  0  0  0  0  0  0  0  0  0  0  0
   -3.1102   -0.8685   -0.2946 H   0  0  0  0  0  0  0  0  0  0  0  0
   -1.1292   -0.4875    0.3524 C   0  0  1  0  0  0  0  0  0  0  0  0
   -0.5898   -0.7762    1.2552 H   0  0  0  0  0  0  0  0  0  0  0  0
   -0.2608   -0.8470   -0.8656 C   0  0  0  0  0  0  0  0  0  0  0  0
    0.6757   -0.2906   -0.8097 H   0  0  0  0  0  0  0  0  0  0  0  0
   -0.0132   -1.9089   -0.8219 H   0  0  0  0  0  0  0  0  0  0  0  0
   -0.9131   -0.5380   -2.1993 C   0  0  0  0  0  0  0  0  0  0  0  0
   -2.2600   -0.8830   -2.4294 C   0  0  0  0  0  0  0  0  0  0  0  0
   -2.8265   -1.3944   -1.6622 H   0  0  0  0  0  0  0  0  0  0  0  0
   -2.8730   -0.5576   -3.6551 C   0  0  0  0  0  0  0  0  0  0  0  0
   -3.9041   -0.8248   -3.8284 H   0  0  0  0  0  0  0  0  0  0  0  0
   -2.1371    0.1186   -4.6524 C   0  0  0  0  0  0  0  0  0  0  0  0
   -2.7200    0.4395   -5.8366 O   0  0  0  0  0  0  0  0  0  0  0  0
   -3.6030    0.0759   -5.9146 H   0  0  0  0  0  0  0  0  0  0  0  0
   -0.7908    0.4675   -4.4185 C   0  0  0  0  0  0  0  0  0  0  0  0
   -0.2372    0.9805   -5.1905 H   0  0  0  0  0  0  0  0  0  0  0  0
   -0.1795    0.1368   -3.1942 C   0  0  0  0  0  0  0  0  0  0  0  0
    0.8576    0.3969   -3.0188 H   0  0  0  0  0  0  0  0  0  0  0  0
   -1.4018    1.0238    0.4329 C   0  0  0  0  0  0  0  0  0  0  0  0
   -2.2416    1.5423   -0.3033 O   0  0  0  0  0  0  0  0  0  0  0  0
   -0.6927    1.7304    1.3223 N   0  0  0  0  0  0  0  0  0  0  0  0
    0.0178    1.2410    1.8469 H   0  0  0  0  0  0  0  0  0  0  0  0
   -0.8259    3.1712    1.5254 C   0  0  0  0  0  0  0  0  0  0  0  0
   -1.8769    3.4302    1.6645 H   0  0  0  0  0  0  0  0  0  0  0  0
   -0.2598    3.4806    2.4054 H   0  0  0  0  0  0  0  0  0  0  0  0
   -0.4486    3.7020    0.6489 H   0  0  0  0  0  0  0  0  0  0  0  0
  5  6  2  0  0  0  0
  5  7  1  0  0  0  0
  2  3  1  0  0  0  0
  2  4  1  0  0  0  0
  2  5  1  0  0  0  0
  1  2  1  0  0  0  0
 26 27  2  0  0  0  0
 26 28  1  0  0  0  0
 24 25  1  0  0  0  0
 22 23  1  0  0  0  0
 22 24  2  0  0  0  0
 20 21  1  0  0  0  0
 19 20  1  0  0  0  0
 19 22  1  0  0  0  0
 17 18  1  0  0  0  0
 17 19  2  0  0  0  0
 15 16  1  0  0  0  0
 15 17  1  0  0  0  0
 14 15  2  0  0  0  0
 14 24  1  0  0  0  0
 11 12  1  0  0  0  0
 11 13  1  0  0  0  0
 11 14  1  0  0  0  0
  9 10  1  0  0  0  0
  9 11  1  0  0  0  0
  9 26  1  0  0  0  0
  7  8  1  0  0  0  0
  7  9  1  0  0  0  0
 30 31  1  0  0  0  0
 30 32  1  0  0  0  0
 30 33  1  0  0  0  0
 28 29  1  0  0  0  0
 28 30  1  0  0  0  0
M  END
$$$$
default_name
  -OEChem-02102213163D

 33 33  0     1  0  0  0  0  0999 V2000
   -4.0702   -3.8485    1.4554 H   0  0  0  0  0  0  0  0  0  0  0  0
   -4.0012   -2.9605    0.8284 C   0  0  0  0  0  0  0  0  0  0  0  0
   -4.7652   -2.2435    1.1234 H   0  0  0  0  0  0  0  0  0  0  0  0
   -4.1352   -3.2385   -0.2156 H   0  0  0  0  0  0  0  0  0  0  0  0
   -2.6362   -2.3395    1.0094 C   0  0  0  0  0  0  0  0  0  0  0  0
   -1.8292   -2.8395    1.7814 O   0  0  0  0  0  0  0  0  0  0  0  0
   -2.3832   -1.2445    0.2964 N   0  0  0  0  0  0  0  0  0  0  0  0
   -3.1102   -0.8685   -0.2946 H   0  0  0  0  0  0  0  0  0  0  0  0
   -1.1292   -0.4875    0.3524 C   0  0  1  0  0  0  0  0  0  0  0  0
   -0.5898   -0.7762    1.2552 H   0  0  0  0  0  0  0  0  0  0  0  0
   -0.2608   -0.8470   -0.8656 C   0  0  0  0  0  0  0  0  0  0  0  0
    0.6757   -0.2906   -0.8097 H   0  0  0  0  0  0  0  0  0  0  0  0
   -0.0132   -1.9089   -0.8219 H   0  0  0  0  0  0  0  0  0  0  0  0
   -0.9131   -0.5380   -2.1993 C   0  0  0  0  0  0  0  0  0  0  0  0
   -2.3152   -0.5854   -2.3335 C   0  0  0  0  0  0  0  0  0  0  0  0
   -2.9305   -0.8686   -1.4895 H   0  0  0  0  0  0  0  0  0  0  0  0
   -2.9185   -0.2582   -3.5634 C   0  0  0  0  0  0  0  0  0  0  0  0
   -3.9924   -0.2970   -3.6630 H   0  0  0  0  0  0  0  0  0  0  0  0
   -2.1165    0.1214   -4.6618 C   0  0  0  0  0  0  0  0  0  0  0  0
   -2.6889    0.4416   -5.8513 O   0  0  0  0  0  0  0  0  0  0  0  0
   -3.6342    0.2853   -5.8509 H   0  0  0  0  0  0  0  0  0  0  0  0
   -0.7139    0.1730   -4.5243 C   0  0  0  0  0  0  0  0  0  0  0  0
   -0.1112    0.4603   -5.3726 H   0  0  0  0  0  0  0  0  0  0  0  0
   -0.1136   -0.1591   -3.2950 C   0  0  0  0  0  0  0  0  0  0  0  0
    0.9647   -0.1282   -3.1928 H   0  0  0  0  0  0  0  0  0  0  0  0
   -1.4018    1.0238    0.4329 C   0  0  0  0  0  0  0  0  0  0  0  0
   -2.2416    1.5423   -0.3033 O   0  0  0  0  0  0  0  0  0  0  0  0
   -0.6927    1.7304    1.3223 N   0  0  0  0  0  0  0  0  0  0  0  0
    0.0178    1.2410    1.8469 H   0  0  0  0  0  0  0  0  0  0  0  0
   -0.8259    3.1712    1.5254 C   0  0  0  0  0  0  0  0  0  0  0  0
   -1.8769    3.4302    1.6645 H   0  0  0  0  0  0  0  0  0  0  0  0
   -0.2598    3.4806    2.4054 H   0  0  0  0  0  0  0  0  0  0  0  0
   -0.4486    3.7020    0.6489 H   0  0  0  0  0  0  0  0  0  0  0  0
  5  6  2  0  0  0  0
  5  7  1  0  0  0  0
  2  3  1  0  0  0  0
  2  4  1  0  0  0  0
  2  5  1  0  0  0  0
  1  2  1  0  0  0  0
 26 27  2  0  0  0  0
 26 28  1  0  0  0  0
 24 25  1  0  0  0  0
 22 23  1  0  0  0  0
 22 24  2  0  0  0  0
 20 21  1  0  0  0  0
 19 20  1  0  0  0  0
 19 22  1  0  0  0  0
 17 18  1  0  0  0  0
 17 19  2  0  0  0  0
 15 16  1  0  0  0  0
 15 17  1  0  0  0  0
 14 15  2  0  0  0  0
 14 24  1  0  0  0  0
 11 12  1  0  0  0  0
 11 13  1  0  0  0  0
 11 14  1  0  0  0  0
  9 10  1  0  0  0  0
  9 11  1  0  0  0  0
  9 26  1  0  0  0  0
  7  8  1  0  0  0  0
  7  9  1  0  0  0  0
 30 31  1  0  0  0  0
 30 32  1  0  0  0  0
 30 33  1  0  0  0  0
 28 29  1  0  0  0  0
 28 30  1  0  0  0  0
M  END
$$$$
default_name
  -OEChem-02102213163D

 33 33  0     1  0  0  0  0  0999 V2000
   -4.0702   -3.8485    1.4554 H   0  0  0  0  0  0  0  0  0  0  0  0
   -4.0012   -2.9605    0.8284 C   0  0  0  0  0  0  0  0  0  0  0  0
   -4.7652   -2.2435    1.1234 H   0  0  0  0  0  0  0  0  0  0  0  0
   -4.1352   -3.2385   -0.2156 H   0  0  0  0  0  0  0  0  0  0  0  0
   -2.6362   -2.3395    1.0094 C   0  0  0  0  0  0  0  0  0  0  0  0
   -1.8292   -2.8395    1.7814 O   0  0  0  0  0  0  0  0  0  0  0  0
   -2.3832   -1.2445    0.2964 N   0  0  0  0  0  0  0  0  0  0  0  0
   -3.1102   -0.8685   -0.2946 H   0  0  0  0  0  0  0  0  0  0  0  0
   -1.1292   -0.4875    0.3524 C   0  0  1  0  0  0  0  0  0  0  0  0
   -0.5898   -0.7762    1.2552 H   0  0  0  0  0  0  0  0  0  0  0  0
   -0.2608   -0.8470   -0.8656 C   0  0  0  0  0  0  0  0  0  0  0  0
    0.6757   -0.2906   -0.8097 H   0  0  0  0  0  0  0  0  0  0  0  0
   -0.0132   -1.9089   -0.8219 H   0  0  0  0  0  0  0  0  0  0  0  0
   -0.9131   -0.5380   -2.1993 C   0  0  0  0  0  0  0  0  0  0  0  0
   -2.2957   -0.2746   -2.2710 C   0  0  0  0  0  0  0  0  0  0  0  0
   -2.9021   -0.3179   -1.3758 H   0  0  0  0  0  0  0  0  0  0  0  0
   -2.8895    0.0517   -3.5058 C   0  0  0  0  0  0  0  0  0  0  0  0
   -3.9488    0.2513   -3.5573 H   0  0  0  0  0  0  0  0  0  0  0  0
   -2.0966    0.1183   -4.6722 C   0  0  0  0  0  0  0  0  0  0  0  0
   -2.6592    0.4350   -5.8674 O   0  0  0  0  0  0  0  0  0  0  0  0
   -3.6133    0.5018   -5.8109 H   0  0  0  0  0  0  0  0  0  0  0  0
   -0.7123   -0.1408   -4.5978 C   0  0  0  0  0  0  0  0  0  0  0  0
   -0.1174   -0.0911   -5.4973 H   0  0  0  0  0  0  0  0  0  0  0  0
   -0.1226   -0.4711   -3.3628 C   0  0  0  0  0  0  0  0  0  0  0  0
    0.9394   -0.6792   -3.3080 H   0  0  0  0  0  0  0  0  0  0  0  0
   -1.4018    1.0238    0.4329 C   0  0  0  0  0  0  0  0  0  0  0  0
   -2.2416    1.5423   -0.3033 O   0  0  0  0  0  0  0  0  0  0  0  0
   -0.6927    1.7304    1.3223 N   0  0  0  0  0  0  0  0  0  0  0  0
    0.0178    1.2410    1.8469 H   0  0  0  0  0  0  0  0  0  0  0  0
   -0.8259    3.1712    1.5254 C   0  0  0  0  0  0  0  0  0  0  0  0
   -1.8769    3.4302    1.6645 H   0  0  0  0  0  0  0  0  0  0  0  0
   -0.2598    3.4806    2.4054 H   0  0  0  0  0  0  0  0  0  0  0  0
   -0.4486    3.7020    0.6489 H   0  0  0  0  0  0  0  0  0  0  0  0
  5  6  2  0  0  0  0
  5  7  1  0  0  0  0
  2  3  1  0  0  0  0
  2  4  1  0  0  0  0
  2  5  1  0  0  0  0
  1  2  1  0  0  0  0
 26 27  2  0  0  0  0
 26 28  1  0  0  0  0
 24 25  1  0  0  0  0
 22 23  1  0  0  0  0
 22 24  2  0  0  0  0
 20 21  1  0  0  0  0
 19 20  1  0  0  0  0
 19 22  1  0  0  0  0
 17 18  1  0  0  0  0
 17 19  2  0  0  0  0
 15 16  1  0  0  0  0
 15 17  1  0  0  0  0
 14 15  2  0  0  0  0
 14 24  1  0  0  0  0
 11 12  1  0  0  0  0
 11 13  1  0  0  0  0
 11 14  1  0  0  0  0
  9 10  1  0  0  0  0
  9 11  1  0  0  0  0
  9 26  1  0  0  0  0
  7  8  1  0  0  0  0
  7  9  1  0  0  0  0
 30 31  1  0  0  0  0
 30 32  1  0  0  0  0
 30 33  1  0  0  0  0
 28 29  1  0  0  0  0
 28 30  1  0  0  0  0
M  END
$$$$
default_name
  -OEChem-02102213163D

 33 33  0     1  0  0  0  0  0999 V2000
   -4.0702   -3.8485    1.4554 H   0  0  0  0  0  0  0  0  0  0  0  0
   -4.0012   -2.9605    0.8284 C   0  0  0  0  0  0  0  0  0  0  0  0
   -4.7652   -2.2435    1.1234 H   0  0  0  0  0  0  0  0  0  0  0  0
   -4.1352   -3.2385   -0.2156 H   0  0  0  0  0  0  0  0  0  0  0  0
   -2.6362   -2.3395    1.0094 C   0  0  0  0  0  0  0  0  0  0  0  0
   -1.8292   -2.8395    1.7814 O   0  0  0  0  0  0  0  0  0  0  0  0
   -2.3832   -1.2445    0.2964 N   0  0  0  0  0  0  0  0  0  0  0  0
   -3.1102   -0.8685   -0.2946 H   0  0  0  0  0  0  0  0  0  0  0  0
   -1.1292   -0.4875    0.3524 C   0  0  1  0  0  0  0  0  0  0  0  0
   -0.5898   -0.7762    1.2552 H   0  0  0  0  0  0  0  0  0  0  0  0
   -0.2608   -0.8470   -0.8656 C   0  0  0  0  0  0  0  0  0  0  0  0
    0.6757   -0.2906   -0.8097 H   0  0  0  0  0  0  0  0  0  0  0  0
   -0.0132   -1.9089   -0.8219 H   0  0  0  0  0  0  0  0  0  0  0  0
   -0.9131   -0.5380   -2.1993 C   0  0  0  0  0  0  0  0  0  0  0  0
   -2.2028    0.0281   -2.2463 C   0  0  0  0  0  0  0  0  0  0  0  0
   -2.7434    0.2203   -1.3287 H   0  0  0  0  0  0  0  0  0  0  0  0
   -2.7879    0.3508   -3.4862 C   0  0  0  0  0  0  0  0  0  0  0  0
   -3.7763    0.7827   -3.5186 H   0  0  0  0  0  0  0  0  0  0  0  0
   -2.0786    0.1096   -4.6831 C   0  0  0  0  0  0  0  0  0  0  0  0
   -2.6328    0.4199   -5.8837 O   0  0  0  0  0  0  0  0  0  0  0  0
   -3.5417    0.7105   -5.7976 H   0  0  0  0  0  0  0  0  0  0  0  0
   -0.7860   -0.4524   -4.6339 C   0  0  0  0  0  0  0  0  0  0  0  0
   -0.2555   -0.6361   -5.5561 H   0  0  0  0  0  0  0  0  0  0  0  0
   -0.2059   -0.7780   -3.3932 C   0  0  0  0  0  0  0  0  0  0  0  0
    0.7835   -1.2184   -3.3567 H   0  0  0  0  0  0  0  0  0  0  0  0
   -1.4018    1.0238    0.4329 C   0  0  0  0  0  0  0  0  0  0  0  0
   -2.2416    1.5423   -0.3033 O   0  0  0  0  0  0  0  0  0  0  0  0
   -0.6927    1.7304    1.3223 N   0  0  0  0  0  0  0  0  0  0  0  0
    0.0178    1.2410    1.8469 H   0  0  0  0  0  0  0  0  0  0  0  0
   -0.8259    3.1712    1.5254 C   0  0  0  0  0  0  0  0  0  0  0  0
   -1.8769    3.4302    1.6645 H   0  0  0  0  0  0  0  0  0  0  0  0
   -0.2598    3.4806    2.4054 H   0  0  0  0  0  0  0  0  0  0  0  0
   -0.4486    3.7020    0.6489 H   0  0  0  0  0  0  0  0  0  0  0  0
  5  6  2  0  0  0  0
  5  7  1  0  0  0  0
  2  3  1  0  0  0  0
  2  4  1  0  0  0  0
  2  5  1  0  0  0  0
  1  2  1  0  0  0  0
 26 27  2  0  0  0  0
 26 28  1  0  0  0  0
 24 25  1  0  0  0  0
 22 23  1  0  0  0  0
 22 24  2  0  0  0  0
 20 21  1  0  0  0  0
 19 20  1  0  0  0  0
 19 22  1  0  0  0  0
 17 18  1  0  0  0  0
 17 19  2  0  0  0  0
 15 16  1  0  0  0  0
 15 17  1  0  0  0  0
 14 15  2  0  0  0  0
 14 24  1  0  0  0  0
 11 12  1  0  0  0  0
 11 13  1  0  0  0  0
 11 14  1  0  0  0  0
  9 10  1  0  0  0  0
  9 11  1  0  0  0  0
  9 26  1  0  0  0  0
  7  8  1  0  0  0  0
  7  9  1  0  0  0  0
 30 31  1  0  0  0  0
 30 32  1  0  0  0  0
 30 33  1  0  0  0  0
 28 29  1  0  0  0  0
 28 30  1  0  0  0  0
M  END
$$$$
default_name
  -OEChem-02102213163D

 33 33  0     1  0  0  0  0  0999 V2000
   -4.0702   -3.8485    1.4554 H   0  0  0  0  0  0  0  0  0  0  0  0
   -4.0012   -2.9605    0.8284 C   0  0  0  0  0  0  0  0  0  0  0  0
   -4.7652   -2.2435    1.1234 H   0  0  0  0  0  0  0  0  0  0  0  0
   -4.1352   -3.2385   -0.2156 H   0  0  0  0  0  0  0  0  0  0  0  0
   -2.6362   -2.3395    1.0094 C   0  0  0  0  0  0  0  0  0  0  0  0
   -1.8292   -2.8395    1.7814 O   0  0  0  0  0  0  0  0  0  0  0  0
   -2.3832   -1.2445    0.2964 N   0  0  0  0  0  0  0  0  0  0  0  0
   -3.1102   -0.8685   -0.2946 H   0  0  0  0  0  0  0  0  0  0  0  0
   -1.1292   -0.4875    0.3524 C   0  0  1  0  0  0  0  0  0  0  0  0
   -0.5898   -0.7762    1.2552 H   0  0  0  0  0  0  0  0  0  0  0  0
   -0.2608   -0.8470   -0.8656 C   0  0  0  0  0  0  0  0  0  0  0  0
    0.6757   -0.2906   -0.8097 H   0  0  0  0  0  0  0  0  0  0  0  0
   -0.0132   -1.9089   -0.8219 H   0  0  0  0  0  0  0  0  0  0  0  0
   -0.9131   -0.5380   -2.1993 C   0  0  0  0  0  0  0  0  0  0  0  0
   -2.0429    0.3021   -2.2610 C   0  0  0  0  0  0  0  0  0  0  0  0
   -2.4651    0.7092   -1.3515 H   0  0  0  0  0  0  0  0  0  0  0  0
   -2.6206    0.6187   -3.5060 C   0  0  0  0  0  0  0  0  0  0  0  0
   -3.4867    1.2611   -3.5494 H   0  0  0  0  0  0  0  0  0  0  0  0
   -2.0637    0.0959   -4.6935 C   0  0  0  0  0  0  0  0  0  0  0  0
   -2.6117    0.3976   -5.8992 O   0  0  0  0  0  0  0  0  0  0  0  0
   -3.4244    0.8974   -5.8117 H   0  0  0  0  0  0  0  0  0  0  0  0
   -0.9301   -0.7407   -4.6302 C   0  0  0  0  0  0  0  0  0  0  0  0
   -0.5161   -1.1377   -5.5448 H   0  0  0  0  0  0  0  0  0  0  0  0
   -0.3578   -1.0589   -3.3840 C   0  0  0  0  0  0  0  0  0  0  0  0
    0.5075   -1.7092   -3.3355 H   0  0  0  0  0  0  0  0  0  0  0  0
   -1.4018    1.0238    0.4329 C   0  0  0  0  0  0  0  0  0  0  0  0
   -2.2416    1.5423   -0.3033 O   0  0  0  0  0  0  0  0  0  0  0  0
   -0.6927    1.7304    1.3223 N   0  0  0  0  0  0  0  0  0  0  0  0
    0.0178    1.2410    1.8469 H   0  0  0  0  0  0  0  0  0  0  0  0
   -0.8259    3.1712    1.5254 C   0  0  0  0  0  0  0  0  0  0  0  0
   -1.8769    3.4302    1.6645 H   0  0  0  0  0  0  0  0  0  0  0  0
   -0.2598    3.4806    2.4054 H   0  0  0  0  0  0  0  0  0  0  0  0
   -0.4486    3.7020    0.6489 H   0  0  0  0  0  0  0  0  0  0  0  0
  5  6  2  0  0  0  0
  5  7  1  0  0  0  0
  2  3  1  0  0  0  0
  2  4  1  0  0  0  0
  2  5  1  0  0  0  0
  1  2  1  0  0  0  0
 26 27  2  0  0  0  0
 26 28  1  0  0  0  0
 24 25  1  0  0  0  0
 22 23  1  0  0  0  0
 22 24  2  0  0  0  0
 20 21  1  0  0  0  0
 19 20  1  0  0  0  0
 19 22  1  0  0  0  0
 17 18  1  0  0  0  0
 17 19  2  0  0  0  0
 15 16  1  0  0  0  0
 15 17  1  0  0  0  0
 14 15  2  0  0  0  0
 14 24  1  0  0  0  0
 11 12  1  0  0  0  0
 11 13  1  0  0  0  0
 11 14  1  0  0  0  0
  9 10  1  0  0  0  0
  9 11  1  0  0  0  0
  9 26  1  0  0  0  0
  7  8  1  0  0  0  0
  7  9  1  0  0  0  0
 30 31  1  0  0  0  0
 30 32  1  0  0  0  0
 30 33  1  0  0  0  0
 28 29  1  0  0  0  0
 28 30  1  0  0  0  0
M  END
$$$$
default_name
  -OEChem-02102213163D

 33 33  0     1  0  0  0  0  0999 V2000
   -4.0702   -3.8485    1.4554 H   0  0  0  0  0  0  0  0  0  0  0  0
   -4.0012   -2.9605    0.8284 C   0  0  0  0  0  0  0  0  0  0  0  0
   -4.7652   -2.2435    1.1234 H   0  0  0  0  0  0  0  0  0  0  0  0
   -4.1352   -3.2385   -0.2156 H   0  0  0  0  0  0  0  0  0  0  0  0
   -2.6362   -2.3395    1.0094 C   0  0  0  0  0  0  0  0  0  0  0  0
   -1.8292   -2.8395    1.7814 O   0  0  0  0  0  0  0  0  0  0  0  0
   -2.3832   -1.2445    0.2964 N   0  0  0  0  0  0  0  0  0  0  0  0
   -3.1102   -0.8685   -0.2946 H   0  0  0  0  0  0  0  0  0  0  0  0
   -1.1292   -0.4875    0.3524 C   0  0  1  0  0  0  0  0  0  0  0  0
   -0.5898   -0.7762    1.2552 H   0  0  0  0  0  0  0  0  0  0  0  0
   -0.2608   -0.8470   -0.8656 C   0  0  0  0  0  0  0  0  0  0  0  0
    0.6757   -0.2906   -0.8097 H   0  0  0  0  0  0  0  0  0  0  0  0
   -0.0132   -1.9089   -0.8219 H   0  0  0  0  0  0  0  0  0  0  0  0
   -0.9131   -0.5380   -2.1993 C   0  0  0  0  0  0  0  0  0  0  0  0
   -1.8269    0.5288   -2.3142 C   0  0  0  0  0  0  0  0  0  0  0  0
   -2.0862    1.1156   -1.4427 H   0  0  0  0  0  0  0  0  0  0  0  0
   -2.3991    0.8372   -3.5637 C   0  0  0  0  0  0  0  0  0  0  0  0
   -3.0996    1.6538   -3.6477 H   0  0  0  0  0  0  0  0  0  0  0  0
   -2.0530    0.0782   -4.7028 C   0  0  0  0  0  0  0  0  0  0  0  0
   -2.5971    0.3695   -5.9129 O   0  0  0  0  0  0  0  0  0  0  0  0
   -3.2692    1.0496   -5.8523 H   0  0  0  0  0  0  0  0  0  0  0  0
   -1.1347   -0.9859   -4.5870 C   0  0  0  0  0  0  0  0  0  0  0  0
   -0.8814   -1.5617   -5.4644 H   0  0  0  0  0  0  0  0  0  0  0  0
   -0.5680   -1.2946   -3.3358 C   0  0  0  0  0  0  0  0  0  0  0  0
    0.1304   -2.1181   -3.2458 H   0  0  0  0  0  0  0  0  0  0  0  0
   -1.4018    1.0238    0.4329 C   0  0  0  0  0  0  0  0  0  0  0  0
   -2.2416    1.5423   -0.3033 O   0  0  0  0  0  0  0  0  0  0  0  0
   -0.6927    1.7304    1.3223 N   0  0  0  0  0  0  0  0  0  0  0  0
    0.0178    1.2410    1.8469 H   0  0  0  0  0  0  0  0  0  0  0  0
   -0.8259    3.1712    1.5254 C   0  0  0  0  0  0  0  0  0  0  0  0
   -1.8769    3.4302    1.6645 H   0  0  0  0  0  0  0  0  0  0  0  0
   -0.2598    3.4806    2.4054 H   0  0  0  0  0  0  0  0  0  0  0  0
   -0.4486    3.7020    0.6489 H   0  0  0  0  0  0  0  0  0  0  0  0
  5  6  2  0  0  0  0
  5  7  1  0  0  0  0
  2  3  1  0  0  0  0
  2  4  1  0  0  0  0
  2  5  1  0  0  0  0
  1  2  1  0  0  0  0
 26 27  2  0  0  0  0
 26 28  1  0  0  0  0
 24 25  1  0  0  0  0
 22 23  1  0  0  0  0
 22 24  2  0  0  0  0
 20 21  1  0  0  0  0
 19 20  1  0  0  0  0
 19 22  1  0  0  0  0
 17 18  1  0  0  0  0
 17 19  2  0  0  0  0
 15 16  1  0  0  0  0
 15 17  1  0  0  0  0
 14 15  2  0  0  0  0
 14 24  1  0  0  0  0
 11 12  1  0  0  0  0
 11 13  1  0  0  0  0
 11 14  1  0  0  0  0
  9 10  1  0  0  0  0
  9 11  1  0  0  0  0
  9 26  1  0  0  0  0
  7  8  1  0  0  0  0
  7  9  1  0  0  0  0
 30 31  1  0  0  0  0
 30 32  1  0  0  0  0
 30 33  1  0  0  0  0
 28 29  1  0  0  0  0
 28 30  1  0  0  0  0
M  END
$$$$
default_name
  -OEChem-02102213163D

 33 33  0     1  0  0  0  0  0999 V2000
   -4.0702   -3.8485    1.4554 H   0  0  0  0  0  0  0  0  0  0  0  0
   -4.0012   -2.9605    0.8284 C   0  0  0  0  0  0  0  0  0  0  0  0
   -4.7652   -2.2435    1.1234 H   0  0  0  0  0  0  0  0  0  0  0  0
   -4.1352   -3.2385   -0.2156 H   0  0  0  0  0  0  0  0  0  0  0  0
   -2.6362   -2.3395    1.0094 C   0  0  0  0  0  0  0  0  0  0  0  0
   -1.8292   -2.8395    1.7814 O   0  0  0  0  0  0  0  0  0  0  0  0
   -2.3832   -1.2445    0.2964 N   0  0  0  0  0  0  0  0  0  0  0  0
   -3.1102   -0.8685   -0.2946 H   0  0  0  0  0  0  0  0  0  0  0  0
   -1.1292   -0.4875    0.3524 C   0  0  1  0  0  0  0  0  0  0  0  0
   -0.5898   -0.7762    1.2552 H   0  0  0  0  0  0  0  0  0  0  0  0
   -0.2608   -0.8470   -0.8656 C   0  0  0  0  0  0  0  0  0  0  0  0
    0.6757   -0.2906   -0.8097 H   0  0  0  0  0  0  0  0  0  0  0  0
   -0.0132   -1.9089   -0.8219 H   0  0  0  0  0  0  0  0  0  0  0  0
   -0.9131   -0.5380   -2.1993 C   0  0  0  0  0  0  0  0  0  0  0  0
   -1.5694    0.6926   -2.4021 C   0  0  0  0  0  0  0  0  0  0  0  0
   -1.6325    1.4117   -1.5960 H   0  0  0  0  0  0  0  0  0  0  0  0
   -2.1384    0.9915   -3.6554 C   0  0  0  0  0  0  0  0  0  0  0  0
   -2.6416    1.9341   -3.8067 H   0  0  0  0  0  0  0  0  0  0  0  0
   -2.0472    0.0575   -4.7104 C   0  0  0  0  0  0  0  0  0  0  0  0
   -2.5902    0.3375   -5.9237 O   0  0  0  0  0  0  0  0  0  0  0  0
   -3.0869    1.1568   -5.9166 H   0  0  0  0  0  0  0  0  0  0  0  0
   -1.3858   -1.1713   -4.5071 C   0  0  0  0  0  0  0  0  0  0  0  0
   -1.3265   -1.8791   -5.3203 H   0  0  0  0  0  0  0  0  0  0  0  0
   -0.8221   -1.4690   -3.2519 C   0  0  0  0  0  0  0  0  0  0  0  0
   -0.3222   -2.4173   -3.0938 H   0  0  0  0  0  0  0  0  0  0  0  0
   -1.4018    1.0238    0.4329 C   0  0  0  0  0  0  0  0  0  0  0  0
   -2.2416    1.5423   -0.3033 O   0  0  0  0  0  0  0  0  0  0  0  0
   -0.6927    1.7304    1.3223 N   0  0  0  0  0  0  0  0  0  0  0  0
    0.0178    1.2410    1.8469 H   0  0  0  0  0  0  0  0  0  0  0  0
   -0.8259    3.1712    1.5254 C   0  0  0  0  0  0  0  0  0  0  0  0
   -1.8769    3.4302    1.6645 H   0  0  0  0  0  0  0  0  0  0  0  0
   -0.2598    3.4806    2.4054 H   0  0  0  0  0  0  0  0  0  0  0  0
   -0.4486    3.7020    0.6489 H   0  0  0  0  0  0  0  0  0  0  0  0
  5  6  2  0  0  0  0
  5  7  1  0  0  0  0
  2  3  1  0  0  0  0
  2  4  1  0  0  0  0
  2  5  1  0  0  0  0
  1  2  1  0  0  0  0
 26 27  2  0  0  0  0
 26 28  1  0  0  0  0
 24 25  1  0  0  0  0
 22 23  1  0  0  0  0
 22 24  2  0  0  0  0
 20 21  1  0  0  0  0
 19 20  1  0  0  0  0
 19 22  1  0  0  0  0
 17 18  1  0  0  0  0
 17 19  2  0  0  0  0
 15 16  1  0  0  0  0
 15 17  1  0  0  0  0
 14 15  2  0  0  0  0
 14 24  1  0  0  0  0
 11 12  1  0  0  0  0
 11 13  1  0  0  0  0
 11 14  1  0  0  0  0
  9 10  1  0  0  0  0
  9 11  1  0  0  0  0
  9 26  1  0  0  0  0
  7  8  1  0  0  0  0
  7  9  1  0  0  0  0
 30 31  1  0  0  0  0
 30 32  1  0  0  0  0
 30 33  1  0  0  0  0
 28 29  1  0  0  0  0
 28 30  1  0  0  0  0
M  END
$$$$
default_name
  -OEChem-02102213163D

 33 33  0     1  0  0  0  0  0999 V2000
   -4.0702   -3.8485    1.4554 H   0  0  0  0  0  0  0  0  0  0  0  0
   -4.0012   -2.9605    0.8284 C   0  0  0  0  0  0  0  0  0  0  0  0
   -4.7652   -2.2435    1.1234 H   0  0  0  0  0  0  0  0  0  0  0  0
   -4.1352   -3.2385   -0.2156 H   0  0  0  0  0  0  0  0  0  0  0  0
   -2.6362   -2.3395    1.0094 C   0  0  0  0  0  0  0  0  0  0  0  0
   -1.8292   -2.8395    1.7814 O   0  0  0  0  0  0  0  0  0  0  0  0
   -2.3832   -1.2445    0.2964 N   0  0  0  0  0  0  0  0  0  0  0  0
   -3.1102   -0.8685   -0.2946 H   0  0  0  0  0  0  0  0  0  0  0  0
   -1.1292   -0.4875    0.3524 C   0  0  1  0  0  0  0  0  0  0  0  0
   -0.5898   -0.7762    1.2552 H   0  0  0  0  0  0  0  0  0  0  0  0
   -0.2608   -0.8470   -0.8656 C   0  0  0  0  0  0  0  0  0  0  0  0
    0.6757   -0.2906   -0.8097 H   0  0  0  0  0  0  0  0  0  0  0  0
   -0.0132   -1.9089   -0.8219 H   0  0  0  0  0  0  0  0  0  0  0  0
   -0.9131   -0.5380   -2.1993 C   0  0  0  0  0  0  0  0  0  0  0  0
   -1.2880    0.7824   -2.5189 C   0  0  0  0  0  0  0  0  0  0  0  0
   -1.1349    1.5774   -1.8009 H   0  0  0  0  0  0  0  0  0  0  0  0
   -1.8564    1.0709   -3.7749 C   0  0  0  0  0  0  0  0  0  0  0  0
   -2.1437    2.0829   -4.0157 H   0  0  0  0  0  0  0  0  0  0  0  0
   -2.0468    0.0354   -4.7158 C   0  0  0  0  0  0  0  0  0  0  0  0
   -2.5913    0.3038   -5.9309 O   0  0  0  0  0  0  0  0  0  0  0  0
   -2.8897    1.2116   -6.0003 H   0  0  0  0  0  0  0  0  0  0  0  0
   -1.6664   -1.2844   -4.3961 C   0  0  0  0  0  0  0  0  0  0  0  0
   -1.8211   -2.0683   -5.1222 H   0  0  0  0  0  0  0  0  0  0  0  0
   -1.1028   -1.5704   -3.1381 C   0  0  0  0  0  0  0  0  0  0  0  0
   -0.8194   -2.5863   -2.8898 H   0  0  0  0  0  0  0  0  0  0  0  0
   -1.4018    1.0238    0.4329 C   0  0  0  0  0  0  0  0  0  0  0  0
   -2.2416    1.5423   -0.3033 O   0  0  0  0  0  0  0  0  0  0  0  0
   -0.6927    1.7304    1.3223 N   0  0  0  0  0  0  0  0  0  0  0  0
    0.0178    1.2410    1.8469 H   0  0  0  0  0  0  0  0  0  0  0  0
   -0.8259    3.1712    1.5254 C   0  0  0  0  0  0  0  0  0  0  0  0
   -1.8769    3.4302    1.6645 H   0  0  0  0  0  0  0  0  0  0  0  0
   -0.2598    3.4806    2.4054 H   0  0  0  0  0  0  0  0  0  0  0  0
   -0.4486    3.7020    0.6489 H   0  0  0  0  0  0  0  0  0  0  0  0
  5  6  2  0  0  0  0
  5  7  1  0  0  0  0
  2  3  1  0  0  0  0
  2  4  1  0  0  0  0
  2  5  1  0  0  0  0
  1  2  1  0  0  0  0
 26 27  2  0  0  0  0
 26 28  1  0  0  0  0
 24 25  1  0  0  0  0
 22 23  1  0  0  0  0
 22 24  2  0  0  0  0
 20 21  1  0  0  0  0
 19 20  1  0  0  0  0
 19 22  1  0  0  0  0
 17 18  1  0  0  0  0
 17 19  2  0  0  0  0
 15 16  1  0  0  0  0
 15 17  1  0  0  0  0
 14 15  2  0  0  0  0
 14 24  1  0  0  0  0
 11 12  1  0  0  0  0
 11 13  1  0  0  0  0
 11 14  1  0  0  0  0
  9 10  1  0  0  0  0
  9 11  1  0  0  0  0
  9 26  1  0  0  0  0
  7  8  1  0  0  0  0
  7  9  1  0  0  0  0
 30 31  1  0  0  0  0
 30 32  1  0  0  0  0
 30 33  1  0  0  0  0
 28 29  1  0  0  0  0
 28 30  1  0  0  0  0
M  END
$$$$
default_name
  -OEChem-02102213163D

 33 33  0     1  0  0  0  0  0999 V2000
   -4.0702   -3.8485    1.4554 H   0  0  0  0  0  0  0  0  0  0  0  0
   -4.0012   -2.9605    0.8284 C   0  0  0  0  0  0  0  0  0  0  0  0
   -4.7652   -2.2435    1.1234 H   0  0  0  0  0  0  0  0  0  0  0  0
   -4.1352   -3.2385   -0.2156 H   0  0  0  0  0  0  0  0  0  0  0  0
   -2.6362   -2.3395    1.0094 C   0  0  0  0  0  0  0  0  0  0  0  0
   -1.8292   -2.8395    1.7814 O   0  0  0  0  0  0  0  0  0  0  0  0
   -2.3832   -1.2445    0.2964 N   0  0  0  0  0  0  0  0  0  0  0  0
   -3.1102   -0.8685   -0.2946 H   0  0  0  0  0  0  0  0  0  0  0  0
   -1.1292   -0.4875    0.3524 C   0  0  1  0  0  0  0  0  0  0  0  0
   -0.5898   -0.7762    1.2552 H   0  0  0  0  0  0  0  0  0  0  0  0
   -0.2608   -0.8470   -0.8656 C   0  0  0  0  0  0  0  0  0  0  0  0
    0.6757   -0.2906   -0.8097 H   0  0  0  0  0  0  0  0  0  0  0  0
   -0.0132   -1.9089   -0.8219 H   0  0  0  0  0  0  0  0  0  0  0  0
   -0.9131   -0.5380   -2.1993 C   0  0  0  0  0  0  0  0  0  0  0  0
   -1.0020    0.7921   -2.6566 C   0  0  0  0  0  0  0  0  0  0  0  0
   -0.6274    1.6014   -2.0435 H   0  0  0  0  0  0  0  0  0  0  0  0
   -1.5721    1.0701   -3.9141 C   0  0  0  0  0  0  0  0  0  0  0  0
   -1.6400    2.0900   -4.2604 H   0  0  0  0  0  0  0  0  0  0  0  0
   -2.0516    0.0134   -4.7185 C   0  0  0  0  0  0  0  0  0  0  0  0
   -2.6005    0.2708   -5.9341 O   0  0  0  0  0  0  0  0  0  0  0  0
   -2.6912    1.2105   -6.0977 H   0  0  0  0  0  0  0  0  0  0  0  0
   -1.9574   -1.3175   -4.2615 C   0  0  0  0  0  0  0  0  0  0  0  0
   -2.3315   -2.1164   -4.8838 H   0  0  0  0  0  0  0  0  0  0  0  0
   -1.3911   -1.5917   -3.0021 C   0  0  0  0  0  0  0  0  0  0  0  0
   -1.3275   -2.6136   -2.6476 H   0  0  0  0  0  0  0  0  0  0  0  0
   -1.4018    1.0238    0.4329 C   0  0  0  0  0  0  0  0  0  0  0  0
   -2.2416    1.5423   -0.3033 O   0  0  0  0  0  0  0  0  0  0  0  0
   -0.6927    1.7304    1.3223 N   0  0  0  0  0  0  0  0  0  0  0  0
    0.0178    1.2410    1.8469 H   0  0  0  0  0  0  0  0  0  0  0  0
   -0.8259    3.1712    1.5254 C   0  0  0  0  0  0  0  0  0  0  0  0
   -1.8769    3.4302    1.6645 H   0  0  0  0  0  0  0  0  0  0  0  0
   -0.2598    3.4806    2.4054 H   0  0  0  0  0  0  0  0  0  0  0  0
   -0.4486    3.7020    0.6489 H   0  0  0  0  0  0  0  0  0  0  0  0
  5  6  2  0  0  0  0
  5  7  1  0  0  0  0
  2  3  1  0  0  0  0
  2  4  1  0  0  0  0
  2  5  1  0  0  0  0
  1  2  1  0  0  0  0
 26 27  2  0  0  0  0
 26 28  1  0  0  0  0
 24 25  1  0  0  0  0
 22 23  1  0  0  0  0
 22 24  2  0  0  0  0
 20 21  1  0  0  0  0
 19 20  1  0  0  0  0
 19 22  1  0  0  0  0
 17 18  1  0  0  0  0
 17 19  2  0  0  0  0
 15 16  1  0  0  0  0
 15 17  1  0  0  0  0
 14 15  2  0  0  0  0
 14 24  1  0  0  0  0
 11 12  1  0  0  0  0
 11 13  1  0  0  0  0
 11 14  1  0  0  0  0
  9 10  1  0  0  0  0
  9 11  1  0  0  0  0
  9 26  1  0  0  0  0
  7  8  1  0  0  0  0
  7  9  1  0  0  0  0
 30 31  1  0  0  0  0
 30 32  1  0  0  0  0
 30 33  1  0  0  0  0
 28 29  1  0  0  0  0
 28 30  1  0  0  0  0
M  END
$$$$
default_name
  -OEChem-02102213163D

 33 33  0     1  0  0  0  0  0999 V2000
   -4.0702   -3.8485    1.4554 H   0  0  0  0  0  0  0  0  0  0  0  0
   -4.0012   -2.9605    0.8284 C   0  0  0  0  0  0  0  0  0  0  0  0
   -4.7652   -2.2435    1.1234 H   0  0  0  0  0  0  0  0  0  0  0  0
   -4.1352   -3.2385   -0.2156 H   0  0  0  0  0  0  0  0  0  0  0  0
   -2.6362   -2.3395    1.0094 C   0  0  0  0  0  0  0  0  0  0  0  0
   -1.8292   -2.8395    1.7814 O   0  0  0  0  0  0  0  0  0  0  0  0
   -2.3832   -1.2445    0.2964 N   0  0  0  0  0  0  0  0  0  0  0  0
   -3.1102   -0.8685   -0.2946 H   0  0  0  0  0  0  0  0  0  0  0  0
   -1.1292   -0.4875    0.3524 C   0  0  1  0  0  0  0  0  0  0  0  0
   -0.5898   -0.7762    1.2552 H   0  0  0  0  0  0  0  0  0  0  0  0
   -0.2608   -0.8470   -0.8656 C   0  0  0  0  0  0  0  0  0  0  0  0
    0.6757   -0.2906   -0.8097 H   0  0  0  0  0  0  0  0  0  0  0  0
   -0.0132   -1.9089   -0.8219 H   0  0  0  0  0  0  0  0  0  0  0  0
   -0.9131   -0.5380   -2.1993 C   0  0  0  0  0  0  0  0  0  0  0  0
   -0.7307    0.7211   -2.8057 C   0  0  0  0  0  0  0  0  0  0  0  0
   -0.1445    1.4821   -2.3073 H   0  0  0  0  0  0  0  0  0  0  0  0
   -1.3051    0.9892   -4.0634 C   0  0  0  0  0  0  0  0  0  0  0  0
   -1.1647    1.9549   -4.5241 H   0  0  0  0  0  0  0  0  0  0  0  0
   -2.0614   -0.0071   -4.7185 C   0  0  0  0  0  0  0  0  0  0  0  0
   -2.6170    0.2406   -5.9330 O   0  0  0  0  0  0  0  0  0  0  0  0
   -2.5049    1.1533   -6.2020 H   0  0  0  0  0  0  0  0  0  0  0  0
   -2.2388   -1.2681   -4.1125 C   0  0  0  0  0  0  0  0  0  0  0  0
   -2.8228   -2.0202   -4.6212 H   0  0  0  0  0  0  0  0  0  0  0  0
   -1.6672   -1.5315   -2.8531 C   0  0  0  0  0  0  0  0  0  0  0  0
   -1.8117   -2.4974   -2.3840 H   0  0  0  0  0  0  0  0  0  0  0  0
   -1.4018    1.0238    0.4329 C   0  0  0  0  0  0  0  0  0  0  0  0
   -2.2416    1.5423   -0.3033 O   0  0  0  0  0  0  0  0  0  0  0  0
   -0.6927    1.7304    1.3223 N   0  0  0  0  0  0  0  0  0  0  0  0
    0.0178    1.2410    1.8469 H   0  0  0  0  0  0  0  0  0  0  0  0
   -0.8259    3.1712    1.5254 C   0  0  0  0  0  0  0  0  0  0  0  0
   -1.8769    3.4302    1.6645 H   0  0  0  0  0  0  0  0  0  0  0  0
   -0.2598    3.4806    2.4054 H   0  0  0  0  0  0  0  0  0  0  0  0
   -0.4486    3.7020    0.6489 H   0  0  0  0  0  0  0  0  0  0  0  0
  5  6  2  0  0  0  0
  5  7  1  0  0  0  0
  2  3  1  0  0  0  0
  2  4  1  0  0  0  0
  2  5  1  0  0  0  0
  1  2  1  0  0  0  0
 26 27  2  0  0  0  0
 26 28  1  0  0  0  0
 24 25  1  0  0  0  0
 22 23  1  0  0  0  0
 22 24  2  0  0  0  0
 20 21  1  0  0  0  0
 19 20  1  0  0  0  0
 19 22  1  0  0  0  0
 17 18  1  0  0  0  0
 17 19  2  0  0  0  0
 15 16  1  0  0  0  0
 15 17  1  0  0  0  0
 14 15  2  0  0  0  0
 14 24  1  0  0  0  0
 11 12  1  0  0  0  0
 11 13  1  0  0  0  0
 11 14  1  0  0  0  0
  9 10  1  0  0  0  0
  9 11  1  0  0  0  0
  9 26  1  0  0  0  0
  7  8  1  0  0  0  0
  7  9  1  0  0  0  0
 30 31  1  0  0  0  0
 30 32  1  0  0  0  0
 30 33  1  0  0  0  0
 28 29  1  0  0  0  0
 28 30  1  0  0  0  0
M  END
$$$$
default_name
  -OEChem-02102213163D

 33 33  0     1  0  0  0  0  0999 V2000
   -4.0702   -3.8485    1.4554 H   0  0  0  0  0  0  0  0  0  0  0  0
   -4.0012   -2.9605    0.8284 C   0  0  0  0  0  0  0  0  0  0  0  0
   -4.7652   -2.2435    1.1234 H   0  0  0  0  0  0  0  0  0  0  0  0
   -4.1352   -3.2385   -0.2156 H   0  0  0  0  0  0  0  0  0  0  0  0
   -2.6362   -2.3395    1.0094 C   0  0  0  0  0  0  0  0  0  0  0  0
   -1.8292   -2.8395    1.7814 O   0  0  0  0  0  0  0  0  0  0  0  0
   -2.3832   -1.2445    0.2964 N   0  0  0  0  0  0  0  0  0  0  0  0
   -3.1102   -0.8685   -0.2946 H   0  0  0  0  0  0  0  0  0  0  0  0
   -1.1292   -0.4875    0.3524 C   0  0  1  0  0  0  0  0  0  0  0  0
   -0.5898   -0.7762    1.2552 H   0  0  0  0  0  0  0  0  0  0  0  0
   -0.2608   -0.8470   -0.8656 C   0  0  0  0  0  0  0  0  0  0  0  0
    0.6757   -0.2906   -0.8097 H   0  0  0  0  0  0  0  0  0  0  0  0
   -0.0132   -1.9089   -0.8219 H   0  0  0  0  0  0  0  0  0  0  0  0
   -0.9131   -0.5380   -2.1993 C   0  0  0  0  0  0  0  0  0  0  0  0
   -0.4927    0.5741   -2.9561 C   0  0  0  0  0  0  0  0  0  0  0  0
    0.2809    1.2275   -2.5743 H   0  0  0  0  0  0  0  0  0  0  0  0
   -1.0735    0.8336   -4.2128 C   0  0  0  0  0  0  0  0  0  0  0  0
   -0.7503    1.6870   -4.7889 H   0  0  0  0  0  0  0  0  0  0  0  0
   -2.0756   -0.0247   -4.7156 C   0  0  0  0  0  0  0  0  0  0  0  0
   -2.6398    0.2153   -5.9277 O   0  0  0  0  0  0  0  0  0  0  0  0
   -2.3434    1.0440   -6.3063 H   0  0  0  0  0  0  0  0  0  0  0  0
   -2.4915   -1.1398   -3.9591 C   0  0  0  0  0  0  0  0  0  0  0  0
   -3.2617   -1.7862   -4.3524 H   0  0  0  0  0  0  0  0  0  0  0  0
   -1.9123   -1.3939   -2.7014 C   0  0  0  0  0  0  0  0  0  0  0  0
   -2.2390   -2.2456   -2.1166 H   0  0  0  0  0  0  0  0  0  0  0  0
   -1.4018    1.0238    0.4329 C   0  0  0  0  0  0  0  0  0  0  0  0
   -2.2416    1.5423   -0.3033 O   0  0  0  0  0  0  0  0  0  0  0  0
   -0.6927    1.7304    1.3223 N   0  0  0  0  0  0  0  0  0  0  0  0
    0.0178    1.2410    1.8469 H   0  0  0  0  0  0  0  0  0  0  0  0
   -0.8259    3.1712    1.5254 C   0  0  0  0  0  0  0  0  0  0  0  0
   -1.8769    3.4302    1.6645 H   0  0  0  0  0  0  0  0  0  0  0  0
   -0.2598    3.4806    2.4054 H   0  0  0  0  0  0  0  0  0  0  0  0
   -0.4486    3.7020    0.6489 H   0  0  0  0  0  0  0  0  0  0  0  0
  5  6  2  0  0  0  0
  5  7  1  0  0  0  0
  2  3  1  0  0  0  0
  2  4  1  0  0  0  0
  2  5  1  0  0  0  0
  1  2  1  0  0  0  0
 26 27  2  0  0  0  0
 26 28  1  0  0  0  0
 24 25  1  0  0  0  0
 22 23  1  0  0  0  0
 22 24  2  0  0  0  0
 20 21  1  0  0  0  0
 19 20  1  0  0  0  0
 19 22  1  0  0  0  0
 17 18  1  0  0  0  0
 17 19  2  0  0  0  0
 15 16  1  0  0  0  0
 15 17  1  0  0  0  0
 14 15  2  0  0  0  0
 14 24  1  0  0  0  0
 11 12  1  0  0  0  0
 11 13  1  0  0  0  0
 11 14  1  0  0  0  0
  9 10  1  0  0  0  0
  9 11  1  0  0  0  0
  9 26  1  0  0  0  0
  7  8  1  0  0  0  0
  7  9  1  0  0  0  0
 30 31  1  0  0  0  0
 30 32  1  0  0  0  0
 30 33  1  0  0  0  0
 28 29  1  0  0  0  0
 28 30  1  0  0  0  0
M  END
$$$$
default_name
  -OEChem-02102213163D

 33 33  0     1  0  0  0  0  0999 V2000
   -4.0702   -3.8485    1.4554 H   0  0  0  0  0  0  0  0  0  0  0  0
   -4.0012   -2.9605    0.8284 C   0  0  0  0  0  0  0  0  0  0  0  0
   -4.7652   -2.2435    1.1234 H   0  0  0  0  0  0  0  0  0  0  0  0
   -4.1352   -3.2385   -0.2156 H   0  0  0  0  0  0  0  0  0  0  0  0
   -2.6362   -2.3395    1.0094 C   0  0  0  0  0  0  0  0  0  0  0  0
   -1.8292   -2.8395    1.7814 O   0  0  0  0  0  0  0  0  0  0  0  0
   -2.3832   -1.2445    0.2964 N   0  0  0  0  0  0  0  0  0  0  0  0
   -3.1102   -0.8685   -0.2946 H   0  0  0  0  0  0  0  0  0  0  0  0
   -1.1292   -0.4875    0.3524 C   0  0  1  0  0  0  0  0  0  0  0  0
   -0.5898   -0.7762    1.2552 H   0  0  0  0  0  0  0  0  0  0  0  0
   -0.2608   -0.8470   -0.8656 C   0  0  0  0  0  0  0  0  0  0  0  0
    0.6757   -0.2906   -0.8097 H   0  0  0  0  0  0  0  0  0  0  0  0
   -0.0132   -1.9089   -0.8219 H   0  0  0  0  0  0  0  0  0  0  0  0
   -0.9131   -0.5380   -2.1993 C   0  0  0  0  0  0  0  0  0  0  0  0
   -0.3042    0.3612   -3.0976 C   0  0  0  0  0  0  0  0  0  0  0  0
    0.6197    0.8550   -2.8263 H   0  0  0  0  0  0  0  0  0  0  0  0
   -0.8931    0.6139   -4.3519 C   0  0  0  0  0  0  0  0  0  0  0  0
   -0.4249    1.3043   -5.0366 H   0  0  0  0  0  0  0  0  0  0  0  0
   -2.0931   -0.0381   -4.7102 C   0  0  0  0  0  0  0  0  0  0  0  0
   -2.6673    0.1966   -5.9186 O   0  0  0  0  0  0  0  0  0  0  0  0
   -2.2178    0.8901   -6.4034 H   0  0  0  0  0  0  0  0  0  0  0  0
   -2.6984   -0.9413   -3.8120 C   0  0  0  0  0  0  0  0  0  0  0  0
   -3.6182   -1.4303   -4.0957 H   0  0  0  0  0  0  0  0  0  0  0  0
   -2.1098   -1.1883   -2.5572 C   0  0  0  0  0  0  0  0  0  0  0  0
   -2.5803   -1.8754   -1.8639 H   0  0  0  0  0  0  0  0  0  0  0  0
   -1.4018    1.0238    0.4329 C   0  0  0  0  0  0  0  0  0  0  0  0
   -2.2416    1.5423   -0.3033 O   0  0  0  0  0  0  0  0  0  0  0  0
   -0.6927    1.7304    1.3223 N   0  0  0  0  0  0  0  0  0  0  0  0
    0.0178    1.2410    1.8469 H   0  0  0  0  0  0  0  0  0  0  0  0
   -0.8259    3.1712    1.5254 C   0  0  0  0  0  0  0  0  0  0  0  0
   -1.8769    3.4302    1.6645 H   0  0  0  0  0  0  0  0  0  0  0  0
   -0.2598    3.4806    2.4054 H   0  0  0  0  0  0  0  0  0  0  0  0
   -0.4486    3.7020    0.6489 H   0  0  0  0  0  0  0  0  0  0  0  0
  5  6  2  0  0  0  0
  5  7  1  0  0  0  0
  2  3  1  0  0  0  0
  2  4  1  0  0  0  0
  2  5  1  0  0  0  0
  1  2  1  0  0  0  0
 26 27  2  0  0  0  0
 26 28  1  0  0  0  0
 24 25  1  0  0  0  0
 22 23  1  0  0  0  0
 22 24  2  0  0  0  0
 20 21  1  0  0  0  0
 19 20  1  0  0  0  0
 19 22  1  0  0  0  0
 17 18  1  0  0  0  0
 17 19  2  0  0  0  0
 15 16  1  0  0  0  0
 15 17  1  0  0  0  0
 14 15  2  0  0  0  0
 14 24  1  0  0  0  0
 11 12  1  0  0  0  0
 11 13  1  0  0  0  0
 11 14  1  0  0  0  0
  9 10  1  0  0  0  0
  9 11  1  0  0  0  0
  9 26  1  0  0  0  0
  7  8  1  0  0  0  0
  7  9  1  0  0  0  0
 30 31  1  0  0  0  0
 30 32  1  0  0  0  0
 30 33  1  0  0  0  0
 28 29  1  0  0  0  0
 28 30  1  0  0  0  0
M  END
$$$$
default_name
  -OEChem-02102213163D

 33 33  0     1  0  0  0  0  0999 V2000
   -4.0702   -3.8485    1.4554 H   0  0  0  0  0  0  0  0  0  0  0  0
   -4.0012   -2.9605    0.8284 C   0  0  0  0  0  0  0  0  0  0  0  0
   -4.7652   -2.2435    1.1234 H   0  0  0  0  0  0  0  0  0  0  0  0
   -4.1352   -3.2385   -0.2156 H   0  0  0  0  0  0  0  0  0  0  0  0
   -2.6362   -2.3395    1.0094 C   0  0  0  0  0  0  0  0  0  0  0  0
   -1.8292   -2.8395    1.7814 O   0  0  0  0  0  0  0  0  0  0  0  0
   -2.3832   -1.2445    0.2964 N   0  0  0  0  0  0  0  0  0  0  0  0
   -3.1102   -0.8685   -0.2946 H   0  0  0  0  0  0  0  0  0  0  0  0
   -1.1292   -0.4875    0.3524 C   0  0  1  0  0  0  0  0  0  0  0  0
   -0.5898   -0.7762    1.2552 H   0  0  0  0  0  0  0  0  0  0  0  0
   -0.2608   -0.8470   -0.8656 C   0  0  0  0  0  0  0  0  0  0  0  0
    0.6757   -0.2906   -0.8097 H   0  0  0  0  0  0  0  0  0  0  0  0
   -0.0132   -1.9089   -0.8219 H   0  0  0  0  0  0  0  0  0  0  0  0
   -0.9131   -0.5380   -2.1993 C   0  0  0  0  0  0  0  0  0  0  0  0
   -0.1781    0.0969   -3.2205 C   0  0  0  0  0  0  0  0  0  0  0  0
    0.8489    0.3901   -3.0461 H   0  0  0  0  0  0  0  0  0  0  0  0
   -0.7761    0.3452   -4.4713 C   0  0  0  0  0  0  0  0  0  0  0  0
   -0.2108    0.8330   -5.2505 H   0  0  0  0  0  0  0  0  0  0  0  0
   -2.1128   -0.0464   -4.7025 C   0  0  0  0  0  0  0  0  0  0  0  0
   -2.6976    0.1859   -5.9062 O   0  0  0  0  0  0  0  0  0  0  0  0
   -2.1367    0.7020   -6.4866 H   0  0  0  0  0  0  0  0  0  0  0  0
   -2.8452   -0.6861   -3.6811 C   0  0  0  0  0  0  0  0  0  0  0  0
   -3.8679   -0.9769   -3.8685 H   0  0  0  0  0  0  0  0  0  0  0  0
   -2.2461   -0.9287   -2.4304 C   0  0  0  0  0  0  0  0  0  0  0  0
   -2.8125   -1.4119   -1.6431 H   0  0  0  0  0  0  0  0  0  0  0  0
   -1.4018    1.0238    0.4329 C   0  0  0  0  0  0  0  0  0  0  0  0
   -2.2416    1.5423   -0.3033 O   0  0  0  0  0  0  0  0  0  0  0  0
   -0.6927    1.7304    1.3223 N   0  0  0  0  0  0  0  0  0  0  0  0
    0.0178    1.2410    1.8469 H   0  0  0  0  0  0  0  0  0  0  0  0
   -0.8259    3.1712    1.5254 C   0  0  0  0  0  0  0  0  0  0  0  0
   -1.8769    3.4302    1.6645 H   0  0  0  0  0  0  0  0  0  0  0  0
   -0.2598    3.4806    2.4054 H   0  0  0  0  0  0  0  0  0  0  0  0
   -0.4486    3.7020    0.6489 H   0  0  0  0  0  0  0  0  0  0  0  0
  5  6  2  0  0  0  0
  5  7  1  0  0  0  0
  2  3  1  0  0  0  0
  2  4  1  0  0  0  0
  2  5  1  0  0  0  0
  1  2  1  0  0  0  0
 26 27  2  0  0  0  0
 26 28  1  0  0  0  0
 24 25  1  0  0  0  0
 22 23  1  0  0  0  0
 22 24  2  0  0  0  0
 20 21  1  0  0  0  0
 19 20  1  0  0  0  0
 19 22  1  0  0  0  0
 17 18  1  0  0  0  0
 17 19  2  0  0  0  0
 15 16  1  0  0  0  0
 15 17  1  0  0  0  0
 14 15  2  0  0  0  0
 14 24  1  0  0  0  0
 11 12  1  0  0  0  0
 11 13  1  0  0  0  0
 11 14  1  0  0  0  0
  9 10  1  0  0  0  0
  9 11  1  0  0  0  0
  9 26  1  0  0  0  0
  7  8  1  0  0  0  0
  7  9  1  0  0  0  0
 30 31  1  0  0  0  0
 30 32  1  0  0  0  0
 30 33  1  0  0  0  0
 28 29  1  0  0  0  0
 28 30  1  0  0  0  0
M  END
$$$$
default_name
  -OEChem-02102213163D

 33 33  0     1  0  0  0  0  0999 V2000
   -4.0702   -3.8485    1.4554 H   0  0  0  0  0  0  0  0  0  0  0  0
   -4.0012   -2.9605    0.8284 C   0  0  0  0  0  0  0  0  0  0  0  0
   -4.7652   -2.2435    1.1234 H   0  0  0  0  0  0  0  0  0  0  0  0
   -4.1352   -3.2385   -0.2156 H   0  0  0  0  0  0  0  0  0  0  0  0
   -2.6362   -2.3395    1.0094 C   0  0  0  0  0  0  0  0  0  0  0  0
   -1.8292   -2.8395    1.7814 O   0  0  0  0  0  0  0  0  0  0  0  0
   -2.3832   -1.2445    0.2964 N   0  0  0  0  0  0  0  0  0  0  0  0
   -3.1102   -0.8685   -0.2946 H   0  0  0  0  0  0  0  0  0  0  0  0
   -1.1292   -0.4875    0.3524 C   0  0  1  0  0  0  0  0  0  0  0  0
   -0.5898   -0.7762    1.2552 H   0  0  0  0  0  0  0  0  0  0  0  0
   -0.2608   -0.8470   -0.8656 C   0  0  0  0  0  0  0  0  0  0  0  0
    0.6757   -0.2906   -0.8097 H   0  0  0  0  0  0  0  0  0  0  0  0
   -0.0132   -1.9089   -0.8219 H   0  0  0  0  0  0  0  0  0  0  0  0
   -0.9131   -0.5380   -2.1993 C   0  0  0  0  0  0  0  0  0  0  0  0
   -0.1229   -0.2007   -3.3165 C   0  0  0  0  0  0  0  0  0  0  0  0
    0.9529   -0.1356   -3.2188 H   0  0  0  0  0  0  0  0  0  0  0  0
   -0.7306    0.0458   -4.5630 C   0  0  0  0  0  0  0  0  0  0  0  0
   -0.1225    0.3053   -5.4159 H   0  0  0  0  0  0  0  0  0  0  0  0
   -2.1333   -0.0492   -4.6931 C   0  0  0  0  0  0  0  0  0  0  0  0
   -2.7287    0.1838   -5.8915 O   0  0  0  0  0  0  0  0  0  0  0  0
   -2.1055    0.4927   -6.5504 H   0  0  0  0  0  0  0  0  0  0  0  0
   -2.9221   -0.3916   -3.5752 C   0  0  0  0  0  0  0  0  0  0  0  0
   -3.9940   -0.4567   -3.6863 H   0  0  0  0  0  0  0  0  0  0  0  0
   -2.3121   -0.6329   -2.3296 C   0  0  0  0  0  0  0  0  0  0  0  0
   -2.9195   -0.8868   -1.4691 H   0  0  0  0  0  0  0  0  0  0  0  0
   -1.4018    1.0238    0.4329 C   0  0  0  0  0  0  0  0  0  0  0  0
   -2.2416    1.5423   -0.3033 O   0  0  0  0  0  0  0  0  0  0  0  0
   -0.6927    1.7304    1.3223 N   0  0  0  0  0  0  0  0  0  0  0  0
    0.0178    1.2410    1.8469 H   0  0  0  0  0  0  0  0  0  0  0  0
   -0.8259    3.1712    1.5254 C   0  0  0  0  0  0  0  0  0  0  0  0
   -1.8769    3.4302    1.6645 H   0  0  0  0  0  0  0  0  0  0  0  0
   -0.2598    3.4806    2.4054 H   0  0  0  0  0  0  0  0  0  0  0  0
   -0.4486    3.7020    0.6489 H   0  0  0  0  0  0  0  0  0  0  0  0
  5  6  2  0  0  0  0
  5  7  1  0  0  0  0
  2  3  1  0  0  0  0
  2  4  1  0  0  0  0
  2  5  1  0  0  0  0
  1  2  1  0  0  0  0
 26 27  2  0  0  0  0
 26 28  1  0  0  0  0
 24 25  1  0  0  0  0
 22 23  1  0  0  0  0
 22 24  2  0  0  0  0
 20 21  1  0  0  0  0
 19 20  1  0  0  0  0
 19 22  1  0  0  0  0
 17 18  1  0  0  0  0
 17 19  2  0  0  0  0
 15 16  1  0  0  0  0
 15 17  1  0  0  0  0
 14 15  2  0  0  0  0
 14 24  1  0  0  0  0
 11 12  1  0  0  0  0
 11 13  1  0  0  0  0
 11 14  1  0  0  0  0
  9 10  1  0  0  0  0
  9 11  1  0  0  0  0
  9 26  1  0  0  0  0
  7  8  1  0  0  0  0
  7  9  1  0  0  0  0
 30 31  1  0  0  0  0
 30 32  1  0  0  0  0
 30 33  1  0  0  0  0
 28 29  1  0  0  0  0
 28 30  1  0  0  0  0
M  END
$$$$
default_name
  -OEChem-02102213163D

 33 33  0     1  0  0  0  0  0999 V2000
   -4.0702   -3.8485    1.4554 H   0  0  0  0  0  0  0  0  0  0  0  0
   -4.0012   -2.9605    0.8284 C   0  0  0  0  0  0  0  0  0  0  0  0
   -4.7652   -2.2435    1.1234 H   0  0  0  0  0  0  0  0  0  0  0  0
   -4.1352   -3.2385   -0.2156 H   0  0  0  0  0  0  0  0  0  0  0  0
   -2.6362   -2.3395    1.0094 C   0  0  0  0  0  0  0  0  0  0  0  0
   -1.8292   -2.8395    1.7814 O   0  0  0  0  0  0  0  0  0  0  0  0
   -2.3832   -1.2445    0.2964 N   0  0  0  0  0  0  0  0  0  0  0  0
   -3.1102   -0.8685   -0.2946 H   0  0  0  0  0  0  0  0  0  0  0  0
   -1.1292   -0.4875    0.3524 C   0  0  1  0  0  0  0  0  0  0  0  0
   -0.5898   -0.7762    1.2552 H   0  0  0  0  0  0  0  0  0  0  0  0
   -0.2608   -0.8470   -0.8656 C   0  0  0  0  0  0  0  0  0  0  0  0
    0.6757   -0.2906   -0.8097 H   0  0  0  0  0  0  0  0  0  0  0  0
   -0.0132   -1.9089   -0.8219 H   0  0  0  0  0  0  0  0  0  0  0  0
   -0.9131   -0.5380   -2.1993 C   0  0  0  0  0  0  0  0  0  0  0  0
   -0.1424   -0.5115   -3.3789 C   0  0  0  0  0  0  0  0  0  0  0  0
    0.9246   -0.6864   -3.3325 H   0  0  0  0  0  0  0  0  0  0  0  0
   -0.7596   -0.2641   -4.6205 C   0  0  0  0  0  0  0  0  0  0  0  0
   -0.1661   -0.2430   -5.5216 H   0  0  0  0  0  0  0  0  0  0  0  0
   -2.1533   -0.0461   -4.6826 C   0  0  0  0  0  0  0  0  0  0  0  0
   -2.7585    0.1905   -5.8754 O   0  0  0  0  0  0  0  0  0  0  0  0
   -2.1264    0.2762   -6.5903 H   0  0  0  0  0  0  0  0  0  0  0  0
   -2.9237   -0.0778   -3.5018 C   0  0  0  0  0  0  0  0  0  0  0  0
   -3.9878    0.0947   -3.5616 H   0  0  0  0  0  0  0  0  0  0  0  0
   -2.3031   -0.3208   -2.2617 C   0  0  0  0  0  0  0  0  0  0  0  0
   -2.8942   -0.3359   -1.3538 H   0  0  0  0  0  0  0  0  0  0  0  0
   -1.4018    1.0238    0.4329 C   0  0  0  0  0  0  0  0  0  0  0  0
   -2.2416    1.5423   -0.3033 O   0  0  0  0  0  0  0  0  0  0  0  0
   -0.6927    1.7304    1.3223 N   0  0  0  0  0  0  0  0  0  0  0  0
    0.0178    1.2410    1.8469 H   0  0  0  0  0  0  0  0  0  0  0  0
   -0.8259    3.1712    1.5254 C   0  0  0  0  0  0  0  0  0  0  0  0
   -1.8769    3.4302    1.6645 H   0  0  0  0  0  0  0  0  0  0  0  0
   -0.2598    3.4806    2.4054 H   0  0  0  0  0  0  0  0  0  0  0  0
   -0.4486    3.7020    0.6489 H   0  0  0  0  0  0  0  0  0  0  0  0
  5  6  2  0  0  0  0
  5  7  1  0  0  0  0
  2  3  1  0  0  0  0
  2  4  1  0  0  0  0
  2  5  1  0  0  0  0
  1  2  1  0  0  0  0
 26 27  2  0  0  0  0
 26 28  1  0  0  0  0
 24 25  1  0  0  0  0
 22 23  1  0  0  0  0
 22 24  2  0  0  0  0
 20 21  1  0  0  0  0
 19 20  1  0  0  0  0
 19 22  1  0  0  0  0
 17 18  1  0  0  0  0
 17 19  2  0  0  0  0
 15 16  1  0  0  0  0
 15 17  1  0  0  0  0
 14 15  2  0  0  0  0
 14 24  1  0  0  0  0
 11 12  1  0  0  0  0
 11 13  1  0  0  0  0
 11 14  1  0  0  0  0
  9 10  1  0  0  0  0
  9 11  1  0  0  0  0
  9 26  1  0  0  0  0
  7  8  1  0  0  0  0
  7  9  1  0  0  0  0
 30 31  1  0  0  0  0
 30 32  1  0  0  0  0
 30 33  1  0  0  0  0
 28 29  1  0  0  0  0
 28 30  1  0  0  0  0
M  END
$$$$
default_name
  -OEChem-02102213163D

 33 33  0     1  0  0  0  0  0999 V2000
   -4.0702   -3.8485    1.4554 H   0  0  0  0  0  0  0  0  0  0  0  0
   -4.0012   -2.9605    0.8284 C   0  0  0  0  0  0  0  0  0  0  0  0
   -4.7652   -2.2435    1.1234 H   0  0  0  0  0  0  0  0  0  0  0  0
   -4.1352   -3.2385   -0.2156 H   0  0  0  0  0  0  0  0  0  0  0  0
   -2.6362   -2.3395    1.0094 C   0  0  0  0  0  0  0  0  0  0  0  0
   -1.8292   -2.8395    1.7814 O   0  0  0  0  0  0  0  0  0  0  0  0
   -2.3832   -1.2445    0.2964 N   0  0  0  0  0  0  0  0  0  0  0  0
   -3.1102   -0.8685   -0.2946 H   0  0  0  0  0  0  0  0  0  0  0  0
   -1.1292   -0.4875    0.3524 C   0  0  1  0  0  0  0  0  0  0  0  0
   -0.5898   -0.7762    1.2552 H   0  0  0  0  0  0  0  0  0  0  0  0
   -0.2608   -0.8470   -0.8656 C   0  0  0  0  0  0  0  0  0  0  0  0
    0.7612   -0.5125   -0.6832 H   0  0  0  0  0  0  0  0  0  0  0  0
   -0.2351   -1.9327   -0.9731 H   0  0  0  0  0  0  0  0  0  0  0  0
   -0.7350   -0.2249   -2.1648 C   0  0  0  0  0  0  0  0  0  0  0  0
   -0.0371   -0.4659   -3.3652 C   0  0  0  0  0  0  0  0  0  0  0  0
    0.8567   -1.0759   -3.3586 H   0  0  0  0  0  0  0  0  0  0  0  0
   -0.5046    0.0811   -4.5761 C   0  0  0  0  0  0  0  0  0  0  0  0
    0.0332   -0.1042   -5.4931 H   0  0  0  0  0  0  0  0  0  0  0  0
   -1.6765    0.8686   -4.5865 C   0  0  0  0  0  0  0  0  0  0  0  0
   -2.1372    1.3981   -5.7494 O   0  0  0  0  0  0  0  0  0  0  0  0
   -1.5352    1.2457   -6.4790 H   0  0  0  0  0  0  0  0  0  0  0  0
   -2.3764    1.1046   -3.3850 C   0  0  0  0  0  0  0  0  0  0  0  0
   -3.2687    1.7120   -3.4052 H   0  0  0  0  0  0  0  0  0  0  0  0
   -1.9040    0.5603   -2.1757 C   0  0  0  0  0  0  0  0  0  0  0  0
   -2.4370    0.7498   -1.2516 H   0  0  0  0  0  0  0  0  0  0  0  0
   -1.4018    1.0238    0.4329 C   0  0  0  0  0  0  0  0  0  0  0  0
   -2.2416    1.5423   -0.3033 O   0  0  0  0  0  0  0  0  0  0  0  0
   -0.6927    1.7304    1.3223 N   0  0  0  0  0  0  0  0  0  0  0  0
    0.0178    1.2410    1.8469 H   0  0  0  0  0  0  0  0  0  0  0  0
   -0.8259    3.1712    1.5254 C   0  0  0  0  0  0  0  0  0  0  0  0
   -1.8769    3.4302    1.6645 H   0  0  0  0  0  0  0  0  0  0  0  0
   -0.2598    3.4806    2.4054 H   0  0  0  0  0  0  0  0  0  0  0  0
   -0.4486    3.7020    0.6489 H   0  0  0  0  0  0  0  0  0  0  0  0
  5  6  2  0  0  0  0
  5  7  1  0  0  0  0
  2  3  1  0  0  0  0
  2  4  1  0  0  0  0
  2  5  1  0  0  0  0
  1  2  1  0  0  0  0
 26 27  2  0  0  0  0
 26 28  1  0  0  0  0
 24 25  1  0  0  0  0
 22 23  1  0  0  0  0
 22 24  2  0  0  0  0
 20 21  1  0  0  0  0
 19 20  1  0  0  0  0
 19 22  1  0  0  0  0
 17 18  1  0  0  0  0
 17 19  2  0  0  0  0
 15 16  1  0  0  0  0
 15 17  1  0  0  0  0
 14 15  2  0  0  0  0
 14 24  1  0  0  0  0
 11 12  1  0  0  0  0
 11 13  1  0  0  0  0
 11 14  1  0  0  0  0
  9 10  1  0  0  0  0
  9 11  1  0  0  0  0
  9 26  1  0  0  0  0
  7  8  1  0  0  0  0
  7  9  1  0  0  0  0
 30 31  1  0  0  0  0
 30 32  1  0  0  0  0
 30 33  1  0  0  0  0
 28 29  1  0  0  0  0
 28 30  1  0  0  0  0
M  END
$$$$
default_name
  -OEChem-02102213163D

 33 33  0     1  0  0  0  0  0999 V2000
   -4.0702   -3.8485    1.4554 H   0  0  0  0  0  0  0  0  0  0  0  0
   -4.0012   -2.9605    0.8284 C   0  0  0  0  0  0  0  0  0  0  0  0
   -4.7652   -2.2435    1.1234 H   0  0  0  0  0  0  0  0  0  0  0  0
   -4.1352   -3.2385   -0.2156 H   0  0  0  0  0  0  0  0  0  0  0  0
   -2.6362   -2.3395    1.0094 C   0  0  0  0  0  0  0  0  0  0  0  0
   -1.8292   -2.8395    1.7814 O   0  0  0  0  0  0  0  0  0  0  0  0
   -2.3832   -1.2445    0.2964 N   0  0  0  0  0  0  0  0  0  0  0  0
   -3.1102   -0.8685   -0.2946 H   0  0  0  0  0  0  0  0  0  0  0  0
   -1.1292   -0.4875    0.3524 C   0  0  1  0  0  0  0  0  0  0  0  0
   -0.5898   -0.7762    1.2552 H   0  0  0  0  0  0  0  0  0  0  0  0
   -0.2608   -0.8470   -0.8656 C   0  0  0  0  0  0  0  0  0  0  0  0
    0.7612   -0.5125   -0.6832 H   0  0  0  0  0  0  0  0  0  0  0  0
   -0.2351   -1.9327   -0.9731 H   0  0  0  0  0  0  0  0  0  0  0  0
   -0.7350   -0.2249   -2.1648 C   0  0  0  0  0  0  0  0  0  0  0  0
   -0.2493   -0.6996   -3.3997 C   0  0  0  0  0  0  0  0  0  0  0  0
    0.4851   -1.4940   -3.4232 H   0  0  0  0  0  0  0  0  0  0  0  0
   -0.7232   -0.1459   -4.6050 C   0  0  0  0  0  0  0  0  0  0  0  0
   -0.3479   -0.5108   -5.5487 H   0  0  0  0  0  0  0  0  0  0  0  0
   -1.6891    0.8835   -4.5747 C   0  0  0  0  0  0  0  0  0  0  0  0
   -2.1546    1.4220   -5.7316 O   0  0  0  0  0  0  0  0  0  0  0  0
   -1.6884    1.0875   -6.4989 H   0  0  0  0  0  0  0  0  0  0  0  0
   -2.1776    1.3539   -3.3382 C   0  0  0  0  0  0  0  0  0  0  0  0
   -2.9128    2.1445   -3.3280 H   0  0  0  0  0  0  0  0  0  0  0  0
   -1.6986    0.8016   -2.1351 C   0  0  0  0  0  0  0  0  0  0  0  0
   -2.0675    1.1699   -1.1852 H   0  0  0  0  0  0  0  0  0  0  0  0
   -1.4018    1.0238    0.4329 C   0  0  0  0  0  0  0  0  0  0  0  0
   -2.2416    1.5423   -0.3033 O   0  0  0  0  0  0  0  0  0  0  0  0
   -0.6927    1.7304    1.3223 N   0  0  0  0  0  0  0  0  0  0  0  0
    0.0178    1.2410    1.8469 H   0  0  0  0  0  0  0  0  0  0  0  0
   -0.8259    3.1712    1.5254 C   0  0  0  0  0  0  0  0  0  0  0  0
   -1.8769    3.4302    1.6645 H   0  0  0  0  0  0  0  0  0  0  0  0
   -0.2598    3.4806    2.4054 H   0  0  0  0  0  0  0  0  0  0  0  0
   -0.4486    3.7020    0.6489 H   0  0  0  0  0  0  0  0  0  0  0  0
  5  6  2  0  0  0  0
  5  7  1  0  0  0  0
  2  3  1  0  0  0  0
  2  4  1  0  0  0  0
  2  5  1  0  0  0  0
  1  2  1  0  0  0  0
 26 27  2  0  0  0  0
 26 28  1  0  0  0  0
 24 25  1  0  0  0  0
 22 23  1  0  0  0  0
 22 24  2  0  0  0  0
 20 21  1  0  0  0  0
 19 20  1  0  0  0  0
 19 22  1  0  0  0  0
 17 18  1  0  0  0  0
 17 19  2  0  0  0  0
 15 16  1  0  0  0  0
 15 17  1  0  0  0  0
 14 15  2  0  0  0  0
 14 24  1  0  0  0  0
 11 12  1  0  0  0  0
 11 13  1  0  0  0  0
 11 14  1  0  0  0  0
  9 10  1  0  0  0  0
  9 11  1  0  0  0  0
  9 26  1  0  0  0  0
  7  8  1  0  0  0  0
  7  9  1  0  0  0  0
 30 31  1  0  0  0  0
 30 32  1  0  0  0  0
 30 33  1  0  0  0  0
 28 29  1  0  0  0  0
 28 30  1  0  0  0  0
M  END
$$$$
default_name
  -OEChem-02102213163D

 33 33  0     1  0  0  0  0  0999 V2000
   -4.0702   -3.8485    1.4554 H   0  0  0  0  0  0  0  0  0  0  0  0
   -4.0012   -2.9605    0.8284 C   0  0  0  0  0  0  0  0  0  0  0  0
   -4.7652   -2.2435    1.1234 H   0  0  0  0  0  0  0  0  0  0  0  0
   -4.1352   -3.2385   -0.2156 H   0  0  0  0  0  0  0  0  0  0  0  0
   -2.6362   -2.3395    1.0094 C   0  0  0  0  0  0  0  0  0  0  0  0
   -1.8292   -2.8395    1.7814 O   0  0  0  0  0  0  0  0  0  0  0  0
   -2.3832   -1.2445    0.2964 N   0  0  0  0  0  0  0  0  0  0  0  0
   -3.1102   -0.8685   -0.2946 H   0  0  0  0  0  0  0  0  0  0  0  0
   -1.1292   -0.4875    0.3524 C   0  0  1  0  0  0  0  0  0  0  0  0
   -0.5898   -0.7762    1.2552 H   0  0  0  0  0  0  0  0  0  0  0  0
   -0.2608   -0.8470   -0.8656 C   0  0  0  0  0  0  0  0  0  0  0  0
    0.7612   -0.5125   -0.6832 H   0  0  0  0  0  0  0  0  0  0  0  0
   -0.2351   -1.9327   -0.9731 H   0  0  0  0  0  0  0  0  0  0  0  0
   -0.7350   -0.2249   -2.1648 C   0  0  0  0  0  0  0  0  0  0  0  0
   -0.5098   -0.8811   -3.3915 C   0  0  0  0  0  0  0  0  0  0  0  0
    0.0267   -1.8207   -3.4123 H   0  0  0  0  0  0  0  0  0  0  0  0
   -0.9877   -0.3191   -4.5913 C   0  0  0  0  0  0  0  0  0  0  0  0
   -0.8121   -0.8236   -5.5291 H   0  0  0  0  0  0  0  0  0  0  0  0
   -1.6966    0.9016   -4.5633 C   0  0  0  0  0  0  0  0  0  0  0  0
   -2.1642    1.4503   -5.7146 O   0  0  0  0  0  0  0  0  0  0  0  0
   -1.8735    0.9670   -6.4890 H   0  0  0  0  0  0  0  0  0  0  0  0
   -1.9254    1.5544   -3.3343 C   0  0  0  0  0  0  0  0  0  0  0  0
   -2.4649    2.4895   -3.3263 H   0  0  0  0  0  0  0  0  0  0  0  0
   -1.4424    0.9925   -2.1372 C   0  0  0  0  0  0  0  0  0  0  0  0
   -1.6105    1.4992   -1.1944 H   0  0  0  0  0  0  0  0  0  0  0  0
   -1.4018    1.0238    0.4329 C   0  0  0  0  0  0  0  0  0  0  0  0
   -2.2416    1.5423   -0.3033 O   0  0  0  0  0  0  0  0  0  0  0  0
   -0.6927    1.7304    1.3223 N   0  0  0  0  0  0  0  0  0  0  0  0
    0.0178    1.2410    1.8469 H   0  0  0  0  0  0  0  0  0  0  0  0
   -0.8259    3.1712    1.5254 C   0  0  0  0  0  0  0  0  0  0  0  0
   -1.8769    3.4302    1.6645 H   0  0  0  0  0  0  0  0  0  0  0  0
   -0.2598    3.4806    2.4054 H   0  0  0  0  0  0  0  0  0  0  0  0
   -0.4486    3.7020    0.6489 H   0  0  0  0  0  0  0  0  0  0  0  0
  5  6  2  0  0  0  0
  5  7  1  0  0  0  0
  2  3  1  0  0  0  0
  2  4  1  0  0  0  0
  2  5  1  0  0  0  0
  1  2  1  0  0  0  0
 26 27  2  0  0  0  0
 26 28  1  0  0  0  0
 24 25  1  0  0  0  0
 22 23  1  0  0  0  0
 22 24  2  0  0  0  0
 20 21  1  0  0  0  0
 19 20  1  0  0  0  0
 19 22  1  0  0  0  0
 17 18  1  0  0  0  0
 17 19  2  0  0  0  0
 15 16  1  0  0  0  0
 15 17  1  0  0  0  0
 14 15  2  0  0  0  0
 14 24  1  0  0  0  0
 11 12  1  0  0  0  0
 11 13  1  0  0  0  0
 11 14  1  0  0  0  0
  9 10  1  0  0  0  0
  9 11  1  0  0  0  0
  9 26  1  0  0  0  0
  7  8  1  0  0  0  0
  7  9  1  0  0  0  0
 30 31  1  0  0  0  0
 30 32  1  0  0  0  0
 30 33  1  0  0  0  0
 28 29  1  0  0  0  0
 28 30  1  0  0  0  0
M  END
$$$$
default_name
  -OEChem-02102213163D

 33 33  0     1  0  0  0  0  0999 V2000
   -4.0702   -3.8485    1.4554 H   0  0  0  0  0  0  0  0  0  0  0  0
   -4.0012   -2.9605    0.8284 C   0  0  0  0  0  0  0  0  0  0  0  0
   -4.7652   -2.2435    1.1234 H   0  0  0  0  0  0  0  0  0  0  0  0
   -4.1352   -3.2385   -0.2156 H   0  0  0  0  0  0  0  0  0  0  0  0
   -2.6362   -2.3395    1.0094 C   0  0  0  0  0  0  0  0  0  0  0  0
   -1.8292   -2.8395    1.7814 O   0  0  0  0  0  0  0  0  0  0  0  0
   -2.3832   -1.2445    0.2964 N   0  0  0  0  0  0  0  0  0  0  0  0
   -3.1102   -0.8685   -0.2946 H   0  0  0  0  0  0  0  0  0  0  0  0
   -1.1292   -0.4875    0.3524 C   0  0  1  0  0  0  0  0  0  0  0  0
   -0.5898   -0.7762    1.2552 H   0  0  0  0  0  0  0  0  0  0  0  0
   -0.2608   -0.8470   -0.8656 C   0  0  0  0  0  0  0  0  0  0  0  0
    0.7612   -0.5125   -0.6832 H   0  0  0  0  0  0  0  0  0  0  0  0
   -0.2351   -1.9327   -0.9731 H   0  0  0  0  0  0  0  0  0  0  0  0
   -0.7350   -0.2249   -2.1648 C   0  0  0  0  0  0  0  0  0  0  0  0
   -0.8008   -0.9981   -3.3413 C   0  0  0  0  0  0  0  0  0  0  0  0
   -0.4874   -2.0337   -3.3267 H   0  0  0  0  0  0  0  0  0  0  0  0
   -1.2802   -0.4266   -4.5361 C   0  0  0  0  0  0  0  0  0  0  0  0
   -1.3277   -1.0211   -5.4355 H   0  0  0  0  0  0  0  0  0  0  0  0
   -1.6987    0.9218   -4.5529 C   0  0  0  0  0  0  0  0  0  0  0  0
   -2.1654    1.4812   -5.6993 O   0  0  0  0  0  0  0  0  0  0  0  0
   -2.0780    0.8925   -6.4501 H   0  0  0  0  0  0  0  0  0  0  0  0
   -1.6368    1.6925   -3.3735 C   0  0  0  0  0  0  0  0  0  0  0  0
   -1.9556    2.7236   -3.4001 H   0  0  0  0  0  0  0  0  0  0  0  0
   -1.1529    1.1198   -2.1819 C   0  0  0  0  0  0  0  0  0  0  0  0
   -1.0969    1.7152   -1.2784 H   0  0  0  0  0  0  0  0  0  0  0  0
   -1.4018    1.0238    0.4329 C   0  0  0  0  0  0  0  0  0  0  0  0
   -2.2416    1.5423   -0.3033 O   0  0  0  0  0  0  0  0  0  0  0  0
   -0.6927    1.7304    1.3223 N   0  0  0  0  0  0  0  0  0  0  0  0
    0.0178    1.2410    1.8469 H   0  0  0  0  0  0  0  0  0  0  0  0
   -0.8259    3.1712    1.5254 C   0  0  0  0  0  0  0  0  0  0  0  0
   -1.8769    3.4302    1.6645 H   0  0  0  0  0  0  0  0  0  0  0  0
   -0.2598    3.4806    2.4054 H   0  0  0  0  0  0  0  0  0  0  0  0
   -0.4486    3.7020    0.6489 H   0  0  0  0  0  0  0  0  0  0  0  0
  5  6  2  0  0  0  0
  5  7  1  0  0  0  0
  2  3  1  0  0  0  0
  2  4  1  0  0  0  0
  2  5  1  0  0  0  0
  1  2  1  0  0  0  0
 26 27  2  0  0  0  0
 26 28  1  0  0  0  0
 24 25  1  0  0  0  0
 22 23  1  0  0  0  0
 22 24  2  0  0  0  0
 20 21  1  0  0  0  0
 19 20  1  0  0  0  0
 19 22  1  0  0  0  0
 17 18  1  0  0  0  0
 17 19  2  0  0  0  0
 15 16  1  0  0  0  0
 15 17  1  0  0  0  0
 14 15  2  0  0  0  0
 14 24  1  0  0  0  0
 11 12  1  0  0  0  0
 11 13  1  0  0  0  0
 11 14  1  0  0  0  0
  9 10  1  0  0  0  0
  9 11  1  0  0  0  0
  9 26  1  0  0  0  0
  7  8  1  0  0  0  0
  7  9  1  0  0  0  0
 30 31  1  0  0  0  0
 30 32  1  0  0  0  0
 30 33  1  0  0  0  0
 28 29  1  0  0  0  0
 28 30  1  0  0  0  0
M  END
$$$$
default_name
  -OEChem-02102213163D

 33 33  0     1  0  0  0  0  0999 V2000
   -4.0702   -3.8485    1.4554 H   0  0  0  0  0  0  0  0  0  0  0  0
   -4.0012   -2.9605    0.8284 C   0  0  0  0  0  0  0  0  0  0  0  0
   -4.7652   -2.2435    1.1234 H   0  0  0  0  0  0  0  0  0  0  0  0
   -4.1352   -3.2385   -0.2156 H   0  0  0  0  0  0  0  0  0  0  0  0
   -2.6362   -2.3395    1.0094 C   0  0  0  0  0  0  0  0  0  0  0  0
   -1.8292   -2.8395    1.7814 O   0  0  0  0  0  0  0  0  0  0  0  0
   -2.3832   -1.2445    0.2964 N   0  0  0  0  0  0  0  0  0  0  0  0
   -3.1102   -0.8685   -0.2946 H   0  0  0  0  0  0  0  0  0  0  0  0
   -1.1292   -0.4875    0.3524 C   0  0  1  0  0  0  0  0  0  0  0  0
   -0.5898   -0.7762    1.2552 H   0  0  0  0  0  0  0  0  0  0  0  0
   -0.2608   -0.8470   -0.8656 C   0  0  0  0  0  0  0  0  0  0  0  0
    0.7612   -0.5125   -0.6832 H   0  0  0  0  0  0  0  0  0  0  0  0
   -0.2351   -1.9327   -0.9731 H   0  0  0  0  0  0  0  0  0  0  0  0
   -0.7350   -0.2249   -2.1648 C   0  0  0  0  0  0  0  0  0  0  0  0
   -1.1025   -1.0424   -3.2524 C   0  0  0  0  0  0  0  0  0  0  0  0
   -1.0222   -2.1186   -3.1721 H   0  0  0  0  0  0  0  0  0  0  0  0
   -1.5807   -0.4612   -4.4429 C   0  0  0  0  0  0  0  0  0  0  0  0
   -1.8597   -1.0901   -5.2743 H   0  0  0  0  0  0  0  0  0  0  0  0
   -1.6952    0.9425   -4.5443 C   0  0  0  0  0  0  0  0  0  0  0  0
   -2.1581    1.5126   -5.6870 O   0  0  0  0  0  0  0  0  0  0  0  0
   -2.2879    0.8689   -6.3848 H   0  0  0  0  0  0  0  0  0  0  0  0
   -1.3317    1.7587   -3.4531 C   0  0  0  0  0  0  0  0  0  0  0  0
   -1.4196    2.8309   -3.5444 H   0  0  0  0  0  0  0  0  0  0  0  0
   -0.8497    1.1750   -2.2662 C   0  0  0  0  0  0  0  0  0  0  0  0
   -0.5618    1.8032   -1.4316 H   0  0  0  0  0  0  0  0  0  0  0  0
   -1.4018    1.0238    0.4329 C   0  0  0  0  0  0  0  0  0  0  0  0
   -2.2416    1.5423   -0.3033 O   0  0  0  0  0  0  0  0  0  0  0  0
   -0.6927    1.7304    1.3223 N   0  0  0  0  0  0  0  0  0  0  0  0
    0.0178    1.2410    1.8469 H   0  0  0  0  0  0  0  0  0  0  0  0
   -0.8259    3.1712    1.5254 C   0  0  0  0  0  0  0  0  0  0  0  0
   -1.8769    3.4302    1.6645 H   0  0  0  0  0  0  0  0  0  0  0  0
   -0.2598    3.4806    2.4054 H   0  0  0  0  0  0  0  0  0  0  0  0
   -0.4486    3.7020    0.6489 H   0  0  0  0  0  0  0  0  0  0  0  0
  5  6  2  0  0  0  0
  5  7  1  0  0  0  0
  2  3  1  0  0  0  0
  2  4  1  0  0  0  0
  2  5  1  0  0  0  0
  1  2  1  0  0  0  0
 26 27  2  0  0  0  0
 26 28  1  0  0  0  0
 24 25  1  0  0  0  0
 22 23  1  0  0  0  0
 22 24  2  0  0  0  0
 20 21  1  0  0  0  0
 19 20  1  0  0  0  0
 19 22  1  0  0  0  0
 17 18  1  0  0  0  0
 17 19  2  0  0  0  0
 15 16  1  0  0  0  0
 15 17  1  0  0  0  0
 14 15  2  0  0  0  0
 14 24  1  0  0  0  0
 11 12  1  0  0  0  0
 11 13  1  0  0  0  0
 11 14  1  0  0  0  0
  9 10  1  0  0  0  0
  9 11  1  0  0  0  0
  9 26  1  0  0  0  0
  7  8  1  0  0  0  0
  7  9  1  0  0  0  0
 30 31  1  0  0  0  0
 30 32  1  0  0  0  0
 30 33  1  0  0  0  0
 28 29  1  0  0  0  0
 28 30  1  0  0  0  0
M  END
$$$$
default_name
  -OEChem-02102213163D

 33 33  0     1  0  0  0  0  0999 V2000
   -4.0702   -3.8485    1.4554 H   0  0  0  0  0  0  0  0  0  0  0  0
   -4.0012   -2.9605    0.8284 C   0  0  0  0  0  0  0  0  0  0  0  0
   -4.7652   -2.2435    1.1234 H   0  0  0  0  0  0  0  0  0  0  0  0
   -4.1352   -3.2385   -0.2156 H   0  0  0  0  0  0  0  0  0  0  0  0
   -2.6362   -2.3395    1.0094 C   0  0  0  0  0  0  0  0  0  0  0  0
   -1.8292   -2.8395    1.7814 O   0  0  0  0  0  0  0  0  0  0  0  0
   -2.3832   -1.2445    0.2964 N   0  0  0  0  0  0  0  0  0  0  0  0
   -3.1102   -0.8685   -0.2946 H   0  0  0  0  0  0  0  0  0  0  0  0
   -1.1292   -0.4875    0.3524 C   0  0  1  0  0  0  0  0  0  0  0  0
   -0.5898   -0.7762    1.2552 H   0  0  0  0  0  0  0  0  0  0  0  0
   -0.2608   -0.8470   -0.8656 C   0  0  0  0  0  0  0  0  0  0  0  0
    0.7612   -0.5125   -0.6832 H   0  0  0  0  0  0  0  0  0  0  0  0
   -0.2351   -1.9327   -0.9731 H   0  0  0  0  0  0  0  0  0  0  0  0
   -0.7350   -0.2249   -2.1648 C   0  0  0  0  0  0  0  0  0  0  0  0
   -1.3943   -1.0111   -3.1310 C   0  0  0  0  0  0  0  0  0  0  0  0
   -1.5411   -2.0694   -2.9592 H   0  0  0  0  0  0  0  0  0  0  0  0
   -1.8687   -0.4203   -4.3183 C   0  0  0  0  0  0  0  0  0  0  0  0
   -2.3717   -1.0257   -5.0566 H   0  0  0  0  0  0  0  0  0  0  0  0
   -1.6863    0.9624   -4.5380 C   0  0  0  0  0  0  0  0  0  0  0  0
   -2.1427    1.5422   -5.6784 O   0  0  0  0  0  0  0  0  0  0  0  0
   -2.4889    0.8981   -6.2974 H   0  0  0  0  0  0  0  0  0  0  0  0
   -1.0307    1.7486   -3.5679 C   0  0  0  0  0  0  0  0  0  0  0  0
   -0.8934    2.8039   -3.7493 H   0  0  0  0  0  0  0  0  0  0  0  0
   -0.5536    1.1542   -2.3842 C   0  0  0  0  0  0  0  0  0  0  0  0
   -0.0418    1.7571   -1.6435 H   0  0  0  0  0  0  0  0  0  0  0  0
   -1.4018    1.0238    0.4329 C   0  0  0  0  0  0  0  0  0  0  0  0
   -2.2416    1.5423   -0.3033 O   0  0  0  0  0  0  0  0  0  0  0  0
   -0.6927    1.7304    1.3223 N   0  0  0  0  0  0  0  0  0  0  0  0
    0.0178    1.2410    1.8469 H   0  0  0  0  0  0  0  0  0  0  0  0
   -0.8259    3.1712    1.5254 C   0  0  0  0  0  0  0  0  0  0  0  0
   -1.8769    3.4302    1.6645 H   0  0  0  0  0  0  0  0  0  0  0  0
   -0.2598    3.4806    2.4054 H   0  0  0  0  0  0  0  0  0  0  0  0
   -0.4486    3.7020    0.6489 H   0  0  0  0  0  0  0  0  0  0  0  0
  5  6  2  0  0  0  0
  5  7  1  0  0  0  0
  2  3  1  0  0  0  0
  2  4  1  0  0  0  0
  2  5  1  0  0  0  0
  1  2  1  0  0  0  0
 26 27  2  0  0  0  0
 26 28  1  0  0  0  0
 24 25  1  0  0  0  0
 22 23  1  0  0  0  0
 22 24  2  0  0  0  0
 20 21  1  0  0  0  0
 19 20  1  0  0  0  0
 19 22  1  0  0  0  0
 17 18  1  0  0  0  0
 17 19  2  0  0  0  0
 15 16  1  0  0  0  0
 15 17  1  0  0  0  0
 14 15  2  0  0  0  0
 14 24  1  0  0  0  0
 11 12  1  0  0  0  0
 11 13  1  0  0  0  0
 11 14  1  0  0  0  0
  9 10  1  0  0  0  0
  9 11  1  0  0  0  0
  9 26  1  0  0  0  0
  7  8  1  0  0  0  0
  7  9  1  0  0  0  0
 30 31  1  0  0  0  0
 30 32  1  0  0  0  0
 30 33  1  0  0  0  0
 28 29  1  0  0  0  0
 28 30  1  0  0  0  0
M  END
$$$$
default_name
  -OEChem-02102213163D

 33 33  0     1  0  0  0  0  0999 V2000
   -4.0702   -3.8485    1.4554 H   0  0  0  0  0  0  0  0  0  0  0  0
   -4.0012   -2.9605    0.8284 C   0  0  0  0  0  0  0  0  0  0  0  0
   -4.7652   -2.2435    1.1234 H   0  0  0  0  0  0  0  0  0  0  0  0
   -4.1352   -3.2385   -0.2156 H   0  0  0  0  0  0  0  0  0  0  0  0
   -2.6362   -2.3395    1.0094 C   0  0  0  0  0  0  0  0  0  0  0  0
   -1.8292   -2.8395    1.7814 O   0  0  0  0  0  0  0  0  0  0  0  0
   -2.3832   -1.2445    0.2964 N   0  0  0  0  0  0  0  0  0  0  0  0
   -3.1102   -0.8685   -0.2946 H   0  0  0  0  0  0  0  0  0  0  0  0
   -1.1292   -0.4875    0.3524 C   0  0  1  0  0  0  0  0  0  0  0  0
   -0.5898   -0.7762    1.2552 H   0  0  0  0  0  0  0  0  0  0  0  0
   -0.2608   -0.8470   -0.8656 C   0  0  0  0  0  0  0  0  0  0  0  0
    0.7612   -0.5125   -0.6832 H   0  0  0  0  0  0  0  0  0  0  0  0
   -0.2351   -1.9327   -0.9731 H   0  0  0  0  0  0  0  0  0  0  0  0
   -0.7350   -0.2249   -2.1648 C   0  0  0  0  0  0  0  0  0  0  0  0
   -1.6563   -0.9064   -2.9852 C   0  0  0  0  0  0  0  0  0  0  0  0
   -2.0088   -1.8897   -2.7024 H   0  0  0  0  0  0  0  0  0  0  0  0
   -2.1246   -0.3070   -4.1706 C   0  0  0  0  0  0  0  0  0  0  0  0
   -2.8288   -0.8323   -4.7972 H   0  0  0  0  0  0  0  0  0  0  0  0
   -1.6725    0.9802   -4.5345 C   0  0  0  0  0  0  0  0  0  0  0  0
   -2.1204    1.5681   -5.6741 O   0  0  0  0  0  0  0  0  0  0  0  0
   -2.6673    0.9778   -6.1941 H   0  0  0  0  0  0  0  0  0  0  0  0
   -0.7544    1.6627   -3.7098 C   0  0  0  0  0  0  0  0  0  0  0  0
   -0.4128    2.6446   -4.0010 H   0  0  0  0  0  0  0  0  0  0  0  0
   -0.2847    1.0590   -2.5279 C   0  0  0  0  0  0  0  0  0  0  0  0
    0.4278    1.5801   -1.8996 H   0  0  0  0  0  0  0  0  0  0  0  0
   -1.4018    1.0238    0.4329 C   0  0  0  0  0  0  0  0  0  0  0  0
   -2.2416    1.5423   -0.3033 O   0  0  0  0  0  0  0  0  0  0  0  0
   -0.6927    1.7304    1.3223 N   0  0  0  0  0  0  0  0  0  0  0  0
    0.0178    1.2410    1.8469 H   0  0  0  0  0  0  0  0  0  0  0  0
   -0.8259    3.1712    1.5254 C   0  0  0  0  0  0  0  0  0  0  0  0
   -1.8769    3.4302    1.6645 H   0  0  0  0  0  0  0  0  0  0  0  0
   -0.2598    3.4806    2.4054 H   0  0  0  0  0  0  0  0  0  0  0  0
   -0.4486    3.7020    0.6489 H   0  0  0  0  0  0  0  0  0  0  0  0
  5  6  2  0  0  0  0
  5  7  1  0  0  0  0
  2  3  1  0  0  0  0
  2  4  1  0  0  0  0
  2  5  1  0  0  0  0
  1  2  1  0  0  0  0
 26 27  2  0  0  0  0
 26 28  1  0  0  0  0
 24 25  1  0  0  0  0
 22 23  1  0  0  0  0
 22 24  2  0  0  0  0
 20 21  1  0  0  0  0
 19 20  1  0  0  0  0
 19 22  1  0  0  0  0
 17 18  1  0  0  0  0
 17 19  2  0  0  0  0
 15 16  1  0  0  0  0
 15 17  1  0  0  0  0
 14 15  2  0  0  0  0
 14 24  1  0  0  0  0
 11 12  1  0  0  0  0
 11 13  1  0  0  0  0
 11 14  1  0  0  0  0
  9 10  1  0  0  0  0
  9 11  1  0  0  0  0
  9 26  1  0  0  0  0
  7  8  1  0  0  0  0
  7  9  1  0  0  0  0
 30 31  1  0  0  0  0
 30 32  1  0  0  0  0
 30 33  1  0  0  0  0
 28 29  1  0  0  0  0
 28 30  1  0  0  0  0
M  END
$$$$
default_name
  -OEChem-02102213163D

 33 33  0     1  0  0  0  0  0999 V2000
   -4.0702   -3.8485    1.4554 H   0  0  0  0  0  0  0  0  0  0  0  0
   -4.0012   -2.9605    0.8284 C   0  0  0  0  0  0  0  0  0  0  0  0
   -4.7652   -2.2435    1.1234 H   0  0  0  0  0  0  0  0  0  0  0  0
   -4.1352   -3.2385   -0.2156 H   0  0  0  0  0  0  0  0  0  0  0  0
   -2.6362   -2.3395    1.0094 C   0  0  0  0  0  0  0  0  0  0  0  0
   -1.8292   -2.8395    1.7814 O   0  0  0  0  0  0  0  0  0  0  0  0
   -2.3832   -1.2445    0.2964 N   0  0  0  0  0  0  0  0  0  0  0  0
   -3.1102   -0.8685   -0.2946 H   0  0  0  0  0  0  0  0  0  0  0  0
   -1.1292   -0.4875    0.3524 C   0  0  1  0  0  0  0  0  0  0  0  0
   -0.5898   -0.7762    1.2552 H   0  0  0  0  0  0  0  0  0  0  0  0
   -0.2608   -0.8470   -0.8656 C   0  0  0  0  0  0  0  0  0  0  0  0
    0.7612   -0.5125   -0.6832 H   0  0  0  0  0  0  0  0  0  0  0  0
   -0.2351   -1.9327   -0.9731 H   0  0  0  0  0  0  0  0  0  0  0  0
   -0.7350   -0.2249   -2.1648 C   0  0  0  0  0  0  0  0  0  0  0  0
   -1.8707   -0.7354   -2.8250 C   0  0  0  0  0  0  0  0  0  0  0  0
   -2.3935   -1.5916   -2.4193 H   0  0  0  0  0  0  0  0  0  0  0  0
   -2.3310   -0.1288   -4.0100 C   0  0  0  0  0  0  0  0  0  0  0  0
   -3.2000   -0.5232   -4.5137 H   0  0  0  0  0  0  0  0  0  0  0  0
   -1.6550    0.9946   -4.5340 C   0  0  0  0  0  0  0  0  0  0  0  0
   -2.0927    1.5886   -5.6745 O   0  0  0  0  0  0  0  0  0  0  0  0
   -2.8111    1.1028   -6.0818 H   0  0  0  0  0  0  0  0  0  0  0  0
   -0.5216    1.5071   -3.8693 C   0  0  0  0  0  0  0  0  0  0  0  0
   -0.0107    2.3638   -4.2822 H   0  0  0  0  0  0  0  0  0  0  0  0
   -0.0613    0.8957   -2.6876 C   0  0  0  0  0  0  0  0  0  0  0  0
    0.8150    1.2843   -2.1825 H   0  0  0  0  0  0  0  0  0  0  0  0
   -1.4018    1.0238    0.4329 C   0  0  0  0  0  0  0  0  0  0  0  0
   -2.2416    1.5423   -0.3033 O   0  0  0  0  0  0  0  0  0  0  0  0
   -0.6927    1.7304    1.3223 N   0  0  0  0  0  0  0  0  0  0  0  0
    0.0178    1.2410    1.8469 H   0  0  0  0  0  0  0  0  0  0  0  0
   -0.8259    3.1712    1.5254 C   0  0  0  0  0  0  0  0  0  0  0  0
   -1.8769    3.4302    1.6645 H   0  0  0  0  0  0  0  0  0  0  0  0
   -0.2598    3.4806    2.4054 H   0  0  0  0  0  0  0  0  0  0  0  0
   -0.4486    3.7020    0.6489 H   0  0  0  0  0  0  0  0  0  0  0  0
  5  6  2  0  0  0  0
  5  7  1  0  0  0  0
  2  3  1  0  0  0  0
  2  4  1  0  0  0  0
  2  5  1  0  0  0  0
  1  2  1  0  0  0  0
 26 27  2  0  0  0  0
 26 28  1  0  0  0  0
 24 25  1  0  0  0  0
 22 23  1  0  0  0  0
 22 24  2  0  0  0  0
 20 21  1  0  0  0  0
 19 20  1  0  0  0  0
 19 22  1  0  0  0  0
 17 18  1  0  0  0  0
 17 19  2  0  0  0  0
 15 16  1  0  0  0  0
 15 17  1  0  0  0  0
 14 15  2  0  0  0  0
 14 24  1  0  0  0  0
 11 12  1  0  0  0  0
 11 13  1  0  0  0  0
 11 14  1  0  0  0  0
  9 10  1  0  0  0  0
  9 11  1  0  0  0  0
  9 26  1  0  0  0  0
  7  8  1  0  0  0  0
  7  9  1  0  0  0  0
 30 31  1  0  0  0  0
 30 32  1  0  0  0  0
 30 33  1  0  0  0  0
 28 29  1  0  0  0  0
 28 30  1  0  0  0  0
M  END
$$$$
default_name
  -OEChem-02102213163D

 33 33  0     1  0  0  0  0  0999 V2000
   -4.0702   -3.8485    1.4554 H   0  0  0  0  0  0  0  0  0  0  0  0
   -4.0012   -2.9605    0.8284 C   0  0  0  0  0  0  0  0  0  0  0  0
   -4.7652   -2.2435    1.1234 H   0  0  0  0  0  0  0  0  0  0  0  0
   -4.1352   -3.2385   -0.2156 H   0  0  0  0  0  0  0  0  0  0  0  0
   -2.6362   -2.3395    1.0094 C   0  0  0  0  0  0  0  0  0  0  0  0
   -1.8292   -2.8395    1.7814 O   0  0  0  0  0  0  0  0  0  0  0  0
   -2.3832   -1.2445    0.2964 N   0  0  0  0  0  0  0  0  0  0  0  0
   -3.1102   -0.8685   -0.2946 H   0  0  0  0  0  0  0  0  0  0  0  0
   -1.1292   -0.4875    0.3524 C   0  0  1  0  0  0  0  0  0  0  0  0
   -0.5898   -0.7762    1.2552 H   0  0  0  0  0  0  0  0  0  0  0  0
   -0.2608   -0.8470   -0.8656 C   0  0  0  0  0  0  0  0  0  0  0  0
    0.7612   -0.5125   -0.6832 H   0  0  0  0  0  0  0  0  0  0  0  0
   -0.2351   -1.9327   -0.9731 H   0  0  0  0  0  0  0  0  0  0  0  0
   -0.7350   -0.2249   -2.1648 C   0  0  0  0  0  0  0  0  0  0  0  0
   -2.0229   -0.5097   -2.6614 C   0  0  0  0  0  0  0  0  0  0  0  0
   -2.6689   -1.1954   -2.1291 H   0  0  0  0  0  0  0  0  0  0  0  0
   -2.4737    0.1021   -3.8473 C   0  0  0  0  0  0  0  0  0  0  0  0
   -3.4599   -0.1194   -4.2255 H   0  0  0  0  0  0  0  0  0  0  0  0
   -1.6348    1.0047   -4.5365 C   0  0  0  0  0  0  0  0  0  0  0  0
   -2.0614    1.6022   -5.6794 O   0  0  0  0  0  0  0  0  0  0  0  0
   -2.9102    1.2645   -5.9682 H   0  0  0  0  0  0  0  0  0  0  0  0
   -0.3482    1.2922   -4.0354 C   0  0  0  0  0  0  0  0  0  0  0  0
    0.2856    1.9807   -4.5738 H   0  0  0  0  0  0  0  0  0  0  0  0
    0.1013    0.6756   -2.8524 C   0  0  0  0  0  0  0  0  0  0  0  0
    1.0934    0.8899   -2.4730 H   0  0  0  0  0  0  0  0  0  0  0  0
   -1.4018    1.0238    0.4329 C   0  0  0  0  0  0  0  0  0  0  0  0
   -2.2416    1.5423   -0.3033 O   0  0  0  0  0  0  0  0  0  0  0  0
   -0.6927    1.7304    1.3223 N   0  0  0  0  0  0  0  0  0  0  0  0
    0.0178    1.2410    1.8469 H   0  0  0  0  0  0  0  0  0  0  0  0
   -0.8259    3.1712    1.5254 C   0  0  0  0  0  0  0  0  0  0  0  0
   -1.8769    3.4302    1.6645 H   0  0  0  0  0  0  0  0  0  0  0  0
   -0.2598    3.4806    2.4054 H   0  0  0  0  0  0  0  0  0  0  0  0
   -0.4486    3.7020    0.6489 H   0  0  0  0  0  0  0  0  0  0  0  0
  5  6  2  0  0  0  0
  5  7  1  0  0  0  0
  2  3  1  0  0  0  0
  2  4  1  0  0  0  0
  2  5  1  0  0  0  0
  1  2  1  0  0  0  0
 26 27  2  0  0  0  0
 26 28  1  0  0  0  0
 24 25  1  0  0  0  0
 22 23  1  0  0  0  0
 22 24  2  0  0  0  0
 20 21  1  0  0  0  0
 19 20  1  0  0  0  0
 19 22  1  0  0  0  0
 17 18  1  0  0  0  0
 17 19  2  0  0  0  0
 15 16  1  0  0  0  0
 15 17  1  0  0  0  0
 14 15  2  0  0  0  0
 14 24  1  0  0  0  0
 11 12  1  0  0  0  0
 11 13  1  0  0  0  0
 11 14  1  0  0  0  0
  9 10  1  0  0  0  0
  9 11  1  0  0  0  0
  9 26  1  0  0  0  0
  7  8  1  0  0  0  0
  7  9  1  0  0  0  0
 30 31  1  0  0  0  0
 30 32  1  0  0  0  0
 30 33  1  0  0  0  0
 28 29  1  0  0  0  0
 28 30  1  0  0  0  0
M  END
$$$$
default_name
  -OEChem-02102213163D

 33 33  0     1  0  0  0  0  0999 V2000
   -4.0702   -3.8485    1.4554 H   0  0  0  0  0  0  0  0  0  0  0  0
   -4.0012   -2.9605    0.8284 C   0  0  0  0  0  0  0  0  0  0  0  0
   -4.7652   -2.2435    1.1234 H   0  0  0  0  0  0  0  0  0  0  0  0
   -4.1352   -3.2385   -0.2156 H   0  0  0  0  0  0  0  0  0  0  0  0
   -2.6362   -2.3395    1.0094 C   0  0  0  0  0  0  0  0  0  0  0  0
   -1.8292   -2.8395    1.7814 O   0  0  0  0  0  0  0  0  0  0  0  0
   -2.3832   -1.2445    0.2964 N   0  0  0  0  0  0  0  0  0  0  0  0
   -3.1102   -0.8685   -0.2946 H   0  0  0  0  0  0  0  0  0  0  0  0
   -1.1292   -0.4875    0.3524 C   0  0  1  0  0  0  0  0  0  0  0  0
   -0.5898   -0.7762    1.2552 H   0  0  0  0  0  0  0  0  0  0  0  0
   -0.2608   -0.8470   -0.8656 C   0  0  0  0  0  0  0  0  0  0  0  0
    0.7612   -0.5125   -0.6832 H   0  0  0  0  0  0  0  0  0  0  0  0
   -0.2351   -1.9327   -0.9731 H   0  0  0  0  0  0  0  0  0  0  0  0
   -0.7350   -0.2249   -2.1648 C   0  0  0  0  0  0  0  0  0  0  0  0
   -2.1024   -0.2446   -2.5055 C   0  0  0  0  0  0  0  0  0  0  0  0
   -2.8163   -0.7281   -1.8516 H   0  0  0  0  0  0  0  0  0  0  0  0
   -2.5432    0.3700   -3.6937 C   0  0  0  0  0  0  0  0  0  0  0  0
   -3.5908    0.3516   -3.9523 H   0  0  0  0  0  0  0  0  0  0  0  0
   -1.6133    1.0098   -4.5420 C   0  0  0  0  0  0  0  0  0  0  0  0
   -2.0287    1.6079   -5.6886 O   0  0  0  0  0  0  0  0  0  0  0  0
   -2.9581    1.4518   -5.8610 H   0  0  0  0  0  0  0  0  0  0  0  0
   -0.2460    1.0328   -4.1970 C   0  0  0  0  0  0  0  0  0  0  0  0
    0.4559    1.5213   -4.8559 H   0  0  0  0  0  0  0  0  0  0  0  0
    0.1921    0.4136   -3.0110 C   0  0  0  0  0  0  0  0  0  0  0  0
    1.2439    0.4236   -2.7512 H   0  0  0  0  0  0  0  0  0  0  0  0
   -1.4018    1.0238    0.4329 C   0  0  0  0  0  0  0  0  0  0  0  0
   -2.2416    1.5423   -0.3033 O   0  0  0  0  0  0  0  0  0  0  0  0
   -0.6927    1.7304    1.3223 N   0  0  0  0  0  0  0  0  0  0  0  0
    0.0178    1.2410    1.8469 H   0  0  0  0  0  0  0  0  0  0  0  0
   -0.8259    3.1712    1.5254 C   0  0  0  0  0  0  0  0  0  0  0  0
   -1.8769    3.4302    1.6645 H   0  0  0  0  0  0  0  0  0  0  0  0
   -0.2598    3.4806    2.4054 H   0  0  0  0  0  0  0  0  0  0  0  0
   -0.4486    3.7020    0.6489 H   0  0  0  0  0  0  0  0  0  0  0  0
  5  6  2  0  0  0  0
  5  7  1  0  0  0  0
  2  3  1  0  0  0  0
  2  4  1  0  0  0  0
  2  5  1  0  0  0  0
  1  2  1  0  0  0  0
 26 27  2  0  0  0  0
 26 28  1  0  0  0  0
 24 25  1  0  0  0  0
 22 23  1  0  0  0  0
 22 24  2  0  0  0  0
 20 21  1  0  0  0  0
 19 20  1  0  0  0  0
 19 22  1  0  0  0  0
 17 18  1  0  0  0  0
 17 19  2  0  0  0  0
 15 16  1  0  0  0  0
 15 17  1  0  0  0  0
 14 15  2  0  0  0  0
 14 24  1  0  0  0  0
 11 12  1  0  0  0  0
 11 13  1  0  0  0  0
 11 14  1  0  0  0  0
  9 10  1  0  0  0  0
  9 11  1  0  0  0  0
  9 26  1  0  0  0  0
  7  8  1  0  0  0  0
  7  9  1  0  0  0  0
 30 31  1  0  0  0  0
 30 32  1  0  0  0  0
 30 33  1  0  0  0  0
 28 29  1  0  0  0  0
 28 30  1  0  0  0  0
M  END
$$$$
default_name
  -OEChem-02102213163D

 33 33  0     1  0  0  0  0  0999 V2000
   -4.0702   -3.8485    1.4554 H   0  0  0  0  0  0  0  0  0  0  0  0
   -4.0012   -2.9605    0.8284 C   0  0  0  0  0  0  0  0  0  0  0  0
   -4.7652   -2.2435    1.1234 H   0  0  0  0  0  0  0  0  0  0  0  0
   -4.1352   -3.2385   -0.2156 H   0  0  0  0  0  0  0  0  0  0  0  0
   -2.6362   -2.3395    1.0094 C   0  0  0  0  0  0  0  0  0  0  0  0
   -1.8292   -2.8395    1.7814 O   0  0  0  0  0  0  0  0  0  0  0  0
   -2.3832   -1.2445    0.2964 N   0  0  0  0  0  0  0  0  0  0  0  0
   -3.1102   -0.8685   -0.2946 H   0  0  0  0  0  0  0  0  0  0  0  0
   -1.1292   -0.4875    0.3524 C   0  0  1  0  0  0  0  0  0  0  0  0
   -0.5898   -0.7762    1.2552 H   0  0  0  0  0  0  0  0  0  0  0  0
   -0.2608   -0.8470   -0.8656 C   0  0  0  0  0  0  0  0  0  0  0  0
    0.7612   -0.5125   -0.6832 H   0  0  0  0  0  0  0  0  0  0  0  0
   -0.2351   -1.9327   -0.9731 H   0  0  0  0  0  0  0  0  0  0  0  0
   -0.7350   -0.2249   -2.1648 C   0  0  0  0  0  0  0  0  0  0  0  0
   -2.1039    0.0416   -2.3679 C   0  0  0  0  0  0  0  0  0  0  0  0
   -2.8256   -0.2217   -1.6057 H   0  0  0  0  0  0  0  0  0  0  0  0
   -2.5346    0.6565   -3.5597 C   0  0  0  0  0  0  0  0  0  0  0  0
   -3.5837    0.8577   -3.7125 H   0  0  0  0  0  0  0  0  0  0  0  0
   -1.5920    1.0094   -4.5499 C   0  0  0  0  0  0  0  0  0  0  0  0
   -1.9968    1.6055   -5.7014 O   0  0  0  0  0  0  0  0  0  0  0  0
   -2.9515    1.6521   -5.7676 H   0  0  0  0  0  0  0  0  0  0  0  0
   -0.2220    0.7464   -4.3428 C   0  0  0  0  0  0  0  0  0  0  0  0
    0.4886    1.0169   -5.1093 H   0  0  0  0  0  0  0  0  0  0  0  0
    0.2048    0.1275   -3.1526 C   0  0  0  0  0  0  0  0  0  0  0  0
    1.2565   -0.0827   -2.9982 H   0  0  0  0  0  0  0  0  0  0  0  0
   -1.4018    1.0238    0.4329 C   0  0  0  0  0  0  0  0  0  0  0  0
   -2.2416    1.5423   -0.3033 O   0  0  0  0  0  0  0  0  0  0  0  0
   -0.6927    1.7304    1.3223 N   0  0  0  0  0  0  0  0  0  0  0  0
    0.0178    1.2410    1.8469 H   0  0  0  0  0  0  0  0  0  0  0  0
   -0.8259    3.1712    1.5254 C   0  0  0  0  0  0  0  0  0  0  0  0
   -1.8769    3.4302    1.6645 H   0  0  0  0  0  0  0  0  0  0  0  0
   -0.2598    3.4806    2.4054 H   0  0  0  0  0  0  0  0  0  0  0  0
   -0.4486    3.7020    0.6489 H   0  0  0  0  0  0  0  0  0  0  0  0
  5  6  2  0  0  0  0
  5  7  1  0  0  0  0
  2  3  1  0  0  0  0
  2  4  1  0  0  0  0
  2  5  1  0  0  0  0
  1  2  1  0  0  0  0
 26 27  2  0  0  0  0
 26 28  1  0  0  0  0
 24 25  1  0  0  0  0
 22 23  1  0  0  0  0
 22 24  2  0  0  0  0
 20 21  1  0  0  0  0
 19 20  1  0  0  0  0
 19 22  1  0  0  0  0
 17 18  1  0  0  0  0
 17 19  2  0  0  0  0
 15 16  1  0  0  0  0
 15 17  1  0  0  0  0
 14 15  2  0  0  0  0
 14 24  1  0  0  0  0
 11 12  1  0  0  0  0
 11 13  1  0  0  0  0
 11 14  1  0  0  0  0
  9 10  1  0  0  0  0
  9 11  1  0  0  0  0
  9 26  1  0  0  0  0
  7  8  1  0  0  0  0
  7  9  1  0  0  0  0
 30 31  1  0  0  0  0
 30 32  1  0  0  0  0
 30 33  1  0  0  0  0
 28 29  1  0  0  0  0
 28 30  1  0  0  0  0
M  END
$$$$
default_name
  -OEChem-02102213163D

 33 33  0     1  0  0  0  0  0999 V2000
   -4.0702   -3.8485    1.4554 H   0  0  0  0  0  0  0  0  0  0  0  0
   -4.0012   -2.9605    0.8284 C   0  0  0  0  0  0  0  0  0  0  0  0
   -4.7652   -2.2435    1.1234 H   0  0  0  0  0  0  0  0  0  0  0  0
   -4.1352   -3.2385   -0.2156 H   0  0  0  0  0  0  0  0  0  0  0  0
   -2.6362   -2.3395    1.0094 C   0  0  0  0  0  0  0  0  0  0  0  0
   -1.8292   -2.8395    1.7814 O   0  0  0  0  0  0  0  0  0  0  0  0
   -2.3832   -1.2445    0.2964 N   0  0  0  0  0  0  0  0  0  0  0  0
   -3.1102   -0.8685   -0.2946 H   0  0  0  0  0  0  0  0  0  0  0  0
   -1.1292   -0.4875    0.3524 C   0  0  1  0  0  0  0  0  0  0  0  0
   -0.5898   -0.7762    1.2552 H   0  0  0  0  0  0  0  0  0  0  0  0
   -0.2608   -0.8470   -0.8656 C   0  0  0  0  0  0  0  0  0  0  0  0
    0.7612   -0.5125   -0.6832 H   0  0  0  0  0  0  0  0  0  0  0  0
   -0.2351   -1.9327   -0.9731 H   0  0  0  0  0  0  0  0  0  0  0  0
   -0.7350   -0.2249   -2.1648 C   0  0  0  0  0  0  0  0  0  0  0  0
   -2.0273    0.3296   -2.2580 C   0  0  0  0  0  0  0  0  0  0  0  0
   -2.6962    0.2895   -1.4082 H   0  0  0  0  0  0  0  0  0  0  0  0
   -2.4485    0.9422   -3.4543 C   0  0  0  0  0  0  0  0  0  0  0  0
   -3.4393    1.3644   -3.5226 H   0  0  0  0  0  0  0  0  0  0  0  0
   -1.5723    1.0037   -4.5598 C   0  0  0  0  0  0  0  0  0  0  0  0
   -1.9679    1.5951   -5.7169 O   0  0  0  0  0  0  0  0  0  0  0  0
   -2.8907    1.8516   -5.6942 H   0  0  0  0  0  0  0  0  0  0  0  0
   -0.2777    0.4527   -4.4631 C   0  0  0  0  0  0  0  0  0  0  0  0
    0.3814    0.5020   -5.3167 H   0  0  0  0  0  0  0  0  0  0  0  0
    0.1386   -0.1631   -3.2675 C   0  0  0  0  0  0  0  0  0  0  0  0
    1.1301   -0.5944   -3.1971 H   0  0  0  0  0  0  0  0  0  0  0  0
   -1.4018    1.0238    0.4329 C   0  0  0  0  0  0  0  0  0  0  0  0
   -2.2416    1.5423   -0.3033 O   0  0  0  0  0  0  0  0  0  0  0  0
   -0.6927    1.7304    1.3223 N   0  0  0  0  0  0  0  0  0  0  0  0
    0.0178    1.2410    1.8469 H   0  0  0  0  0  0  0  0  0  0  0  0
   -0.8259    3.1712    1.5254 C   0  0  0  0  0  0  0  0  0  0  0  0
   -1.8769    3.4302    1.6645 H   0  0  0  0  0  0  0  0  0  0  0  0
   -0.2598    3.4806    2.4054 H   0  0  0  0  0  0  0  0  0  0  0  0
   -0.4486    3.7020    0.6489 H   0  0  0  0  0  0  0  0  0  0  0  0
  5  6  2  0  0  0  0
  5  7  1  0  0  0  0
  2  3  1  0  0  0  0
  2  4  1  0  0  0  0
  2  5  1  0  0  0  0
  1  2  1  0  0  0  0
 26 27  2  0  0  0  0
 26 28  1  0  0  0  0
 24 25  1  0  0  0  0
 22 23  1  0  0  0  0
 22 24  2  0  0  0  0
 20 21  1  0  0  0  0
 19 20  1  0  0  0  0
 19 22  1  0  0  0  0
 17 18  1  0  0  0  0
 17 19  2  0  0  0  0
 15 16  1  0  0  0  0
 15 17  1  0  0  0  0
 14 15  2  0  0  0  0
 14 24  1  0  0  0  0
 11 12  1  0  0  0  0
 11 13  1  0  0  0  0
 11 14  1  0  0  0  0
  9 10  1  0  0  0  0
  9 11  1  0  0  0  0
  9 26  1  0  0  0  0
  7  8  1  0  0  0  0
  7  9  1  0  0  0  0
 30 31  1  0  0  0  0
 30 32  1  0  0  0  0
 30 33  1  0  0  0  0
 28 29  1  0  0  0  0
 28 30  1  0  0  0  0
M  END
$$$$
default_name
  -OEChem-02102213163D

 33 33  0     1  0  0  0  0  0999 V2000
   -4.0702   -3.8485    1.4554 H   0  0  0  0  0  0  0  0  0  0  0  0
   -4.0012   -2.9605    0.8284 C   0  0  0  0  0  0  0  0  0  0  0  0
   -4.7652   -2.2435    1.1234 H   0  0  0  0  0  0  0  0  0  0  0  0
   -4.1352   -3.2385   -0.2156 H   0  0  0  0  0  0  0  0  0  0  0  0
   -2.6362   -2.3395    1.0094 C   0  0  0  0  0  0  0  0  0  0  0  0
   -1.8292   -2.8395    1.7814 O   0  0  0  0  0  0  0  0  0  0  0  0
   -2.3832   -1.2445    0.2964 N   0  0  0  0  0  0  0  0  0  0  0  0
   -3.1102   -0.8685   -0.2946 H   0  0  0  0  0  0  0  0  0  0  0  0
   -1.1292   -0.4875    0.3524 C   0  0  1  0  0  0  0  0  0  0  0  0
   -0.5898   -0.7762    1.2552 H   0  0  0  0  0  0  0  0  0  0  0  0
   -0.2608   -0.8470   -0.8656 C   0  0  0  0  0  0  0  0  0  0  0  0
    0.7612   -0.5125   -0.6832 H   0  0  0  0  0  0  0  0  0  0  0  0
   -0.2351   -1.9327   -0.9731 H   0  0  0  0  0  0  0  0  0  0  0  0
   -0.7350   -0.2249   -2.1648 C   0  0  0  0  0  0  0  0  0  0  0  0
   -1.8778    0.5996   -2.1833 C   0  0  0  0  0  0  0  0  0  0  0  0
   -2.4368    0.7705   -1.2725 H   0  0  0  0  0  0  0  0  0  0  0  0
   -2.2907    1.2077   -3.3848 C   0  0  0  0  0  0  0  0  0  0  0  0
   -3.1672    1.8372   -3.3956 H   0  0  0  0  0  0  0  0  0  0  0  0
   -1.5556    0.9931   -4.5710 C   0  0  0  0  0  0  0  0  0  0  0  0
   -1.9439    1.5773   -5.7342 O   0  0  0  0  0  0  0  0  0  0  0  0
   -2.7800    2.0368   -5.6460 H   0  0  0  0  0  0  0  0  0  0  0  0
   -0.4095    0.1716   -4.5496 C   0  0  0  0  0  0  0  0  0  0  0  0
    0.1417    0.0117   -5.4640 H   0  0  0  0  0  0  0  0  0  0  0  0
   -0.0019   -0.4384   -3.3481 C   0  0  0  0  0  0  0  0  0  0  0  0
    0.8734   -1.0769   -3.3344 H   0  0  0  0  0  0  0  0  0  0  0  0
   -1.4018    1.0238    0.4329 C   0  0  0  0  0  0  0  0  0  0  0  0
   -2.2416    1.5423   -0.3033 O   0  0  0  0  0  0  0  0  0  0  0  0
   -0.6927    1.7304    1.3223 N   0  0  0  0  0  0  0  0  0  0  0  0
    0.0178    1.2410    1.8469 H   0  0  0  0  0  0  0  0  0  0  0  0
   -0.8259    3.1712    1.5254 C   0  0  0  0  0  0  0  0  0  0  0  0
   -1.8769    3.4302    1.6645 H   0  0  0  0  0  0  0  0  0  0  0  0
   -0.2598    3.4806    2.4054 H   0  0  0  0  0  0  0  0  0  0  0  0
   -0.4486    3.7020    0.6489 H   0  0  0  0  0  0  0  0  0  0  0  0
  5  6  2  0  0  0  0
  5  7  1  0  0  0  0
  2  3  1  0  0  0  0
  2  4  1  0  0  0  0
  2  5  1  0  0  0  0
  1  2  1  0  0  0  0
 26 27  2  0  0  0  0
 26 28  1  0  0  0  0
 24 25  1  0  0  0  0
 22 23  1  0  0  0  0
 22 24  2  0  0  0  0
 20 21  1  0  0  0  0
 19 20  1  0  0  0  0
 19 22  1  0  0  0  0
 17 18  1  0  0  0  0
 17 19  2  0  0  0  0
 15 16  1  0  0  0  0
 15 17  1  0  0  0  0
 14 15  2  0  0  0  0
 14 24  1  0  0  0  0
 11 12  1  0  0  0  0
 11 13  1  0  0  0  0
 11 14  1  0  0  0  0
  9 10  1  0  0  0  0
  9 11  1  0  0  0  0
  9 26  1  0  0  0  0
  7  8  1  0  0  0  0
  7  9  1  0  0  0  0
 30 31  1  0  0  0  0
 30 32  1  0  0  0  0
 30 33  1  0  0  0  0
 28 29  1  0  0  0  0
 28 30  1  0  0  0  0
M  END
$$$$
default_name
  -OEChem-02102213163D

 33 33  0     1  0  0  0  0  0999 V2000
   -4.0702   -3.8485    1.4554 H   0  0  0  0  0  0  0  0  0  0  0  0
   -4.0012   -2.9605    0.8284 C   0  0  0  0  0  0  0  0  0  0  0  0
   -4.7652   -2.2435    1.1234 H   0  0  0  0  0  0  0  0  0  0  0  0
   -4.1352   -3.2385   -0.2156 H   0  0  0  0  0  0  0  0  0  0  0  0
   -2.6362   -2.3395    1.0094 C   0  0  0  0  0  0  0  0  0  0  0  0
   -1.8292   -2.8395    1.7814 O   0  0  0  0  0  0  0  0  0  0  0  0
   -2.3832   -1.2445    0.2964 N   0  0  0  0  0  0  0  0  0  0  0  0
   -3.1102   -0.8685   -0.2946 H   0  0  0  0  0  0  0  0  0  0  0  0
   -1.1292   -0.4875    0.3524 C   0  0  1  0  0  0  0  0  0  0  0  0
   -0.5898   -0.7762    1.2552 H   0  0  0  0  0  0  0  0  0  0  0  0
   -0.2608   -0.8470   -0.8656 C   0  0  0  0  0  0  0  0  0  0  0  0
    0.7612   -0.5125   -0.6832 H   0  0  0  0  0  0  0  0  0  0  0  0
   -0.2351   -1.9327   -0.9731 H   0  0  0  0  0  0  0  0  0  0  0  0
   -0.7350   -0.2249   -2.1648 C   0  0  0  0  0  0  0  0  0  0  0  0
   -1.6656    0.8334   -2.1488 C   0  0  0  0  0  0  0  0  0  0  0  0
   -2.0653    1.1886   -1.2080 H   0  0  0  0  0  0  0  0  0  0  0  0
   -2.0722    1.4347   -3.3558 C   0  0  0  0  0  0  0  0  0  0  0  0
   -2.7861    2.2438   -3.3400 H   0  0  0  0  0  0  0  0  0  0  0  0
   -1.5431    0.9782   -4.5827 C   0  0  0  0  0  0  0  0  0  0  0  0
   -1.9265    1.5534   -5.7519 O   0  0  0  0  0  0  0  0  0  0  0  0
   -2.6269    2.1951   -5.6261 H   0  0  0  0  0  0  0  0  0  0  0  0
   -0.6082   -0.0777   -4.5964 C   0  0  0  0  0  0  0  0  0  0  0  0
   -0.2142   -0.4208   -5.5412 H   0  0  0  0  0  0  0  0  0  0  0  0
   -0.2073   -0.6797   -3.3886 C   0  0  0  0  0  0  0  0  0  0  0  0
    0.5039   -1.4970   -3.4007 H   0  0  0  0  0  0  0  0  0  0  0  0
   -1.4018    1.0238    0.4329 C   0  0  0  0  0  0  0  0  0  0  0  0
   -2.2416    1.5423   -0.3033 O   0  0  0  0  0  0  0  0  0  0  0  0
   -0.6927    1.7304    1.3223 N   0  0  0  0  0  0  0  0  0  0  0  0
    0.0178    1.2410    1.8469 H   0  0  0  0  0  0  0  0  0  0  0  0
   -0.8259    3.1712    1.5254 C   0  0  0  0  0  0  0  0  0  0  0  0
   -1.8769    3.4302    1.6645 H   0  0  0  0  0  0  0  0  0  0  0  0
   -0.2598    3.4806    2.4054 H   0  0  0  0  0  0  0  0  0  0  0  0
   -0.4486    3.7020    0.6489 H   0  0  0  0  0  0  0  0  0  0  0  0
  5  6  2  0  0  0  0
  5  7  1  0  0  0  0
  2  3  1  0  0  0  0
  2  4  1  0  0  0  0
  2  5  1  0  0  0  0
  1  2  1  0  0  0  0
 26 27  2  0  0  0  0
 26 28  1  0  0  0  0
 24 25  1  0  0  0  0
 22 23  1  0  0  0  0
 22 24  2  0  0  0  0
 20 21  1  0  0  0  0
 19 20  1  0  0  0  0
 19 22  1  0  0  0  0
 17 18  1  0  0  0  0
 17 19  2  0  0  0  0
 15 16  1  0  0  0  0
 15 17  1  0  0  0  0
 14 15  2  0  0  0  0
 14 24  1  0  0  0  0
 11 12  1  0  0  0  0
 11 13  1  0  0  0  0
 11 14  1  0  0  0  0
  9 10  1  0  0  0  0
  9 11  1  0  0  0  0
  9 26  1  0  0  0  0
  7  8  1  0  0  0  0
  7  9  1  0  0  0  0
 30 31  1  0  0  0  0
 30 32  1  0  0  0  0
 30 33  1  0  0  0  0
 28 29  1  0  0  0  0
 28 30  1  0  0  0  0
M  END
$$$$
default_name
  -OEChem-02102213163D

 33 33  0     1  0  0  0  0  0999 V2000
   -4.0702   -3.8485    1.4554 H   0  0  0  0  0  0  0  0  0  0  0  0
   -4.0012   -2.9605    0.8284 C   0  0  0  0  0  0  0  0  0  0  0  0
   -4.7652   -2.2435    1.1234 H   0  0  0  0  0  0  0  0  0  0  0  0
   -4.1352   -3.2385   -0.2156 H   0  0  0  0  0  0  0  0  0  0  0  0
   -2.6362   -2.3395    1.0094 C   0  0  0  0  0  0  0  0  0  0  0  0
   -1.8292   -2.8395    1.7814 O   0  0  0  0  0  0  0  0  0  0  0  0
   -2.3832   -1.2445    0.2964 N   0  0  0  0  0  0  0  0  0  0  0  0
   -3.1102   -0.8685   -0.2946 H   0  0  0  0  0  0  0  0  0  0  0  0
   -1.1292   -0.4875    0.3524 C   0  0  1  0  0  0  0  0  0  0  0  0
   -0.5898   -0.7762    1.2552 H   0  0  0  0  0  0  0  0  0  0  0  0
   -0.2608   -0.8470   -0.8656 C   0  0  0  0  0  0  0  0  0  0  0  0
    0.7612   -0.5125   -0.6832 H   0  0  0  0  0  0  0  0  0  0  0  0
   -0.2351   -1.9327   -0.9731 H   0  0  0  0  0  0  0  0  0  0  0  0
   -0.7350   -0.2249   -2.1648 C   0  0  0  0  0  0  0  0  0  0  0  0
   -1.4051    1.0149   -2.1570 C   0  0  0  0  0  0  0  0  0  0  0  0
   -1.6068    1.5153   -1.2189 H   0  0  0  0  0  0  0  0  0  0  0  0
   -1.8076    1.6079   -3.3695 C   0  0  0  0  0  0  0  0  0  0  0  0
   -2.3219    2.5566   -3.3596 H   0  0  0  0  0  0  0  0  0  0  0  0
   -1.5355    0.9601   -4.5941 C   0  0  0  0  0  0  0  0  0  0  0  0
   -1.9169    1.5251   -5.7690 O   0  0  0  0  0  0  0  0  0  0  0  0
   -2.4417    2.3156   -5.6360 H   0  0  0  0  0  0  0  0  0  0  0  0
   -0.8605   -0.2782   -4.6004 C   0  0  0  0  0  0  0  0  0  0  0  0
   -0.6620   -0.7658   -5.5429 H   0  0  0  0  0  0  0  0  0  0  0  0
   -0.4635   -0.8706   -3.3865 C   0  0  0  0  0  0  0  0  0  0  0  0
    0.0468   -1.8264   -3.3915 H   0  0  0  0  0  0  0  0  0  0  0  0
   -1.4018    1.0238    0.4329 C   0  0  0  0  0  0  0  0  0  0  0  0
   -2.2416    1.5423   -0.3033 O   0  0  0  0  0  0  0  0  0  0  0  0
   -0.6927    1.7304    1.3223 N   0  0  0  0  0  0  0  0  0  0  0  0
    0.0178    1.2410    1.8469 H   0  0  0  0  0  0  0  0  0  0  0  0
   -0.8259    3.1712    1.5254 C   0  0  0  0  0  0  0  0  0  0  0  0
   -1.8769    3.4302    1.6645 H   0  0  0  0  0  0  0  0  0  0  0  0
   -0.2598    3.4806    2.4054 H   0  0  0  0  0  0  0  0  0  0  0  0
   -0.4486    3.7020    0.6489 H   0  0  0  0  0  0  0  0  0  0  0  0
  5  6  2  0  0  0  0
  5  7  1  0  0  0  0
  2  3  1  0  0  0  0
  2  4  1  0  0  0  0
  2  5  1  0  0  0  0
  1  2  1  0  0  0  0
 26 27  2  0  0  0  0
 26 28  1  0  0  0  0
 24 25  1  0  0  0  0
 22 23  1  0  0  0  0
 22 24  2  0  0  0  0
 20 21  1  0  0  0  0
 19 20  1  0  0  0  0
 19 22  1  0  0  0  0
 17 18  1  0  0  0  0
 17 19  2  0  0  0  0
 15 16  1  0  0  0  0
 15 17  1  0  0  0  0
 14 15  2  0  0  0  0
 14 24  1  0  0  0  0
 11 12  1  0  0  0  0
 11 13  1  0  0  0  0
 11 14  1  0  0  0  0
  9 10  1  0  0  0  0
  9 11  1  0  0  0  0
  9 26  1  0  0  0  0
  7  8  1  0  0  0  0
  7  9  1  0  0  0  0
 30 31  1  0  0  0  0
 30 32  1  0  0  0  0
 30 33  1  0  0  0  0
 28 29  1  0  0  0  0
 28 30  1  0  0  0  0
M  END
$$$$
default_name
  -OEChem-02102213163D

 33 33  0     1  0  0  0  0  0999 V2000
   -4.0702   -3.8485    1.4554 H   0  0  0  0  0  0  0  0  0  0  0  0
   -4.0012   -2.9605    0.8284 C   0  0  0  0  0  0  0  0  0  0  0  0
   -4.7652   -2.2435    1.1234 H   0  0  0  0  0  0  0  0  0  0  0  0
   -4.1352   -3.2385   -0.2156 H   0  0  0  0  0  0  0  0  0  0  0  0
   -2.6362   -2.3395    1.0094 C   0  0  0  0  0  0  0  0  0  0  0  0
   -1.8292   -2.8395    1.7814 O   0  0  0  0  0  0  0  0  0  0  0  0
   -2.3832   -1.2445    0.2964 N   0  0  0  0  0  0  0  0  0  0  0  0
   -3.1102   -0.8685   -0.2946 H   0  0  0  0  0  0  0  0  0  0  0  0
   -1.1292   -0.4875    0.3524 C   0  0  1  0  0  0  0  0  0  0  0  0
   -0.5898   -0.7762    1.2552 H   0  0  0  0  0  0  0  0  0  0  0  0
   -0.2608   -0.8470   -0.8656 C   0  0  0  0  0  0  0  0  0  0  0  0
    0.7612   -0.5125   -0.6832 H   0  0  0  0  0  0  0  0  0  0  0  0
   -0.2351   -1.9327   -0.9731 H   0  0  0  0  0  0  0  0  0  0  0  0
   -0.7350   -0.2249   -2.1648 C   0  0  0  0  0  0  0  0  0  0  0  0
   -1.1141    1.1318   -2.2072 C   0  0  0  0  0  0  0  0  0  0  0  0
   -1.0927    1.7283   -1.3045 H   0  0  0  0  0  0  0  0  0  0  0  0
   -1.5152    1.7154   -3.4247 C   0  0  0  0  0  0  0  0  0  0  0  0
   -1.8063    2.7542   -3.4532 H   0  0  0  0  0  0  0  0  0  0  0  0
   -1.5334    0.9399   -4.6045 C   0  0  0  0  0  0  0  0  0  0  0  0
   -1.9157    1.4942   -5.7842 O   0  0  0  0  0  0  0  0  0  0  0  0
   -2.2373    2.3901   -5.6749 H   0  0  0  0  0  0  0  0  0  0  0  0
   -1.1490   -0.4163   -4.5612 C   0  0  0  0  0  0  0  0  0  0  0  0
   -1.1713   -0.9999   -5.4691 H   0  0  0  0  0  0  0  0  0  0  0  0
   -0.7530   -0.9979   -3.3418 C   0  0  0  0  0  0  0  0  0  0  0  0
   -0.4667   -2.0423   -3.3075 H   0  0  0  0  0  0  0  0  0  0  0  0
   -1.4018    1.0238    0.4329 C   0  0  0  0  0  0  0  0  0  0  0  0
   -2.2416    1.5423   -0.3033 O   0  0  0  0  0  0  0  0  0  0  0  0
   -0.6927    1.7304    1.3223 N   0  0  0  0  0  0  0  0  0  0  0  0
    0.0178    1.2410    1.8469 H   0  0  0  0  0  0  0  0  0  0  0  0
   -0.8259    3.1712    1.5254 C   0  0  0  0  0  0  0  0  0  0  0  0
   -1.8769    3.4302    1.6645 H   0  0  0  0  0  0  0  0  0  0  0  0
   -0.2598    3.4806    2.4054 H   0  0  0  0  0  0  0  0  0  0  0  0
   -0.4486    3.7020    0.6489 H   0  0  0  0  0  0  0  0  0  0  0  0
  5  6  2  0  0  0  0
  5  7  1  0  0  0  0
  2  3  1  0  0  0  0
  2  4  1  0  0  0  0
  2  5  1  0  0  0  0
  1  2  1  0  0  0  0
 26 27  2  0  0  0  0
 26 28  1  0  0  0  0
 24 25  1  0  0  0  0
 22 23  1  0  0  0  0
 22 24  2  0  0  0  0
 20 21  1  0  0  0  0
 19 20  1  0  0  0  0
 19 22  1  0  0  0  0
 17 18  1  0  0  0  0
 17 19  2  0  0  0  0
 15 16  1  0  0  0  0
 15 17  1  0  0  0  0
 14 15  2  0  0  0  0
 14 24  1  0  0  0  0
 11 12  1  0  0  0  0
 11 13  1  0  0  0  0
 11 14  1  0  0  0  0
  9 10  1  0  0  0  0
  9 11  1  0  0  0  0
  9 26  1  0  0  0  0
  7  8  1  0  0  0  0
  7  9  1  0  0  0  0
 30 31  1  0  0  0  0
 30 32  1  0  0  0  0
 30 33  1  0  0  0  0
 28 29  1  0  0  0  0
 28 30  1  0  0  0  0
M  END
$$$$
default_name
  -OEChem-02102213163D

 33 33  0     1  0  0  0  0  0999 V2000
   -4.0702   -3.8485    1.4554 H   0  0  0  0  0  0  0  0  0  0  0  0
   -4.0012   -2.9605    0.8284 C   0  0  0  0  0  0  0  0  0  0  0  0
   -4.7652   -2.2435    1.1234 H   0  0  0  0  0  0  0  0  0  0  0  0
   -4.1352   -3.2385   -0.2156 H   0  0  0  0  0  0  0  0  0  0  0  0
   -2.6362   -2.3395    1.0094 C   0  0  0  0  0  0  0  0  0  0  0  0
   -1.8292   -2.8395    1.7814 O   0  0  0  0  0  0  0  0  0  0  0  0
   -2.3832   -1.2445    0.2964 N   0  0  0  0  0  0  0  0  0  0  0  0
   -3.1102   -0.8685   -0.2946 H   0  0  0  0  0  0  0  0  0  0  0  0
   -1.1292   -0.4875    0.3524 C   0  0  1  0  0  0  0  0  0  0  0  0
   -0.5898   -0.7762    1.2552 H   0  0  0  0  0  0  0  0  0  0  0  0
   -0.2608   -0.8470   -0.8656 C   0  0  0  0  0  0  0  0  0  0  0  0
    0.7612   -0.5125   -0.6832 H   0  0  0  0  0  0  0  0  0  0  0  0
   -0.2351   -1.9327   -0.9731 H   0  0  0  0  0  0  0  0  0  0  0  0
   -0.7350   -0.2249   -2.1648 C   0  0  0  0  0  0  0  0  0  0  0  0
   -0.8125    1.1761   -2.2961 C   0  0  0  0  0  0  0  0  0  0  0  0
   -0.5580    1.8131   -1.4591 H   0  0  0  0  0  0  0  0  0  0  0  0
   -1.2147    1.7499   -3.5179 C   0  0  0  0  0  0  0  0  0  0  0  0
   -1.2744    2.8231   -3.6144 H   0  0  0  0  0  0  0  0  0  0  0  0
   -1.5369    0.9192   -4.6132 C   0  0  0  0  0  0  0  0  0  0  0  0
   -1.9231    1.4629   -5.7966 O   0  0  0  0  0  0  0  0  0  0  0  0
   -2.0274    2.4136   -5.7402 H   0  0  0  0  0  0  0  0  0  0  0  0
   -1.4542   -0.4825   -4.4815 C   0  0  0  0  0  0  0  0  0  0  0  0
   -1.7073   -1.1072   -5.3249 H   0  0  0  0  0  0  0  0  0  0  0  0
   -1.0562   -1.0531   -3.2576 C   0  0  0  0  0  0  0  0  0  0  0  0
   -1.0018   -2.1303   -3.1544 H   0  0  0  0  0  0  0  0  0  0  0  0
   -1.4018    1.0238    0.4329 C   0  0  0  0  0  0  0  0  0  0  0  0
   -2.2416    1.5423   -0.3033 O   0  0  0  0  0  0  0  0  0  0  0  0
   -0.6927    1.7304    1.3223 N   0  0  0  0  0  0  0  0  0  0  0  0
    0.0178    1.2410    1.8469 H   0  0  0  0  0  0  0  0  0  0  0  0
   -0.8259    3.1712    1.5254 C   0  0  0  0  0  0  0  0  0  0  0  0
   -1.8769    3.4302    1.6645 H   0  0  0  0  0  0  0  0  0  0  0  0
   -0.2598    3.4806    2.4054 H   0  0  0  0  0  0  0  0  0  0  0  0
   -0.4486    3.7020    0.6489 H   0  0  0  0  0  0  0  0  0  0  0  0
  5  6  2  0  0  0  0
  5  7  1  0  0  0  0
  2  3  1  0  0  0  0
  2  4  1  0  0  0  0
  2  5  1  0  0  0  0
  1  2  1  0  0  0  0
 26 27  2  0  0  0  0
 26 28  1  0  0  0  0
 24 25  1  0  0  0  0
 22 23  1  0  0  0  0
 22 24  2  0  0  0  0
 20 21  1  0  0  0  0
 19 20  1  0  0  0  0
 19 22  1  0  0  0  0
 17 18  1  0  0  0  0
 17 19  2  0  0  0  0
 15 16  1  0  0  0  0
 15 17  1  0  0  0  0
 14 15  2  0  0  0  0
 14 24  1  0  0  0  0
 11 12  1  0  0  0  0
 11 13  1  0  0  0  0
 11 14  1  0  0  0  0
  9 10  1  0  0  0  0
  9 11  1  0  0  0  0
  9 26  1  0  0  0  0
  7  8  1  0  0  0  0
  7  9  1  0  0  0  0
 30 31  1  0  0  0  0
 30 32  1  0  0  0  0
 30 33  1  0  0  0  0
 28 29  1  0  0  0  0
 28 30  1  0  0  0  0
M  END
$$$$
default_name
  -OEChem-02102213163D

 33 33  0     1  0  0  0  0  0999 V2000
   -4.0702   -3.8485    1.4554 H   0  0  0  0  0  0  0  0  0  0  0  0
   -4.0012   -2.9605    0.8284 C   0  0  0  0  0  0  0  0  0  0  0  0
   -4.7652   -2.2435    1.1234 H   0  0  0  0  0  0  0  0  0  0  0  0
   -4.1352   -3.2385   -0.2156 H   0  0  0  0  0  0  0  0  0  0  0  0
   -2.6362   -2.3395    1.0094 C   0  0  0  0  0  0  0  0  0  0  0  0
   -1.8292   -2.8395    1.7814 O   0  0  0  0  0  0  0  0  0  0  0  0
   -2.3832   -1.2445    0.2964 N   0  0  0  0  0  0  0  0  0  0  0  0
   -3.1102   -0.8685   -0.2946 H   0  0  0  0  0  0  0  0  0  0  0  0
   -1.1292   -0.4875    0.3524 C   0  0  1  0  0  0  0  0  0  0  0  0
   -0.5898   -0.7762    1.2552 H   0  0  0  0  0  0  0  0  0  0  0  0
   -0.2608   -0.8470   -0.8656 C   0  0  0  0  0  0  0  0  0  0  0  0
    0.7612   -0.5125   -0.6832 H   0  0  0  0  0  0  0  0  0  0  0  0
   -0.2351   -1.9327   -0.9731 H   0  0  0  0  0  0  0  0  0  0  0  0
   -0.7350   -0.2249   -2.1648 C   0  0  0  0  0  0  0  0  0  0  0  0
   -0.5207    1.1449   -2.4175 C   0  0  0  0  0  0  0  0  0  0  0  0
   -0.0390    1.7640   -1.6720 H   0  0  0  0  0  0  0  0  0  0  0  0
   -0.9267    1.7091   -3.6425 C   0  0  0  0  0  0  0  0  0  0  0  0
   -0.7624    2.7587   -3.8321 H   0  0  0  0  0  0  0  0  0  0  0  0
   -1.5459    0.8993   -4.6195 C   0  0  0  0  0  0  0  0  0  0  0  0
   -1.9384    1.4332   -5.8052 O   0  0  0  0  0  0  0  0  0  0  0  0
   -1.8263    2.3845   -5.8276 H   0  0  0  0  0  0  0  0  0  0  0  0
   -1.7551   -0.4723   -4.3668 C   0  0  0  0  0  0  0  0  0  0  0  0
   -2.2336   -1.0802   -5.1199 H   0  0  0  0  0  0  0  0  0  0  0  0
   -1.3523   -1.0323   -3.1396 C   0  0  0  0  0  0  0  0  0  0  0  0
   -1.5218   -2.0842   -2.9425 H   0  0  0  0  0  0  0  0  0  0  0  0
   -1.4018    1.0238    0.4329 C   0  0  0  0  0  0  0  0  0  0  0  0
   -2.2416    1.5423   -0.3033 O   0  0  0  0  0  0  0  0  0  0  0  0
   -0.6927    1.7304    1.3223 N   0  0  0  0  0  0  0  0  0  0  0  0
    0.0178    1.2410    1.8469 H   0  0  0  0  0  0  0  0  0  0  0  0
   -0.8259    3.1712    1.5254 C   0  0  0  0  0  0  0  0  0  0  0  0
   -1.8769    3.4302    1.6645 H   0  0  0  0  0  0  0  0  0  0  0  0
   -0.2598    3.4806    2.4054 H   0  0  0  0  0  0  0  0  0  0  0  0
   -0.4486    3.7020    0.6489 H   0  0  0  0  0  0  0  0  0  0  0  0
  5  6  2  0  0  0  0
  5  7  1  0  0  0  0
  2  3  1  0  0  0  0
  2  4  1  0  0  0  0
  2  5  1  0  0  0  0
  1  2  1  0  0  0  0
 26 27  2  0  0  0  0
 26 28  1  0  0  0  0
 24 25  1  0  0  0  0
 22 23  1  0  0  0  0
 22 24  2  0  0  0  0
 20 21  1  0  0  0  0
 19 20  1  0  0  0  0
 19 22  1  0  0  0  0
 17 18  1  0  0  0  0
 17 19  2  0  0  0  0
 15 16  1  0  0  0  0
 15 17  1  0  0  0  0
 14 15  2  0  0  0  0
 14 24  1  0  0  0  0
 11 12  1  0  0  0  0
 11 13  1  0  0  0  0
 11 14  1  0  0  0  0
  9 10  1  0  0  0  0
  9 11  1  0  0  0  0
  9 26  1  0  0  0  0
  7  8  1  0  0  0  0
  7  9  1  0  0  0  0
 30 31  1  0  0  0  0
 30 32  1  0  0  0  0
 30 33  1  0  0  0  0
 28 29  1  0  0  0  0
 28 30  1  0  0  0  0
M  END
$$$$
default_name
  -OEChem-02102213163D

 33 33  0     1  0  0  0  0  0999 V2000
   -4.0702   -3.8485    1.4554 H   0  0  0  0  0  0  0  0  0  0  0  0
   -4.0012   -2.9605    0.8284 C   0  0  0  0  0  0  0  0  0  0  0  0
   -4.7652   -2.2435    1.1234 H   0  0  0  0  0  0  0  0  0  0  0  0
   -4.1352   -3.2385   -0.2156 H   0  0  0  0  0  0  0  0  0  0  0  0
   -2.6362   -2.3395    1.0094 C   0  0  0  0  0  0  0  0  0  0  0  0
   -1.8292   -2.8395    1.7814 O   0  0  0  0  0  0  0  0  0  0  0  0
   -2.3832   -1.2445    0.2964 N   0  0  0  0  0  0  0  0  0  0  0  0
   -3.1102   -0.8685   -0.2946 H   0  0  0  0  0  0  0  0  0  0  0  0
   -1.1292   -0.4875    0.3524 C   0  0  1  0  0  0  0  0  0  0  0  0
   -0.5898   -0.7762    1.2552 H   0  0  0  0  0  0  0  0  0  0  0  0
   -0.2608   -0.8470   -0.8656 C   0  0  0  0  0  0  0  0  0  0  0  0
    0.7612   -0.5125   -0.6832 H   0  0  0  0  0  0  0  0  0  0  0  0
   -0.2351   -1.9327   -0.9731 H   0  0  0  0  0  0  0  0  0  0  0  0
   -0.7350   -0.2249   -2.1648 C   0  0  0  0  0  0  0  0  0  0  0  0
   -0.2586    1.0402   -2.5633 C   0  0  0  0  0  0  0  0  0  0  0  0
    0.4287    1.5842   -1.9288 H   0  0  0  0  0  0  0  0  0  0  0  0
   -0.6708    1.5957   -3.7902 C   0  0  0  0  0  0  0  0  0  0  0  0
   -0.3052    2.5654   -4.0915 H   0  0  0  0  0  0  0  0  0  0  0  0
   -1.5596    0.8815   -4.6230 C   0  0  0  0  0  0  0  0  0  0  0  0
   -1.9607    1.4073   -5.8095 O   0  0  0  0  0  0  0  0  0  0  0  0
   -1.6479    2.3047   -5.9309 H   0  0  0  0  0  0  0  0  0  0  0  0
   -2.0314   -0.3865   -4.2249 C   0  0  0  0  0  0  0  0  0  0  0  0
   -2.7141   -0.9209   -4.8682 H   0  0  0  0  0  0  0  0  0  0  0  0
   -1.6212   -0.9371   -2.9958 C   0  0  0  0  0  0  0  0  0  0  0  0
   -1.9914   -1.9072   -2.6864 H   0  0  0  0  0  0  0  0  0  0  0  0
   -1.4018    1.0238    0.4329 C   0  0  0  0  0  0  0  0  0  0  0  0
   -2.2416    1.5423   -0.3033 O   0  0  0  0  0  0  0  0  0  0  0  0
   -0.6927    1.7304    1.3223 N   0  0  0  0  0  0  0  0  0  0  0  0
    0.0178    1.2410    1.8469 H   0  0  0  0  0  0  0  0  0  0  0  0
   -0.8259    3.1712    1.5254 C   0  0  0  0  0  0  0  0  0  0  0  0
   -1.8769    3.4302    1.6645 H   0  0  0  0  0  0  0  0  0  0  0  0
   -0.2598    3.4806    2.4054 H   0  0  0  0  0  0  0  0  0  0  0  0
   -0.4486    3.7020    0.6489 H   0  0  0  0  0  0  0  0  0  0  0  0
  5  6  2  0  0  0  0
  5  7  1  0  0  0  0
  2  3  1  0  0  0  0
  2  4  1  0  0  0  0
  2  5  1  0  0  0  0
  1  2  1  0  0  0  0
 26 27  2  0  0  0  0
 26 28  1  0  0  0  0
 24 25  1  0  0  0  0
 22 23  1  0  0  0  0
 22 24  2  0  0  0  0
 20 21  1  0  0  0  0
 19 20  1  0  0  0  0
 19 22  1  0  0  0  0
 17 18  1  0  0  0  0
 17 19  2  0  0  0  0
 15 16  1  0  0  0  0
 15 17  1  0  0  0  0
 14 15  2  0  0  0  0
 14 24  1  0  0  0  0
 11 12  1  0  0  0  0
 11 13  1  0  0  0  0
 11 14  1  0  0  0  0
  9 10  1  0  0  0  0
  9 11  1  0  0  0  0
  9 26  1  0  0  0  0
  7  8  1  0  0  0  0
  7  9  1  0  0  0  0
 30 31  1  0  0  0  0
 30 32  1  0  0  0  0
 30 33  1  0  0  0  0
 28 29  1  0  0  0  0
 28 30  1  0  0  0  0
M  END
$$$$
default_name
  -OEChem-02102213163D

 33 33  0     1  0  0  0  0  0999 V2000
   -4.0702   -3.8485    1.4554 H   0  0  0  0  0  0  0  0  0  0  0  0
   -4.0012   -2.9605    0.8284 C   0  0  0  0  0  0  0  0  0  0  0  0
   -4.7652   -2.2435    1.1234 H   0  0  0  0  0  0  0  0  0  0  0  0
   -4.1352   -3.2385   -0.2156 H   0  0  0  0  0  0  0  0  0  0  0  0
   -2.6362   -2.3395    1.0094 C   0  0  0  0  0  0  0  0  0  0  0  0
   -1.8292   -2.8395    1.7814 O   0  0  0  0  0  0  0  0  0  0  0  0
   -2.3832   -1.2445    0.2964 N   0  0  0  0  0  0  0  0  0  0  0  0
   -3.1102   -0.8685   -0.2946 H   0  0  0  0  0  0  0  0  0  0  0  0
   -1.1292   -0.4875    0.3524 C   0  0  1  0  0  0  0  0  0  0  0  0
   -0.5898   -0.7762    1.2552 H   0  0  0  0  0  0  0  0  0  0  0  0
   -0.2608   -0.8470   -0.8656 C   0  0  0  0  0  0  0  0  0  0  0  0
    0.7612   -0.5125   -0.6832 H   0  0  0  0  0  0  0  0  0  0  0  0
   -0.2351   -1.9327   -0.9731 H   0  0  0  0  0  0  0  0  0  0  0  0
   -0.7350   -0.2249   -2.1648 C   0  0  0  0  0  0  0  0  0  0  0  0
   -0.0442    0.8691   -2.7234 C   0  0  0  0  0  0  0  0  0  0  0  0
    0.8134    1.2861   -2.2119 H   0  0  0  0  0  0  0  0  0  0  0  0
   -0.4644    1.4175   -3.9509 C   0  0  0  0  0  0  0  0  0  0  0  0
    0.0660    2.2563   -4.3750 H   0  0  0  0  0  0  0  0  0  0  0  0
   -1.5771    0.8671   -4.6235 C   0  0  0  0  0  0  0  0  0  0  0  0
   -1.9884    1.3869   -5.8091 O   0  0  0  0  0  0  0  0  0  0  0  0
   -1.5042    2.1797   -6.0432 H   0  0  0  0  0  0  0  0  0  0  0  0
   -2.2642   -0.2309   -4.0654 C   0  0  0  0  0  0  0  0  0  0  0  0
   -3.1162   -0.6401   -4.5870 H   0  0  0  0  0  0  0  0  0  0  0  0
   -1.8446   -0.7738   -2.8361 C   0  0  0  0  0  0  0  0  0  0  0  0
   -2.3786   -1.6114   -2.4034 H   0  0  0  0  0  0  0  0  0  0  0  0
   -1.4018    1.0238    0.4329 C   0  0  0  0  0  0  0  0  0  0  0  0
   -2.2416    1.5423   -0.3033 O   0  0  0  0  0  0  0  0  0  0  0  0
   -0.6927    1.7304    1.3223 N   0  0  0  0  0  0  0  0  0  0  0  0
    0.0178    1.2410    1.8469 H   0  0  0  0  0  0  0  0  0  0  0  0
   -0.8259    3.1712    1.5254 C   0  0  0  0  0  0  0  0  0  0  0  0
   -1.8769    3.4302    1.6645 H   0  0  0  0  0  0  0  0  0  0  0  0
   -0.2598    3.4806    2.4054 H   0  0  0  0  0  0  0  0  0  0  0  0
   -0.4486    3.7020    0.6489 H   0  0  0  0  0  0  0  0  0  0  0  0
  5  6  2  0  0  0  0
  5  7  1  0  0  0  0
  2  3  1  0  0  0  0
  2  4  1  0  0  0  0
  2  5  1  0  0  0  0
  1  2  1  0  0  0  0
 26 27  2  0  0  0  0
 26 28  1  0  0  0  0
 24 25  1  0  0  0  0
 22 23  1  0  0  0  0
 22 24  2  0  0  0  0
 20 21  1  0  0  0  0
 19 20  1  0  0  0  0
 19 22  1  0  0  0  0
 17 18  1  0  0  0  0
 17 19  2  0  0  0  0
 15 16  1  0  0  0  0
 15 17  1  0  0  0  0
 14 15  2  0  0  0  0
 14 24  1  0  0  0  0
 11 12  1  0  0  0  0
 11 13  1  0  0  0  0
 11 14  1  0  0  0  0
  9 10  1  0  0  0  0
  9 11  1  0  0  0  0
  9 26  1  0  0  0  0
  7  8  1  0  0  0  0
  7  9  1  0  0  0  0
 30 31  1  0  0  0  0
 30 32  1  0  0  0  0
 30 33  1  0  0  0  0
 28 29  1  0  0  0  0
 28 30  1  0  0  0  0
M  END
$$$$
default_name
  -OEChem-02102213163D

 33 33  0     1  0  0  0  0  0999 V2000
   -4.0702   -3.8485    1.4554 H   0  0  0  0  0  0  0  0  0  0  0  0
   -4.0012   -2.9605    0.8284 C   0  0  0  0  0  0  0  0  0  0  0  0
   -4.7652   -2.2435    1.1234 H   0  0  0  0  0  0  0  0  0  0  0  0
   -4.1352   -3.2385   -0.2156 H   0  0  0  0  0  0  0  0  0  0  0  0
   -2.6362   -2.3395    1.0094 C   0  0  0  0  0  0  0  0  0  0  0  0
   -1.8292   -2.8395    1.7814 O   0  0  0  0  0  0  0  0  0  0  0  0
   -2.3832   -1.2445    0.2964 N   0  0  0  0  0  0  0  0  0  0  0  0
   -3.1102   -0.8685   -0.2946 H   0  0  0  0  0  0  0  0  0  0  0  0
   -1.1292   -0.4875    0.3524 C   0  0  1  0  0  0  0  0  0  0  0  0
   -0.5898   -0.7762    1.2552 H   0  0  0  0  0  0  0  0  0  0  0  0
   -0.2608   -0.8470   -0.8656 C   0  0  0  0  0  0  0  0  0  0  0  0
    0.7612   -0.5125   -0.6832 H   0  0  0  0  0  0  0  0  0  0  0  0
   -0.2351   -1.9327   -0.9731 H   0  0  0  0  0  0  0  0  0  0  0  0
   -0.7350   -0.2249   -2.1648 C   0  0  0  0  0  0  0  0  0  0  0  0
    0.1079    0.6434   -2.8870 C   0  0  0  0  0  0  0  0  0  0  0  0
    1.0888    0.8899   -2.5021 H   0  0  0  0  0  0  0  0  0  0  0  0
   -0.3216    1.1866   -4.1135 C   0  0  0  0  0  0  0  0  0  0  0  0
    0.3258    1.8524   -4.6632 H   0  0  0  0  0  0  0  0  0  0  0  0
   -1.5974    0.8570   -4.6209 C   0  0  0  0  0  0  0  0  0  0  0  0
   -2.0197    1.3733   -5.8042 O   0  0  0  0  0  0  0  0  0  0  0  0
   -1.4050    2.0181   -6.1568 H   0  0  0  0  0  0  0  0  0  0  0  0
   -2.4376   -0.0160   -3.8992 C   0  0  0  0  0  0  0  0  0  0  0  0
   -3.4126   -0.2570   -4.2954 H   0  0  0  0  0  0  0  0  0  0  0  0
   -2.0072   -0.5537   -2.6714 C   0  0  0  0  0  0  0  0  0  0  0  0
   -2.6570   -1.2170   -2.1129 H   0  0  0  0  0  0  0  0  0  0  0  0
   -1.4018    1.0238    0.4329 C   0  0  0  0  0  0  0  0  0  0  0  0
   -2.2416    1.5423   -0.3033 O   0  0  0  0  0  0  0  0  0  0  0  0
   -0.6927    1.7304    1.3223 N   0  0  0  0  0  0  0  0  0  0  0  0
    0.0178    1.2410    1.8469 H   0  0  0  0  0  0  0  0  0  0  0  0
   -0.8259    3.1712    1.5254 C   0  0  0  0  0  0  0  0  0  0  0  0
   -1.8769    3.4302    1.6645 H   0  0  0  0  0  0  0  0  0  0  0  0
   -0.2598    3.4806    2.4054 H   0  0  0  0  0  0  0  0  0  0  0  0
   -0.4486    3.7020    0.6489 H   0  0  0  0  0  0  0  0  0  0  0  0
  5  6  2  0  0  0  0
  5  7  1  0  0  0  0
  2  3  1  0  0  0  0
  2  4  1  0  0  0  0
  2  5  1  0  0  0  0
  1  2  1  0  0  0  0
 26 27  2  0  0  0  0
 26 28  1  0  0  0  0
 24 25  1  0  0  0  0
 22 23  1  0  0  0  0
 22 24  2  0  0  0  0
 20 21  1  0  0  0  0
 19 20  1  0  0  0  0
 19 22  1  0  0  0  0
 17 18  1  0  0  0  0
 17 19  2  0  0  0  0
 15 16  1  0  0  0  0
 15 17  1  0  0  0  0
 14 15  2  0  0  0  0
 14 24  1  0  0  0  0
 11 12  1  0  0  0  0
 11 13  1  0  0  0  0
 11 14  1  0  0  0  0
  9 10  1  0  0  0  0
  9 11  1  0  0  0  0
  9 26  1  0  0  0  0
  7  8  1  0  0  0  0
  7  9  1  0  0  0  0
 30 31  1  0  0  0  0
 30 32  1  0  0  0  0
 30 33  1  0  0  0  0
 28 29  1  0  0  0  0
 28 30  1  0  0  0  0
M  END
$$$$
default_name
  -OEChem-02102213163D

 33 33  0     1  0  0  0  0  0999 V2000
   -4.0702   -3.8485    1.4554 H   0  0  0  0  0  0  0  0  0  0  0  0
   -4.0012   -2.9605    0.8284 C   0  0  0  0  0  0  0  0  0  0  0  0
   -4.7652   -2.2435    1.1234 H   0  0  0  0  0  0  0  0  0  0  0  0
   -4.1352   -3.2385   -0.2156 H   0  0  0  0  0  0  0  0  0  0  0  0
   -2.6362   -2.3395    1.0094 C   0  0  0  0  0  0  0  0  0  0  0  0
   -1.8292   -2.8395    1.7814 O   0  0  0  0  0  0  0  0  0  0  0  0
   -2.3832   -1.2445    0.2964 N   0  0  0  0  0  0  0  0  0  0  0  0
   -3.1102   -0.8685   -0.2946 H   0  0  0  0  0  0  0  0  0  0  0  0
   -1.1292   -0.4875    0.3524 C   0  0  1  0  0  0  0  0  0  0  0  0
   -0.5898   -0.7762    1.2552 H   0  0  0  0  0  0  0  0  0  0  0  0
   -0.2608   -0.8470   -0.8656 C   0  0  0  0  0  0  0  0  0  0  0  0
    0.7612   -0.5125   -0.6832 H   0  0  0  0  0  0  0  0  0  0  0  0
   -0.2351   -1.9327   -0.9731 H   0  0  0  0  0  0  0  0  0  0  0  0
   -0.7350   -0.2249   -2.1648 C   0  0  0  0  0  0  0  0  0  0  0  0
    0.1875    0.3784   -3.0430 C   0  0  0  0  0  0  0  0  0  0  0  0
    1.2362    0.4227   -2.7796 H   0  0  0  0  0  0  0  0  0  0  0  0
   -0.2522    0.9188   -4.2671 C   0  0  0  0  0  0  0  0  0  0  0  0
    0.4567    1.3814   -4.9364 H   0  0  0  0  0  0  0  0  0  0  0  0
   -1.6189    0.8519   -4.6155 C   0  0  0  0  0  0  0  0  0  0  0  0
   -2.0524    1.3675   -5.7950 O   0  0  0  0  0  0  0  0  0  0  0  0
   -1.3571    1.8307   -6.2640 H   0  0  0  0  0  0  0  0  0  0  0  0
   -2.5398    0.2435   -3.7377 C   0  0  0  0  0  0  0  0  0  0  0  0
   -3.5829    0.2024   -4.0133 H   0  0  0  0  0  0  0  0  0  0  0  0
   -2.0980   -0.2916   -2.5128 C   0  0  0  0  0  0  0  0  0  0  0  0
   -2.8076   -0.7507   -1.8347 H   0  0  0  0  0  0  0  0  0  0  0  0
   -1.4018    1.0238    0.4329 C   0  0  0  0  0  0  0  0  0  0  0  0
   -2.2416    1.5423   -0.3033 O   0  0  0  0  0  0  0  0  0  0  0  0
   -0.6927    1.7304    1.3223 N   0  0  0  0  0  0  0  0  0  0  0  0
    0.0178    1.2410    1.8469 H   0  0  0  0  0  0  0  0  0  0  0  0
   -0.8259    3.1712    1.5254 C   0  0  0  0  0  0  0  0  0  0  0  0
   -1.8769    3.4302    1.6645 H   0  0  0  0  0  0  0  0  0  0  0  0
   -0.2598    3.4806    2.4054 H   0  0  0  0  0  0  0  0  0  0  0  0
   -0.4486    3.7020    0.6489 H   0  0  0  0  0  0  0  0  0  0  0  0
  5  6  2  0  0  0  0
  5  7  1  0  0  0  0
  2  3  1  0  0  0  0
  2  4  1  0  0  0  0
  2  5  1  0  0  0  0
  1  2  1  0  0  0  0
 26 27  2  0  0  0  0
 26 28  1  0  0  0  0
 24 25  1  0  0  0  0
 22 23  1  0  0  0  0
 22 24  2  0  0  0  0
 20 21  1  0  0  0  0
 19 20  1  0  0  0  0
 19 22  1  0  0  0  0
 17 18  1  0  0  0  0
 17 19  2  0  0  0  0
 15 16  1  0  0  0  0
 15 17  1  0  0  0  0
 14 15  2  0  0  0  0
 14 24  1  0  0  0  0
 11 12  1  0  0  0  0
 11 13  1  0  0  0  0
 11 14  1  0  0  0  0
  9 10  1  0  0  0  0
  9 11  1  0  0  0  0
  9 26  1  0  0  0  0
  7  8  1  0  0  0  0
  7  9  1  0  0  0  0
 30 31  1  0  0  0  0
 30 32  1  0  0  0  0
 30 33  1  0  0  0  0
 28 29  1  0  0  0  0
 28 30  1  0  0  0  0
M  END
$$$$
default_name
  -OEChem-02102213163D

 33 33  0     1  0  0  0  0  0999 V2000
   -4.0702   -3.8485    1.4554 H   0  0  0  0  0  0  0  0  0  0  0  0
   -4.0012   -2.9605    0.8284 C   0  0  0  0  0  0  0  0  0  0  0  0
   -4.7652   -2.2435    1.1234 H   0  0  0  0  0  0  0  0  0  0  0  0
   -4.1352   -3.2385   -0.2156 H   0  0  0  0  0  0  0  0  0  0  0  0
   -2.6362   -2.3395    1.0094 C   0  0  0  0  0  0  0  0  0  0  0  0
   -1.8292   -2.8395    1.7814 O   0  0  0  0  0  0  0  0  0  0  0  0
   -2.3832   -1.2445    0.2964 N   0  0  0  0  0  0  0  0  0  0  0  0
   -3.1102   -0.8685   -0.2946 H   0  0  0  0  0  0  0  0  0  0  0  0
   -1.1292   -0.4875    0.3524 C   0  0  1  0  0  0  0  0  0  0  0  0
   -0.5898   -0.7762    1.2552 H   0  0  0  0  0  0  0  0  0  0  0  0
   -0.2608   -0.8470   -0.8656 C   0  0  0  0  0  0  0  0  0  0  0  0
    0.7612   -0.5125   -0.6832 H   0  0  0  0  0  0  0  0  0  0  0  0
   -0.2351   -1.9327   -0.9731 H   0  0  0  0  0  0  0  0  0  0  0  0
   -0.7350   -0.2249   -2.1648 C   0  0  0  0  0  0  0  0  0  0  0  0
    0.1890    0.0922   -3.1806 C   0  0  0  0  0  0  0  0  0  0  0  0
    1.2455   -0.0838   -3.0255 H   0  0  0  0  0  0  0  0  0  0  0  0
   -0.2608    0.6322   -4.4012 C   0  0  0  0  0  0  0  0  0  0  0  0
    0.4497    0.8753   -5.1762 H   0  0  0  0  0  0  0  0  0  0  0  0
   -1.6402    0.8523   -4.6075 C   0  0  0  0  0  0  0  0  0  0  0  0
   -2.0843    1.3699   -5.7822 O   0  0  0  0  0  0  0  0  0  0  0  0
   -1.3637    1.6305   -6.3574 H   0  0  0  0  0  0  0  0  0  0  0  0
   -2.5639    0.5298   -3.5918 C   0  0  0  0  0  0  0  0  0  0  0  0
   -3.6155    0.7068   -3.7599 H   0  0  0  0  0  0  0  0  0  0  0  0
   -2.1107   -0.0056   -2.3712 C   0  0  0  0  0  0  0  0  0  0  0  0
   -2.8201   -0.2444   -1.5878 H   0  0  0  0  0  0  0  0  0  0  0  0
   -1.4018    1.0238    0.4329 C   0  0  0  0  0  0  0  0  0  0  0  0
   -2.2416    1.5423   -0.3033 O   0  0  0  0  0  0  0  0  0  0  0  0
   -0.6927    1.7304    1.3223 N   0  0  0  0  0  0  0  0  0  0  0  0
    0.0178    1.2410    1.8469 H   0  0  0  0  0  0  0  0  0  0  0  0
   -0.8259    3.1712    1.5254 C   0  0  0  0  0  0  0  0  0  0  0  0
   -1.8769    3.4302    1.6645 H   0  0  0  0  0  0  0  0  0  0  0  0
   -0.2598    3.4806    2.4054 H   0  0  0  0  0  0  0  0  0  0  0  0
   -0.4486    3.7020    0.6489 H   0  0  0  0  0  0  0  0  0  0  0  0
  5  6  2  0  0  0  0
  5  7  1  0  0  0  0
  2  3  1  0  0  0  0
  2  4  1  0  0  0  0
  2  5  1  0  0  0  0
  1  2  1  0  0  0  0
 26 27  2  0  0  0  0
 26 28  1  0  0  0  0
 24 25  1  0  0  0  0
 22 23  1  0  0  0  0
 22 24  2  0  0  0  0
 20 21  1  0  0  0  0
 19 20  1  0  0  0  0
 19 22  1  0  0  0  0
 17 18  1  0  0  0  0
 17 19  2  0  0  0  0
 15 16  1  0  0  0  0
 15 17  1  0  0  0  0
 14 15  2  0  0  0  0
 14 24  1  0  0  0  0
 11 12  1  0  0  0  0
 11 13  1  0  0  0  0
 11 14  1  0  0  0  0
  9 10  1  0  0  0  0
  9 11  1  0  0  0  0
  9 26  1  0  0  0  0
  7  8  1  0  0  0  0
  7  9  1  0  0  0  0
 30 31  1  0  0  0  0
 30 32  1  0  0  0  0
 30 33  1  0  0  0  0
 28 29  1  0  0  0  0
 28 30  1  0  0  0  0
M  END
$$$$
default_name
  -OEChem-02102213163D

 33 33  0     1  0  0  0  0  0999 V2000
   -4.0702   -3.8485    1.4554 H   0  0  0  0  0  0  0  0  0  0  0  0
   -4.0012   -2.9605    0.8284 C   0  0  0  0  0  0  0  0  0  0  0  0
   -4.7652   -2.2435    1.1234 H   0  0  0  0  0  0  0  0  0  0  0  0
   -4.1352   -3.2385   -0.2156 H   0  0  0  0  0  0  0  0  0  0  0  0
   -2.6362   -2.3395    1.0094 C   0  0  0  0  0  0  0  0  0  0  0  0
   -1.8292   -2.8395    1.7814 O   0  0  0  0  0  0  0  0  0  0  0  0
   -2.3832   -1.2445    0.2964 N   0  0  0  0  0  0  0  0  0  0  0  0
   -3.1102   -0.8685   -0.2946 H   0  0  0  0  0  0  0  0  0  0  0  0
   -1.1292   -0.4875    0.3524 C   0  0  1  0  0  0  0  0  0  0  0  0
   -0.5898   -0.7762    1.2552 H   0  0  0  0  0  0  0  0  0  0  0  0
   -0.2608   -0.8470   -0.8656 C   0  0  0  0  0  0  0  0  0  0  0  0
    0.7612   -0.5125   -0.6832 H   0  0  0  0  0  0  0  0  0  0  0  0
   -0.2351   -1.9327   -0.9731 H   0  0  0  0  0  0  0  0  0  0  0  0
   -0.7350   -0.2249   -2.1648 C   0  0  0  0  0  0  0  0  0  0  0  0
    0.1124   -0.1958   -3.2905 C   0  0  0  0  0  0  0  0  0  0  0  0
    1.1160   -0.5949   -3.2230 H   0  0  0  0  0  0  0  0  0  0  0  0
   -0.3469    0.3465   -4.5065 C   0  0  0  0  0  0  0  0  0  0  0  0
    0.3052    0.3686   -5.3661 H   0  0  0  0  0  0  0  0  0  0  0  0
   -1.6598    0.8580   -4.5976 C   0  0  0  0  0  0  0  0  0  0  0  0
   -2.1132    1.3804   -5.7667 O   0  0  0  0  0  0  0  0  0  0  0  0
   -1.4245    1.4309   -6.4308 H   0  0  0  0  0  0  0  0  0  0  0  0
   -2.5081    0.8235   -3.4715 C   0  0  0  0  0  0  0  0  0  0  0  0
   -3.5084    1.2217   -3.5525 H   0  0  0  0  0  0  0  0  0  0  0  0
   -2.0445    0.2850   -2.2562 C   0  0  0  0  0  0  0  0  0  0  0  0
   -2.6937    0.2673   -1.3889 H   0  0  0  0  0  0  0  0  0  0  0  0
   -1.4018    1.0238    0.4329 C   0  0  0  0  0  0  0  0  0  0  0  0
   -2.2416    1.5423   -0.3033 O   0  0  0  0  0  0  0  0  0  0  0  0
   -0.6927    1.7304    1.3223 N   0  0  0  0  0  0  0  0  0  0  0  0
    0.0178    1.2410    1.8469 H   0  0  0  0  0  0  0  0  0  0  0  0
   -0.8259    3.1712    1.5254 C   0  0  0  0  0  0  0  0  0  0  0  0
   -1.8769    3.4302    1.6645 H   0  0  0  0  0  0  0  0  0  0  0  0
   -0.2598    3.4806    2.4054 H   0  0  0  0  0  0  0  0  0  0  0  0
   -0.4486    3.7020    0.6489 H   0  0  0  0  0  0  0  0  0  0  0  0
  5  6  2  0  0  0  0
  5  7  1  0  0  0  0
  2  3  1  0  0  0  0
  2  4  1  0  0  0  0
  2  5  1  0  0  0  0
  1  2  1  0  0  0  0
 26 27  2  0  0  0  0
 26 28  1  0  0  0  0
 24 25  1  0  0  0  0
 22 23  1  0  0  0  0
 22 24  2  0  0  0  0
 20 21  1  0  0  0  0
 19 20  1  0  0  0  0
 19 22  1  0  0  0  0
 17 18  1  0  0  0  0
 17 19  2  0  0  0  0
 15 16  1  0  0  0  0
 15 17  1  0  0  0  0
 14 15  2  0  0  0  0
 14 24  1  0  0  0  0
 11 12  1  0  0  0  0
 11 13  1  0  0  0  0
 11 14  1  0  0  0  0
  9 10  1  0  0  0  0
  9 11  1  0  0  0  0
  9 26  1  0  0  0  0
  7  8  1  0  0  0  0
  7  9  1  0  0  0  0
 30 31  1  0  0  0  0
 30 32  1  0  0  0  0
 30 33  1  0  0  0  0
 28 29  1  0  0  0  0
 28 30  1  0  0  0  0
M  END
$$$$
default_name
  -OEChem-02102213163D

 33 33  0     1  0  0  0  0  0999 V2000
   -4.0702   -3.8485    1.4554 H   0  0  0  0  0  0  0  0  0  0  0  0
   -4.0012   -2.9605    0.8284 C   0  0  0  0  0  0  0  0  0  0  0  0
   -4.7652   -2.2435    1.1234 H   0  0  0  0  0  0  0  0  0  0  0  0
   -4.1352   -3.2385   -0.2156 H   0  0  0  0  0  0  0  0  0  0  0  0
   -2.6362   -2.3395    1.0094 C   0  0  0  0  0  0  0  0  0  0  0  0
   -1.8292   -2.8395    1.7814 O   0  0  0  0  0  0  0  0  0  0  0  0
   -2.3832   -1.2445    0.2964 N   0  0  0  0  0  0  0  0  0  0  0  0
   -3.1102   -0.8685   -0.2946 H   0  0  0  0  0  0  0  0  0  0  0  0
   -1.1292   -0.4875    0.3524 C   0  0  1  0  0  0  0  0  0  0  0  0
   -0.5898   -0.7762    1.2552 H   0  0  0  0  0  0  0  0  0  0  0  0
   -0.2608   -0.8470   -0.8656 C   0  0  0  0  0  0  0  0  0  0  0  0
    0.7907   -0.7628   -0.5883 H   0  0  0  0  0  0  0  0  0  0  0  0
   -0.4451   -1.8880   -1.1360 H   0  0  0  0  0  0  0  0  0  0  0  0
   -0.5010    0.0359   -2.0749 C   0  0  0  0  0  0  0  0  0  0  0  0
    0.2234   -0.1756   -3.2652 C   0  0  0  0  0  0  0  0  0  0  0  0
    0.9736   -0.9540   -3.3112 H   0  0  0  0  0  0  0  0  0  0  0  0
   -0.0320    0.6209   -4.3985 C   0  0  0  0  0  0  0  0  0  0  0  0
    0.5256    0.4572   -5.3078 H   0  0  0  0  0  0  0  0  0  0  0  0
   -1.0181    1.6299   -4.3417 C   0  0  0  0  0  0  0  0  0  0  0  0
   -1.2739    2.4014   -5.4301 O   0  0  0  0  0  0  0  0  0  0  0  0
   -0.6612    2.2299   -6.1464 H   0  0  0  0  0  0  0  0  0  0  0  0
   -1.7454    1.8369   -3.1513 C   0  0  0  0  0  0  0  0  0  0  0  0
   -2.4937    2.6145   -3.1190 H   0  0  0  0  0  0  0  0  0  0  0  0
   -1.4846    1.0422   -2.0189 C   0  0  0  0  0  0  0  0  0  0  0  0
   -2.0373    1.2080   -1.1018 H   0  0  0  0  0  0  0  0  0  0  0  0
   -1.4018    1.0238    0.4329 C   0  0  0  0  0  0  0  0  0  0  0  0
   -2.2416    1.5423   -0.3033 O   0  0  0  0  0  0  0  0  0  0  0  0
   -0.6927    1.7304    1.3223 N   0  0  0  0  0  0  0  0  0  0  0  0
    0.0178    1.2410    1.8469 H   0  0  0  0  0  0  0  0  0  0  0  0
   -0.8259    3.1712    1.5254 C   0  0  0  0  0  0  0  0  0  0  0  0
   -1.8769    3.4302    1.6645 H   0  0  0  0  0  0  0  0  0  0  0  0
   -0.2598    3.4806    2.4054 H   0  0  0  0  0  0  0  0  0  0  0  0
   -0.4486    3.7020    0.6489 H   0  0  0  0  0  0  0  0  0  0  0  0
  5  6  2  0  0  0  0
  5  7  1  0  0  0  0
  2  3  1  0  0  0  0
  2  4  1  0  0  0  0
  2  5  1  0  0  0  0
  1  2  1  0  0  0  0
 26 27  2  0  0  0  0
 26 28  1  0  0  0  0
 24 25  1  0  0  0  0
 22 23  1  0  0  0  0
 22 24  2  0  0  0  0
 20 21  1  0  0  0  0
 19 20  1  0  0  0  0
 19 22  1  0  0  0  0
 17 18  1  0  0  0  0
 17 19  2  0  0  0  0
 15 16  1  0  0  0  0
 15 17  1  0  0  0  0
 14 15  2  0  0  0  0
 14 24  1  0  0  0  0
 11 12  1  0  0  0  0
 11 13  1  0  0  0  0
 11 14  1  0  0  0  0
  9 10  1  0  0  0  0
  9 11  1  0  0  0  0
  9 26  1  0  0  0  0
  7  8  1  0  0  0  0
  7  9  1  0  0  0  0
 30 31  1  0  0  0  0
 30 32  1  0  0  0  0
 30 33  1  0  0  0  0
 28 29  1  0  0  0  0
 28 30  1  0  0  0  0
M  END
$$$$
default_name
  -OEChem-02102213163D

 33 33  0     1  0  0  0  0  0999 V2000
   -4.0702   -3.8485    1.4554 H   0  0  0  0  0  0  0  0  0  0  0  0
   -4.0012   -2.9605    0.8284 C   0  0  0  0  0  0  0  0  0  0  0  0
   -4.7652   -2.2435    1.1234 H   0  0  0  0  0  0  0  0  0  0  0  0
   -4.1352   -3.2385   -0.2156 H   0  0  0  0  0  0  0  0  0  0  0  0
   -2.6362   -2.3395    1.0094 C   0  0  0  0  0  0  0  0  0  0  0  0
   -1.8292   -2.8395    1.7814 O   0  0  0  0  0  0  0  0  0  0  0  0
   -2.3832   -1.2445    0.2964 N   0  0  0  0  0  0  0  0  0  0  0  0
   -3.1102   -0.8685   -0.2946 H   0  0  0  0  0  0  0  0  0  0  0  0
   -1.1292   -0.4875    0.3524 C   0  0  1  0  0  0  0  0  0  0  0  0
   -0.5898   -0.7762    1.2552 H   0  0  0  0  0  0  0  0  0  0  0  0
   -0.2608   -0.8470   -0.8656 C   0  0  0  0  0  0  0  0  0  0  0  0
    0.7907   -0.7628   -0.5883 H   0  0  0  0  0  0  0  0  0  0  0  0
   -0.4451   -1.8880   -1.1360 H   0  0  0  0  0  0  0  0  0  0  0  0
   -0.5010    0.0359   -2.0749 C   0  0  0  0  0  0  0  0  0  0  0  0
   -0.0282   -0.3525   -3.3445 C   0  0  0  0  0  0  0  0  0  0  0  0
    0.5318   -1.2718   -3.4555 H   0  0  0  0  0  0  0  0  0  0  0  0
   -0.2888    0.4510   -4.4715 C   0  0  0  0  0  0  0  0  0  0  0  0
    0.0760    0.1513   -5.4419 H   0  0  0  0  0  0  0  0  0  0  0  0
   -1.0283    1.6454   -4.3285 C   0  0  0  0  0  0  0  0  0  0  0  0
   -1.2875    2.4257   -5.4097 O   0  0  0  0  0  0  0  0  0  0  0  0
   -0.8410    2.1116   -6.1971 H   0  0  0  0  0  0  0  0  0  0  0  0
   -1.5048    2.0300   -3.0581 C   0  0  0  0  0  0  0  0  0  0  0  0
   -2.0652    2.9477   -2.9608 H   0  0  0  0  0  0  0  0  0  0  0  0
   -1.2387    1.2271   -1.9328 C   0  0  0  0  0  0  0  0  0  0  0  0
   -1.5972    1.5280   -0.9556 H   0  0  0  0  0  0  0  0  0  0  0  0
   -1.4018    1.0238    0.4329 C   0  0  0  0  0  0  0  0  0  0  0  0
   -2.2416    1.5423   -0.3033 O   0  0  0  0  0  0  0  0  0  0  0  0
   -0.6927    1.7304    1.3223 N   0  0  0  0  0  0  0  0  0  0  0  0
    0.0178    1.2410    1.8469 H   0  0  0  0  0  0  0  0  0  0  0  0
   -0.8259    3.1712    1.5254 C   0  0  0  0  0  0  0  0  0  0  0  0
   -1.8769    3.4302    1.6645 H   0  0  0  0  0  0  0  0  0  0  0  0
   -0.2598    3.4806    2.4054 H   0  0  0  0  0  0  0  0  0  0  0  0
   -0.4486    3.7020    0.6489 H   0  0  0  0  0  0  0  0  0  0  0  0
  5  6  2  0  0  0  0
  5  7  1  0  0  0  0
  2  3  1  0  0  0  0
  2  4  1  0  0  0  0
  2  5  1  0  0  0  0
  1  2  1  0  0  0  0
 26 27  2  0  0  0  0
 26 28  1  0  0  0  0
 24 25  1  0  0  0  0
 22 23  1  0  0  0  0
 22 24  2  0  0  0  0
 20 21  1  0  0  0  0
 19 20  1  0  0  0  0
 19 22  1  0  0  0  0
 17 18  1  0  0  0  0
 17 19  2  0  0  0  0
 15 16  1  0  0  0  0
 15 17  1  0  0  0  0
 14 15  2  0  0  0  0
 14 24  1  0  0  0  0
 11 12  1  0  0  0  0
 11 13  1  0  0  0  0
 11 14  1  0  0  0  0
  9 10  1  0  0  0  0
  9 11  1  0  0  0  0
  9 26  1  0  0  0  0
  7  8  1  0  0  0  0
  7  9  1  0  0  0  0
 30 31  1  0  0  0  0
 30 32  1  0  0  0  0
 30 33  1  0  0  0  0
 28 29  1  0  0  0  0
 28 30  1  0  0  0  0
M  END
$$$$
default_name
  -OEChem-02102213163D

 33 33  0     1  0  0  0  0  0999 V2000
   -4.0702   -3.8485    1.4554 H   0  0  0  0  0  0  0  0  0  0  0  0
   -4.0012   -2.9605    0.8284 C   0  0  0  0  0  0  0  0  0  0  0  0
   -4.7652   -2.2435    1.1234 H   0  0  0  0  0  0  0  0  0  0  0  0
   -4.1352   -3.2385   -0.2156 H   0  0  0  0  0  0  0  0  0  0  0  0
   -2.6362   -2.3395    1.0094 C   0  0  0  0  0  0  0  0  0  0  0  0
   -1.8292   -2.8395    1.7814 O   0  0  0  0  0  0  0  0  0  0  0  0
   -2.3832   -1.2445    0.2964 N   0  0  0  0  0  0  0  0  0  0  0  0
   -3.1102   -0.8685   -0.2946 H   0  0  0  0  0  0  0  0  0  0  0  0
   -1.1292   -0.4875    0.3524 C   0  0  1  0  0  0  0  0  0  0  0  0
   -0.5898   -0.7762    1.2552 H   0  0  0  0  0  0  0  0  0  0  0  0
   -0.2608   -0.8470   -0.8656 C   0  0  0  0  0  0  0  0  0  0  0  0
    0.7907   -0.7628   -0.5883 H   0  0  0  0  0  0  0  0  0  0  0  0
   -0.4451   -1.8880   -1.1360 H   0  0  0  0  0  0  0  0  0  0  0  0
   -0.5010    0.0359   -2.0749 C   0  0  0  0  0  0  0  0  0  0  0  0
   -0.3196   -0.4748   -3.3759 C   0  0  0  0  0  0  0  0  0  0  0  0
    0.0177   -1.4935   -3.5153 H   0  0  0  0  0  0  0  0  0  0  0  0
   -0.5830    0.3369   -4.4964 C   0  0  0  0  0  0  0  0  0  0  0  0
   -0.4415   -0.0569   -5.4911 H   0  0  0  0  0  0  0  0  0  0  0  0
   -1.0329    1.6629   -4.3148 C   0  0  0  0  0  0  0  0  0  0  0  0
   -1.2925    2.4528   -5.3889 O   0  0  0  0  0  0  0  0  0  0  0  0
   -1.0467    2.0324   -6.2141 H   0  0  0  0  0  0  0  0  0  0  0  0
   -1.2185    2.1707   -3.0122 C   0  0  0  0  0  0  0  0  0  0  0  0
   -1.5588    3.1876   -2.8863 H   0  0  0  0  0  0  0  0  0  0  0  0
   -0.9500    1.3584   -1.8942 C   0  0  0  0  0  0  0  0  0  0  0  0
   -1.0840    1.7522   -0.8937 H   0  0  0  0  0  0  0  0  0  0  0  0
   -1.4018    1.0238    0.4329 C   0  0  0  0  0  0  0  0  0  0  0  0
   -2.2416    1.5423   -0.3033 O   0  0  0  0  0  0  0  0  0  0  0  0
   -0.6927    1.7304    1.3223 N   0  0  0  0  0  0  0  0  0  0  0  0
    0.0178    1.2410    1.8469 H   0  0  0  0  0  0  0  0  0  0  0  0
   -0.8259    3.1712    1.5254 C   0  0  0  0  0  0  0  0  0  0  0  0
   -1.8769    3.4302    1.6645 H   0  0  0  0  0  0  0  0  0  0  0  0
   -0.2598    3.4806    2.4054 H   0  0  0  0  0  0  0  0  0  0  0  0
   -0.4486    3.7020    0.6489 H   0  0  0  0  0  0  0  0  0  0  0  0
  5  6  2  0  0  0  0
  5  7  1  0  0  0  0
  2  3  1  0  0  0  0
  2  4  1  0  0  0  0
  2  5  1  0  0  0  0
  1  2  1  0  0  0  0
 26 27  2  0  0  0  0
 26 28  1  0  0  0  0
 24 25  1  0  0  0  0
 22 23  1  0  0  0  0
 22 24  2  0  0  0  0
 20 21  1  0  0  0  0
 19 20  1  0  0  0  0
 19 22  1  0  0  0  0
 17 18  1  0  0  0  0
 17 19  2  0  0  0  0
 15 16  1  0  0  0  0
 15 17  1  0  0  0  0
 14 15  2  0  0  0  0
 14 24  1  0  0  0  0
 11 12  1  0  0  0  0
 11 13  1  0  0  0  0
 11 14  1  0  0  0  0
  9 10  1  0  0  0  0
  9 11  1  0  0  0  0
  9 26  1  0  0  0  0
  7  8  1  0  0  0  0
  7  9  1  0  0  0  0
 30 31  1  0  0  0  0
 30 32  1  0  0  0  0
 30 33  1  0  0  0  0
 28 29  1  0  0  0  0
 28 30  1  0  0  0  0
M  END
$$$$
default_name
  -OEChem-02102213163D

 33 33  0     1  0  0  0  0  0999 V2000
   -4.0702   -3.8485    1.4554 H   0  0  0  0  0  0  0  0  0  0  0  0
   -4.0012   -2.9605    0.8284 C   0  0  0  0  0  0  0  0  0  0  0  0
   -4.7652   -2.2435    1.1234 H   0  0  0  0  0  0  0  0  0  0  0  0
   -4.1352   -3.2385   -0.2156 H   0  0  0  0  0  0  0  0  0  0  0  0
   -2.6362   -2.3395    1.0094 C   0  0  0  0  0  0  0  0  0  0  0  0
   -1.8292   -2.8395    1.7814 O   0  0  0  0  0  0  0  0  0  0  0  0
   -2.3832   -1.2445    0.2964 N   0  0  0  0  0  0  0  0  0  0  0  0
   -3.1102   -0.8685   -0.2946 H   0  0  0  0  0  0  0  0  0  0  0  0
   -1.1292   -0.4875    0.3524 C   0  0  1  0  0  0  0  0  0  0  0  0
   -0.5898   -0.7762    1.2552 H   0  0  0  0  0  0  0  0  0  0  0  0
   -0.2608   -0.8470   -0.8656 C   0  0  0  0  0  0  0  0  0  0  0  0
    0.7907   -0.7628   -0.5883 H   0  0  0  0  0  0  0  0  0  0  0  0
   -0.4451   -1.8880   -1.1360 H   0  0  0  0  0  0  0  0  0  0  0  0
   -0.5010    0.0359   -2.0749 C   0  0  0  0  0  0  0  0  0  0  0  0
   -0.6311   -0.5340   -3.3573 C   0  0  0  0  0  0  0  0  0  0  0  0
   -0.5337   -1.6040   -3.4865 H   0  0  0  0  0  0  0  0  0  0  0  0
   -0.8944    0.2864   -4.4715 C   0  0  0  0  0  0  0  0  0  0  0  0
   -0.9919   -0.1533   -5.4522 H   0  0  0  0  0  0  0  0  0  0  0  0
   -1.0317    1.6813   -4.3015 C   0  0  0  0  0  0  0  0  0  0  0  0
   -1.2886    2.4808   -5.3692 O   0  0  0  0  0  0  0  0  0  0  0  0
   -1.2643    1.9976   -6.1962 H   0  0  0  0  0  0  0  0  0  0  0  0
   -0.9061    2.2494   -3.0168 C   0  0  0  0  0  0  0  0  0  0  0  0
   -1.0088    3.3178   -2.9004 H   0  0  0  0  0  0  0  0  0  0  0  0
   -0.6383    1.4272   -1.9058 C   0  0  0  0  0  0  0  0  0  0  0  0
   -0.5327    1.8655   -0.9205 H   0  0  0  0  0  0  0  0  0  0  0  0
   -1.4018    1.0238    0.4329 C   0  0  0  0  0  0  0  0  0  0  0  0
   -2.2416    1.5423   -0.3033 O   0  0  0  0  0  0  0  0  0  0  0  0
   -0.6927    1.7304    1.3223 N   0  0  0  0  0  0  0  0  0  0  0  0
    0.0178    1.2410    1.8469 H   0  0  0  0  0  0  0  0  0  0  0  0
   -0.8259    3.1712    1.5254 C   0  0  0  0  0  0  0  0  0  0  0  0
   -1.8769    3.4302    1.6645 H   0  0  0  0  0  0  0  0  0  0  0  0
   -0.2598    3.4806    2.4054 H   0  0  0  0  0  0  0  0  0  0  0  0
   -0.4486    3.7020    0.6489 H   0  0  0  0  0  0  0  0  0  0  0  0
  5  6  2  0  0  0  0
  5  7  1  0  0  0  0
  2  3  1  0  0  0  0
  2  4  1  0  0  0  0
  2  5  1  0  0  0  0
  1  2  1  0  0  0  0
 26 27  2  0  0  0  0
 26 28  1  0  0  0  0
 24 25  1  0  0  0  0
 22 23  1  0  0  0  0
 22 24  2  0  0  0  0
 20 21  1  0  0  0  0
 19 20  1  0  0  0  0
 19 22  1  0  0  0  0
 17 18  1  0  0  0  0
 17 19  2  0  0  0  0
 15 16  1  0  0  0  0
 15 17  1  0  0  0  0
 14 15  2  0  0  0  0
 14 24  1  0  0  0  0
 11 12  1  0  0  0  0
 11 13  1  0  0  0  0
 11 14  1  0  0  0  0
  9 10  1  0  0  0  0
  9 11  1  0  0  0  0
  9 26  1  0  0  0  0
  7  8  1  0  0  0  0
  7  9  1  0  0  0  0
 30 31  1  0  0  0  0
 30 32  1  0  0  0  0
 30 33  1  0  0  0  0
 28 29  1  0  0  0  0
 28 30  1  0  0  0  0
M  END
$$$$
default_name
  -OEChem-02102213163D

 33 33  0     1  0  0  0  0  0999 V2000
   -4.0702   -3.8485    1.4554 H   0  0  0  0  0  0  0  0  0  0  0  0
   -4.0012   -2.9605    0.8284 C   0  0  0  0  0  0  0  0  0  0  0  0
   -4.7652   -2.2435    1.1234 H   0  0  0  0  0  0  0  0  0  0  0  0
   -4.1352   -3.2385   -0.2156 H   0  0  0  0  0  0  0  0  0  0  0  0
   -2.6362   -2.3395    1.0094 C   0  0  0  0  0  0  0  0  0  0  0  0
   -1.8292   -2.8395    1.7814 O   0  0  0  0  0  0  0  0  0  0  0  0
   -2.3832   -1.2445    0.2964 N   0  0  0  0  0  0  0  0  0  0  0  0
   -3.1102   -0.8685   -0.2946 H   0  0  0  0  0  0  0  0  0  0  0  0
   -1.1292   -0.4875    0.3524 C   0  0  1  0  0  0  0  0  0  0  0  0
   -0.5898   -0.7762    1.2552 H   0  0  0  0  0  0  0  0  0  0  0  0
   -0.2608   -0.8470   -0.8656 C   0  0  0  0  0  0  0  0  0  0  0  0
    0.7907   -0.7628   -0.5883 H   0  0  0  0  0  0  0  0  0  0  0  0
   -0.4451   -1.8880   -1.1360 H   0  0  0  0  0  0  0  0  0  0  0  0
   -0.5010    0.0359   -2.0749 C   0  0  0  0  0  0  0  0  0  0  0  0
   -0.9414   -0.5262   -3.2899 C   0  0  0  0  0  0  0  0  0  0  0  0
   -1.0847   -1.5958   -3.3710 H   0  0  0  0  0  0  0  0  0  0  0  0
   -1.2019    0.3029   -4.3984 C   0  0  0  0  0  0  0  0  0  0  0  0
   -1.5375   -0.1311   -5.3277 H   0  0  0  0  0  0  0  0  0  0  0  0
   -1.0247    1.6994   -4.2897 C   0  0  0  0  0  0  0  0  0  0  0  0
   -1.2761    2.5078   -5.3520 O   0  0  0  0  0  0  0  0  0  0  0  0
   -1.4790    2.0097   -6.1448 H   0  0  0  0  0  0  0  0  0  0  0  0
   -0.5887    2.2607   -3.0716 C   0  0  0  0  0  0  0  0  0  0  0  0
   -0.4528    3.3295   -3.0022 H   0  0  0  0  0  0  0  0  0  0  0  0
   -0.3248    1.4289   -1.9669 C   0  0  0  0  0  0  0  0  0  0  0  0
    0.0191    1.8600   -1.0341 H   0  0  0  0  0  0  0  0  0  0  0  0
   -1.4018    1.0238    0.4329 C   0  0  0  0  0  0  0  0  0  0  0  0
   -2.2416    1.5423   -0.3033 O   0  0  0  0  0  0  0  0  0  0  0  0
   -0.6927    1.7304    1.3223 N   0  0  0  0  0  0  0  0  0  0  0  0
    0.0178    1.2410    1.8469 H   0  0  0  0  0  0  0  0  0  0  0  0
   -0.8259    3.1712    1.5254 C   0  0  0  0  0  0  0  0  0  0  0  0
   -1.8769    3.4302    1.6645 H   0  0  0  0  0  0  0  0  0  0  0  0
   -0.2598    3.4806    2.4054 H   0  0  0  0  0  0  0  0  0  0  0  0
   -0.4486    3.7020    0.6489 H   0  0  0  0  0  0  0  0  0  0  0  0
  5  6  2  0  0  0  0
  5  7  1  0  0  0  0
  2  3  1  0  0  0  0
  2  4  1  0  0  0  0
  2  5  1  0  0  0  0
  1  2  1  0  0  0  0
 26 27  2  0  0  0  0
 26 28  1  0  0  0  0
 24 25  1  0  0  0  0
 22 23  1  0  0  0  0
 22 24  2  0  0  0  0
 20 21  1  0  0  0  0
 19 20  1  0  0  0  0
 19 22  1  0  0  0  0
 17 18  1  0  0  0  0
 17 19  2  0  0  0  0
 15 16  1  0  0  0  0
 15 17  1  0  0  0  0
 14 15  2  0  0  0  0
 14 24  1  0  0  0  0
 11 12  1  0  0  0  0
 11 13  1  0  0  0  0
 11 14  1  0  0  0  0
  9 10  1  0  0  0  0
  9 11  1  0  0  0  0
  9 26  1  0  0  0  0
  7  8  1  0  0  0  0
  7  9  1  0  0  0  0
 30 31  1  0  0  0  0
 30 32  1  0  0  0  0
 30 33  1  0  0  0  0
 28 29  1  0  0  0  0
 28 30  1  0  0  0  0
M  END
$$$$
default_name
  -OEChem-02102213163D

 33 33  0     1  0  0  0  0  0999 V2000
   -4.0702   -3.8485    1.4554 H   0  0  0  0  0  0  0  0  0  0  0  0
   -4.0012   -2.9605    0.8284 C   0  0  0  0  0  0  0  0  0  0  0  0
   -4.7652   -2.2435    1.1234 H   0  0  0  0  0  0  0  0  0  0  0  0
   -4.1352   -3.2385   -0.2156 H   0  0  0  0  0  0  0  0  0  0  0  0
   -2.6362   -2.3395    1.0094 C   0  0  0  0  0  0  0  0  0  0  0  0
   -1.8292   -2.8395    1.7814 O   0  0  0  0  0  0  0  0  0  0  0  0
   -2.3832   -1.2445    0.2964 N   0  0  0  0  0  0  0  0  0  0  0  0
   -3.1102   -0.8685   -0.2946 H   0  0  0  0  0  0  0  0  0  0  0  0
   -1.1292   -0.4875    0.3524 C   0  0  1  0  0  0  0  0  0  0  0  0
   -0.5898   -0.7762    1.2552 H   0  0  0  0  0  0  0  0  0  0  0  0
   -0.2608   -0.8470   -0.8656 C   0  0  0  0  0  0  0  0  0  0  0  0
    0.7907   -0.7628   -0.5883 H   0  0  0  0  0  0  0  0  0  0  0  0
   -0.4451   -1.8880   -1.1360 H   0  0  0  0  0  0  0  0  0  0  0  0
   -0.5010    0.0359   -2.0749 C   0  0  0  0  0  0  0  0  0  0  0  0
   -1.2293   -0.4518   -3.1785 C   0  0  0  0  0  0  0  0  0  0  0  0
   -1.5978   -1.4693   -3.1768 H   0  0  0  0  0  0  0  0  0  0  0  0
   -1.4844    0.3853   -4.2821 C   0  0  0  0  0  0  0  0  0  0  0  0
   -2.0412    0.0079   -5.1261 H   0  0  0  0  0  0  0  0  0  0  0  0
   -1.0125    1.7160   -4.2800 C   0  0  0  0  0  0  0  0  0  0  0  0
   -1.2558    2.5321   -5.3383 O   0  0  0  0  0  0  0  0  0  0  0  0
   -1.6762    2.0677   -6.0633 H   0  0  0  0  0  0  0  0  0  0  0  0
   -0.2881    2.2039   -3.1728 C   0  0  0  0  0  0  0  0  0  0  0  0
    0.0713    3.2219   -3.1849 H   0  0  0  0  0  0  0  0  0  0  0  0
   -0.0307    1.3634   -2.0731 C   0  0  0  0  0  0  0  0  0  0  0  0
    0.5339    1.7361   -1.2268 H   0  0  0  0  0  0  0  0  0  0  0  0
   -1.4018    1.0238    0.4329 C   0  0  0  0  0  0  0  0  0  0  0  0
   -2.2416    1.5423   -0.3033 O   0  0  0  0  0  0  0  0  0  0  0  0
   -0.6927    1.7304    1.3223 N   0  0  0  0  0  0  0  0  0  0  0  0
    0.0178    1.2410    1.8469 H   0  0  0  0  0  0  0  0  0  0  0  0
   -0.8259    3.1712    1.5254 C   0  0  0  0  0  0  0  0  0  0  0  0
   -1.8769    3.4302    1.6645 H   0  0  0  0  0  0  0  0  0  0  0  0
   -0.2598    3.4806    2.4054 H   0  0  0  0  0  0  0  0  0  0  0  0
   -0.4486    3.7020    0.6489 H   0  0  0  0  0  0  0  0  0  0  0  0
  5  6  2  0  0  0  0
  5  7  1  0  0  0  0
  2  3  1  0  0  0  0
  2  4  1  0  0  0  0
  2  5  1  0  0  0  0
  1  2  1  0  0  0  0
 26 27  2  0  0  0  0
 26 28  1  0  0  0  0
 24 25  1  0  0  0  0
 22 23  1  0  0  0  0
 22 24  2  0  0  0  0
 20 21  1  0  0  0  0
 19 20  1  0  0  0  0
 19 22  1  0  0  0  0
 17 18  1  0  0  0  0
 17 19  2  0  0  0  0
 15 16  1  0  0  0  0
 15 17  1  0  0  0  0
 14 15  2  0  0  0  0
 14 24  1  0  0  0  0
 11 12  1  0  0  0  0
 11 13  1  0  0  0  0
 11 14  1  0  0  0  0
  9 10  1  0  0  0  0
  9 11  1  0  0  0  0
  9 26  1  0  0  0  0
  7  8  1  0  0  0  0
  7  9  1  0  0  0  0
 30 31  1  0  0  0  0
 30 32  1  0  0  0  0
 30 33  1  0  0  0  0
 28 29  1  0  0  0  0
 28 30  1  0  0  0  0
M  END
$$$$
default_name
  -OEChem-02102213163D

 33 33  0     1  0  0  0  0  0999 V2000
   -4.0702   -3.8485    1.4554 H   0  0  0  0  0  0  0  0  0  0  0  0
   -4.0012   -2.9605    0.8284 C   0  0  0  0  0  0  0  0  0  0  0  0
   -4.7652   -2.2435    1.1234 H   0  0  0  0  0  0  0  0  0  0  0  0
   -4.1352   -3.2385   -0.2156 H   0  0  0  0  0  0  0  0  0  0  0  0
   -2.6362   -2.3395    1.0094 C   0  0  0  0  0  0  0  0  0  0  0  0
   -1.8292   -2.8395    1.7814 O   0  0  0  0  0  0  0  0  0  0  0  0
   -2.3832   -1.2445    0.2964 N   0  0  0  0  0  0  0  0  0  0  0  0
   -3.1102   -0.8685   -0.2946 H   0  0  0  0  0  0  0  0  0  0  0  0
   -1.1292   -0.4875    0.3524 C   0  0  1  0  0  0  0  0  0  0  0  0
   -0.5898   -0.7762    1.2552 H   0  0  0  0  0  0  0  0  0  0  0  0
   -0.2608   -0.8470   -0.8656 C   0  0  0  0  0  0  0  0  0  0  0  0
    0.7907   -0.7628   -0.5883 H   0  0  0  0  0  0  0  0  0  0  0  0
   -0.4451   -1.8880   -1.1360 H   0  0  0  0  0  0  0  0  0  0  0  0
   -0.5010    0.0359   -2.0749 C   0  0  0  0  0  0  0  0  0  0  0  0
   -1.4753   -0.3160   -3.0304 C   0  0  0  0  0  0  0  0  0  0  0  0
   -2.0381   -1.2333   -2.9171 H   0  0  0  0  0  0  0  0  0  0  0  0
   -1.7229    0.5279   -4.1306 C   0  0  0  0  0  0  0  0  0  0  0  0
   -2.4686    0.2545   -4.8612 H   0  0  0  0  0  0  0  0  0  0  0  0
   -0.9958    1.7298   -4.2732 C   0  0  0  0  0  0  0  0  0  0  0  0
   -1.2292    2.5519   -5.3291 O   0  0  0  0  0  0  0  0  0  0  0  0
   -1.8423    2.1678   -5.9572 H   0  0  0  0  0  0  0  0  0  0  0  0
   -0.0246    2.0828   -3.3135 C   0  0  0  0  0  0  0  0  0  0  0  0
    0.5278    3.0023   -3.4359 H   0  0  0  0  0  0  0  0  0  0  0  0
    0.2237    1.2350   -2.2174 C   0  0  0  0  0  0  0  0  0  0  0  0
    0.9765    1.5023   -1.4854 H   0  0  0  0  0  0  0  0  0  0  0  0
   -1.4018    1.0238    0.4329 C   0  0  0  0  0  0  0  0  0  0  0  0
   -2.2416    1.5423   -0.3033 O   0  0  0  0  0  0  0  0  0  0  0  0
   -0.6927    1.7304    1.3223 N   0  0  0  0  0  0  0  0  0  0  0  0
    0.0178    1.2410    1.8469 H   0  0  0  0  0  0  0  0  0  0  0  0
   -0.8259    3.1712    1.5254 C   0  0  0  0  0  0  0  0  0  0  0  0
   -1.8769    3.4302    1.6645 H   0  0  0  0  0  0  0  0  0  0  0  0
   -0.2598    3.4806    2.4054 H   0  0  0  0  0  0  0  0  0  0  0  0
   -0.4486    3.7020    0.6489 H   0  0  0  0  0  0  0  0  0  0  0  0
  5  6  2  0  0  0  0
  5  7  1  0  0  0  0
  2  3  1  0  0  0  0
  2  4  1  0  0  0  0
  2  5  1  0  0  0  0
  1  2  1  0  0  0  0
 26 27  2  0  0  0  0
 26 28  1  0  0  0  0
 24 25  1  0  0  0  0
 22 23  1  0  0  0  0
 22 24  2  0  0  0  0
 20 21  1  0  0  0  0
 19 20  1  0  0  0  0
 19 22  1  0  0  0  0
 17 18  1  0  0  0  0
 17 19  2  0  0  0  0
 15 16  1  0  0  0  0
 15 17  1  0  0  0  0
 14 15  2  0  0  0  0
 14 24  1  0  0  0  0
 11 12  1  0  0  0  0
 11 13  1  0  0  0  0
 11 14  1  0  0  0  0
  9 10  1  0  0  0  0
  9 11  1  0  0  0  0
  9 26  1  0  0  0  0
  7  8  1  0  0  0  0
  7  9  1  0  0  0  0
 30 31  1  0  0  0  0
 30 32  1  0  0  0  0
 30 33  1  0  0  0  0
 28 29  1  0  0  0  0
 28 30  1  0  0  0  0
M  END
$$$$
default_name
  -OEChem-02102213163D

 33 33  0     1  0  0  0  0  0999 V2000
   -4.0702   -3.8485    1.4554 H   0  0  0  0  0  0  0  0  0  0  0  0
   -4.0012   -2.9605    0.8284 C   0  0  0  0  0  0  0  0  0  0  0  0
   -4.7652   -2.2435    1.1234 H   0  0  0  0  0  0  0  0  0  0  0  0
   -4.1352   -3.2385   -0.2156 H   0  0  0  0  0  0  0  0  0  0  0  0
   -2.6362   -2.3395    1.0094 C   0  0  0  0  0  0  0  0  0  0  0  0
   -1.8292   -2.8395    1.7814 O   0  0  0  0  0  0  0  0  0  0  0  0
   -2.3832   -1.2445    0.2964 N   0  0  0  0  0  0  0  0  0  0  0  0
   -3.1102   -0.8685   -0.2946 H   0  0  0  0  0  0  0  0  0  0  0  0
   -1.1292   -0.4875    0.3524 C   0  0  1  0  0  0  0  0  0  0  0  0
   -0.5898   -0.7762    1.2552 H   0  0  0  0  0  0  0  0  0  0  0  0
   -0.2608   -0.8470   -0.8656 C   0  0  0  0  0  0  0  0  0  0  0  0
    0.7907   -0.7628   -0.5883 H   0  0  0  0  0  0  0  0  0  0  0  0
   -0.4451   -1.8880   -1.1360 H   0  0  0  0  0  0  0  0  0  0  0  0
   -0.5010    0.0359   -2.0749 C   0  0  0  0  0  0  0  0  0  0  0  0
   -1.6626   -0.1280   -2.8560 C   0  0  0  0  0  0  0  0  0  0  0  0
   -2.3756   -0.9038   -2.6095 H   0  0  0  0  0  0  0  0  0  0  0  0
   -1.9009    0.7211   -3.9542 C   0  0  0  0  0  0  0  0  0  0  0  0
   -2.7907    0.5918   -4.5510 H   0  0  0  0  0  0  0  0  0  0  0  0
   -0.9758    1.7401   -4.2698 C   0  0  0  0  0  0  0  0  0  0  0  0
   -1.1980    2.5660   -5.3250 O   0  0  0  0  0  0  0  0  0  0  0  0
   -1.9662    2.3032   -5.8338 H   0  0  0  0  0  0  0  0  0  0  0  0
    0.1836    1.9058   -3.4841 C   0  0  0  0  0  0  0  0  0  0  0  0
    0.8857    2.6856   -3.7381 H   0  0  0  0  0  0  0  0  0  0  0  0
    0.4213    1.0525   -2.3898 C   0  0  0  0  0  0  0  0  0  0  0  0
    1.3169    1.1745   -1.7923 H   0  0  0  0  0  0  0  0  0  0  0  0
   -1.4018    1.0238    0.4329 C   0  0  0  0  0  0  0  0  0  0  0  0
   -2.2416    1.5423   -0.3033 O   0  0  0  0  0  0  0  0  0  0  0  0
   -0.6927    1.7304    1.3223 N   0  0  0  0  0  0  0  0  0  0  0  0
    0.0178    1.2410    1.8469 H   0  0  0  0  0  0  0  0  0  0  0  0
   -0.8259    3.1712    1.5254 C   0  0  0  0  0  0  0  0  0  0  0  0
   -1.8769    3.4302    1.6645 H   0  0  0  0  0  0  0  0  0  0  0  0
   -0.2598    3.4806    2.4054 H   0  0  0  0  0  0  0  0  0  0  0  0
   -0.4486    3.7020    0.6489 H   0  0  0  0  0  0  0  0  0  0  0  0
  5  6  2  0  0  0  0
  5  7  1  0  0  0  0
  2  3  1  0  0  0  0
  2  4  1  0  0  0  0
  2  5  1  0  0  0  0
  1  2  1  0  0  0  0
 26 27  2  0  0  0  0
 26 28  1  0  0  0  0
 24 25  1  0  0  0  0
 22 23  1  0  0  0  0
 22 24  2  0  0  0  0
 20 21  1  0  0  0  0
 19 20  1  0  0  0  0
 19 22  1  0  0  0  0
 17 18  1  0  0  0  0
 17 19  2  0  0  0  0
 15 16  1  0  0  0  0
 15 17  1  0  0  0  0
 14 15  2  0  0  0  0
 14 24  1  0  0  0  0
 11 12  1  0  0  0  0
 11 13  1  0  0  0  0
 11 14  1  0  0  0  0
  9 10  1  0  0  0  0
  9 11  1  0  0  0  0
  9 26  1  0  0  0  0
  7  8  1  0  0  0  0
  7  9  1  0  0  0  0
 30 31  1  0  0  0  0
 30 32  1  0  0  0  0
 30 33  1  0  0  0  0
 28 29  1  0  0  0  0
 28 30  1  0  0  0  0
M  END
$$$$
default_name
  -OEChem-02102213163D

 33 33  0     1  0  0  0  0  0999 V2000
   -4.0702   -3.8485    1.4554 H   0  0  0  0  0  0  0  0  0  0  0  0
   -4.0012   -2.9605    0.8284 C   0  0  0  0  0  0  0  0  0  0  0  0
   -4.7652   -2.2435    1.1234 H   0  0  0  0  0  0  0  0  0  0  0  0
   -4.1352   -3.2385   -0.2156 H   0  0  0  0  0  0  0  0  0  0  0  0
   -2.6362   -2.3395    1.0094 C   0  0  0  0  0  0  0  0  0  0  0  0
   -1.8292   -2.8395    1.7814 O   0  0  0  0  0  0  0  0  0  0  0  0
   -2.3832   -1.2445    0.2964 N   0  0  0  0  0  0  0  0  0  0  0  0
   -3.1102   -0.8685   -0.2946 H   0  0  0  0  0  0  0  0  0  0  0  0
   -1.1292   -0.4875    0.3524 C   0  0  1  0  0  0  0  0  0  0  0  0
   -0.5898   -0.7762    1.2552 H   0  0  0  0  0  0  0  0  0  0  0  0
   -0.2608   -0.8470   -0.8656 C   0  0  0  0  0  0  0  0  0  0  0  0
    0.7907   -0.7628   -0.5883 H   0  0  0  0  0  0  0  0  0  0  0  0
   -0.4451   -1.8880   -1.1360 H   0  0  0  0  0  0  0  0  0  0  0  0
   -0.5010    0.0359   -2.0749 C   0  0  0  0  0  0  0  0  0  0  0  0
   -1.7784    0.0995   -2.6669 C   0  0  0  0  0  0  0  0  0  0  0  0
   -2.5872   -0.5033   -2.2751 H   0  0  0  0  0  0  0  0  0  0  0  0
   -2.0064    0.9518   -3.7649 C   0  0  0  0  0  0  0  0  0  0  0  0
   -2.9854    0.9967   -4.2167 H   0  0  0  0  0  0  0  0  0  0  0  0
   -0.9538    1.7459   -4.2698 C   0  0  0  0  0  0  0  0  0  0  0  0
   -1.1643    2.5732   -5.3264 O   0  0  0  0  0  0  0  0  0  0  0  0
   -2.0392    2.4645   -5.7014 H   0  0  0  0  0  0  0  0  0  0  0  0
    0.3225    1.6847   -3.6731 C   0  0  0  0  0  0  0  0  0  0  0  0
    1.1204    2.2935   -4.0710 H   0  0  0  0  0  0  0  0  0  0  0  0
    0.5485    0.8284   -2.5787 C   0  0  0  0  0  0  0  0  0  0  0  0
    1.5317    0.7751   -2.1266 H   0  0  0  0  0  0  0  0  0  0  0  0
   -1.4018    1.0238    0.4329 C   0  0  0  0  0  0  0  0  0  0  0  0
   -2.2416    1.5423   -0.3033 O   0  0  0  0  0  0  0  0  0  0  0  0
   -0.6927    1.7304    1.3223 N   0  0  0  0  0  0  0  0  0  0  0  0
    0.0178    1.2410    1.8469 H   0  0  0  0  0  0  0  0  0  0  0  0
   -0.8259    3.1712    1.5254 C   0  0  0  0  0  0  0  0  0  0  0  0
   -1.8769    3.4302    1.6645 H   0  0  0  0  0  0  0  0  0  0  0  0
   -0.2598    3.4806    2.4054 H   0  0  0  0  0  0  0  0  0  0  0  0
   -0.4486    3.7020    0.6489 H   0  0  0  0  0  0  0  0  0  0  0  0
  5  6  2  0  0  0  0
  5  7  1  0  0  0  0
  2  3  1  0  0  0  0
  2  4  1  0  0  0  0
  2  5  1  0  0  0  0
  1  2  1  0  0  0  0
 26 27  2  0  0  0  0
 26 28  1  0  0  0  0
 24 25  1  0  0  0  0
 22 23  1  0  0  0  0
 22 24  2  0  0  0  0
 20 21  1  0  0  0  0
 19 20  1  0  0  0  0
 19 22  1  0  0  0  0
 17 18  1  0  0  0  0
 17 19  2  0  0  0  0
 15 16  1  0  0  0  0
 15 17  1  0  0  0  0
 14 15  2  0  0  0  0
 14 24  1  0  0  0  0
 11 12  1  0  0  0  0
 11 13  1  0  0  0  0
 11 14  1  0  0  0  0
  9 10  1  0  0  0  0
  9 11  1  0  0  0  0
  9 26  1  0  0  0  0
  7  8  1  0  0  0  0
  7  9  1  0  0  0  0
 30 31  1  0  0  0  0
 30 32  1  0  0  0  0
 30 33  1  0  0  0  0
 28 29  1  0  0  0  0
 28 30  1  0  0  0  0
M  END
$$$$
default_name
  -OEChem-02102213163D

 33 33  0     1  0  0  0  0  0999 V2000
   -4.0702   -3.8485    1.4554 H   0  0  0  0  0  0  0  0  0  0  0  0
   -4.0012   -2.9605    0.8284 C   0  0  0  0  0  0  0  0  0  0  0  0
   -4.7652   -2.2435    1.1234 H   0  0  0  0  0  0  0  0  0  0  0  0
   -4.1352   -3.2385   -0.2156 H   0  0  0  0  0  0  0  0  0  0  0  0
   -2.6362   -2.3395    1.0094 C   0  0  0  0  0  0  0  0  0  0  0  0
   -1.8292   -2.8395    1.7814 O   0  0  0  0  0  0  0  0  0  0  0  0
   -2.3832   -1.2445    0.2964 N   0  0  0  0  0  0  0  0  0  0  0  0
   -3.1102   -0.8685   -0.2946 H   0  0  0  0  0  0  0  0  0  0  0  0
   -1.1292   -0.4875    0.3524 C   0  0  1  0  0  0  0  0  0  0  0  0
   -0.5898   -0.7762    1.2552 H   0  0  0  0  0  0  0  0  0  0  0  0
   -0.2608   -0.8470   -0.8656 C   0  0  0  0  0  0  0  0  0  0  0  0
    0.7907   -0.7628   -0.5883 H   0  0  0  0  0  0  0  0  0  0  0  0
   -0.4451   -1.8880   -1.1360 H   0  0  0  0  0  0  0  0  0  0  0  0
   -0.5010    0.0359   -2.0749 C   0  0  0  0  0  0  0  0  0  0  0  0
   -1.8148    0.3508   -2.4762 C   0  0  0  0  0  0  0  0  0  0  0  0
   -2.6585   -0.0590   -1.9366 H   0  0  0  0  0  0  0  0  0  0  0  0
   -2.0322    1.2040   -3.5756 C   0  0  0  0  0  0  0  0  0  0  0  0
   -3.0395    1.4418   -3.8810 H   0  0  0  0  0  0  0  0  0  0  0  0
   -0.9314    1.7471   -4.2734 C   0  0  0  0  0  0  0  0  0  0  0  0
   -1.1305    2.5733   -5.3331 O   0  0  0  0  0  0  0  0  0  0  0  0
   -2.0566    2.6409   -5.5692 H   0  0  0  0  0  0  0  0  0  0  0  0
    0.3826    1.4348   -3.8675 C   0  0  0  0  0  0  0  0  0  0  0  0
    1.2160    1.8527   -4.4118 H   0  0  0  0  0  0  0  0  0  0  0  0
    0.5966    0.5780   -2.7711 C   0  0  0  0  0  0  0  0  0  0  0  0
    1.6064    0.3312   -2.4655 H   0  0  0  0  0  0  0  0  0  0  0  0
   -1.4018    1.0238    0.4329 C   0  0  0  0  0  0  0  0  0  0  0  0
   -2.2416    1.5423   -0.3033 O   0  0  0  0  0  0  0  0  0  0  0  0
   -0.6927    1.7304    1.3223 N   0  0  0  0  0  0  0  0  0  0  0  0
    0.0178    1.2410    1.8469 H   0  0  0  0  0  0  0  0  0  0  0  0
   -0.8259    3.1712    1.5254 C   0  0  0  0  0  0  0  0  0  0  0  0
   -1.8769    3.4302    1.6645 H   0  0  0  0  0  0  0  0  0  0  0  0
   -0.2598    3.4806    2.4054 H   0  0  0  0  0  0  0  0  0  0  0  0
   -0.4486    3.7020    0.6489 H   0  0  0  0  0  0  0  0  0  0  0  0
  5  6  2  0  0  0  0
  5  7  1  0  0  0  0
  2  3  1  0  0  0  0
  2  4  1  0  0  0  0
  2  5  1  0  0  0  0
  1  2  1  0  0  0  0
 26 27  2  0  0  0  0
 26 28  1  0  0  0  0
 24 25  1  0  0  0  0
 22 23  1  0  0  0  0
 22 24  2  0  0  0  0
 20 21  1  0  0  0  0
 19 20  1  0  0  0  0
 19 22  1  0  0  0  0
 17 18  1  0  0  0  0
 17 19  2  0  0  0  0
 15 16  1  0  0  0  0
 15 17  1  0  0  0  0
 14 15  2  0  0  0  0
 14 24  1  0  0  0  0
 11 12  1  0  0  0  0
 11 13  1  0  0  0  0
 11 14  1  0  0  0  0
  9 10  1  0  0  0  0
  9 11  1  0  0  0  0
  9 26  1  0  0  0  0
  7  8  1  0  0  0  0
  7  9  1  0  0  0  0
 30 31  1  0  0  0  0
 30 32  1  0  0  0  0
 30 33  1  0  0  0  0
 28 29  1  0  0  0  0
 28 30  1  0  0  0  0
M  END
$$$$
default_name
  -OEChem-02102213163D

 33 33  0     1  0  0  0  0  0999 V2000
   -4.0702   -3.8485    1.4554 H   0  0  0  0  0  0  0  0  0  0  0  0
   -4.0012   -2.9605    0.8284 C   0  0  0  0  0  0  0  0  0  0  0  0
   -4.7652   -2.2435    1.1234 H   0  0  0  0  0  0  0  0  0  0  0  0
   -4.1352   -3.2385   -0.2156 H   0  0  0  0  0  0  0  0  0  0  0  0
   -2.6362   -2.3395    1.0094 C   0  0  0  0  0  0  0  0  0  0  0  0
   -1.8292   -2.8395    1.7814 O   0  0  0  0  0  0  0  0  0  0  0  0
   -2.3832   -1.2445    0.2964 N   0  0  0  0  0  0  0  0  0  0  0  0
   -3.1102   -0.8685   -0.2946 H   0  0  0  0  0  0  0  0  0  0  0  0
   -1.1292   -0.4875    0.3524 C   0  0  1  0  0  0  0  0  0  0  0  0
   -0.5898   -0.7762    1.2552 H   0  0  0  0  0  0  0  0  0  0  0  0
   -0.2608   -0.8470   -0.8656 C   0  0  0  0  0  0  0  0  0  0  0  0
    0.7907   -0.7628   -0.5883 H   0  0  0  0  0  0  0  0  0  0  0  0
   -0.4451   -1.8880   -1.1360 H   0  0  0  0  0  0  0  0  0  0  0  0
   -0.5010    0.0359   -2.0749 C   0  0  0  0  0  0  0  0  0  0  0  0
   -1.7693    0.6089   -2.2968 C   0  0  0  0  0  0  0  0  0  0  0  0
   -2.5847    0.3987   -1.6171 H   0  0  0  0  0  0  0  0  0  0  0  0
   -1.9765    1.4608   -3.3992 C   0  0  0  0  0  0  0  0  0  0  0  0
   -2.9494    1.8966   -3.5669 H   0  0  0  0  0  0  0  0  0  0  0  0
   -0.9101    1.7434   -4.2804 C   0  0  0  0  0  0  0  0  0  0  0  0
   -1.0989    2.5660   -5.3447 O   0  0  0  0  0  0  0  0  0  0  0  0
   -2.0170    2.8203   -5.4461 H   0  0  0  0  0  0  0  0  0  0  0  0
    0.3597    1.1731   -4.0540 C   0  0  0  0  0  0  0  0  0  0  0  0
    1.1661    1.3932   -4.7374 H   0  0  0  0  0  0  0  0  0  0  0  0
    0.5624    0.3183   -2.9539 C   0  0  0  0  0  0  0  0  0  0  0  0
    1.5359   -0.1269   -2.7859 H   0  0  0  0  0  0  0  0  0  0  0  0
   -1.4018    1.0238    0.4329 C   0  0  0  0  0  0  0  0  0  0  0  0
   -2.2416    1.5423   -0.3033 O   0  0  0  0  0  0  0  0  0  0  0  0
   -0.6927    1.7304    1.3223 N   0  0  0  0  0  0  0  0  0  0  0  0
    0.0178    1.2410    1.8469 H   0  0  0  0  0  0  0  0  0  0  0  0
   -0.8259    3.1712    1.5254 C   0  0  0  0  0  0  0  0  0  0  0  0
   -1.8769    3.4302    1.6645 H   0  0  0  0  0  0  0  0  0  0  0  0
   -0.2598    3.4806    2.4054 H   0  0  0  0  0  0  0  0  0  0  0  0
   -0.4486    3.7020    0.6489 H   0  0  0  0  0  0  0  0  0  0  0  0
  5  6  2  0  0  0  0
  5  7  1  0  0  0  0
  2  3  1  0  0  0  0
  2  4  1  0  0  0  0
  2  5  1  0  0  0  0
  1  2  1  0  0  0  0
 26 27  2  0  0  0  0
 26 28  1  0  0  0  0
 24 25  1  0  0  0  0
 22 23  1  0  0  0  0
 22 24  2  0  0  0  0
 20 21  1  0  0  0  0
 19 20  1  0  0  0  0
 19 22  1  0  0  0  0
 17 18  1  0  0  0  0
 17 19  2  0  0  0  0
 15 16  1  0  0  0  0
 15 17  1  0  0  0  0
 14 15  2  0  0  0  0
 14 24  1  0  0  0  0
 11 12  1  0  0  0  0
 11 13  1  0  0  0  0
 11 14  1  0  0  0  0
  9 10  1  0  0  0  0
  9 11  1  0  0  0  0
  9 26  1  0  0  0  0
  7  8  1  0  0  0  0
  7  9  1  0  0  0  0
 30 31  1  0  0  0  0
 30 32  1  0  0  0  0
 30 33  1  0  0  0  0
 28 29  1  0  0  0  0
 28 30  1  0  0  0  0
M  END
$$$$
default_name
  -OEChem-02102213163D

 33 33  0     1  0  0  0  0  0999 V2000
   -4.0702   -3.8485    1.4554 H   0  0  0  0  0  0  0  0  0  0  0  0
   -4.0012   -2.9605    0.8284 C   0  0  0  0  0  0  0  0  0  0  0  0
   -4.7652   -2.2435    1.1234 H   0  0  0  0  0  0  0  0  0  0  0  0
   -4.1352   -3.2385   -0.2156 H   0  0  0  0  0  0  0  0  0  0  0  0
   -2.6362   -2.3395    1.0094 C   0  0  0  0  0  0  0  0  0  0  0  0
   -1.8292   -2.8395    1.7814 O   0  0  0  0  0  0  0  0  0  0  0  0
   -2.3832   -1.2445    0.2964 N   0  0  0  0  0  0  0  0  0  0  0  0
   -3.1102   -0.8685   -0.2946 H   0  0  0  0  0  0  0  0  0  0  0  0
   -1.1292   -0.4875    0.3524 C   0  0  1  0  0  0  0  0  0  0  0  0
   -0.5898   -0.7762    1.2552 H   0  0  0  0  0  0  0  0  0  0  0  0
   -0.2608   -0.8470   -0.8656 C   0  0  0  0  0  0  0  0  0  0  0  0
    0.7907   -0.7628   -0.5883 H   0  0  0  0  0  0  0  0  0  0  0  0
   -0.4451   -1.8880   -1.1360 H   0  0  0  0  0  0  0  0  0  0  0  0
   -0.5010    0.0359   -2.0749 C   0  0  0  0  0  0  0  0  0  0  0  0
   -1.6451    0.8562   -2.1409 C   0  0  0  0  0  0  0  0  0  0  0  0
   -2.3708    0.8386   -1.3383 H   0  0  0  0  0  0  0  0  0  0  0  0
   -1.8431    1.7046   -3.2477 C   0  0  0  0  0  0  0  0  0  0  0  0
   -2.7211    2.3302   -3.2957 H   0  0  0  0  0  0  0  0  0  0  0  0
   -0.8913    1.7352   -4.2901 C   0  0  0  0  0  0  0  0  0  0  0  0
   -1.0715    2.5520   -5.3603 O   0  0  0  0  0  0  0  0  0  0  0  0
   -1.9232    2.9904   -5.3406 H   0  0  0  0  0  0  0  0  0  0  0  0
    0.2555    0.9173   -4.2201 C   0  0  0  0  0  0  0  0  0  0  0  0
    0.9739    0.9463   -5.0255 H   0  0  0  0  0  0  0  0  0  0  0  0
    0.4483    0.0670   -3.1147 C   0  0  0  0  0  0  0  0  0  0  0  0
    1.3249   -0.5679   -3.0660 H   0  0  0  0  0  0  0  0  0  0  0  0
   -1.4018    1.0238    0.4329 C   0  0  0  0  0  0  0  0  0  0  0  0
   -2.2416    1.5423   -0.3033 O   0  0  0  0  0  0  0  0  0  0  0  0
   -0.6927    1.7304    1.3223 N   0  0  0  0  0  0  0  0  0  0  0  0
    0.0178    1.2410    1.8469 H   0  0  0  0  0  0  0  0  0  0  0  0
   -0.8259    3.1712    1.5254 C   0  0  0  0  0  0  0  0  0  0  0  0
   -1.8769    3.4302    1.6645 H   0  0  0  0  0  0  0  0  0  0  0  0
   -0.2598    3.4806    2.4054 H   0  0  0  0  0  0  0  0  0  0  0  0
   -0.4486    3.7020    0.6489 H   0  0  0  0  0  0  0  0  0  0  0  0
  5  6  2  0  0  0  0
  5  7  1  0  0  0  0
  2  3  1  0  0  0  0
  2  4  1  0  0  0  0
  2  5  1  0  0  0  0
  1  2  1  0  0  0  0
 26 27  2  0  0  0  0
 26 28  1  0  0  0  0
 24 25  1  0  0  0  0
 22 23  1  0  0  0  0
 22 24  2  0  0  0  0
 20 21  1  0  0  0  0
 19 20  1  0  0  0  0
 19 22  1  0  0  0  0
 17 18  1  0  0  0  0
 17 19  2  0  0  0  0
 15 16  1  0  0  0  0
 15 17  1  0  0  0  0
 14 15  2  0  0  0  0
 14 24  1  0  0  0  0
 11 12  1  0  0  0  0
 11 13  1  0  0  0  0
 11 14  1  0  0  0  0
  9 10  1  0  0  0  0
  9 11  1  0  0  0  0
  9 26  1  0  0  0  0
  7  8  1  0  0  0  0
  7  9  1  0  0  0  0
 30 31  1  0  0  0  0
 30 32  1  0  0  0  0
 30 33  1  0  0  0  0
 28 29  1  0  0  0  0
 28 30  1  0  0  0  0
M  END
$$$$
default_name
  -OEChem-02102213163D

 33 33  0     1  0  0  0  0  0999 V2000
   -4.0702   -3.8485    1.4554 H   0  0  0  0  0  0  0  0  0  0  0  0
   -4.0012   -2.9605    0.8284 C   0  0  0  0  0  0  0  0  0  0  0  0
   -4.7652   -2.2435    1.1234 H   0  0  0  0  0  0  0  0  0  0  0  0
   -4.1352   -3.2385   -0.2156 H   0  0  0  0  0  0  0  0  0  0  0  0
   -2.6362   -2.3395    1.0094 C   0  0  0  0  0  0  0  0  0  0  0  0
   -1.8292   -2.8395    1.7814 O   0  0  0  0  0  0  0  0  0  0  0  0
   -2.3832   -1.2445    0.2964 N   0  0  0  0  0  0  0  0  0  0  0  0
   -3.1102   -0.8685   -0.2946 H   0  0  0  0  0  0  0  0  0  0  0  0
   -1.1292   -0.4875    0.3524 C   0  0  1  0  0  0  0  0  0  0  0  0
   -0.5898   -0.7762    1.2552 H   0  0  0  0  0  0  0  0  0  0  0  0
   -0.2608   -0.8470   -0.8656 C   0  0  0  0  0  0  0  0  0  0  0  0
    0.7907   -0.7628   -0.5883 H   0  0  0  0  0  0  0  0  0  0  0  0
   -0.4451   -1.8880   -1.1360 H   0  0  0  0  0  0  0  0  0  0  0  0
   -0.5010    0.0359   -2.0749 C   0  0  0  0  0  0  0  0  0  0  0  0
   -1.4506    1.0758   -2.0192 C   0  0  0  0  0  0  0  0  0  0  0  0
   -2.0313    1.2309   -1.1193 H   0  0  0  0  0  0  0  0  0  0  0  0
   -1.6411    1.9187   -3.1315 C   0  0  0  0  0  0  0  0  0  0  0  0
   -2.3703    2.7130   -3.0858 H   0  0  0  0  0  0  0  0  0  0  0  0
   -0.8762    1.7229   -4.3020 C   0  0  0  0  0  0  0  0  0  0  0  0
   -1.0504    2.5322   -5.3790 O   0  0  0  0  0  0  0  0  0  0  0  0
   -1.7816    3.1397   -5.2597 H   0  0  0  0  0  0  0  0  0  0  0  0
    0.0771    0.6849   -4.3543 C   0  0  0  0  0  0  0  0  0  0  0  0
    0.6526    0.5425   -5.2565 H   0  0  0  0  0  0  0  0  0  0  0  0
    0.2619   -0.1588   -3.2425 C   0  0  0  0  0  0  0  0  0  0  0  0
    0.9879   -0.9618   -3.2867 H   0  0  0  0  0  0  0  0  0  0  0  0
   -1.4018    1.0238    0.4329 C   0  0  0  0  0  0  0  0  0  0  0  0
   -2.2416    1.5423   -0.3033 O   0  0  0  0  0  0  0  0  0  0  0  0
   -0.6927    1.7304    1.3223 N   0  0  0  0  0  0  0  0  0  0  0  0
    0.0178    1.2410    1.8469 H   0  0  0  0  0  0  0  0  0  0  0  0
   -0.8259    3.1712    1.5254 C   0  0  0  0  0  0  0  0  0  0  0  0
   -1.8769    3.4302    1.6645 H   0  0  0  0  0  0  0  0  0  0  0  0
   -0.2598    3.4806    2.4054 H   0  0  0  0  0  0  0  0  0  0  0  0
   -0.4486    3.7020    0.6489 H   0  0  0  0  0  0  0  0  0  0  0  0
  5  6  2  0  0  0  0
  5  7  1  0  0  0  0
  2  3  1  0  0  0  0
  2  4  1  0  0  0  0
  2  5  1  0  0  0  0
  1  2  1  0  0  0  0
 26 27  2  0  0  0  0
 26 28  1  0  0  0  0
 24 25  1  0  0  0  0
 22 23  1  0  0  0  0
 22 24  2  0  0  0  0
 20 21  1  0  0  0  0
 19 20  1  0  0  0  0
 19 22  1  0  0  0  0
 17 18  1  0  0  0  0
 17 19  2  0  0  0  0
 15 16  1  0  0  0  0
 15 17  1  0  0  0  0
 14 15  2  0  0  0  0
 14 24  1  0  0  0  0
 11 12  1  0  0  0  0
 11 13  1  0  0  0  0
 11 14  1  0  0  0  0
  9 10  1  0  0  0  0
  9 11  1  0  0  0  0
  9 26  1  0  0  0  0
  7  8  1  0  0  0  0
  7  9  1  0  0  0  0
 30 31  1  0  0  0  0
 30 32  1  0  0  0  0
 30 33  1  0  0  0  0
 28 29  1  0  0  0  0
 28 30  1  0  0  0  0
M  END
$$$$
default_name
  -OEChem-02102213163D

 33 33  0     1  0  0  0  0  0999 V2000
   -4.0702   -3.8485    1.4554 H   0  0  0  0  0  0  0  0  0  0  0  0
   -4.0012   -2.9605    0.8284 C   0  0  0  0  0  0  0  0  0  0  0  0
   -4.7652   -2.2435    1.1234 H   0  0  0  0  0  0  0  0  0  0  0  0
   -4.1352   -3.2385   -0.2156 H   0  0  0  0  0  0  0  0  0  0  0  0
   -2.6362   -2.3395    1.0094 C   0  0  0  0  0  0  0  0  0  0  0  0
   -1.8292   -2.8395    1.7814 O   0  0  0  0  0  0  0  0  0  0  0  0
   -2.3832   -1.2445    0.2964 N   0  0  0  0  0  0  0  0  0  0  0  0
   -3.1102   -0.8685   -0.2946 H   0  0  0  0  0  0  0  0  0  0  0  0
   -1.1292   -0.4875    0.3524 C   0  0  1  0  0  0  0  0  0  0  0  0
   -0.5898   -0.7762    1.2552 H   0  0  0  0  0  0  0  0  0  0  0  0
   -0.2608   -0.8470   -0.8656 C   0  0  0  0  0  0  0  0  0  0  0  0
    0.7907   -0.7628   -0.5883 H   0  0  0  0  0  0  0  0  0  0  0  0
   -0.4451   -1.8880   -1.1360 H   0  0  0  0  0  0  0  0  0  0  0  0
   -0.5010    0.0359   -2.0749 C   0  0  0  0  0  0  0  0  0  0  0  0
   -1.1991    1.2528   -1.9400 C   0  0  0  0  0  0  0  0  0  0  0  0
   -1.5895    1.5487   -0.9751 H   0  0  0  0  0  0  0  0  0  0  0  0
   -1.3843    2.0886   -3.0584 C   0  0  0  0  0  0  0  0  0  0  0  0
   -1.9207    3.0189   -2.9517 H   0  0  0  0  0  0  0  0  0  0  0  0
   -0.8661    1.7075   -4.3153 C   0  0  0  0  0  0  0  0  0  0  0  0
   -1.0368    2.5080   -5.3994 O   0  0  0  0  0  0  0  0  0  0  0  0
   -1.6018    3.2580   -5.2090 H   0  0  0  0  0  0  0  0  0  0  0  0
   -0.1635    0.4918   -4.4475 C   0  0  0  0  0  0  0  0  0  0  0  0
    0.2242    0.2093   -5.4147 H   0  0  0  0  0  0  0  0  0  0  0  0
    0.0160   -0.3436   -3.3286 C   0  0  0  0  0  0  0  0  0  0  0  0
    0.5478   -1.2818   -3.4329 H   0  0  0  0  0  0  0  0  0  0  0  0
   -1.4018    1.0238    0.4329 C   0  0  0  0  0  0  0  0  0  0  0  0
   -2.2416    1.5423   -0.3033 O   0  0  0  0  0  0  0  0  0  0  0  0
   -0.6927    1.7304    1.3223 N   0  0  0  0  0  0  0  0  0  0  0  0
    0.0178    1.2410    1.8469 H   0  0  0  0  0  0  0  0  0  0  0  0
   -0.8259    3.1712    1.5254 C   0  0  0  0  0  0  0  0  0  0  0  0
   -1.8769    3.4302    1.6645 H   0  0  0  0  0  0  0  0  0  0  0  0
   -0.2598    3.4806    2.4054 H   0  0  0  0  0  0  0  0  0  0  0  0
   -0.4486    3.7020    0.6489 H   0  0  0  0  0  0  0  0  0  0  0  0
  5  6  2  0  0  0  0
  5  7  1  0  0  0  0
  2  3  1  0  0  0  0
  2  4  1  0  0  0  0
  2  5  1  0  0  0  0
  1  2  1  0  0  0  0
 26 27  2  0  0  0  0
 26 28  1  0  0  0  0
 24 25  1  0  0  0  0
 22 23  1  0  0  0  0
 22 24  2  0  0  0  0
 20 21  1  0  0  0  0
 19 20  1  0  0  0  0
 19 22  1  0  0  0  0
 17 18  1  0  0  0  0
 17 19  2  0  0  0  0
 15 16  1  0  0  0  0
 15 17  1  0  0  0  0
 14 15  2  0  0  0  0
 14 24  1  0  0  0  0
 11 12  1  0  0  0  0
 11 13  1  0  0  0  0
 11 14  1  0  0  0  0
  9 10  1  0  0  0  0
  9 11  1  0  0  0  0
  9 26  1  0  0  0  0
  7  8  1  0  0  0  0
  7  9  1  0  0  0  0
 30 31  1  0  0  0  0
 30 32  1  0  0  0  0
 30 33  1  0  0  0  0
 28 29  1  0  0  0  0
 28 30  1  0  0  0  0
M  END
$$$$
default_name
  -OEChem-02102213163D

 33 33  0     1  0  0  0  0  0999 V2000
   -4.0702   -3.8485    1.4554 H   0  0  0  0  0  0  0  0  0  0  0  0
   -4.0012   -2.9605    0.8284 C   0  0  0  0  0  0  0  0  0  0  0  0
   -4.7652   -2.2435    1.1234 H   0  0  0  0  0  0  0  0  0  0  0  0
   -4.1352   -3.2385   -0.2156 H   0  0  0  0  0  0  0  0  0  0  0  0
   -2.6362   -2.3395    1.0094 C   0  0  0  0  0  0  0  0  0  0  0  0
   -1.8292   -2.8395    1.7814 O   0  0  0  0  0  0  0  0  0  0  0  0
   -2.3832   -1.2445    0.2964 N   0  0  0  0  0  0  0  0  0  0  0  0
   -3.1102   -0.8685   -0.2946 H   0  0  0  0  0  0  0  0  0  0  0  0
   -1.1292   -0.4875    0.3524 C   0  0  1  0  0  0  0  0  0  0  0  0
   -0.5898   -0.7762    1.2552 H   0  0  0  0  0  0  0  0  0  0  0  0
   -0.2608   -0.8470   -0.8656 C   0  0  0  0  0  0  0  0  0  0  0  0
    0.7907   -0.7628   -0.5883 H   0  0  0  0  0  0  0  0  0  0  0  0
   -0.4451   -1.8880   -1.1360 H   0  0  0  0  0  0  0  0  0  0  0  0
   -0.5010    0.0359   -2.0749 C   0  0  0  0  0  0  0  0  0  0  0  0
   -0.9076    1.3750   -1.9086 C   0  0  0  0  0  0  0  0  0  0  0  0
   -1.0754    1.7704   -0.9153 H   0  0  0  0  0  0  0  0  0  0  0  0
   -1.0902    2.2027   -3.0335 C   0  0  0  0  0  0  0  0  0  0  0  0
   -1.4031    3.2272   -2.9025 H   0  0  0  0  0  0  0  0  0  0  0  0
   -0.8614    1.6900   -4.3290 C   0  0  0  0  0  0  0  0  0  0  0  0
   -1.0318    2.4809   -5.4201 O   0  0  0  0  0  0  0  0  0  0  0  0
   -1.3961    3.3372   -5.1920 H   0  0  0  0  0  0  0  0  0  0  0  0
   -0.4498    0.3511   -4.4933 C   0  0  0  0  0  0  0  0  0  0  0  0
   -0.2823   -0.0306   -5.4892 H   0  0  0  0  0  0  0  0  0  0  0  0
   -0.2726   -0.4749   -3.3672 C   0  0  0  0  0  0  0  0  0  0  0  0
    0.0347   -1.5061   -3.4948 H   0  0  0  0  0  0  0  0  0  0  0  0
   -1.4018    1.0238    0.4329 C   0  0  0  0  0  0  0  0  0  0  0  0
   -2.2416    1.5423   -0.3033 O   0  0  0  0  0  0  0  0  0  0  0  0
   -0.6927    1.7304    1.3223 N   0  0  0  0  0  0  0  0  0  0  0  0
    0.0178    1.2410    1.8469 H   0  0  0  0  0  0  0  0  0  0  0  0
   -0.8259    3.1712    1.5254 C   0  0  0  0  0  0  0  0  0  0  0  0
   -1.8769    3.4302    1.6645 H   0  0  0  0  0  0  0  0  0  0  0  0
   -0.2598    3.4806    2.4054 H   0  0  0  0  0  0  0  0  0  0  0  0
   -0.4486    3.7020    0.6489 H   0  0  0  0  0  0  0  0  0  0  0  0
  5  6  2  0  0  0  0
  5  7  1  0  0  0  0
  2  3  1  0  0  0  0
  2  4  1  0  0  0  0
  2  5  1  0  0  0  0
  1  2  1  0  0  0  0
 26 27  2  0  0  0  0
 26 28  1  0  0  0  0
 24 25  1  0  0  0  0
 22 23  1  0  0  0  0
 22 24  2  0  0  0  0
 20 21  1  0  0  0  0
 19 20  1  0  0  0  0
 19 22  1  0  0  0  0
 17 18  1  0  0  0  0
 17 19  2  0  0  0  0
 15 16  1  0  0  0  0
 15 17  1  0  0  0  0
 14 15  2  0  0  0  0
 14 24  1  0  0  0  0
 11 12  1  0  0  0  0
 11 13  1  0  0  0  0
 11 14  1  0  0  0  0
  9 10  1  0  0  0  0
  9 11  1  0  0  0  0
  9 26  1  0  0  0  0
  7  8  1  0  0  0  0
  7  9  1  0  0  0  0
 30 31  1  0  0  0  0
 30 32  1  0  0  0  0
 30 33  1  0  0  0  0
 28 29  1  0  0  0  0
 28 30  1  0  0  0  0
M  END
$$$$
default_name
  -OEChem-02102213163D

 33 33  0     1  0  0  0  0  0999 V2000
   -4.0702   -3.8485    1.4554 H   0  0  0  0  0  0  0  0  0  0  0  0
   -4.0012   -2.9605    0.8284 C   0  0  0  0  0  0  0  0  0  0  0  0
   -4.7652   -2.2435    1.1234 H   0  0  0  0  0  0  0  0  0  0  0  0
   -4.1352   -3.2385   -0.2156 H   0  0  0  0  0  0  0  0  0  0  0  0
   -2.6362   -2.3395    1.0094 C   0  0  0  0  0  0  0  0  0  0  0  0
   -1.8292   -2.8395    1.7814 O   0  0  0  0  0  0  0  0  0  0  0  0
   -2.3832   -1.2445    0.2964 N   0  0  0  0  0  0  0  0  0  0  0  0
   -3.1102   -0.8685   -0.2946 H   0  0  0  0  0  0  0  0  0  0  0  0
   -1.1292   -0.4875    0.3524 C   0  0  1  0  0  0  0  0  0  0  0  0
   -0.5898   -0.7762    1.2552 H   0  0  0  0  0  0  0  0  0  0  0  0
   -0.2608   -0.8470   -0.8656 C   0  0  0  0  0  0  0  0  0  0  0  0
    0.7907   -0.7628   -0.5883 H   0  0  0  0  0  0  0  0  0  0  0  0
   -0.4451   -1.8880   -1.1360 H   0  0  0  0  0  0  0  0  0  0  0  0
   -0.5010    0.0359   -2.0749 C   0  0  0  0  0  0  0  0  0  0  0  0
   -0.5962    1.4343   -1.9272 C   0  0  0  0  0  0  0  0  0  0  0  0
   -0.5241    1.8809   -0.9441 H   0  0  0  0  0  0  0  0  0  0  0  0
   -0.7788    2.2533   -3.0584 C   0  0  0  0  0  0  0  0  0  0  0  0
   -0.8528    3.3235   -2.9414 H   0  0  0  0  0  0  0  0  0  0  0  0
   -0.8626    1.6715   -4.3423 C   0  0  0  0  0  0  0  0  0  0  0  0
   -1.0357    2.4529   -5.4398 O   0  0  0  0  0  0  0  0  0  0  0  0
   -1.1785    3.3720   -5.2098 H   0  0  0  0  0  0  0  0  0  0  0  0
   -0.7623    0.2725   -4.4887 C   0  0  0  0  0  0  0  0  0  0  0  0
   -0.8323   -0.1608   -5.4751 H   0  0  0  0  0  0  0  0  0  0  0  0
   -0.5844   -0.5438   -3.3556 C   0  0  0  0  0  0  0  0  0  0  0  0
   -0.5166   -1.6193   -3.4680 H   0  0  0  0  0  0  0  0  0  0  0  0
   -1.4018    1.0238    0.4329 C   0  0  0  0  0  0  0  0  0  0  0  0
   -2.2416    1.5423   -0.3033 O   0  0  0  0  0  0  0  0  0  0  0  0
   -0.6927    1.7304    1.3223 N   0  0  0  0  0  0  0  0  0  0  0  0
    0.0178    1.2410    1.8469 H   0  0  0  0  0  0  0  0  0  0  0  0
   -0.8259    3.1712    1.5254 C   0  0  0  0  0  0  0  0  0  0  0  0
   -1.8769    3.4302    1.6645 H   0  0  0  0  0  0  0  0  0  0  0  0
   -0.2598    3.4806    2.4054 H   0  0  0  0  0  0  0  0  0  0  0  0
   -0.4486    3.7020    0.6489 H   0  0  0  0  0  0  0  0  0  0  0  0
  5  6  2  0  0  0  0
  5  7  1  0  0  0  0
  2  3  1  0  0  0  0
  2  4  1  0  0  0  0
  2  5  1  0  0  0  0
  1  2  1  0  0  0  0
 26 27  2  0  0  0  0
 26 28  1  0  0  0  0
 24 25  1  0  0  0  0
 22 23  1  0  0  0  0
 22 24  2  0  0  0  0
 20 21  1  0  0  0  0
 19 20  1  0  0  0  0
 19 22  1  0  0  0  0
 17 18  1  0  0  0  0
 17 19  2  0  0  0  0
 15 16  1  0  0  0  0
 15 17  1  0  0  0  0
 14 15  2  0  0  0  0
 14 24  1  0  0  0  0
 11 12  1  0  0  0  0
 11 13  1  0  0  0  0
 11 14  1  0  0  0  0
  9 10  1  0  0  0  0
  9 11  1  0  0  0  0
  9 26  1  0  0  0  0
  7  8  1  0  0  0  0
  7  9  1  0  0  0  0
 30 31  1  0  0  0  0
 30 32  1  0  0  0  0
 30 33  1  0  0  0  0
 28 29  1  0  0  0  0
 28 30  1  0  0  0  0
M  END
$$$$
default_name
  -OEChem-02102213163D

 33 33  0     1  0  0  0  0  0999 V2000
   -4.0702   -3.8485    1.4554 H   0  0  0  0  0  0  0  0  0  0  0  0
   -4.0012   -2.9605    0.8284 C   0  0  0  0  0  0  0  0  0  0  0  0
   -4.7652   -2.2435    1.1234 H   0  0  0  0  0  0  0  0  0  0  0  0
   -4.1352   -3.2385   -0.2156 H   0  0  0  0  0  0  0  0  0  0  0  0
   -2.6362   -2.3395    1.0094 C   0  0  0  0  0  0  0  0  0  0  0  0
   -1.8292   -2.8395    1.7814 O   0  0  0  0  0  0  0  0  0  0  0  0
   -2.3832   -1.2445    0.2964 N   0  0  0  0  0  0  0  0  0  0  0  0
   -3.1102   -0.8685   -0.2946 H   0  0  0  0  0  0  0  0  0  0  0  0
   -1.1292   -0.4875    0.3524 C   0  0  1  0  0  0  0  0  0  0  0  0
   -0.5898   -0.7762    1.2552 H   0  0  0  0  0  0  0  0  0  0  0  0
   -0.2608   -0.8470   -0.8656 C   0  0  0  0  0  0  0  0  0  0  0  0
    0.7907   -0.7628   -0.5883 H   0  0  0  0  0  0  0  0  0  0  0  0
   -0.4451   -1.8880   -1.1360 H   0  0  0  0  0  0  0  0  0  0  0  0
   -0.5010    0.0359   -2.0749 C   0  0  0  0  0  0  0  0  0  0  0  0
   -0.2859    1.4264   -1.9945 C   0  0  0  0  0  0  0  0  0  0  0  0
    0.0270    1.8726   -1.0596 H   0  0  0  0  0  0  0  0  0  0  0  0
   -0.4713    2.2368   -3.1315 C   0  0  0  0  0  0  0  0  0  0  0  0
   -0.3072    3.3014   -3.0659 H   0  0  0  0  0  0  0  0  0  0  0  0
   -0.8696    1.6534   -4.3541 C   0  0  0  0  0  0  0  0  0  0  0  0
   -1.0482    2.4258   -5.4571 O   0  0  0  0  0  0  0  0  0  0  0  0
   -0.9638    3.3599   -5.2613 H   0  0  0  0  0  0  0  0  0  0  0  0
   -1.0796    0.2611   -4.4340 C   0  0  0  0  0  0  0  0  0  0  0  0
   -1.3883   -0.1725   -5.3733 H   0  0  0  0  0  0  0  0  0  0  0  0
   -0.8979   -0.5455   -3.2946 C   0  0  0  0  0  0  0  0  0  0  0  0
   -1.0685   -1.6138   -3.3544 H   0  0  0  0  0  0  0  0  0  0  0  0
   -1.4018    1.0238    0.4329 C   0  0  0  0  0  0  0  0  0  0  0  0
   -2.2416    1.5423   -0.3033 O   0  0  0  0  0  0  0  0  0  0  0  0
   -0.6927    1.7304    1.3223 N   0  0  0  0  0  0  0  0  0  0  0  0
    0.0178    1.2410    1.8469 H   0  0  0  0  0  0  0  0  0  0  0  0
   -0.8259    3.1712    1.5254 C   0  0  0  0  0  0  0  0  0  0  0  0
   -1.8769    3.4302    1.6645 H   0  0  0  0  0  0  0  0  0  0  0  0
   -0.2598    3.4806    2.4054 H   0  0  0  0  0  0  0  0  0  0  0  0
   -0.4486    3.7020    0.6489 H   0  0  0  0  0  0  0  0  0  0  0  0
  5  6  2  0  0  0  0
  5  7  1  0  0  0  0
  2  3  1  0  0  0  0
  2  4  1  0  0  0  0
  2  5  1  0  0  0  0
  1  2  1  0  0  0  0
 26 27  2  0  0  0  0
 26 28  1  0  0  0  0
 24 25  1  0  0  0  0
 22 23  1  0  0  0  0
 22 24  2  0  0  0  0
 20 21  1  0  0  0  0
 19 20  1  0  0  0  0
 19 22  1  0  0  0  0
 17 18  1  0  0  0  0
 17 19  2  0  0  0  0
 15 16  1  0  0  0  0
 15 17  1  0  0  0  0
 14 15  2  0  0  0  0
 14 24  1  0  0  0  0
 11 12  1  0  0  0  0
 11 13  1  0  0  0  0
 11 14  1  0  0  0  0
  9 10  1  0  0  0  0
  9 11  1  0  0  0  0
  9 26  1  0  0  0  0
  7  8  1  0  0  0  0
  7  9  1  0  0  0  0
 30 31  1  0  0  0  0
 30 32  1  0  0  0  0
 30 33  1  0  0  0  0
 28 29  1  0  0  0  0
 28 30  1  0  0  0  0
M  END
$$$$
default_name
  -OEChem-02102213163D

 33 33  0     1  0  0  0  0  0999 V2000
   -4.0702   -3.8485    1.4554 H   0  0  0  0  0  0  0  0  0  0  0  0
   -4.0012   -2.9605    0.8284 C   0  0  0  0  0  0  0  0  0  0  0  0
   -4.7652   -2.2435    1.1234 H   0  0  0  0  0  0  0  0  0  0  0  0
   -4.1352   -3.2385   -0.2156 H   0  0  0  0  0  0  0  0  0  0  0  0
   -2.6362   -2.3395    1.0094 C   0  0  0  0  0  0  0  0  0  0  0  0
   -1.8292   -2.8395    1.7814 O   0  0  0  0  0  0  0  0  0  0  0  0
   -2.3832   -1.2445    0.2964 N   0  0  0  0  0  0  0  0  0  0  0  0
   -3.1102   -0.8685   -0.2946 H   0  0  0  0  0  0  0  0  0  0  0  0
   -1.1292   -0.4875    0.3524 C   0  0  1  0  0  0  0  0  0  0  0  0
   -0.5898   -0.7762    1.2552 H   0  0  0  0  0  0  0  0  0  0  0  0
   -0.2608   -0.8470   -0.8656 C   0  0  0  0  0  0  0  0  0  0  0  0
    0.7907   -0.7628   -0.5883 H   0  0  0  0  0  0  0  0  0  0  0  0
   -0.4451   -1.8880   -1.1360 H   0  0  0  0  0  0  0  0  0  0  0  0
   -0.5010    0.0359   -2.0749 C   0  0  0  0  0  0  0  0  0  0  0  0
    0.0021    1.3521   -2.1060 C   0  0  0  0  0  0  0  0  0  0  0  0
    0.5401    1.7462   -1.2538 H   0  0  0  0  0  0  0  0  0  0  0  0
   -0.1887    2.1544   -3.2478 C   0  0  0  0  0  0  0  0  0  0  0  0
    0.1965    3.1623   -3.2675 H   0  0  0  0  0  0  0  0  0  0  0  0
   -0.8818    1.6369   -4.3637 C   0  0  0  0  0  0  0  0  0  0  0  0
   -1.0685    2.4016   -5.4708 O   0  0  0  0  0  0  0  0  0  0  0  0
   -0.7667    3.3019   -5.3428 H   0  0  0  0  0  0  0  0  0  0  0  0
   -1.3803    0.3180   -4.3328 C   0  0  0  0  0  0  0  0  0  0  0  0
   -1.9124   -0.0649   -5.1906 H   0  0  0  0  0  0  0  0  0  0  0  0
   -1.1920   -0.4799   -3.1883 C   0  0  0  0  0  0  0  0  0  0  0  0
   -1.5832   -1.4900   -3.1617 H   0  0  0  0  0  0  0  0  0  0  0  0
   -1.4018    1.0238    0.4329 C   0  0  0  0  0  0  0  0  0  0  0  0
   -2.2416    1.5423   -0.3033 O   0  0  0  0  0  0  0  0  0  0  0  0
   -0.6927    1.7304    1.3223 N   0  0  0  0  0  0  0  0  0  0  0  0
    0.0178    1.2410    1.8469 H   0  0  0  0  0  0  0  0  0  0  0  0
   -0.8259    3.1712    1.5254 C   0  0  0  0  0  0  0  0  0  0  0  0
   -1.8769    3.4302    1.6645 H   0  0  0  0  0  0  0  0  0  0  0  0
   -0.2598    3.4806    2.4054 H   0  0  0  0  0  0  0  0  0  0  0  0
   -0.4486    3.7020    0.6489 H   0  0  0  0  0  0  0  0  0  0  0  0
  5  6  2  0  0  0  0
  5  7  1  0  0  0  0
  2  3  1  0  0  0  0
  2  4  1  0  0  0  0
  2  5  1  0  0  0  0
  1  2  1  0  0  0  0
 26 27  2  0  0  0  0
 26 28  1  0  0  0  0
 24 25  1  0  0  0  0
 22 23  1  0  0  0  0
 22 24  2  0  0  0  0
 20 21  1  0  0  0  0
 19 20  1  0  0  0  0
 19 22  1  0  0  0  0
 17 18  1  0  0  0  0
 17 19  2  0  0  0  0
 15 16  1  0  0  0  0
 15 17  1  0  0  0  0
 14 15  2  0  0  0  0
 14 24  1  0  0  0  0
 11 12  1  0  0  0  0
 11 13  1  0  0  0  0
 11 14  1  0  0  0  0
  9 10  1  0  0  0  0
  9 11  1  0  0  0  0
  9 26  1  0  0  0  0
  7  8  1  0  0  0  0
  7  9  1  0  0  0  0
 30 31  1  0  0  0  0
 30 32  1  0  0  0  0
 30 33  1  0  0  0  0
 28 29  1  0  0  0  0
 28 30  1  0  0  0  0
M  END
$$$$
default_name
  -OEChem-02102213163D

 33 33  0     1  0  0  0  0  0999 V2000
   -4.0702   -3.8485    1.4554 H   0  0  0  0  0  0  0  0  0  0  0  0
   -4.0012   -2.9605    0.8284 C   0  0  0  0  0  0  0  0  0  0  0  0
   -4.7652   -2.2435    1.1234 H   0  0  0  0  0  0  0  0  0  0  0  0
   -4.1352   -3.2385   -0.2156 H   0  0  0  0  0  0  0  0  0  0  0  0
   -2.6362   -2.3395    1.0094 C   0  0  0  0  0  0  0  0  0  0  0  0
   -1.8292   -2.8395    1.7814 O   0  0  0  0  0  0  0  0  0  0  0  0
   -2.3832   -1.2445    0.2964 N   0  0  0  0  0  0  0  0  0  0  0  0
   -3.1102   -0.8685   -0.2946 H   0  0  0  0  0  0  0  0  0  0  0  0
   -1.1292   -0.4875    0.3524 C   0  0  1  0  0  0  0  0  0  0  0  0
   -0.5898   -0.7762    1.2552 H   0  0  0  0  0  0  0  0  0  0  0  0
   -0.2608   -0.8470   -0.8656 C   0  0  0  0  0  0  0  0  0  0  0  0
    0.7907   -0.7628   -0.5883 H   0  0  0  0  0  0  0  0  0  0  0  0
   -0.4451   -1.8880   -1.1360 H   0  0  0  0  0  0  0  0  0  0  0  0
   -0.5010    0.0359   -2.0749 C   0  0  0  0  0  0  0  0  0  0  0  0
    0.2481    1.2162   -2.2540 C   0  0  0  0  0  0  0  0  0  0  0  0
    0.9804    1.5102   -1.5135 H   0  0  0  0  0  0  0  0  0  0  0  0
    0.0497    2.0117   -3.3993 C   0  0  0  0  0  0  0  0  0  0  0  0
    0.6239    2.9157   -3.5324 H   0  0  0  0  0  0  0  0  0  0  0  0
   -0.8985    1.6230   -4.3705 C   0  0  0  0  0  0  0  0  0  0  0  0
   -1.0951    2.3817   -5.4800 O   0  0  0  0  0  0  0  0  0  0  0  0
   -0.6005    3.2017   -5.4489 H   0  0  0  0  0  0  0  0  0  0  0  0
   -1.6437    0.4390   -4.1921 C   0  0  0  0  0  0  0  0  0  0  0  0
   -2.3689    0.1547   -4.9396 H   0  0  0  0  0  0  0  0  0  0  0  0
   -1.4464   -0.3515   -3.0440 C   0  0  0  0  0  0  0  0  0  0  0  0
   -2.0259   -1.2562   -2.9031 H   0  0  0  0  0  0  0  0  0  0  0  0
   -1.4018    1.0238    0.4329 C   0  0  0  0  0  0  0  0  0  0  0  0
   -2.2416    1.5423   -0.3033 O   0  0  0  0  0  0  0  0  0  0  0  0
   -0.6927    1.7304    1.3223 N   0  0  0  0  0  0  0  0  0  0  0  0
    0.0178    1.2410    1.8469 H   0  0  0  0  0  0  0  0  0  0  0  0
   -0.8259    3.1712    1.5254 C   0  0  0  0  0  0  0  0  0  0  0  0
   -1.8769    3.4302    1.6645 H   0  0  0  0  0  0  0  0  0  0  0  0
   -0.2598    3.4806    2.4054 H   0  0  0  0  0  0  0  0  0  0  0  0
   -0.4486    3.7020    0.6489 H   0  0  0  0  0  0  0  0  0  0  0  0
  5  6  2  0  0  0  0
  5  7  1  0  0  0  0
  2  3  1  0  0  0  0
  2  4  1  0  0  0  0
  2  5  1  0  0  0  0
  1  2  1  0  0  0  0
 26 27  2  0  0  0  0
 26 28  1  0  0  0  0
 24 25  1  0  0  0  0
 22 23  1  0  0  0  0
 22 24  2  0  0  0  0
 20 21  1  0  0  0  0
 19 20  1  0  0  0  0
 19 22  1  0  0  0  0
 17 18  1  0  0  0  0
 17 19  2  0  0  0  0
 15 16  1  0  0  0  0
 15 17  1  0  0  0  0
 14 15  2  0  0  0  0
 14 24  1  0  0  0  0
 11 12  1  0  0  0  0
 11 13  1  0  0  0  0
 11 14  1  0  0  0  0
  9 10  1  0  0  0  0
  9 11  1  0  0  0  0
  9 26  1  0  0  0  0
  7  8  1  0  0  0  0
  7  9  1  0  0  0  0
 30 31  1  0  0  0  0
 30 32  1  0  0  0  0
 30 33  1  0  0  0  0
 28 29  1  0  0  0  0
 28 30  1  0  0  0  0
M  END
$$$$
default_name
  -OEChem-02102213163D

 33 33  0     1  0  0  0  0  0999 V2000
   -4.0702   -3.8485    1.4554 H   0  0  0  0  0  0  0  0  0  0  0  0
   -4.0012   -2.9605    0.8284 C   0  0  0  0  0  0  0  0  0  0  0  0
   -4.7652   -2.2435    1.1234 H   0  0  0  0  0  0  0  0  0  0  0  0
   -4.1352   -3.2385   -0.2156 H   0  0  0  0  0  0  0  0  0  0  0  0
   -2.6362   -2.3395    1.0094 C   0  0  0  0  0  0  0  0  0  0  0  0
   -1.8292   -2.8395    1.7814 O   0  0  0  0  0  0  0  0  0  0  0  0
   -2.3832   -1.2445    0.2964 N   0  0  0  0  0  0  0  0  0  0  0  0
   -3.1102   -0.8685   -0.2946 H   0  0  0  0  0  0  0  0  0  0  0  0
   -1.1292   -0.4875    0.3524 C   0  0  1  0  0  0  0  0  0  0  0  0
   -0.5898   -0.7762    1.2552 H   0  0  0  0  0  0  0  0  0  0  0  0
   -0.2608   -0.8470   -0.8656 C   0  0  0  0  0  0  0  0  0  0  0  0
    0.7907   -0.7628   -0.5883 H   0  0  0  0  0  0  0  0  0  0  0  0
   -0.4451   -1.8880   -1.1360 H   0  0  0  0  0  0  0  0  0  0  0  0
   -0.5010    0.0359   -2.0749 C   0  0  0  0  0  0  0  0  0  0  0  0
    0.4353    1.0282   -2.4285 C   0  0  0  0  0  0  0  0  0  0  0  0
    1.3179    1.1807   -1.8211 H   0  0  0  0  0  0  0  0  0  0  0  0
    0.2277    1.8185   -3.5757 C   0  0  0  0  0  0  0  0  0  0  0  0
    0.9460    2.5784   -3.8426 H   0  0  0  0  0  0  0  0  0  0  0  0
   -0.9186    1.6128   -4.3740 C   0  0  0  0  0  0  0  0  0  0  0  0
   -1.1263    2.3677   -5.4840 O   0  0  0  0  0  0  0  0  0  0  0  0
   -0.4767    3.0664   -5.5723 H   0  0  0  0  0  0  0  0  0  0  0  0
   -1.8519    0.6161   -4.0215 C   0  0  0  0  0  0  0  0  0  0  0  0
   -2.7267    0.4714   -4.6374 H   0  0  0  0  0  0  0  0  0  0  0  0
   -1.6440   -0.1691   -2.8716 C   0  0  0  0  0  0  0  0  0  0  0  0
   -2.3662   -0.9284   -2.5962 H   0  0  0  0  0  0  0  0  0  0  0  0
   -1.4018    1.0238    0.4329 C   0  0  0  0  0  0  0  0  0  0  0  0
   -2.2416    1.5423   -0.3033 O   0  0  0  0  0  0  0  0  0  0  0  0
   -0.6927    1.7304    1.3223 N   0  0  0  0  0  0  0  0  0  0  0  0
    0.0178    1.2410    1.8469 H   0  0  0  0  0  0  0  0  0  0  0  0
   -0.8259    3.1712    1.5254 C   0  0  0  0  0  0  0  0  0  0  0  0
   -1.8769    3.4302    1.6645 H   0  0  0  0  0  0  0  0  0  0  0  0
   -0.2598    3.4806    2.4054 H   0  0  0  0  0  0  0  0  0  0  0  0
   -0.4486    3.7020    0.6489 H   0  0  0  0  0  0  0  0  0  0  0  0
  5  6  2  0  0  0  0
  5  7  1  0  0  0  0
  2  3  1  0  0  0  0
  2  4  1  0  0  0  0
  2  5  1  0  0  0  0
  1  2  1  0  0  0  0
 26 27  2  0  0  0  0
 26 28  1  0  0  0  0
 24 25  1  0  0  0  0
 22 23  1  0  0  0  0
 22 24  2  0  0  0  0
 20 21  1  0  0  0  0
 19 20  1  0  0  0  0
 19 22  1  0  0  0  0
 17 18  1  0  0  0  0
 17 19  2  0  0  0  0
 15 16  1  0  0  0  0
 15 17  1  0  0  0  0
 14 15  2  0  0  0  0
 14 24  1  0  0  0  0
 11 12  1  0  0  0  0
 11 13  1  0  0  0  0
 11 14  1  0  0  0  0
  9 10  1  0  0  0  0
  9 11  1  0  0  0  0
  9 26  1  0  0  0  0
  7  8  1  0  0  0  0
  7  9  1  0  0  0  0
 30 31  1  0  0  0  0
 30 32  1  0  0  0  0
 30 33  1  0  0  0  0
 28 29  1  0  0  0  0
 28 30  1  0  0  0  0
M  END
$$$$
default_name
  -OEChem-02102213163D

 33 33  0     1  0  0  0  0  0999 V2000
   -4.0702   -3.8485    1.4554 H   0  0  0  0  0  0  0  0  0  0  0  0
   -4.0012   -2.9605    0.8284 C   0  0  0  0  0  0  0  0  0  0  0  0
   -4.7652   -2.2435    1.1234 H   0  0  0  0  0  0  0  0  0  0  0  0
   -4.1352   -3.2385   -0.2156 H   0  0  0  0  0  0  0  0  0  0  0  0
   -2.6362   -2.3395    1.0094 C   0  0  0  0  0  0  0  0  0  0  0  0
   -1.8292   -2.8395    1.7814 O   0  0  0  0  0  0  0  0  0  0  0  0
   -2.3832   -1.2445    0.2964 N   0  0  0  0  0  0  0  0  0  0  0  0
   -3.1102   -0.8685   -0.2946 H   0  0  0  0  0  0  0  0  0  0  0  0
   -1.1292   -0.4875    0.3524 C   0  0  1  0  0  0  0  0  0  0  0  0
   -0.5898   -0.7762    1.2552 H   0  0  0  0  0  0  0  0  0  0  0  0
   -0.2608   -0.8470   -0.8656 C   0  0  0  0  0  0  0  0  0  0  0  0
    0.7907   -0.7628   -0.5883 H   0  0  0  0  0  0  0  0  0  0  0  0
   -0.4451   -1.8880   -1.1360 H   0  0  0  0  0  0  0  0  0  0  0  0
   -0.5010    0.0359   -2.0749 C   0  0  0  0  0  0  0  0  0  0  0  0
    0.5511    0.8008   -2.6175 C   0  0  0  0  0  0  0  0  0  0  0  0
    1.5295    0.7801   -2.1555 H   0  0  0  0  0  0  0  0  0  0  0  0
    0.3332    1.5879   -3.7650 C   0  0  0  0  0  0  0  0  0  0  0  0
    1.1407    2.1735   -4.1769 H   0  0  0  0  0  0  0  0  0  0  0  0
   -0.9405    1.6069   -4.3740 C   0  0  0  0  0  0  0  0  0  0  0  0
   -1.1600    2.3604   -5.4826 O   0  0  0  0  0  0  0  0  0  0  0  0
   -0.4036    2.9050   -5.7046 H   0  0  0  0  0  0  0  0  0  0  0  0
   -1.9908    0.8371   -3.8325 C   0  0  0  0  0  0  0  0  0  0  0  0
   -2.9615    0.8634   -4.3045 H   0  0  0  0  0  0  0  0  0  0  0  0
   -1.7712    0.0550   -2.6827 C   0  0  0  0  0  0  0  0  0  0  0  0
   -2.5811   -0.5289   -2.2619 H   0  0  0  0  0  0  0  0  0  0  0  0
   -1.4018    1.0238    0.4329 C   0  0  0  0  0  0  0  0  0  0  0  0
   -2.2416    1.5423   -0.3033 O   0  0  0  0  0  0  0  0  0  0  0  0
   -0.6927    1.7304    1.3223 N   0  0  0  0  0  0  0  0  0  0  0  0
    0.0178    1.2410    1.8469 H   0  0  0  0  0  0  0  0  0  0  0  0
   -0.8259    3.1712    1.5254 C   0  0  0  0  0  0  0  0  0  0  0  0
   -1.8769    3.4302    1.6645 H   0  0  0  0  0  0  0  0  0  0  0  0
   -0.2598    3.4806    2.4054 H   0  0  0  0  0  0  0  0  0  0  0  0
   -0.4486    3.7020    0.6489 H   0  0  0  0  0  0  0  0  0  0  0  0
  5  6  2  0  0  0  0
  5  7  1  0  0  0  0
  2  3  1  0  0  0  0
  2  4  1  0  0  0  0
  2  5  1  0  0  0  0
  1  2  1  0  0  0  0
 26 27  2  0  0  0  0
 26 28  1  0  0  0  0
 24 25  1  0  0  0  0
 22 23  1  0  0  0  0
 22 24  2  0  0  0  0
 20 21  1  0  0  0  0
 19 20  1  0  0  0  0
 19 22  1  0  0  0  0
 17 18  1  0  0  0  0
 17 19  2  0  0  0  0
 15 16  1  0  0  0  0
 15 17  1  0  0  0  0
 14 15  2  0  0  0  0
 14 24  1  0  0  0  0
 11 12  1  0  0  0  0
 11 13  1  0  0  0  0
 11 14  1  0  0  0  0
  9 10  1  0  0  0  0
  9 11  1  0  0  0  0
  9 26  1  0  0  0  0
  7  8  1  0  0  0  0
  7  9  1  0  0  0  0
 30 31  1  0  0  0  0
 30 32  1  0  0  0  0
 30 33  1  0  0  0  0
 28 29  1  0  0  0  0
 28 30  1  0  0  0  0
M  END
$$$$
default_name
  -OEChem-02102213163D

 33 33  0     1  0  0  0  0  0999 V2000
   -4.0702   -3.8485    1.4554 H   0  0  0  0  0  0  0  0  0  0  0  0
   -4.0012   -2.9605    0.8284 C   0  0  0  0  0  0  0  0  0  0  0  0
   -4.7652   -2.2435    1.1234 H   0  0  0  0  0  0  0  0  0  0  0  0
   -4.1352   -3.2385   -0.2156 H   0  0  0  0  0  0  0  0  0  0  0  0
   -2.6362   -2.3395    1.0094 C   0  0  0  0  0  0  0  0  0  0  0  0
   -1.8292   -2.8395    1.7814 O   0  0  0  0  0  0  0  0  0  0  0  0
   -2.3832   -1.2445    0.2964 N   0  0  0  0  0  0  0  0  0  0  0  0
   -3.1102   -0.8685   -0.2946 H   0  0  0  0  0  0  0  0  0  0  0  0
   -1.1292   -0.4875    0.3524 C   0  0  1  0  0  0  0  0  0  0  0  0
   -0.5898   -0.7762    1.2552 H   0  0  0  0  0  0  0  0  0  0  0  0
   -0.2608   -0.8470   -0.8656 C   0  0  0  0  0  0  0  0  0  0  0  0
    0.7907   -0.7628   -0.5883 H   0  0  0  0  0  0  0  0  0  0  0  0
   -0.4451   -1.8880   -1.1360 H   0  0  0  0  0  0  0  0  0  0  0  0
   -0.5010    0.0359   -2.0749 C   0  0  0  0  0  0  0  0  0  0  0  0
    0.5875    0.5494   -2.8082 C   0  0  0  0  0  0  0  0  0  0  0  0
    1.6008    0.3359   -2.4940 H   0  0  0  0  0  0  0  0  0  0  0  0
    0.3590    1.3356   -3.9543 C   0  0  0  0  0  0  0  0  0  0  0  0
    1.1949    1.7285   -4.5126 H   0  0  0  0  0  0  0  0  0  0  0  0
   -0.9629    1.6058   -4.3703 C   0  0  0  0  0  0  0  0  0  0  0  0
   -1.1938    2.3604   -5.4759 O   0  0  0  0  0  0  0  0  0  0  0  0
   -0.3863    2.7287   -5.8368 H   0  0  0  0  0  0  0  0  0  0  0  0
   -2.0509    1.0871   -3.6381 C   0  0  0  0  0  0  0  0  0  0  0  0
   -3.0571    1.3043   -3.9637 H   0  0  0  0  0  0  0  0  0  0  0  0
   -1.8193    0.3054   -2.4904 C   0  0  0  0  0  0  0  0  0  0  0  0
   -2.6558   -0.0851   -1.9230 H   0  0  0  0  0  0  0  0  0  0  0  0
   -1.4018    1.0238    0.4329 C   0  0  0  0  0  0  0  0  0  0  0  0
   -2.2416    1.5423   -0.3033 O   0  0  0  0  0  0  0  0  0  0  0  0
   -0.6927    1.7304    1.3223 N   0  0  0  0  0  0  0  0  0  0  0  0
    0.0178    1.2410    1.8469 H   0  0  0  0  0  0  0  0  0  0  0  0
   -0.8259    3.1712    1.5254 C   0  0  0  0  0  0  0  0  0  0  0  0
   -1.8769    3.4302    1.6645 H   0  0  0  0  0  0  0  0  0  0  0  0
   -0.2598    3.4806    2.4054 H   0  0  0  0  0  0  0  0  0  0  0  0
   -0.4486    3.7020    0.6489 H   0  0  0  0  0  0  0  0  0  0  0  0
  5  6  2  0  0  0  0
  5  7  1  0  0  0  0
  2  3  1  0  0  0  0
  2  4  1  0  0  0  0
  2  5  1  0  0  0  0
  1  2  1  0  0  0  0
 26 27  2  0  0  0  0
 26 28  1  0  0  0  0
 24 25  1  0  0  0  0
 22 23  1  0  0  0  0
 22 24  2  0  0  0  0
 20 21  1  0  0  0  0
 19 20  1  0  0  0  0
 19 22  1  0  0  0  0
 17 18  1  0  0  0  0
 17 19  2  0  0  0  0
 15 16  1  0  0  0  0
 15 17  1  0  0  0  0
 14 15  2  0  0  0  0
 14 24  1  0  0  0  0
 11 12  1  0  0  0  0
 11 13  1  0  0  0  0
 11 14  1  0  0  0  0
  9 10  1  0  0  0  0
  9 11  1  0  0  0  0
  9 26  1  0  0  0  0
  7  8  1  0  0  0  0
  7  9  1  0  0  0  0
 30 31  1  0  0  0  0
 30 32  1  0  0  0  0
 30 33  1  0  0  0  0
 28 29  1  0  0  0  0
 28 30  1  0  0  0  0
M  END
$$$$
default_name
  -OEChem-02102213163D

 33 33  0     1  0  0  0  0  0999 V2000
   -4.0702   -3.8485    1.4554 H   0  0  0  0  0  0  0  0  0  0  0  0
   -4.0012   -2.9605    0.8284 C   0  0  0  0  0  0  0  0  0  0  0  0
   -4.7652   -2.2435    1.1234 H   0  0  0  0  0  0  0  0  0  0  0  0
   -4.1352   -3.2385   -0.2156 H   0  0  0  0  0  0  0  0  0  0  0  0
   -2.6362   -2.3395    1.0094 C   0  0  0  0  0  0  0  0  0  0  0  0
   -1.8292   -2.8395    1.7814 O   0  0  0  0  0  0  0  0  0  0  0  0
   -2.3832   -1.2445    0.2964 N   0  0  0  0  0  0  0  0  0  0  0  0
   -3.1102   -0.8685   -0.2946 H   0  0  0  0  0  0  0  0  0  0  0  0
   -1.1292   -0.4875    0.3524 C   0  0  1  0  0  0  0  0  0  0  0  0
   -0.5898   -0.7762    1.2552 H   0  0  0  0  0  0  0  0  0  0  0  0
   -0.2608   -0.8470   -0.8656 C   0  0  0  0  0  0  0  0  0  0  0  0
    0.7907   -0.7628   -0.5883 H   0  0  0  0  0  0  0  0  0  0  0  0
   -0.4451   -1.8880   -1.1360 H   0  0  0  0  0  0  0  0  0  0  0  0
   -0.5010    0.0359   -2.0749 C   0  0  0  0  0  0  0  0  0  0  0  0
    0.5421    0.2913   -2.9876 C   0  0  0  0  0  0  0  0  0  0  0  0
    1.5270   -0.1218   -2.8135 H   0  0  0  0  0  0  0  0  0  0  0  0
    0.3033    1.0788   -4.1308 C   0  0  0  0  0  0  0  0  0  0  0  0
    1.1047    1.2736   -4.8267 H   0  0  0  0  0  0  0  0  0  0  0  0
   -0.9843    1.6095   -4.3634 C   0  0  0  0  0  0  0  0  0  0  0  0
   -1.2254    2.3677   -5.4644 O   0  0  0  0  0  0  0  0  0  0  0  0
   -0.4258    2.5493   -5.9599 H   0  0  0  0  0  0  0  0  0  0  0  0
   -2.0281    1.3488   -3.4516 C   0  0  0  0  0  0  0  0  0  0  0  0
   -3.0071    1.7638   -3.6381 H   0  0  0  0  0  0  0  0  0  0  0  0
   -1.7851    0.5651   -2.3075 C   0  0  0  0  0  0  0  0  0  0  0  0
   -2.5852    0.3730   -1.6026 H   0  0  0  0  0  0  0  0  0  0  0  0
   -1.4018    1.0238    0.4329 C   0  0  0  0  0  0  0  0  0  0  0  0
   -2.2416    1.5423   -0.3033 O   0  0  0  0  0  0  0  0  0  0  0  0
   -0.6927    1.7304    1.3223 N   0  0  0  0  0  0  0  0  0  0  0  0
    0.0178    1.2410    1.8469 H   0  0  0  0  0  0  0  0  0  0  0  0
   -0.8259    3.1712    1.5254 C   0  0  0  0  0  0  0  0  0  0  0  0
   -1.8769    3.4302    1.6645 H   0  0  0  0  0  0  0  0  0  0  0  0
   -0.2598    3.4806    2.4054 H   0  0  0  0  0  0  0  0  0  0  0  0
   -0.4486    3.7020    0.6489 H   0  0  0  0  0  0  0  0  0  0  0  0
  5  6  2  0  0  0  0
  5  7  1  0  0  0  0
  2  3  1  0  0  0  0
  2  4  1  0  0  0  0
  2  5  1  0  0  0  0
  1  2  1  0  0  0  0
 26 27  2  0  0  0  0
 26 28  1  0  0  0  0
 24 25  1  0  0  0  0
 22 23  1  0  0  0  0
 22 24  2  0  0  0  0
 20 21  1  0  0  0  0
 19 20  1  0  0  0  0
 19 22  1  0  0  0  0
 17 18  1  0  0  0  0
 17 19  2  0  0  0  0
 15 16  1  0  0  0  0
 15 17  1  0  0  0  0
 14 15  2  0  0  0  0
 14 24  1  0  0  0  0
 11 12  1  0  0  0  0
 11 13  1  0  0  0  0
 11 14  1  0  0  0  0
  9 10  1  0  0  0  0
  9 11  1  0  0  0  0
  9 26  1  0  0  0  0
  7  8  1  0  0  0  0
  7  9  1  0  0  0  0
 30 31  1  0  0  0  0
 30 32  1  0  0  0  0
 30 33  1  0  0  0  0
 28 29  1  0  0  0  0
 28 30  1  0  0  0  0
M  END
$$$$
default_name
  -OEChem-02102213163D

 33 33  0     1  0  0  0  0  0999 V2000
   -4.0702   -3.8485    1.4554 H   0  0  0  0  0  0  0  0  0  0  0  0
   -4.0012   -2.9605    0.8284 C   0  0  0  0  0  0  0  0  0  0  0  0
   -4.7652   -2.2435    1.1234 H   0  0  0  0  0  0  0  0  0  0  0  0
   -4.1352   -3.2385   -0.2156 H   0  0  0  0  0  0  0  0  0  0  0  0
   -2.6362   -2.3395    1.0094 C   0  0  0  0  0  0  0  0  0  0  0  0
   -1.8292   -2.8395    1.7814 O   0  0  0  0  0  0  0  0  0  0  0  0
   -2.3832   -1.2445    0.2964 N   0  0  0  0  0  0  0  0  0  0  0  0
   -3.1102   -0.8685   -0.2946 H   0  0  0  0  0  0  0  0  0  0  0  0
   -1.1292   -0.4875    0.3524 C   0  0  1  0  0  0  0  0  0  0  0  0
   -0.5898   -0.7762    1.2552 H   0  0  0  0  0  0  0  0  0  0  0  0
   -0.2608   -0.8470   -0.8656 C   0  0  0  0  0  0  0  0  0  0  0  0
    0.7907   -0.7628   -0.5883 H   0  0  0  0  0  0  0  0  0  0  0  0
   -0.4451   -1.8880   -1.1360 H   0  0  0  0  0  0  0  0  0  0  0  0
   -0.5010    0.0359   -2.0749 C   0  0  0  0  0  0  0  0  0  0  0  0
    0.4179    0.0440   -3.1435 C   0  0  0  0  0  0  0  0  0  0  0  0
    1.3131   -0.5618   -3.0923 H   0  0  0  0  0  0  0  0  0  0  0  0
    0.1699    0.8351   -4.2822 C   0  0  0  0  0  0  0  0  0  0  0  0
    0.8765    0.8401   -5.0980 H   0  0  0  0  0  0  0  0  0  0  0  0
   -1.0031    1.6177   -4.3537 C   0  0  0  0  0  0  0  0  0  0  0  0
   -1.2528    2.3816   -5.4487 O   0  0  0  0  0  0  0  0  0  0  0  0
   -0.5196    2.3792   -6.0655 H   0  0  0  0  0  0  0  0  0  0  0  0
   -1.9239    1.6046   -3.2855 C   0  0  0  0  0  0  0  0  0  0  0  0
   -2.8150    2.2107   -3.3500 H   0  0  0  0  0  0  0  0  0  0  0  0
   -1.6710    0.8164   -2.1467 C   0  0  0  0  0  0  0  0  0  0  0  0
   -2.3743    0.8140   -1.3225 H   0  0  0  0  0  0  0  0  0  0  0  0
   -1.4018    1.0238    0.4329 C   0  0  0  0  0  0  0  0  0  0  0  0
   -2.2416    1.5423   -0.3033 O   0  0  0  0  0  0  0  0  0  0  0  0
   -0.6927    1.7304    1.3223 N   0  0  0  0  0  0  0  0  0  0  0  0
    0.0178    1.2410    1.8469 H   0  0  0  0  0  0  0  0  0  0  0  0
   -0.8259    3.1712    1.5254 C   0  0  0  0  0  0  0  0  0  0  0  0
   -1.8769    3.4302    1.6645 H   0  0  0  0  0  0  0  0  0  0  0  0
   -0.2598    3.4806    2.4054 H   0  0  0  0  0  0  0  0  0  0  0  0
   -0.4486    3.7020    0.6489 H   0  0  0  0  0  0  0  0  0  0  0  0
  5  6  2  0  0  0  0
  5  7  1  0  0  0  0
  2  3  1  0  0  0  0
  2  4  1  0  0  0  0
  2  5  1  0  0  0  0
  1  2  1  0  0  0  0
 26 27  2  0  0  0  0
 26 28  1  0  0  0  0
 24 25  1  0  0  0  0
 22 23  1  0  0  0  0
 22 24  2  0  0  0  0
 20 21  1  0  0  0  0
 19 20  1  0  0  0  0
 19 22  1  0  0  0  0
 17 18  1  0  0  0  0
 17 19  2  0  0  0  0
 15 16  1  0  0  0  0
 15 17  1  0  0  0  0
 14 15  2  0  0  0  0
 14 24  1  0  0  0  0
 11 12  1  0  0  0  0
 11 13  1  0  0  0  0
 11 14  1  0  0  0  0
  9 10  1  0  0  0  0
  9 11  1  0  0  0  0
  9 26  1  0  0  0  0
  7  8  1  0  0  0  0
  7  9  1  0  0  0  0
 30 31  1  0  0  0  0
 30 32  1  0  0  0  0
 30 33  1  0  0  0  0
 28 29  1  0  0  0  0
 28 30  1  0  0  0  0
M  END
$$$$
default_name
  -OEChem-02102213163D

 33 33  0     1  0  0  0  0  0999 V2000
   -4.0702   -3.8485    1.4554 H   0  0  0  0  0  0  0  0  0  0  0  0
   -4.0012   -2.9605    0.8284 C   0  0  0  0  0  0  0  0  0  0  0  0
   -4.7652   -2.2435    1.1234 H   0  0  0  0  0  0  0  0  0  0  0  0
   -4.1352   -3.2385   -0.2156 H   0  0  0  0  0  0  0  0  0  0  0  0
   -2.6362   -2.3395    1.0094 C   0  0  0  0  0  0  0  0  0  0  0  0
   -1.8292   -2.8395    1.7814 O   0  0  0  0  0  0  0  0  0  0  0  0
   -2.3832   -1.2445    0.2964 N   0  0  0  0  0  0  0  0  0  0  0  0
   -3.1102   -0.8685   -0.2946 H   0  0  0  0  0  0  0  0  0  0  0  0
   -1.1292   -0.4875    0.3524 C   0  0  1  0  0  0  0  0  0  0  0  0
   -0.5898   -0.7762    1.2552 H   0  0  0  0  0  0  0  0  0  0  0  0
   -0.2608   -0.8470   -0.8656 C   0  0  0  0  0  0  0  0  0  0  0  0
    0.7622   -1.0244   -0.5314 H   0  0  0  0  0  0  0  0  0  0  0  0
   -0.6290   -1.7781   -1.2996 H   0  0  0  0  0  0  0  0  0  0  0  0
   -0.2269    0.2268   -1.9358 C   0  0  0  0  0  0  0  0  0  0  0  0
    0.5284    0.0369   -3.1105 C   0  0  0  0  0  0  0  0  0  0  0  0
    1.1087   -0.8672   -3.2406 H   0  0  0  0  0  0  0  0  0  0  0  0
    0.5243    1.0196   -4.1195 C   0  0  0  0  0  0  0  0  0  0  0  0
    1.1050    0.8715   -5.0169 H   0  0  0  0  0  0  0  0  0  0  0  0
   -0.2409    2.1947   -3.9543 C   0  0  0  0  0  0  0  0  0  0  0  0
   -0.2538    3.1470   -4.9228 O   0  0  0  0  0  0  0  0  0  0  0  0
    0.3645    2.9528   -5.6284 H   0  0  0  0  0  0  0  0  0  0  0  0
   -1.0000    2.3809   -2.7804 C   0  0  0  0  0  0  0  0  0  0  0  0
   -1.5776    3.2855   -2.6639 H   0  0  0  0  0  0  0  0  0  0  0  0
   -0.9902    1.3988   -1.7717 C   0  0  0  0  0  0  0  0  0  0  0  0
   -1.5663    1.5468   -0.8660 H   0  0  0  0  0  0  0  0  0  0  0  0
   -1.4018    1.0238    0.4329 C   0  0  0  0  0  0  0  0  0  0  0  0
   -2.2416    1.5423   -0.3033 O   0  0  0  0  0  0  0  0  0  0  0  0
   -0.6927    1.7304    1.3223 N   0  0  0  0  0  0  0  0  0  0  0  0
    0.0178    1.2410    1.8469 H   0  0  0  0  0  0  0  0  0  0  0  0
   -0.8259    3.1712    1.5254 C   0  0  0  0  0  0  0  0  0  0  0  0
   -1.8769    3.4302    1.6645 H   0  0  0  0  0  0  0  0  0  0  0  0
   -0.2598    3.4806    2.4054 H   0  0  0  0  0  0  0  0  0  0  0  0
   -0.4486    3.7020    0.6489 H   0  0  0  0  0  0  0  0  0  0  0  0
  5  6  2  0  0  0  0
  5  7  1  0  0  0  0
  2  3  1  0  0  0  0
  2  4  1  0  0  0  0
  2  5  1  0  0  0  0
  1  2  1  0  0  0  0
 26 27  2  0  0  0  0
 26 28  1  0  0  0  0
 24 25  1  0  0  0  0
 22 23  1  0  0  0  0
 22 24  2  0  0  0  0
 20 21  1  0  0  0  0
 19 20  1  0  0  0  0
 19 22  1  0  0  0  0
 17 18  1  0  0  0  0
 17 19  2  0  0  0  0
 15 16  1  0  0  0  0
 15 17  1  0  0  0  0
 14 15  2  0  0  0  0
 14 24  1  0  0  0  0
 11 12  1  0  0  0  0
 11 13  1  0  0  0  0
 11 14  1  0  0  0  0
  9 10  1  0  0  0  0
  9 11  1  0  0  0  0
  9 26  1  0  0  0  0
  7  8  1  0  0  0  0
  7  9  1  0  0  0  0
 30 31  1  0  0  0  0
 30 32  1  0  0  0  0
 30 33  1  0  0  0  0
 28 29  1  0  0  0  0
 28 30  1  0  0  0  0
M  END
$$$$
default_name
  -OEChem-02102213163D

 33 33  0     1  0  0  0  0  0999 V2000
   -4.0702   -3.8485    1.4554 H   0  0  0  0  0  0  0  0  0  0  0  0
   -4.0012   -2.9605    0.8284 C   0  0  0  0  0  0  0  0  0  0  0  0
   -4.7652   -2.2435    1.1234 H   0  0  0  0  0  0  0  0  0  0  0  0
   -4.1352   -3.2385   -0.2156 H   0  0  0  0  0  0  0  0  0  0  0  0
   -2.6362   -2.3395    1.0094 C   0  0  0  0  0  0  0  0  0  0  0  0
   -1.8292   -2.8395    1.7814 O   0  0  0  0  0  0  0  0  0  0  0  0
   -2.3832   -1.2445    0.2964 N   0  0  0  0  0  0  0  0  0  0  0  0
   -3.1102   -0.8685   -0.2946 H   0  0  0  0  0  0  0  0  0  0  0  0
   -1.1292   -0.4875    0.3524 C   0  0  1  0  0  0  0  0  0  0  0  0
   -0.5898   -0.7762    1.2552 H   0  0  0  0  0  0  0  0  0  0  0  0
   -0.2608   -0.8470   -0.8656 C   0  0  0  0  0  0  0  0  0  0  0  0
    0.7622   -1.0244   -0.5314 H   0  0  0  0  0  0  0  0  0  0  0  0
   -0.6290   -1.7781   -1.2996 H   0  0  0  0  0  0  0  0  0  0  0  0
   -0.2269    0.2268   -1.9358 C   0  0  0  0  0  0  0  0  0  0  0  0
    0.2532   -0.0706   -3.2271 C   0  0  0  0  0  0  0  0  0  0  0  0
    0.6244   -1.0621   -3.4515 H   0  0  0  0  0  0  0  0  0  0  0  0
    0.2450    0.9192   -4.2291 C   0  0  0  0  0  0  0  0  0  0  0  0
    0.6148    0.6883   -5.2163 H   0  0  0  0  0  0  0  0  0  0  0  0
   -0.2488    2.2099   -3.9393 C   0  0  0  0  0  0  0  0  0  0  0  0
   -0.2637    3.1705   -4.8996 O   0  0  0  0  0  0  0  0  0  0  0  0
    0.1690    2.8831   -5.7046 H   0  0  0  0  0  0  0  0  0  0  0  0
   -0.7334    2.5043   -2.6481 C   0  0  0  0  0  0  0  0  0  0  0  0
   -1.1042    3.4962   -2.4375 H   0  0  0  0  0  0  0  0  0  0  0  0
   -0.7195    1.5142   -1.6474 C   0  0  0  0  0  0  0  0  0  0  0  0
   -1.0834    1.7439   -0.6530 H   0  0  0  0  0  0  0  0  0  0  0  0
   -1.4018    1.0238    0.4329 C   0  0  0  0  0  0  0  0  0  0  0  0
   -2.2416    1.5423   -0.3033 O   0  0  0  0  0  0  0  0  0  0  0  0
   -0.6927    1.7304    1.3223 N   0  0  0  0  0  0  0  0  0  0  0  0
    0.0178    1.2410    1.8469 H   0  0  0  0  0  0  0  0  0  0  0  0
   -0.8259    3.1712    1.5254 C   0  0  0  0  0  0  0  0  0  0  0  0
   -1.8769    3.4302    1.6645 H   0  0  0  0  0  0  0  0  0  0  0  0
   -0.2598    3.4806    2.4054 H   0  0  0  0  0  0  0  0  0  0  0  0
   -0.4486    3.7020    0.6489 H   0  0  0  0  0  0  0  0  0  0  0  0
  5  6  2  0  0  0  0
  5  7  1  0  0  0  0
  2  3  1  0  0  0  0
  2  4  1  0  0  0  0
  2  5  1  0  0  0  0
  1  2  1  0  0  0  0
 26 27  2  0  0  0  0
 26 28  1  0  0  0  0
 24 25  1  0  0  0  0
 22 23  1  0  0  0  0
 22 24  2  0  0  0  0
 20 21  1  0  0  0  0
 19 20  1  0  0  0  0
 19 22  1  0  0  0  0
 17 18  1  0  0  0  0
 17 19  2  0  0  0  0
 15 16  1  0  0  0  0
 15 17  1  0  0  0  0
 14 15  2  0  0  0  0
 14 24  1  0  0  0  0
 11 12  1  0  0  0  0
 11 13  1  0  0  0  0
 11 14  1  0  0  0  0
  9 10  1  0  0  0  0
  9 11  1  0  0  0  0
  9 26  1  0  0  0  0
  7  8  1  0  0  0  0
  7  9  1  0  0  0  0
 30 31  1  0  0  0  0
 30 32  1  0  0  0  0
 30 33  1  0  0  0  0
 28 29  1  0  0  0  0
 28 30  1  0  0  0  0
M  END
$$$$
default_name
  -OEChem-02102213163D

 33 33  0     1  0  0  0  0  0999 V2000
   -4.0702   -3.8485    1.4554 H   0  0  0  0  0  0  0  0  0  0  0  0
   -4.0012   -2.9605    0.8284 C   0  0  0  0  0  0  0  0  0  0  0  0
   -4.7652   -2.2435    1.1234 H   0  0  0  0  0  0  0  0  0  0  0  0
   -4.1352   -3.2385   -0.2156 H   0  0  0  0  0  0  0  0  0  0  0  0
   -2.6362   -2.3395    1.0094 C   0  0  0  0  0  0  0  0  0  0  0  0
   -1.8292   -2.8395    1.7814 O   0  0  0  0  0  0  0  0  0  0  0  0
   -2.3832   -1.2445    0.2964 N   0  0  0  0  0  0  0  0  0  0  0  0
   -3.1102   -0.8685   -0.2946 H   0  0  0  0  0  0  0  0  0  0  0  0
   -1.1292   -0.4875    0.3524 C   0  0  1  0  0  0  0  0  0  0  0  0
   -0.5898   -0.7762    1.2552 H   0  0  0  0  0  0  0  0  0  0  0  0
   -0.2608   -0.8470   -0.8656 C   0  0  0  0  0  0  0  0  0  0  0  0
    0.7622   -1.0244   -0.5314 H   0  0  0  0  0  0  0  0  0  0  0  0
   -0.6290   -1.7781   -1.2996 H   0  0  0  0  0  0  0  0  0  0  0  0
   -0.2269    0.2268   -1.9358 C   0  0  0  0  0  0  0  0  0  0  0  0
   -0.0536   -0.1236   -3.2899 C   0  0  0  0  0  0  0  0  0  0  0  0
    0.0823   -1.1606   -3.5675 H   0  0  0  0  0  0  0  0  0  0  0  0
   -0.0633    0.8738   -4.2844 C   0  0  0  0  0  0  0  0  0  0  0  0
    0.0712    0.6021   -5.3201 H   0  0  0  0  0  0  0  0  0  0  0  0
   -0.2508    2.2259   -3.9233 C   0  0  0  0  0  0  0  0  0  0  0  0
   -0.2648    3.1948   -4.8752 O   0  0  0  0  0  0  0  0  0  0  0  0
   -0.0465    2.8519   -5.7428 H   0  0  0  0  0  0  0  0  0  0  0  0
   -0.4290    2.5741   -2.5684 C   0  0  0  0  0  0  0  0  0  0  0  0
   -0.5671    3.6118   -2.3044 H   0  0  0  0  0  0  0  0  0  0  0  0
   -0.4142    1.5755   -1.5762 C   0  0  0  0  0  0  0  0  0  0  0  0
   -0.5419    1.8448   -0.5345 H   0  0  0  0  0  0  0  0  0  0  0  0
   -1.4018    1.0238    0.4329 C   0  0  0  0  0  0  0  0  0  0  0  0
   -2.2416    1.5423   -0.3033 O   0  0  0  0  0  0  0  0  0  0  0  0
   -0.6927    1.7304    1.3223 N   0  0  0  0  0  0  0  0  0  0  0  0
    0.0178    1.2410    1.8469 H   0  0  0  0  0  0  0  0  0  0  0  0
   -0.8259    3.1712    1.5254 C   0  0  0  0  0  0  0  0  0  0  0  0
   -1.8769    3.4302    1.6645 H   0  0  0  0  0  0  0  0  0  0  0  0
   -0.2598    3.4806    2.4054 H   0  0  0  0  0  0  0  0  0  0  0  0
   -0.4486    3.7020    0.6489 H   0  0  0  0  0  0  0  0  0  0  0  0
  5  6  2  0  0  0  0
  5  7  1  0  0  0  0
  2  3  1  0  0  0  0
  2  4  1  0  0  0  0
  2  5  1  0  0  0  0
  1  2  1  0  0  0  0
 26 27  2  0  0  0  0
 26 28  1  0  0  0  0
 24 25  1  0  0  0  0
 22 23  1  0  0  0  0
 22 24  2  0  0  0  0
 20 21  1  0  0  0  0
 19 20  1  0  0  0  0
 19 22  1  0  0  0  0
 17 18  1  0  0  0  0
 17 19  2  0  0  0  0
 15 16  1  0  0  0  0
 15 17  1  0  0  0  0
 14 15  2  0  0  0  0
 14 24  1  0  0  0  0
 11 12  1  0  0  0  0
 11 13  1  0  0  0  0
 11 14  1  0  0  0  0
  9 10  1  0  0  0  0
  9 11  1  0  0  0  0
  9 26  1  0  0  0  0
  7  8  1  0  0  0  0
  7  9  1  0  0  0  0
 30 31  1  0  0  0  0
 30 32  1  0  0  0  0
 30 33  1  0  0  0  0
 28 29  1  0  0  0  0
 28 30  1  0  0  0  0
M  END
$$$$
default_name
  -OEChem-02102213163D

 33 33  0     1  0  0  0  0  0999 V2000
   -4.0702   -3.8485    1.4554 H   0  0  0  0  0  0  0  0  0  0  0  0
   -4.0012   -2.9605    0.8284 C   0  0  0  0  0  0  0  0  0  0  0  0
   -4.7652   -2.2435    1.1234 H   0  0  0  0  0  0  0  0  0  0  0  0
   -4.1352   -3.2385   -0.2156 H   0  0  0  0  0  0  0  0  0  0  0  0
   -2.6362   -2.3395    1.0094 C   0  0  0  0  0  0  0  0  0  0  0  0
   -1.8292   -2.8395    1.7814 O   0  0  0  0  0  0  0  0  0  0  0  0
   -2.3832   -1.2445    0.2964 N   0  0  0  0  0  0  0  0  0  0  0  0
   -3.1102   -0.8685   -0.2946 H   0  0  0  0  0  0  0  0  0  0  0  0
   -1.1292   -0.4875    0.3524 C   0  0  1  0  0  0  0  0  0  0  0  0
   -0.5898   -0.7762    1.2552 H   0  0  0  0  0  0  0  0  0  0  0  0
   -0.2608   -0.8470   -0.8656 C   0  0  0  0  0  0  0  0  0  0  0  0
    0.7622   -1.0244   -0.5314 H   0  0  0  0  0  0  0  0  0  0  0  0
   -0.6290   -1.7781   -1.2996 H   0  0  0  0  0  0  0  0  0  0  0  0
   -0.2269    0.2268   -1.9358 C   0  0  0  0  0  0  0  0  0  0  0  0
   -0.3711   -0.1183   -3.2946 C   0  0  0  0  0  0  0  0  0  0  0  0
   -0.4806   -1.1561   -3.5809 H   0  0  0  0  0  0  0  0  0  0  0  0
   -0.3795    0.8866   -4.2816 C   0  0  0  0  0  0  0  0  0  0  0  0
   -0.4886    0.6186   -5.3212 H   0  0  0  0  0  0  0  0  0  0  0  0
   -0.2470    2.2416   -3.9074 C   0  0  0  0  0  0  0  0  0  0  0  0
   -0.2568    3.2184   -4.8513 O   0  0  0  0  0  0  0  0  0  0  0  0
   -0.2674    2.8613   -5.7403 H   0  0  0  0  0  0  0  0  0  0  0  0
   -0.1077    2.5855   -2.5468 C   0  0  0  0  0  0  0  0  0  0  0  0
   -0.0027    3.6247   -2.2736 H   0  0  0  0  0  0  0  0  0  0  0  0
   -0.0950    1.5784   -1.5631 C   0  0  0  0  0  0  0  0  0  0  0  0
    0.0213    1.8427   -0.5188 H   0  0  0  0  0  0  0  0  0  0  0  0
   -1.4018    1.0238    0.4329 C   0  0  0  0  0  0  0  0  0  0  0  0
   -2.2416    1.5423   -0.3033 O   0  0  0  0  0  0  0  0  0  0  0  0
   -0.6927    1.7304    1.3223 N   0  0  0  0  0  0  0  0  0  0  0  0
    0.0178    1.2410    1.8469 H   0  0  0  0  0  0  0  0  0  0  0  0
   -0.8259    3.1712    1.5254 C   0  0  0  0  0  0  0  0  0  0  0  0
   -1.8769    3.4302    1.6645 H   0  0  0  0  0  0  0  0  0  0  0  0
   -0.2598    3.4806    2.4054 H   0  0  0  0  0  0  0  0  0  0  0  0
   -0.4486    3.7020    0.6489 H   0  0  0  0  0  0  0  0  0  0  0  0
  5  6  2  0  0  0  0
  5  7  1  0  0  0  0
  2  3  1  0  0  0  0
  2  4  1  0  0  0  0
  2  5  1  0  0  0  0
  1  2  1  0  0  0  0
 26 27  2  0  0  0  0
 26 28  1  0  0  0  0
 24 25  1  0  0  0  0
 22 23  1  0  0  0  0
 22 24  2  0  0  0  0
 20 21  1  0  0  0  0
 19 20  1  0  0  0  0
 19 22  1  0  0  0  0
 17 18  1  0  0  0  0
 17 19  2  0  0  0  0
 15 16  1  0  0  0  0
 15 17  1  0  0  0  0
 14 15  2  0  0  0  0
 14 24  1  0  0  0  0
 11 12  1  0  0  0  0
 11 13  1  0  0  0  0
 11 14  1  0  0  0  0
  9 10  1  0  0  0  0
  9 11  1  0  0  0  0
  9 26  1  0  0  0  0
  7  8  1  0  0  0  0
  7  9  1  0  0  0  0
 30 31  1  0  0  0  0
 30 32  1  0  0  0  0
 30 33  1  0  0  0  0
 28 29  1  0  0  0  0
 28 30  1  0  0  0  0
M  END
$$$$
default_name
  -OEChem-02102213163D

 33 33  0     1  0  0  0  0  0999 V2000
   -4.0702   -3.8485    1.4554 H   0  0  0  0  0  0  0  0  0  0  0  0
   -4.0012   -2.9605    0.8284 C   0  0  0  0  0  0  0  0  0  0  0  0
   -4.7652   -2.2435    1.1234 H   0  0  0  0  0  0  0  0  0  0  0  0
   -4.1352   -3.2385   -0.2156 H   0  0  0  0  0  0  0  0  0  0  0  0
   -2.6362   -2.3395    1.0094 C   0  0  0  0  0  0  0  0  0  0  0  0
   -1.8292   -2.8395    1.7814 O   0  0  0  0  0  0  0  0  0  0  0  0
   -2.3832   -1.2445    0.2964 N   0  0  0  0  0  0  0  0  0  0  0  0
   -3.1102   -0.8685   -0.2946 H   0  0  0  0  0  0  0  0  0  0  0  0
   -1.1292   -0.4875    0.3524 C   0  0  1  0  0  0  0  0  0  0  0  0
   -0.5898   -0.7762    1.2552 H   0  0  0  0  0  0  0  0  0  0  0  0
   -0.2608   -0.8470   -0.8656 C   0  0  0  0  0  0  0  0  0  0  0  0
    0.7622   -1.0244   -0.5314 H   0  0  0  0  0  0  0  0  0  0  0  0
   -0.6290   -1.7781   -1.2996 H   0  0  0  0  0  0  0  0  0  0  0  0
   -0.2269    0.2268   -1.9358 C   0  0  0  0  0  0  0  0  0  0  0  0
   -0.6777   -0.0551   -3.2410 C   0  0  0  0  0  0  0  0  0  0  0  0
   -1.0259   -1.0489   -3.4906 H   0  0  0  0  0  0  0  0  0  0  0  0
   -0.6821    0.9567   -4.2208 C   0  0  0  0  0  0  0  0  0  0  0  0
   -1.0265    0.7369   -5.2196 H   0  0  0  0  0  0  0  0  0  0  0  0
   -0.2374    2.2560   -3.8926 C   0  0  0  0  0  0  0  0  0  0  0  0
   -0.2405    3.2395   -4.8296 O   0  0  0  0  0  0  0  0  0  0  0  0
   -0.4786    2.9107   -5.6974 H   0  0  0  0  0  0  0  0  0  0  0  0
    0.2087    2.5377   -2.5848 C   0  0  0  0  0  0  0  0  0  0  0  0
    0.5504    3.5339   -2.3473 H   0  0  0  0  0  0  0  0  0  0  0  0
    0.2162    1.5230   -1.6089 C   0  0  0  0  0  0  0  0  0  0  0  0
    0.5679    1.7377   -0.6068 H   0  0  0  0  0  0  0  0  0  0  0  0
   -1.4018    1.0238    0.4329 C   0  0  0  0  0  0  0  0  0  0  0  0
   -2.2416    1.5423   -0.3033 O   0  0  0  0  0  0  0  0  0  0  0  0
   -0.6927    1.7304    1.3223 N   0  0  0  0  0  0  0  0  0  0  0  0
    0.0178    1.2410    1.8469 H   0  0  0  0  0  0  0  0  0  0  0  0
   -0.8259    3.1712    1.5254 C   0  0  0  0  0  0  0  0  0  0  0  0
   -1.8769    3.4302    1.6645 H   0  0  0  0  0  0  0  0  0  0  0  0
   -0.2598    3.4806    2.4054 H   0  0  0  0  0  0  0  0  0  0  0  0
   -0.4486    3.7020    0.6489 H   0  0  0  0  0  0  0  0  0  0  0  0
  5  6  2  0  0  0  0
  5  7  1  0  0  0  0
  2  3  1  0  0  0  0
  2  4  1  0  0  0  0
  2  5  1  0  0  0  0
  1  2  1  0  0  0  0
 26 27  2  0  0  0  0
 26 28  1  0  0  0  0
 24 25  1  0  0  0  0
 22 23  1  0  0  0  0
 22 24  2  0  0  0  0
 20 21  1  0  0  0  0
 19 20  1  0  0  0  0
 19 22  1  0  0  0  0
 17 18  1  0  0  0  0
 17 19  2  0  0  0  0
 15 16  1  0  0  0  0
 15 17  1  0  0  0  0
 14 15  2  0  0  0  0
 14 24  1  0  0  0  0
 11 12  1  0  0  0  0
 11 13  1  0  0  0  0
 11 14  1  0  0  0  0
  9 10  1  0  0  0  0
  9 11  1  0  0  0  0
  9 26  1  0  0  0  0
  7  8  1  0  0  0  0
  7  9  1  0  0  0  0
 30 31  1  0  0  0  0
 30 32  1  0  0  0  0
 30 33  1  0  0  0  0
 28 29  1  0  0  0  0
 28 30  1  0  0  0  0
M  END
$$$$
default_name
  -OEChem-02102213163D

 33 33  0     1  0  0  0  0  0999 V2000
   -4.0702   -3.8485    1.4554 H   0  0  0  0  0  0  0  0  0  0  0  0
   -4.0012   -2.9605    0.8284 C   0  0  0  0  0  0  0  0  0  0  0  0
   -4.7652   -2.2435    1.1234 H   0  0  0  0  0  0  0  0  0  0  0  0
   -4.1352   -3.2385   -0.2156 H   0  0  0  0  0  0  0  0  0  0  0  0
   -2.6362   -2.3395    1.0094 C   0  0  0  0  0  0  0  0  0  0  0  0
   -1.8292   -2.8395    1.7814 O   0  0  0  0  0  0  0  0  0  0  0  0
   -2.3832   -1.2445    0.2964 N   0  0  0  0  0  0  0  0  0  0  0  0
   -3.1102   -0.8685   -0.2946 H   0  0  0  0  0  0  0  0  0  0  0  0
   -1.1292   -0.4875    0.3524 C   0  0  1  0  0  0  0  0  0  0  0  0
   -0.5898   -0.7762    1.2552 H   0  0  0  0  0  0  0  0  0  0  0  0
   -0.2608   -0.8470   -0.8656 C   0  0  0  0  0  0  0  0  0  0  0  0
    0.7622   -1.0244   -0.5314 H   0  0  0  0  0  0  0  0  0  0  0  0
   -0.6290   -1.7781   -1.2996 H   0  0  0  0  0  0  0  0  0  0  0  0
   -0.2269    0.2268   -1.9358 C   0  0  0  0  0  0  0  0  0  0  0  0
   -0.9525    0.0616   -3.1327 C   0  0  0  0  0  0  0  0  0  0  0  0
   -1.5165   -0.8462   -3.3028 H   0  0  0  0  0  0  0  0  0  0  0  0
   -0.9504    1.0794   -4.1063 C   0  0  0  0  0  0  0  0  0  0  0  0
   -1.5059    0.9488   -5.0222 H   0  0  0  0  0  0  0  0  0  0  0  0
   -0.2229    2.2681   -3.8800 C   0  0  0  0  0  0  0  0  0  0  0  0
   -0.2169    3.2569   -4.8114 O   0  0  0  0  0  0  0  0  0  0  0  0
   -0.6657    2.9968   -5.6170 H   0  0  0  0  0  0  0  0  0  0  0  0
    0.4987    2.4339   -2.6797 C   0  0  0  0  0  0  0  0  0  0  0  0
    1.0546    3.3455   -2.5203 H   0  0  0  0  0  0  0  0  0  0  0  0
    0.4983    1.4128   -1.7105 C   0  0  0  0  0  0  0  0  0  0  0  0
    1.0605    1.5370   -0.7926 H   0  0  0  0  0  0  0  0  0  0  0  0
   -1.4018    1.0238    0.4329 C   0  0  0  0  0  0  0  0  0  0  0  0
   -2.2416    1.5423   -0.3033 O   0  0  0  0  0  0  0  0  0  0  0  0
   -0.6927    1.7304    1.3223 N   0  0  0  0  0  0  0  0  0  0  0  0
    0.0178    1.2410    1.8469 H   0  0  0  0  0  0  0  0  0  0  0  0
   -0.8259    3.1712    1.5254 C   0  0  0  0  0  0  0  0  0  0  0  0
   -1.8769    3.4302    1.6645 H   0  0  0  0  0  0  0  0  0  0  0  0
   -0.2598    3.4806    2.4054 H   0  0  0  0  0  0  0  0  0  0  0  0
   -0.4486    3.7020    0.6489 H   0  0  0  0  0  0  0  0  0  0  0  0
  5  6  2  0  0  0  0
  5  7  1  0  0  0  0
  2  3  1  0  0  0  0
  2  4  1  0  0  0  0
  2  5  1  0  0  0  0
  1  2  1  0  0  0  0
 26 27  2  0  0  0  0
 26 28  1  0  0  0  0
 24 25  1  0  0  0  0
 22 23  1  0  0  0  0
 22 24  2  0  0  0  0
 20 21  1  0  0  0  0
 19 20  1  0  0  0  0
 19 22  1  0  0  0  0
 17 18  1  0  0  0  0
 17 19  2  0  0  0  0
 15 16  1  0  0  0  0
 15 17  1  0  0  0  0
 14 15  2  0  0  0  0
 14 24  1  0  0  0  0
 11 12  1  0  0  0  0
 11 13  1  0  0  0  0
 11 14  1  0  0  0  0
  9 10  1  0  0  0  0
  9 11  1  0  0  0  0
  9 26  1  0  0  0  0
  7  8  1  0  0  0  0
  7  9  1  0  0  0  0
 30 31  1  0  0  0  0
 30 32  1  0  0  0  0
 30 33  1  0  0  0  0
 28 29  1  0  0  0  0
 28 30  1  0  0  0  0
M  END
$$$$
default_name
  -OEChem-02102213163D

 33 33  0     1  0  0  0  0  0999 V2000
   -4.0702   -3.8485    1.4554 H   0  0  0  0  0  0  0  0  0  0  0  0
   -4.0012   -2.9605    0.8284 C   0  0  0  0  0  0  0  0  0  0  0  0
   -4.7652   -2.2435    1.1234 H   0  0  0  0  0  0  0  0  0  0  0  0
   -4.1352   -3.2385   -0.2156 H   0  0  0  0  0  0  0  0  0  0  0  0
   -2.6362   -2.3395    1.0094 C   0  0  0  0  0  0  0  0  0  0  0  0
   -1.8292   -2.8395    1.7814 O   0  0  0  0  0  0  0  0  0  0  0  0
   -2.3832   -1.2445    0.2964 N   0  0  0  0  0  0  0  0  0  0  0  0
   -3.1102   -0.8685   -0.2946 H   0  0  0  0  0  0  0  0  0  0  0  0
   -1.1292   -0.4875    0.3524 C   0  0  1  0  0  0  0  0  0  0  0  0
   -0.5898   -0.7762    1.2552 H   0  0  0  0  0  0  0  0  0  0  0  0
   -0.2608   -0.8470   -0.8656 C   0  0  0  0  0  0  0  0  0  0  0  0
    0.7622   -1.0244   -0.5314 H   0  0  0  0  0  0  0  0  0  0  0  0
   -0.6290   -1.7781   -1.2996 H   0  0  0  0  0  0  0  0  0  0  0  0
   -0.2269    0.2268   -1.9358 C   0  0  0  0  0  0  0  0  0  0  0  0
   -1.1768    0.2238   -2.9770 C   0  0  0  0  0  0  0  0  0  0  0  0
   -1.9190   -0.5619   -3.0303 H   0  0  0  0  0  0  0  0  0  0  0  0
   -1.1662    1.2462   -3.9457 C   0  0  0  0  0  0  0  0  0  0  0  0
   -1.8941    1.2399   -4.7424 H   0  0  0  0  0  0  0  0  0  0  0  0
   -0.2043    2.2771   -3.8705 C   0  0  0  0  0  0  0  0  0  0  0  0
   -0.1876    3.2692   -4.7981 O   0  0  0  0  0  0  0  0  0  0  0  0
   -0.8159    3.1136   -5.5045 H   0  0  0  0  0  0  0  0  0  0  0  0
    0.7424    2.2812   -2.8251 C   0  0  0  0  0  0  0  0  0  0  0  0
    1.4756    3.0724   -2.7809 H   0  0  0  0  0  0  0  0  0  0  0  0
    0.7321    1.2554   -1.8610 C   0  0  0  0  0  0  0  0  0  0  0  0
    1.4655    1.2542   -1.0635 H   0  0  0  0  0  0  0  0  0  0  0  0
   -1.4018    1.0238    0.4329 C   0  0  0  0  0  0  0  0  0  0  0  0
   -2.2416    1.5423   -0.3033 O   0  0  0  0  0  0  0  0  0  0  0  0
   -0.6927    1.7304    1.3223 N   0  0  0  0  0  0  0  0  0  0  0  0
    0.0178    1.2410    1.8469 H   0  0  0  0  0  0  0  0  0  0  0  0
   -0.8259    3.1712    1.5254 C   0  0  0  0  0  0  0  0  0  0  0  0
   -1.8769    3.4302    1.6645 H   0  0  0  0  0  0  0  0  0  0  0  0
   -0.2598    3.4806    2.4054 H   0  0  0  0  0  0  0  0  0  0  0  0
   -0.4486    3.7020    0.6489 H   0  0  0  0  0  0  0  0  0  0  0  0
  5  6  2  0  0  0  0
  5  7  1  0  0  0  0
  2  3  1  0  0  0  0
  2  4  1  0  0  0  0
  2  5  1  0  0  0  0
  1  2  1  0  0  0  0
 26 27  2  0  0  0  0
 26 28  1  0  0  0  0
 24 25  1  0  0  0  0
 22 23  1  0  0  0  0
 22 24  2  0  0  0  0
 20 21  1  0  0  0  0
 19 20  1  0  0  0  0
 19 22  1  0  0  0  0
 17 18  1  0  0  0  0
 17 19  2  0  0  0  0
 15 16  1  0  0  0  0
 15 17  1  0  0  0  0
 14 15  2  0  0  0  0
 14 24  1  0  0  0  0
 11 12  1  0  0  0  0
 11 13  1  0  0  0  0
 11 14  1  0  0  0  0
  9 10  1  0  0  0  0
  9 11  1  0  0  0  0
  9 26  1  0  0  0  0
  7  8  1  0  0  0  0
  7  9  1  0  0  0  0
 30 31  1  0  0  0  0
 30 32  1  0  0  0  0
 30 33  1  0  0  0  0
 28 29  1  0  0  0  0
 28 30  1  0  0  0  0
M  END
$$$$
default_name
  -OEChem-02102213163D

 33 33  0     1  0  0  0  0  0999 V2000
   -4.0702   -3.8485    1.4554 H   0  0  0  0  0  0  0  0  0  0  0  0
   -4.0012   -2.9605    0.8284 C   0  0  0  0  0  0  0  0  0  0  0  0
   -4.7652   -2.2435    1.1234 H   0  0  0  0  0  0  0  0  0  0  0  0
   -4.1352   -3.2385   -0.2156 H   0  0  0  0  0  0  0  0  0  0  0  0
   -2.6362   -2.3395    1.0094 C   0  0  0  0  0  0  0  0  0  0  0  0
   -1.8292   -2.8395    1.7814 O   0  0  0  0  0  0  0  0  0  0  0  0
   -2.3832   -1.2445    0.2964 N   0  0  0  0  0  0  0  0  0  0  0  0
   -3.1102   -0.8685   -0.2946 H   0  0  0  0  0  0  0  0  0  0  0  0
   -1.1292   -0.4875    0.3524 C   0  0  1  0  0  0  0  0  0  0  0  0
   -0.5898   -0.7762    1.2552 H   0  0  0  0  0  0  0  0  0  0  0  0
   -0.2608   -0.8470   -0.8656 C   0  0  0  0  0  0  0  0  0  0  0  0
    0.7622   -1.0244   -0.5314 H   0  0  0  0  0  0  0  0  0  0  0  0
   -0.6290   -1.7781   -1.2996 H   0  0  0  0  0  0  0  0  0  0  0  0
   -0.2269    0.2268   -1.9358 C   0  0  0  0  0  0  0  0  0  0  0  0
   -1.3352    0.4206   -2.7845 C   0  0  0  0  0  0  0  0  0  0  0  0
   -2.2058   -0.2154   -2.6917 H   0  0  0  0  0  0  0  0  0  0  0  0
   -1.3147    1.4458   -3.7502 C   0  0  0  0  0  0  0  0  0  0  0  0
   -2.1645    1.5904   -4.3994 H   0  0  0  0  0  0  0  0  0  0  0  0
   -0.1830    2.2823   -3.8646 C   0  0  0  0  0  0  0  0  0  0  0  0
   -0.1546    3.2757   -4.7906 O   0  0  0  0  0  0  0  0  0  0  0  0
   -0.9191    3.2533   -5.3677 H   0  0  0  0  0  0  0  0  0  0  0  0
    0.9232    2.0901   -3.0112 C   0  0  0  0  0  0  0  0  0  0  0  0
    1.7845    2.7333   -3.1113 H   0  0  0  0  0  0  0  0  0  0  0  0
    0.9015    1.0616   -2.0501 C   0  0  0  0  0  0  0  0  0  0  0  0
    1.7555    0.9086   -1.4010 H   0  0  0  0  0  0  0  0  0  0  0  0
   -1.4018    1.0238    0.4329 C   0  0  0  0  0  0  0  0  0  0  0  0
   -2.2416    1.5423   -0.3033 O   0  0  0  0  0  0  0  0  0  0  0  0
   -0.6927    1.7304    1.3223 N   0  0  0  0  0  0  0  0  0  0  0  0
    0.0178    1.2410    1.8469 H   0  0  0  0  0  0  0  0  0  0  0  0
   -0.8259    3.1712    1.5254 C   0  0  0  0  0  0  0  0  0  0  0  0
   -1.8769    3.4302    1.6645 H   0  0  0  0  0  0  0  0  0  0  0  0
   -0.2598    3.4806    2.4054 H   0  0  0  0  0  0  0  0  0  0  0  0
   -0.4486    3.7020    0.6489 H   0  0  0  0  0  0  0  0  0  0  0  0
  5  6  2  0  0  0  0
  5  7  1  0  0  0  0
  2  3  1  0  0  0  0
  2  4  1  0  0  0  0
  2  5  1  0  0  0  0
  1  2  1  0  0  0  0
 26 27  2  0  0  0  0
 26 28  1  0  0  0  0
 24 25  1  0  0  0  0
 22 23  1  0  0  0  0
 22 24  2  0  0  0  0
 20 21  1  0  0  0  0
 19 20  1  0  0  0  0
 19 22  1  0  0  0  0
 17 18  1  0  0  0  0
 17 19  2  0  0  0  0
 15 16  1  0  0  0  0
 15 17  1  0  0  0  0
 14 15  2  0  0  0  0
 14 24  1  0  0  0  0
 11 12  1  0  0  0  0
 11 13  1  0  0  0  0
 11 14  1  0  0  0  0
  9 10  1  0  0  0  0
  9 11  1  0  0  0  0
  9 26  1  0  0  0  0
  7  8  1  0  0  0  0
  7  9  1  0  0  0  0
 30 31  1  0  0  0  0
 30 32  1  0  0  0  0
 30 33  1  0  0  0  0
 28 29  1  0  0  0  0
 28 30  1  0  0  0  0
M  END
$$$$
default_name
  -OEChem-02102213163D

 33 33  0     1  0  0  0  0  0999 V2000
   -4.0702   -3.8485    1.4554 H   0  0  0  0  0  0  0  0  0  0  0  0
   -4.0012   -2.9605    0.8284 C   0  0  0  0  0  0  0  0  0  0  0  0
   -4.7652   -2.2435    1.1234 H   0  0  0  0  0  0  0  0  0  0  0  0
   -4.1352   -3.2385   -0.2156 H   0  0  0  0  0  0  0  0  0  0  0  0
   -2.6362   -2.3395    1.0094 C   0  0  0  0  0  0  0  0  0  0  0  0
   -1.8292   -2.8395    1.7814 O   0  0  0  0  0  0  0  0  0  0  0  0
   -2.3832   -1.2445    0.2964 N   0  0  0  0  0  0  0  0  0  0  0  0
   -3.1102   -0.8685   -0.2946 H   0  0  0  0  0  0  0  0  0  0  0  0
   -1.1292   -0.4875    0.3524 C   0  0  1  0  0  0  0  0  0  0  0  0
   -0.5898   -0.7762    1.2552 H   0  0  0  0  0  0  0  0  0  0  0  0
   -0.2608   -0.8470   -0.8656 C   0  0  0  0  0  0  0  0  0  0  0  0
    0.7622   -1.0244   -0.5314 H   0  0  0  0  0  0  0  0  0  0  0  0
   -0.6290   -1.7781   -1.2996 H   0  0  0  0  0  0  0  0  0  0  0  0
   -0.2269    0.2268   -1.9358 C   0  0  0  0  0  0  0  0  0  0  0  0
   -1.4171    0.6386   -2.5685 C   0  0  0  0  0  0  0  0  0  0  0  0
   -2.3576    0.1698   -2.3101 H   0  0  0  0  0  0  0  0  0  0  0  0
   -1.3859    1.6646   -3.5329 C   0  0  0  0  0  0  0  0  0  0  0  0
   -2.2989    1.9763   -4.0164 H   0  0  0  0  0  0  0  0  0  0  0  0
   -0.1604    2.2834   -3.8627 C   0  0  0  0  0  0  0  0  0  0  0  0
   -0.1201    3.2758   -4.7893 O   0  0  0  0  0  0  0  0  0  0  0  0
   -0.9682    3.4063   -5.2157 H   0  0  0  0  0  0  0  0  0  0  0  0
    1.0289    1.8735   -3.2251 C   0  0  0  0  0  0  0  0  0  0  0  0
    1.9604    2.3512   -3.4891 H   0  0  0  0  0  0  0  0  0  0  0  0
    0.9951    0.8445   -2.2649 C   0  0  0  0  0  0  0  0  0  0  0  0
    1.9106    0.5237   -1.7822 H   0  0  0  0  0  0  0  0  0  0  0  0
   -1.4018    1.0238    0.4329 C   0  0  0  0  0  0  0  0  0  0  0  0
   -2.2416    1.5423   -0.3033 O   0  0  0  0  0  0  0  0  0  0  0  0
   -0.6927    1.7304    1.3223 N   0  0  0  0  0  0  0  0  0  0  0  0
    0.0178    1.2410    1.8469 H   0  0  0  0  0  0  0  0  0  0  0  0
   -0.8259    3.1712    1.5254 C   0  0  0  0  0  0  0  0  0  0  0  0
   -1.8769    3.4302    1.6645 H   0  0  0  0  0  0  0  0  0  0  0  0
   -0.2598    3.4806    2.4054 H   0  0  0  0  0  0  0  0  0  0  0  0
   -0.4486    3.7020    0.6489 H   0  0  0  0  0  0  0  0  0  0  0  0
  5  6  2  0  0  0  0
  5  7  1  0  0  0  0
  2  3  1  0  0  0  0
  2  4  1  0  0  0  0
  2  5  1  0  0  0  0
  1  2  1  0  0  0  0
 26 27  2  0  0  0  0
 26 28  1  0  0  0  0
 24 25  1  0  0  0  0
 22 23  1  0  0  0  0
 22 24  2  0  0  0  0
 20 21  1  0  0  0  0
 19 20  1  0  0  0  0
 19 22  1  0  0  0  0
 17 18  1  0  0  0  0
 17 19  2  0  0  0  0
 15 16  1  0  0  0  0
 15 17  1  0  0  0  0
 14 15  2  0  0  0  0
 14 24  1  0  0  0  0
 11 12  1  0  0  0  0
 11 13  1  0  0  0  0
 11 14  1  0  0  0  0
  9 10  1  0  0  0  0
  9 11  1  0  0  0  0
  9 26  1  0  0  0  0
  7  8  1  0  0  0  0
  7  9  1  0  0  0  0
 30 31  1  0  0  0  0
 30 32  1  0  0  0  0
 30 33  1  0  0  0  0
 28 29  1  0  0  0  0
 28 30  1  0  0  0  0
M  END
$$$$
default_name
  -OEChem-02102213163D

 33 33  0     1  0  0  0  0  0999 V2000
   -4.0702   -3.8485    1.4554 H   0  0  0  0  0  0  0  0  0  0  0  0
   -4.0012   -2.9605    0.8284 C   0  0  0  0  0  0  0  0  0  0  0  0
   -4.7652   -2.2435    1.1234 H   0  0  0  0  0  0  0  0  0  0  0  0
   -4.1352   -3.2385   -0.2156 H   0  0  0  0  0  0  0  0  0  0  0  0
   -2.6362   -2.3395    1.0094 C   0  0  0  0  0  0  0  0  0  0  0  0
   -1.8292   -2.8395    1.7814 O   0  0  0  0  0  0  0  0  0  0  0  0
   -2.3832   -1.2445    0.2964 N   0  0  0  0  0  0  0  0  0  0  0  0
   -3.1102   -0.8685   -0.2946 H   0  0  0  0  0  0  0  0  0  0  0  0
   -1.1292   -0.4875    0.3524 C   0  0  1  0  0  0  0  0  0  0  0  0
   -0.5898   -0.7762    1.2552 H   0  0  0  0  0  0  0  0  0  0  0  0
   -0.2608   -0.8470   -0.8656 C   0  0  0  0  0  0  0  0  0  0  0  0
    0.7622   -1.0244   -0.5314 H   0  0  0  0  0  0  0  0  0  0  0  0
   -0.6290   -1.7781   -1.2996 H   0  0  0  0  0  0  0  0  0  0  0  0
   -0.2269    0.2268   -1.9358 C   0  0  0  0  0  0  0  0  0  0  0  0
   -1.4167    0.8628   -2.3435 C   0  0  0  0  0  0  0  0  0  0  0  0
   -2.3638    0.5674   -1.9114 H   0  0  0  0  0  0  0  0  0  0  0  0
   -1.3748    1.8877   -3.3087 C   0  0  0  0  0  0  0  0  0  0  0  0
   -2.2880    2.3714   -3.6196 H   0  0  0  0  0  0  0  0  0  0  0  0
   -0.1380    2.2803   -3.8651 C   0  0  0  0  0  0  0  0  0  0  0  0
   -0.0866    3.2697   -4.7944 O   0  0  0  0  0  0  0  0  0  0  0  0
   -0.9598    3.5621   -5.0591 H   0  0  0  0  0  0  0  0  0  0  0  0
    1.0522    1.6462   -3.4524 C   0  0  0  0  0  0  0  0  0  0  0  0
    1.9913    1.9522   -3.8884 H   0  0  0  0  0  0  0  0  0  0  0  0
    1.0066    0.6189   -2.4908 C   0  0  0  0  0  0  0  0  0  0  0  0
    1.9203    0.1259   -2.1811 H   0  0  0  0  0  0  0  0  0  0  0  0
   -1.4018    1.0238    0.4329 C   0  0  0  0  0  0  0  0  0  0  0  0
   -2.2416    1.5423   -0.3033 O   0  0  0  0  0  0  0  0  0  0  0  0
   -0.6927    1.7304    1.3223 N   0  0  0  0  0  0  0  0  0  0  0  0
    0.0178    1.2410    1.8469 H   0  0  0  0  0  0  0  0  0  0  0  0
   -0.8259    3.1712    1.5254 C   0  0  0  0  0  0  0  0  0  0  0  0
   -1.8769    3.4302    1.6645 H   0  0  0  0  0  0  0  0  0  0  0  0
   -0.2598    3.4806    2.4054 H   0  0  0  0  0  0  0  0  0  0  0  0
   -0.4486    3.7020    0.6489 H   0  0  0  0  0  0  0  0  0  0  0  0
  5  6  2  0  0  0  0
  5  7  1  0  0  0  0
  2  3  1  0  0  0  0
  2  4  1  0  0  0  0
  2  5  1  0  0  0  0
  1  2  1  0  0  0  0
 26 27  2  0  0  0  0
 26 28  1  0  0  0  0
 24 25  1  0  0  0  0
 22 23  1  0  0  0  0
 22 24  2  0  0  0  0
 20 21  1  0  0  0  0
 19 20  1  0  0  0  0
 19 22  1  0  0  0  0
 17 18  1  0  0  0  0
 17 19  2  0  0  0  0
 15 16  1  0  0  0  0
 15 17  1  0  0  0  0
 14 15  2  0  0  0  0
 14 24  1  0  0  0  0
 11 12  1  0  0  0  0
 11 13  1  0  0  0  0
 11 14  1  0  0  0  0
  9 10  1  0  0  0  0
  9 11  1  0  0  0  0
  9 26  1  0  0  0  0
  7  8  1  0  0  0  0
  7  9  1  0  0  0  0
 30 31  1  0  0  0  0
 30 32  1  0  0  0  0
 30 33  1  0  0  0  0
 28 29  1  0  0  0  0
 28 30  1  0  0  0  0
M  END
$$$$
default_name
  -OEChem-02102213163D

 33 33  0     1  0  0  0  0  0999 V2000
   -4.0702   -3.8485    1.4554 H   0  0  0  0  0  0  0  0  0  0  0  0
   -4.0012   -2.9605    0.8284 C   0  0  0  0  0  0  0  0  0  0  0  0
   -4.7652   -2.2435    1.1234 H   0  0  0  0  0  0  0  0  0  0  0  0
   -4.1352   -3.2385   -0.2156 H   0  0  0  0  0  0  0  0  0  0  0  0
   -2.6362   -2.3395    1.0094 C   0  0  0  0  0  0  0  0  0  0  0  0
   -1.8292   -2.8395    1.7814 O   0  0  0  0  0  0  0  0  0  0  0  0
   -2.3832   -1.2445    0.2964 N   0  0  0  0  0  0  0  0  0  0  0  0
   -3.1102   -0.8685   -0.2946 H   0  0  0  0  0  0  0  0  0  0  0  0
   -1.1292   -0.4875    0.3524 C   0  0  1  0  0  0  0  0  0  0  0  0
   -0.5898   -0.7762    1.2552 H   0  0  0  0  0  0  0  0  0  0  0  0
   -0.2608   -0.8470   -0.8656 C   0  0  0  0  0  0  0  0  0  0  0  0
    0.7622   -1.0244   -0.5314 H   0  0  0  0  0  0  0  0  0  0  0  0
   -0.6290   -1.7781   -1.2996 H   0  0  0  0  0  0  0  0  0  0  0  0
   -0.2269    0.2268   -1.9358 C   0  0  0  0  0  0  0  0  0  0  0  0
   -1.3342    1.0780   -2.1250 C   0  0  0  0  0  0  0  0  0  0  0  0
   -2.2242    0.9502   -1.5228 H   0  0  0  0  0  0  0  0  0  0  0  0
   -1.2823    2.0999   -3.0929 C   0  0  0  0  0  0  0  0  0  0  0  0
   -2.1326    2.7488   -3.2361 H   0  0  0  0  0  0  0  0  0  0  0  0
   -0.1173    2.2733   -3.8715 C   0  0  0  0  0  0  0  0  0  0  0  0
   -0.0563    3.2577   -4.8055 O   0  0  0  0  0  0  0  0  0  0  0  0
   -0.8945    3.7102   -4.9085 H   0  0  0  0  0  0  0  0  0  0  0  0
    0.9916    1.4238   -3.6775 C   0  0  0  0  0  0  0  0  0  0  0  0
    1.8750    1.5635   -4.2821 H   0  0  0  0  0  0  0  0  0  0  0  0
    0.9350    0.4003   -2.7125 C   0  0  0  0  0  0  0  0  0  0  0  0
    1.7839   -0.2579   -2.5704 H   0  0  0  0  0  0  0  0  0  0  0  0
   -1.4018    1.0238    0.4329 C   0  0  0  0  0  0  0  0  0  0  0  0
   -2.2416    1.5423   -0.3033 O   0  0  0  0  0  0  0  0  0  0  0  0
   -0.6927    1.7304    1.3223 N   0  0  0  0  0  0  0  0  0  0  0  0
    0.0178    1.2410    1.8469 H   0  0  0  0  0  0  0  0  0  0  0  0
   -0.8259    3.1712    1.5254 C   0  0  0  0  0  0  0  0  0  0  0  0
   -1.8769    3.4302    1.6645 H   0  0  0  0  0  0  0  0  0  0  0  0
   -0.2598    3.4806    2.4054 H   0  0  0  0  0  0  0  0  0  0  0  0
   -0.4486    3.7020    0.6489 H   0  0  0  0  0  0  0  0  0  0  0  0
  5  6  2  0  0  0  0
  5  7  1  0  0  0  0
  2  3  1  0  0  0  0
  2  4  1  0  0  0  0
  2  5  1  0  0  0  0
  1  2  1  0  0  0  0
 26 27  2  0  0  0  0
 26 28  1  0  0  0  0
 24 25  1  0  0  0  0
 22 23  1  0  0  0  0
 22 24  2  0  0  0  0
 20 21  1  0  0  0  0
 19 20  1  0  0  0  0
 19 22  1  0  0  0  0
 17 18  1  0  0  0  0
 17 19  2  0  0  0  0
 15 16  1  0  0  0  0
 15 17  1  0  0  0  0
 14 15  2  0  0  0  0
 14 24  1  0  0  0  0
 11 12  1  0  0  0  0
 11 13  1  0  0  0  0
 11 14  1  0  0  0  0
  9 10  1  0  0  0  0
  9 11  1  0  0  0  0
  9 26  1  0  0  0  0
  7  8  1  0  0  0  0
  7  9  1  0  0  0  0
 30 31  1  0  0  0  0
 30 32  1  0  0  0  0
 30 33  1  0  0  0  0
 28 29  1  0  0  0  0
 28 30  1  0  0  0  0
M  END
$$$$
default_name
  -OEChem-02102213163D

 33 33  0     1  0  0  0  0  0999 V2000
   -4.0702   -3.8485    1.4554 H   0  0  0  0  0  0  0  0  0  0  0  0
   -4.0012   -2.9605    0.8284 C   0  0  0  0  0  0  0  0  0  0  0  0
   -4.7652   -2.2435    1.1234 H   0  0  0  0  0  0  0  0  0  0  0  0
   -4.1352   -3.2385   -0.2156 H   0  0  0  0  0  0  0  0  0  0  0  0
   -2.6362   -2.3395    1.0094 C   0  0  0  0  0  0  0  0  0  0  0  0
   -1.8292   -2.8395    1.7814 O   0  0  0  0  0  0  0  0  0  0  0  0
   -2.3832   -1.2445    0.2964 N   0  0  0  0  0  0  0  0  0  0  0  0
   -3.1102   -0.8685   -0.2946 H   0  0  0  0  0  0  0  0  0  0  0  0
   -1.1292   -0.4875    0.3524 C   0  0  1  0  0  0  0  0  0  0  0  0
   -0.5898   -0.7762    1.2552 H   0  0  0  0  0  0  0  0  0  0  0  0
   -0.2608   -0.8470   -0.8656 C   0  0  0  0  0  0  0  0  0  0  0  0
    0.7622   -1.0244   -0.5314 H   0  0  0  0  0  0  0  0  0  0  0  0
   -0.6290   -1.7781   -1.2996 H   0  0  0  0  0  0  0  0  0  0  0  0
   -0.2269    0.2268   -1.9358 C   0  0  0  0  0  0  0  0  0  0  0  0
   -1.1751    1.2695   -1.9278 C   0  0  0  0  0  0  0  0  0  0  0  0
   -1.9482    1.2923   -1.1709 H   0  0  0  0  0  0  0  0  0  0  0  0
   -1.1146    2.2867   -2.9001 C   0  0  0  0  0  0  0  0  0  0  0  0
   -1.8433    3.0827   -2.8919 H   0  0  0  0  0  0  0  0  0  0  0  0
   -0.0999    2.2627   -3.8816 C   0  0  0  0  0  0  0  0  0  0  0  0
   -0.0312    3.2406   -4.8218 O   0  0  0  0  0  0  0  0  0  0  0  0
   -0.7768    3.8404   -4.7741 H   0  0  0  0  0  0  0  0  0  0  0  0
    0.8511    1.2213   -3.8852 C   0  0  0  0  0  0  0  0  0  0  0  0
    1.6196    1.2115   -4.6434 H   0  0  0  0  0  0  0  0  0  0  0  0
    0.7853    0.2035   -2.9147 C   0  0  0  0  0  0  0  0  0  0  0  0
    1.5106   -0.6013   -2.9237 H   0  0  0  0  0  0  0  0  0  0  0  0
   -1.4018    1.0238    0.4329 C   0  0  0  0  0  0  0  0  0  0  0  0
   -2.2416    1.5423   -0.3033 O   0  0  0  0  0  0  0  0  0  0  0  0
   -0.6927    1.7304    1.3223 N   0  0  0  0  0  0  0  0  0  0  0  0
    0.0178    1.2410    1.8469 H   0  0  0  0  0  0  0  0  0  0  0  0
   -0.8259    3.1712    1.5254 C   0  0  0  0  0  0  0  0  0  0  0  0
   -1.8769    3.4302    1.6645 H   0  0  0  0  0  0  0  0  0  0  0  0
   -0.2598    3.4806    2.4054 H   0  0  0  0  0  0  0  0  0  0  0  0
   -0.4486    3.7020    0.6489 H   0  0  0  0  0  0  0  0  0  0  0  0
  5  6  2  0  0  0  0
  5  7  1  0  0  0  0
  2  3  1  0  0  0  0
  2  4  1  0  0  0  0
  2  5  1  0  0  0  0
  1  2  1  0  0  0  0
 26 27  2  0  0  0  0
 26 28  1  0  0  0  0
 24 25  1  0  0  0  0
 22 23  1  0  0  0  0
 22 24  2  0  0  0  0
 20 21  1  0  0  0  0
 19 20  1  0  0  0  0
 19 22  1  0  0  0  0
 17 18  1  0  0  0  0
 17 19  2  0  0  0  0
 15 16  1  0  0  0  0
 15 17  1  0  0  0  0
 14 15  2  0  0  0  0
 14 24  1  0  0  0  0
 11 12  1  0  0  0  0
 11 13  1  0  0  0  0
 11 14  1  0  0  0  0
  9 10  1  0  0  0  0
  9 11  1  0  0  0  0
  9 26  1  0  0  0  0
  7  8  1  0  0  0  0
  7  9  1  0  0  0  0
 30 31  1  0  0  0  0
 30 32  1  0  0  0  0
 30 33  1  0  0  0  0
 28 29  1  0  0  0  0
 28 30  1  0  0  0  0
M  END
$$$$
default_name
  -OEChem-02102213163D

 33 33  0     1  0  0  0  0  0999 V2000
   -4.0702   -3.8485    1.4554 H   0  0  0  0  0  0  0  0  0  0  0  0
   -4.0012   -2.9605    0.8284 C   0  0  0  0  0  0  0  0  0  0  0  0
   -4.7652   -2.2435    1.1234 H   0  0  0  0  0  0  0  0  0  0  0  0
   -4.1352   -3.2385   -0.2156 H   0  0  0  0  0  0  0  0  0  0  0  0
   -2.6362   -2.3395    1.0094 C   0  0  0  0  0  0  0  0  0  0  0  0
   -1.8292   -2.8395    1.7814 O   0  0  0  0  0  0  0  0  0  0  0  0
   -2.3832   -1.2445    0.2964 N   0  0  0  0  0  0  0  0  0  0  0  0
   -3.1102   -0.8685   -0.2946 H   0  0  0  0  0  0  0  0  0  0  0  0
   -1.1292   -0.4875    0.3524 C   0  0  1  0  0  0  0  0  0  0  0  0
   -0.5898   -0.7762    1.2552 H   0  0  0  0  0  0  0  0  0  0  0  0
   -0.2608   -0.8470   -0.8656 C   0  0  0  0  0  0  0  0  0  0  0  0
    0.7622   -1.0244   -0.5314 H   0  0  0  0  0  0  0  0  0  0  0  0
   -0.6290   -1.7781   -1.2996 H   0  0  0  0  0  0  0  0  0  0  0  0
   -0.2269    0.2268   -1.9358 C   0  0  0  0  0  0  0  0  0  0  0  0
   -0.9503    1.4243   -1.7654 C   0  0  0  0  0  0  0  0  0  0  0  0
   -1.5546    1.5702   -0.8796 H   0  0  0  0  0  0  0  0  0  0  0  0
   -0.8832    2.4354   -2.7436 C   0  0  0  0  0  0  0  0  0  0  0  0
   -1.4397    3.3504   -2.6105 H   0  0  0  0  0  0  0  0  0  0  0  0
   -0.0867    2.2494   -3.8945 C   0  0  0  0  0  0  0  0  0  0  0  0
   -0.0131    3.2196   -4.8423 O   0  0  0  0  0  0  0  0  0  0  0  0
   -0.6147    3.9440   -4.6651 H   0  0  0  0  0  0  0  0  0  0  0  0
    0.6404    1.0525   -4.0611 C   0  0  0  0  0  0  0  0  0  0  0  0
    1.2424    0.9203   -4.9475 H   0  0  0  0  0  0  0  0  0  0  0  0
    0.5676    0.0419   -3.0837 C   0  0  0  0  0  0  0  0  0  0  0  0
    1.1192   -0.8812   -3.2169 H   0  0  0  0  0  0  0  0  0  0  0  0
   -1.4018    1.0238    0.4329 C   0  0  0  0  0  0  0  0  0  0  0  0
   -2.2416    1.5423   -0.3033 O   0  0  0  0  0  0  0  0  0  0  0  0
   -0.6927    1.7304    1.3223 N   0  0  0  0  0  0  0  0  0  0  0  0
    0.0178    1.2410    1.8469 H   0  0  0  0  0  0  0  0  0  0  0  0
   -0.8259    3.1712    1.5254 C   0  0  0  0  0  0  0  0  0  0  0  0
   -1.8769    3.4302    1.6645 H   0  0  0  0  0  0  0  0  0  0  0  0
   -0.2598    3.4806    2.4054 H   0  0  0  0  0  0  0  0  0  0  0  0
   -0.4486    3.7020    0.6489 H   0  0  0  0  0  0  0  0  0  0  0  0
  5  6  2  0  0  0  0
  5  7  1  0  0  0  0
  2  3  1  0  0  0  0
  2  4  1  0  0  0  0
  2  5  1  0  0  0  0
  1  2  1  0  0  0  0
 26 27  2  0  0  0  0
 26 28  1  0  0  0  0
 24 25  1  0  0  0  0
 22 23  1  0  0  0  0
 22 24  2  0  0  0  0
 20 21  1  0  0  0  0
 19 20  1  0  0  0  0
 19 22  1  0  0  0  0
 17 18  1  0  0  0  0
 17 19  2  0  0  0  0
 15 16  1  0  0  0  0
 15 17  1  0  0  0  0
 14 15  2  0  0  0  0
 14 24  1  0  0  0  0
 11 12  1  0  0  0  0
 11 13  1  0  0  0  0
 11 14  1  0  0  0  0
  9 10  1  0  0  0  0
  9 11  1  0  0  0  0
  9 26  1  0  0  0  0
  7  8  1  0  0  0  0
  7  9  1  0  0  0  0
 30 31  1  0  0  0  0
 30 32  1  0  0  0  0
 30 33  1  0  0  0  0
 28 29  1  0  0  0  0
 28 30  1  0  0  0  0
M  END
$$$$
default_name
  -OEChem-02102213163D

 33 33  0     1  0  0  0  0  0999 V2000
   -4.0702   -3.8485    1.4554 H   0  0  0  0  0  0  0  0  0  0  0  0
   -4.0012   -2.9605    0.8284 C   0  0  0  0  0  0  0  0  0  0  0  0
   -4.7652   -2.2435    1.1234 H   0  0  0  0  0  0  0  0  0  0  0  0
   -4.1352   -3.2385   -0.2156 H   0  0  0  0  0  0  0  0  0  0  0  0
   -2.6362   -2.3395    1.0094 C   0  0  0  0  0  0  0  0  0  0  0  0
   -1.8292   -2.8395    1.7814 O   0  0  0  0  0  0  0  0  0  0  0  0
   -2.3832   -1.2445    0.2964 N   0  0  0  0  0  0  0  0  0  0  0  0
   -3.1102   -0.8685   -0.2946 H   0  0  0  0  0  0  0  0  0  0  0  0
   -1.1292   -0.4875    0.3524 C   0  0  1  0  0  0  0  0  0  0  0  0
   -0.5898   -0.7762    1.2552 H   0  0  0  0  0  0  0  0  0  0  0  0
   -0.2608   -0.8470   -0.8656 C   0  0  0  0  0  0  0  0  0  0  0  0
    0.7622   -1.0244   -0.5314 H   0  0  0  0  0  0  0  0  0  0  0  0
   -0.6290   -1.7781   -1.2996 H   0  0  0  0  0  0  0  0  0  0  0  0
   -0.2269    0.2268   -1.9358 C   0  0  0  0  0  0  0  0  0  0  0  0
   -0.6751    1.5318   -1.6488 C   0  0  0  0  0  0  0  0  0  0  0  0
   -1.0703    1.7651   -0.6687 H   0  0  0  0  0  0  0  0  0  0  0  0
   -0.6039    2.5358   -2.6340 C   0  0  0  0  0  0  0  0  0  0  0  0
   -0.9495    3.5336   -2.4112 H   0  0  0  0  0  0  0  0  0  0  0  0
   -0.0789    2.2342   -3.9095 C   0  0  0  0  0  0  0  0  0  0  0  0
   -0.0032    3.1962   -4.8655 O   0  0  0  0  0  0  0  0  0  0  0  0
   -0.4192    4.0137   -4.5889 H   0  0  0  0  0  0  0  0  0  0  0  0
    0.3737    0.9291   -4.1935 C   0  0  0  0  0  0  0  0  0  0  0  0
    0.7690    0.7097   -5.1739 H   0  0  0  0  0  0  0  0  0  0  0  0
    0.2969   -0.0735   -3.2081 C   0  0  0  0  0  0  0  0  0  0  0  0
    0.6363   -1.0783   -3.4299 H   0  0  0  0  0  0  0  0  0  0  0  0
   -1.4018    1.0238    0.4329 C   0  0  0  0  0  0  0  0  0  0  0  0
   -2.2416    1.5423   -0.3033 O   0  0  0  0  0  0  0  0  0  0  0  0
   -0.6927    1.7304    1.3223 N   0  0  0  0  0  0  0  0  0  0  0  0
    0.0178    1.2410    1.8469 H   0  0  0  0  0  0  0  0  0  0  0  0
   -0.8259    3.1712    1.5254 C   0  0  0  0  0  0  0  0  0  0  0  0
   -1.8769    3.4302    1.6645 H   0  0  0  0  0  0  0  0  0  0  0  0
   -0.2598    3.4806    2.4054 H   0  0  0  0  0  0  0  0  0  0  0  0
   -0.4486    3.7020    0.6489 H   0  0  0  0  0  0  0  0  0  0  0  0
  5  6  2  0  0  0  0
  5  7  1  0  0  0  0
  2  3  1  0  0  0  0
  2  4  1  0  0  0  0
  2  5  1  0  0  0  0
  1  2  1  0  0  0  0
 26 27  2  0  0  0  0
 26 28  1  0  0  0  0
 24 25  1  0  0  0  0
 22 23  1  0  0  0  0
 22 24  2  0  0  0  0
 20 21  1  0  0  0  0
 19 20  1  0  0  0  0
 19 22  1  0  0  0  0
 17 18  1  0  0  0  0
 17 19  2  0  0  0  0
 15 16  1  0  0  0  0
 15 17  1  0  0  0  0
 14 15  2  0  0  0  0
 14 24  1  0  0  0  0
 11 12  1  0  0  0  0
 11 13  1  0  0  0  0
 11 14  1  0  0  0  0
  9 10  1  0  0  0  0
  9 11  1  0  0  0  0
  9 26  1  0  0  0  0
  7  8  1  0  0  0  0
  7  9  1  0  0  0  0
 30 31  1  0  0  0  0
 30 32  1  0  0  0  0
 30 33  1  0  0  0  0
 28 29  1  0  0  0  0
 28 30  1  0  0  0  0
M  END
$$$$
default_name
  -OEChem-02102213163D

 33 33  0     1  0  0  0  0  0999 V2000
   -4.0702   -3.8485    1.4554 H   0  0  0  0  0  0  0  0  0  0  0  0
   -4.0012   -2.9605    0.8284 C   0  0  0  0  0  0  0  0  0  0  0  0
   -4.7652   -2.2435    1.1234 H   0  0  0  0  0  0  0  0  0  0  0  0
   -4.1352   -3.2385   -0.2156 H   0  0  0  0  0  0  0  0  0  0  0  0
   -2.6362   -2.3395    1.0094 C   0  0  0  0  0  0  0  0  0  0  0  0
   -1.8292   -2.8395    1.7814 O   0  0  0  0  0  0  0  0  0  0  0  0
   -2.3832   -1.2445    0.2964 N   0  0  0  0  0  0  0  0  0  0  0  0
   -3.1102   -0.8685   -0.2946 H   0  0  0  0  0  0  0  0  0  0  0  0
   -1.1292   -0.4875    0.3524 C   0  0  1  0  0  0  0  0  0  0  0  0
   -0.5898   -0.7762    1.2552 H   0  0  0  0  0  0  0  0  0  0  0  0
   -0.2608   -0.8470   -0.8656 C   0  0  0  0  0  0  0  0  0  0  0  0
    0.7622   -1.0244   -0.5314 H   0  0  0  0  0  0  0  0  0  0  0  0
   -0.6290   -1.7781   -1.2996 H   0  0  0  0  0  0  0  0  0  0  0  0
   -0.2269    0.2268   -1.9358 C   0  0  0  0  0  0  0  0  0  0  0  0
   -0.3683    1.5847   -1.5859 C   0  0  0  0  0  0  0  0  0  0  0  0
   -0.5282    1.8636   -0.5526 H   0  0  0  0  0  0  0  0  0  0  0  0
   -0.2956    2.5812   -2.5787 C   0  0  0  0  0  0  0  0  0  0  0  0
   -0.4059    3.6199   -2.3074 H   0  0  0  0  0  0  0  0  0  0  0  0
   -0.0768    2.2182   -3.9255 C   0  0  0  0  0  0  0  0  0  0  0  0
   -0.0022    3.1719   -4.8899 O   0  0  0  0  0  0  0  0  0  0  0  0
   -0.2037    4.0450   -4.5507 H   0  0  0  0  0  0  0  0  0  0  0  0
    0.0694    0.8593   -4.2732 C   0  0  0  0  0  0  0  0  0  0  0  0
    0.2319    0.5940   -5.3070 H   0  0  0  0  0  0  0  0  0  0  0  0
   -0.0084   -0.1347   -3.2792 C   0  0  0  0  0  0  0  0  0  0  0  0
    0.0948   -1.1792   -3.5484 H   0  0  0  0  0  0  0  0  0  0  0  0
   -1.4018    1.0238    0.4329 C   0  0  0  0  0  0  0  0  0  0  0  0
   -2.2416    1.5423   -0.3033 O   0  0  0  0  0  0  0  0  0  0  0  0
   -0.6927    1.7304    1.3223 N   0  0  0  0  0  0  0  0  0  0  0  0
    0.0178    1.2410    1.8469 H   0  0  0  0  0  0  0  0  0  0  0  0
   -0.8259    3.1712    1.5254 C   0  0  0  0  0  0  0  0  0  0  0  0
   -1.8769    3.4302    1.6645 H   0  0  0  0  0  0  0  0  0  0  0  0
   -0.2598    3.4806    2.4054 H   0  0  0  0  0  0  0  0  0  0  0  0
   -0.4486    3.7020    0.6489 H   0  0  0  0  0  0  0  0  0  0  0  0
  5  6  2  0  0  0  0
  5  7  1  0  0  0  0
  2  3  1  0  0  0  0
  2  4  1  0  0  0  0
  2  5  1  0  0  0  0
  1  2  1  0  0  0  0
 26 27  2  0  0  0  0
 26 28  1  0  0  0  0
 24 25  1  0  0  0  0
 22 23  1  0  0  0  0
 22 24  2  0  0  0  0
 20 21  1  0  0  0  0
 19 20  1  0  0  0  0
 19 22  1  0  0  0  0
 17 18  1  0  0  0  0
 17 19  2  0  0  0  0
 15 16  1  0  0  0  0
 15 17  1  0  0  0  0
 14 15  2  0  0  0  0
 14 24  1  0  0  0  0
 11 12  1  0  0  0  0
 11 13  1  0  0  0  0
 11 14  1  0  0  0  0
  9 10  1  0  0  0  0
  9 11  1  0  0  0  0
  9 26  1  0  0  0  0
  7  8  1  0  0  0  0
  7  9  1  0  0  0  0
 30 31  1  0  0  0  0
 30 32  1  0  0  0  0
 30 33  1  0  0  0  0
 28 29  1  0  0  0  0
 28 30  1  0  0  0  0
M  END
$$$$
default_name
  -OEChem-02102213163D

 33 33  0     1  0  0  0  0  0999 V2000
   -4.0702   -3.8485    1.4554 H   0  0  0  0  0  0  0  0  0  0  0  0
   -4.0012   -2.9605    0.8284 C   0  0  0  0  0  0  0  0  0  0  0  0
   -4.7652   -2.2435    1.1234 H   0  0  0  0  0  0  0  0  0  0  0  0
   -4.1352   -3.2385   -0.2156 H   0  0  0  0  0  0  0  0  0  0  0  0
   -2.6362   -2.3395    1.0094 C   0  0  0  0  0  0  0  0  0  0  0  0
   -1.8292   -2.8395    1.7814 O   0  0  0  0  0  0  0  0  0  0  0  0
   -2.3832   -1.2445    0.2964 N   0  0  0  0  0  0  0  0  0  0  0  0
   -3.1102   -0.8685   -0.2946 H   0  0  0  0  0  0  0  0  0  0  0  0
   -1.1292   -0.4875    0.3524 C   0  0  1  0  0  0  0  0  0  0  0  0
   -0.5898   -0.7762    1.2552 H   0  0  0  0  0  0  0  0  0  0  0  0
   -0.2608   -0.8470   -0.8656 C   0  0  0  0  0  0  0  0  0  0  0  0
    0.7622   -1.0244   -0.5314 H   0  0  0  0  0  0  0  0  0  0  0  0
   -0.6290   -1.7781   -1.2996 H   0  0  0  0  0  0  0  0  0  0  0  0
   -0.2269    0.2268   -1.9358 C   0  0  0  0  0  0  0  0  0  0  0  0
   -0.0508    1.5794   -1.5812 C   0  0  0  0  0  0  0  0  0  0  0  0
    0.0347    1.8591   -0.5393 H   0  0  0  0  0  0  0  0  0  0  0  0
    0.0206    2.5684   -2.5815 C   0  0  0  0  0  0  0  0  0  0  0  0
    0.1539    3.6033   -2.3062 H   0  0  0  0  0  0  0  0  0  0  0  0
   -0.0807    2.2024   -3.9415 C   0  0  0  0  0  0  0  0  0  0  0  0
   -0.0101    3.1483   -4.9138 O   0  0  0  0  0  0  0  0  0  0  0  0
    0.0172    4.0355   -4.5532 H   0  0  0  0  0  0  0  0  0  0  0  0
   -0.2519    0.8479   -4.2947 C   0  0  0  0  0  0  0  0  0  0  0  0
   -0.3325    0.5811   -5.3378 H   0  0  0  0  0  0  0  0  0  0  0  0
   -0.3276   -0.1377   -3.2923 C   0  0  0  0  0  0  0  0  0  0  0  0
   -0.4684   -1.1771   -3.5641 H   0  0  0  0  0  0  0  0  0  0  0  0
   -1.4018    1.0238    0.4329 C   0  0  0  0  0  0  0  0  0  0  0  0
   -2.2416    1.5423   -0.3033 O   0  0  0  0  0  0  0  0  0  0  0  0
   -0.6927    1.7304    1.3223 N   0  0  0  0  0  0  0  0  0  0  0  0
    0.0178    1.2410    1.8469 H   0  0  0  0  0  0  0  0  0  0  0  0
   -0.8259    3.1712    1.5254 C   0  0  0  0  0  0  0  0  0  0  0  0
   -1.8769    3.4302    1.6645 H   0  0  0  0  0  0  0  0  0  0  0  0
   -0.2598    3.4806    2.4054 H   0  0  0  0  0  0  0  0  0  0  0  0
   -0.4486    3.7020    0.6489 H   0  0  0  0  0  0  0  0  0  0  0  0
  5  6  2  0  0  0  0
  5  7  1  0  0  0  0
  2  3  1  0  0  0  0
  2  4  1  0  0  0  0
  2  5  1  0  0  0  0
  1  2  1  0  0  0  0
 26 27  2  0  0  0  0
 26 28  1  0  0  0  0
 24 25  1  0  0  0  0
 22 23  1  0  0  0  0
 22 24  2  0  0  0  0
 20 21  1  0  0  0  0
 19 20  1  0  0  0  0
 19 22  1  0  0  0  0
 17 18  1  0  0  0  0
 17 19  2  0  0  0  0
 15 16  1  0  0  0  0
 15 17  1  0  0  0  0
 14 15  2  0  0  0  0
 14 24  1  0  0  0  0
 11 12  1  0  0  0  0
 11 13  1  0  0  0  0
 11 14  1  0  0  0  0
  9 10  1  0  0  0  0
  9 11  1  0  0  0  0
  9 26  1  0  0  0  0
  7  8  1  0  0  0  0
  7  9  1  0  0  0  0
 30 31  1  0  0  0  0
 30 32  1  0  0  0  0
 30 33  1  0  0  0  0
 28 29  1  0  0  0  0
 28 30  1  0  0  0  0
M  END
$$$$
default_name
  -OEChem-02102213163D

 33 33  0     1  0  0  0  0  0999 V2000
   -4.0702   -3.8485    1.4554 H   0  0  0  0  0  0  0  0  0  0  0  0
   -4.0012   -2.9605    0.8284 C   0  0  0  0  0  0  0  0  0  0  0  0
   -4.7652   -2.2435    1.1234 H   0  0  0  0  0  0  0  0  0  0  0  0
   -4.1352   -3.2385   -0.2156 H   0  0  0  0  0  0  0  0  0  0  0  0
   -2.6362   -2.3395    1.0094 C   0  0  0  0  0  0  0  0  0  0  0  0
   -1.8292   -2.8395    1.7814 O   0  0  0  0  0  0  0  0  0  0  0  0
   -2.3832   -1.2445    0.2964 N   0  0  0  0  0  0  0  0  0  0  0  0
   -3.1102   -0.8685   -0.2946 H   0  0  0  0  0  0  0  0  0  0  0  0
   -1.1292   -0.4875    0.3524 C   0  0  1  0  0  0  0  0  0  0  0  0
   -0.5898   -0.7762    1.2552 H   0  0  0  0  0  0  0  0  0  0  0  0
   -0.2608   -0.8470   -0.8656 C   0  0  0  0  0  0  0  0  0  0  0  0
    0.7622   -1.0244   -0.5314 H   0  0  0  0  0  0  0  0  0  0  0  0
   -0.6290   -1.7781   -1.2996 H   0  0  0  0  0  0  0  0  0  0  0  0
   -0.2269    0.2268   -1.9358 C   0  0  0  0  0  0  0  0  0  0  0  0
    0.2558    1.5163   -1.6348 C   0  0  0  0  0  0  0  0  0  0  0  0
    0.5800    1.7519   -0.6296 H   0  0  0  0  0  0  0  0  0  0  0  0
    0.3232    2.4983   -2.6423 C   0  0  0  0  0  0  0  0  0  0  0  0
    0.6918    3.4850   -2.4078 H   0  0  0  0  0  0  0  0  0  0  0  0
   -0.0902    2.1880   -3.9562 C   0  0  0  0  0  0  0  0  0  0  0  0
   -0.0264    3.1271   -4.9355 O   0  0  0  0  0  0  0  0  0  0  0  0
    0.2284    3.9861   -4.5961 H   0  0  0  0  0  0  0  0  0  0  0  0
   -0.5684    0.8957   -4.2568 C   0  0  0  0  0  0  0  0  0  0  0  0
   -0.8856    0.6720   -5.2642 H   0  0  0  0  0  0  0  0  0  0  0  0
   -0.6388   -0.0823   -3.2465 C   0  0  0  0  0  0  0  0  0  0  0  0
   -1.0150   -1.0721   -3.4761 H   0  0  0  0  0  0  0  0  0  0  0  0
   -1.4018    1.0238    0.4329 C   0  0  0  0  0  0  0  0  0  0  0  0
   -2.2416    1.5423   -0.3033 O   0  0  0  0  0  0  0  0  0  0  0  0
   -0.6927    1.7304    1.3223 N   0  0  0  0  0  0  0  0  0  0  0  0
    0.0178    1.2410    1.8469 H   0  0  0  0  0  0  0  0  0  0  0  0
   -0.8259    3.1712    1.5254 C   0  0  0  0  0  0  0  0  0  0  0  0
   -1.8769    3.4302    1.6645 H   0  0  0  0  0  0  0  0  0  0  0  0
   -0.2598    3.4806    2.4054 H   0  0  0  0  0  0  0  0  0  0  0  0
   -0.4486    3.7020    0.6489 H   0  0  0  0  0  0  0  0  0  0  0  0
  5  6  2  0  0  0  0
  5  7  1  0  0  0  0
  2  3  1  0  0  0  0
  2  4  1  0  0  0  0
  2  5  1  0  0  0  0
  1  2  1  0  0  0  0
 26 27  2  0  0  0  0
 26 28  1  0  0  0  0
 24 25  1  0  0  0  0
 22 23  1  0  0  0  0
 22 24  2  0  0  0  0
 20 21  1  0  0  0  0
 19 20  1  0  0  0  0
 19 22  1  0  0  0  0
 17 18  1  0  0  0  0
 17 19  2  0  0  0  0
 15 16  1  0  0  0  0
 15 17  1  0  0  0  0
 14 15  2  0  0  0  0
 14 24  1  0  0  0  0
 11 12  1  0  0  0  0
 11 13  1  0  0  0  0
 11 14  1  0  0  0  0
  9 10  1  0  0  0  0
  9 11  1  0  0  0  0
  9 26  1  0  0  0  0
  7  8  1  0  0  0  0
  7  9  1  0  0  0  0
 30 31  1  0  0  0  0
 30 32  1  0  0  0  0
 30 33  1  0  0  0  0
 28 29  1  0  0  0  0
 28 30  1  0  0  0  0
M  END
$$$$
default_name
  -OEChem-02102213163D

 33 33  0     1  0  0  0  0  0999 V2000
   -4.0702   -3.8485    1.4554 H   0  0  0  0  0  0  0  0  0  0  0  0
   -4.0012   -2.9605    0.8284 C   0  0  0  0  0  0  0  0  0  0  0  0
   -4.7652   -2.2435    1.1234 H   0  0  0  0  0  0  0  0  0  0  0  0
   -4.1352   -3.2385   -0.2156 H   0  0  0  0  0  0  0  0  0  0  0  0
   -2.6362   -2.3395    1.0094 C   0  0  0  0  0  0  0  0  0  0  0  0
   -1.8292   -2.8395    1.7814 O   0  0  0  0  0  0  0  0  0  0  0  0
   -2.3832   -1.2445    0.2964 N   0  0  0  0  0  0  0  0  0  0  0  0
   -3.1102   -0.8685   -0.2946 H   0  0  0  0  0  0  0  0  0  0  0  0
   -1.1292   -0.4875    0.3524 C   0  0  1  0  0  0  0  0  0  0  0  0
   -0.5898   -0.7762    1.2552 H   0  0  0  0  0  0  0  0  0  0  0  0
   -0.2608   -0.8470   -0.8656 C   0  0  0  0  0  0  0  0  0  0  0  0
    0.7622   -1.0244   -0.5314 H   0  0  0  0  0  0  0  0  0  0  0  0
   -0.6290   -1.7781   -1.2996 H   0  0  0  0  0  0  0  0  0  0  0  0
   -0.2269    0.2268   -1.9358 C   0  0  0  0  0  0  0  0  0  0  0  0
    0.5306    1.3996   -1.7432 C   0  0  0  0  0  0  0  0  0  0  0  0
    1.0706    1.5492   -0.8174 H   0  0  0  0  0  0  0  0  0  0  0  0
    0.5915    2.3756   -2.7568 C   0  0  0  0  0  0  0  0  0  0  0  0
    1.1712    3.2731   -2.6053 H   0  0  0  0  0  0  0  0  0  0  0  0
   -0.1048    2.1759   -3.9688 C   0  0  0  0  0  0  0  0  0  0  0  0
   -0.0500    3.1098   -4.9537 O   0  0  0  0  0  0  0  0  0  0  0  0
    0.4155    3.9000   -4.6765 H   0  0  0  0  0  0  0  0  0  0  0  0
   -0.8583    0.9995   -4.1618 C   0  0  0  0  0  0  0  0  0  0  0  0
   -1.3898    0.8603   -5.0912 H   0  0  0  0  0  0  0  0  0  0  0  0
   -0.9209    0.0279   -3.1449 C   0  0  0  0  0  0  0  0  0  0  0  0
   -1.5076   -0.8714   -3.2903 H   0  0  0  0  0  0  0  0  0  0  0  0
   -1.4018    1.0238    0.4329 C   0  0  0  0  0  0  0  0  0  0  0  0
   -2.2416    1.5423   -0.3033 O   0  0  0  0  0  0  0  0  0  0  0  0
   -0.6927    1.7304    1.3223 N   0  0  0  0  0  0  0  0  0  0  0  0
    0.0178    1.2410    1.8469 H   0  0  0  0  0  0  0  0  0  0  0  0
   -0.8259    3.1712    1.5254 C   0  0  0  0  0  0  0  0  0  0  0  0
   -1.8769    3.4302    1.6645 H   0  0  0  0  0  0  0  0  0  0  0  0
   -0.2598    3.4806    2.4054 H   0  0  0  0  0  0  0  0  0  0  0  0
   -0.4486    3.7020    0.6489 H   0  0  0  0  0  0  0  0  0  0  0  0
  5  6  2  0  0  0  0
  5  7  1  0  0  0  0
  2  3  1  0  0  0  0
  2  4  1  0  0  0  0
  2  5  1  0  0  0  0
  1  2  1  0  0  0  0
 26 27  2  0  0  0  0
 26 28  1  0  0  0  0
 24 25  1  0  0  0  0
 22 23  1  0  0  0  0
 22 24  2  0  0  0  0
 20 21  1  0  0  0  0
 19 20  1  0  0  0  0
 19 22  1  0  0  0  0
 17 18  1  0  0  0  0
 17 19  2  0  0  0  0
 15 16  1  0  0  0  0
 15 17  1  0  0  0  0
 14 15  2  0  0  0  0
 14 24  1  0  0  0  0
 11 12  1  0  0  0  0
 11 13  1  0  0  0  0
 11 14  1  0  0  0  0
  9 10  1  0  0  0  0
  9 11  1  0  0  0  0
  9 26  1  0  0  0  0
  7  8  1  0  0  0  0
  7  9  1  0  0  0  0
 30 31  1  0  0  0  0
 30 32  1  0  0  0  0
 30 33  1  0  0  0  0
 28 29  1  0  0  0  0
 28 30  1  0  0  0  0
M  END
$$$$
default_name
  -OEChem-02102213163D

 33 33  0     1  0  0  0  0  0999 V2000
   -4.0702   -3.8485    1.4554 H   0  0  0  0  0  0  0  0  0  0  0  0
   -4.0012   -2.9605    0.8284 C   0  0  0  0  0  0  0  0  0  0  0  0
   -4.7652   -2.2435    1.1234 H   0  0  0  0  0  0  0  0  0  0  0  0
   -4.1352   -3.2385   -0.2156 H   0  0  0  0  0  0  0  0  0  0  0  0
   -2.6362   -2.3395    1.0094 C   0  0  0  0  0  0  0  0  0  0  0  0
   -1.8292   -2.8395    1.7814 O   0  0  0  0  0  0  0  0  0  0  0  0
   -2.3832   -1.2445    0.2964 N   0  0  0  0  0  0  0  0  0  0  0  0
   -3.1102   -0.8685   -0.2946 H   0  0  0  0  0  0  0  0  0  0  0  0
   -1.1292   -0.4875    0.3524 C   0  0  1  0  0  0  0  0  0  0  0  0
   -0.5898   -0.7762    1.2552 H   0  0  0  0  0  0  0  0  0  0  0  0
   -0.2608   -0.8470   -0.8656 C   0  0  0  0  0  0  0  0  0  0  0  0
    0.7622   -1.0244   -0.5314 H   0  0  0  0  0  0  0  0  0  0  0  0
   -0.6290   -1.7781   -1.2996 H   0  0  0  0  0  0  0  0  0  0  0  0
   -0.2269    0.2268   -1.9358 C   0  0  0  0  0  0  0  0  0  0  0  0
    0.7548    1.2373   -1.8989 C   0  0  0  0  0  0  0  0  0  0  0  0
    1.4731    1.2649   -1.0899 H   0  0  0  0  0  0  0  0  0  0  0  0
    0.8072    2.2088   -2.9173 C   0  0  0  0  0  0  0  0  0  0  0  0
    1.5594    2.9820   -2.8850 H   0  0  0  0  0  0  0  0  0  0  0  0
   -0.1234    2.1670   -3.9784 C   0  0  0  0  0  0  0  0  0  0  0  0
   -0.0793    3.0975   -4.9670 O   0  0  0  0  0  0  0  0  0  0  0  0
    0.5658    3.7832   -4.7890 H   0  0  0  0  0  0  0  0  0  0  0  0
   -1.1020    1.1522   -4.0164 C   0  0  0  0  0  0  0  0  0  0  0  0
   -1.8108    1.1334   -4.8306 H   0  0  0  0  0  0  0  0  0  0  0  0
   -1.1547    0.1853   -2.9945 C   0  0  0  0  0  0  0  0  0  0  0  0
   -1.9126   -0.5886   -3.0194 H   0  0  0  0  0  0  0  0  0  0  0  0
   -1.4018    1.0238    0.4329 C   0  0  0  0  0  0  0  0  0  0  0  0
   -2.2416    1.5423   -0.3033 O   0  0  0  0  0  0  0  0  0  0  0  0
   -0.6927    1.7304    1.3223 N   0  0  0  0  0  0  0  0  0  0  0  0
    0.0178    1.2410    1.8469 H   0  0  0  0  0  0  0  0  0  0  0  0
   -0.8259    3.1712    1.5254 C   0  0  0  0  0  0  0  0  0  0  0  0
   -1.8769    3.4302    1.6645 H   0  0  0  0  0  0  0  0  0  0  0  0
   -0.2598    3.4806    2.4054 H   0  0  0  0  0  0  0  0  0  0  0  0
   -0.4486    3.7020    0.6489 H   0  0  0  0  0  0  0  0  0  0  0  0
  5  6  2  0  0  0  0
  5  7  1  0  0  0  0
  2  3  1  0  0  0  0
  2  4  1  0  0  0  0
  2  5  1  0  0  0  0
  1  2  1  0  0  0  0
 26 27  2  0  0  0  0
 26 28  1  0  0  0  0
 24 25  1  0  0  0  0
 22 23  1  0  0  0  0
 22 24  2  0  0  0  0
 20 21  1  0  0  0  0
 19 20  1  0  0  0  0
 19 22  1  0  0  0  0
 17 18  1  0  0  0  0
 17 19  2  0  0  0  0
 15 16  1  0  0  0  0
 15 17  1  0  0  0  0
 14 15  2  0  0  0  0
 14 24  1  0  0  0  0
 11 12  1  0  0  0  0
 11 13  1  0  0  0  0
 11 14  1  0  0  0  0
  9 10  1  0  0  0  0
  9 11  1  0  0  0  0
  9 26  1  0  0  0  0
  7  8  1  0  0  0  0
  7  9  1  0  0  0  0
 30 31  1  0  0  0  0
 30 32  1  0  0  0  0
 30 33  1  0  0  0  0
 28 29  1  0  0  0  0
 28 30  1  0  0  0  0
M  END
$$$$
default_name
  -OEChem-02102213163D

 33 33  0     1  0  0  0  0  0999 V2000
   -4.0702   -3.8485    1.4554 H   0  0  0  0  0  0  0  0  0  0  0  0
   -4.0012   -2.9605    0.8284 C   0  0  0  0  0  0  0  0  0  0  0  0
   -4.7652   -2.2435    1.1234 H   0  0  0  0  0  0  0  0  0  0  0  0
   -4.1352   -3.2385   -0.2156 H   0  0  0  0  0  0  0  0  0  0  0  0
   -2.6362   -2.3395    1.0094 C   0  0  0  0  0  0  0  0  0  0  0  0
   -1.8292   -2.8395    1.7814 O   0  0  0  0  0  0  0  0  0  0  0  0
   -2.3832   -1.2445    0.2964 N   0  0  0  0  0  0  0  0  0  0  0  0
   -3.1102   -0.8685   -0.2946 H   0  0  0  0  0  0  0  0  0  0  0  0
   -1.1292   -0.4875    0.3524 C   0  0  1  0  0  0  0  0  0  0  0  0
   -0.5898   -0.7762    1.2552 H   0  0  0  0  0  0  0  0  0  0  0  0
   -0.2608   -0.8470   -0.8656 C   0  0  0  0  0  0  0  0  0  0  0  0
    0.7622   -1.0244   -0.5314 H   0  0  0  0  0  0  0  0  0  0  0  0
   -0.6290   -1.7781   -1.2996 H   0  0  0  0  0  0  0  0  0  0  0  0
   -0.2269    0.2268   -1.9358 C   0  0  0  0  0  0  0  0  0  0  0  0
    0.9133    1.0405   -2.0913 C   0  0  0  0  0  0  0  0  0  0  0  0
    1.7599    0.9183   -1.4285 H   0  0  0  0  0  0  0  0  0  0  0  0
    0.9558    2.0092   -3.1129 C   0  0  0  0  0  0  0  0  0  0  0  0
    1.8299    2.6316   -3.2281 H   0  0  0  0  0  0  0  0  0  0  0  0
   -0.1447    2.1617   -3.9843 C   0  0  0  0  0  0  0  0  0  0  0  0
   -0.1123    3.0910   -4.9745 O   0  0  0  0  0  0  0  0  0  0  0  0
    0.6689    3.6435   -4.9258 H   0  0  0  0  0  0  0  0  0  0  0  0
   -1.2828    1.3433   -3.8304 C   0  0  0  0  0  0  0  0  0  0  0  0
   -2.1197    1.4725   -4.5001 H   0  0  0  0  0  0  0  0  0  0  0  0
   -1.3241    0.3791   -2.8054 C   0  0  0  0  0  0  0  0  0  0  0  0
   -2.2026   -0.2430   -2.6819 H   0  0  0  0  0  0  0  0  0  0  0  0
   -1.4018    1.0238    0.4329 C   0  0  0  0  0  0  0  0  0  0  0  0
   -2.2416    1.5423   -0.3033 O   0  0  0  0  0  0  0  0  0  0  0  0
   -0.6927    1.7304    1.3223 N   0  0  0  0  0  0  0  0  0  0  0  0
    0.0178    1.2410    1.8469 H   0  0  0  0  0  0  0  0  0  0  0  0
   -0.8259    3.1712    1.5254 C   0  0  0  0  0  0  0  0  0  0  0  0
   -1.8769    3.4302    1.6645 H   0  0  0  0  0  0  0  0  0  0  0  0
   -0.2598    3.4806    2.4054 H   0  0  0  0  0  0  0  0  0  0  0  0
   -0.4486    3.7020    0.6489 H   0  0  0  0  0  0  0  0  0  0  0  0
  5  6  2  0  0  0  0
  5  7  1  0  0  0  0
  2  3  1  0  0  0  0
  2  4  1  0  0  0  0
  2  5  1  0  0  0  0
  1  2  1  0  0  0  0
 26 27  2  0  0  0  0
 26 28  1  0  0  0  0
 24 25  1  0  0  0  0
 22 23  1  0  0  0  0
 22 24  2  0  0  0  0
 20 21  1  0  0  0  0
 19 20  1  0  0  0  0
 19 22  1  0  0  0  0
 17 18  1  0  0  0  0
 17 19  2  0  0  0  0
 15 16  1  0  0  0  0
 15 17  1  0  0  0  0
 14 15  2  0  0  0  0
 14 24  1  0  0  0  0
 11 12  1  0  0  0  0
 11 13  1  0  0  0  0
 11 14  1  0  0  0  0
  9 10  1  0  0  0  0
  9 11  1  0  0  0  0
  9 26  1  0  0  0  0
  7  8  1  0  0  0  0
  7  9  1  0  0  0  0
 30 31  1  0  0  0  0
 30 32  1  0  0  0  0
 30 33  1  0  0  0  0
 28 29  1  0  0  0  0
 28 30  1  0  0  0  0
M  END
$$$$
default_name
  -OEChem-02102213163D

 33 33  0     1  0  0  0  0  0999 V2000
   -4.0702   -3.8485    1.4554 H   0  0  0  0  0  0  0  0  0  0  0  0
   -4.0012   -2.9605    0.8284 C   0  0  0  0  0  0  0  0  0  0  0  0
   -4.7652   -2.2435    1.1234 H   0  0  0  0  0  0  0  0  0  0  0  0
   -4.1352   -3.2385   -0.2156 H   0  0  0  0  0  0  0  0  0  0  0  0
   -2.6362   -2.3395    1.0094 C   0  0  0  0  0  0  0  0  0  0  0  0
   -1.8292   -2.8395    1.7814 O   0  0  0  0  0  0  0  0  0  0  0  0
   -2.3832   -1.2445    0.2964 N   0  0  0  0  0  0  0  0  0  0  0  0
   -3.1102   -0.8685   -0.2946 H   0  0  0  0  0  0  0  0  0  0  0  0
   -1.1292   -0.4875    0.3524 C   0  0  1  0  0  0  0  0  0  0  0  0
   -0.5898   -0.7762    1.2552 H   0  0  0  0  0  0  0  0  0  0  0  0
   -0.2608   -0.8470   -0.8656 C   0  0  0  0  0  0  0  0  0  0  0  0
    0.7622   -1.0244   -0.5314 H   0  0  0  0  0  0  0  0  0  0  0  0
   -0.6290   -1.7781   -1.2996 H   0  0  0  0  0  0  0  0  0  0  0  0
   -0.2269    0.2268   -1.9358 C   0  0  0  0  0  0  0  0  0  0  0  0
    0.9951    0.8226   -2.3074 C   0  0  0  0  0  0  0  0  0  0  0  0
    1.9117    0.5332   -1.8101 H   0  0  0  0  0  0  0  0  0  0  0  0
    1.0269    1.7904   -3.3302 C   0  0  0  0  0  0  0  0  0  0  0  0
    1.9642    2.2456   -3.6110 H   0  0  0  0  0  0  0  0  0  0  0  0
   -0.1673    2.1607   -3.9861 C   0  0  0  0  0  0  0  0  0  0  0  0
   -0.1468    3.0908   -4.9758 O   0  0  0  0  0  0  0  0  0  0  0  0
    0.7180    3.4905   -5.0777 H   0  0  0  0  0  0  0  0  0  0  0  0
   -1.3885    1.5599   -3.6164 C   0  0  0  0  0  0  0  0  0  0  0  0
   -2.2956    1.8546   -4.1223 H   0  0  0  0  0  0  0  0  0  0  0  0
   -1.4177    0.5962   -2.5905 C   0  0  0  0  0  0  0  0  0  0  0  0
   -2.3577    0.1419   -2.3007 H   0  0  0  0  0  0  0  0  0  0  0  0
   -1.4018    1.0238    0.4329 C   0  0  0  0  0  0  0  0  0  0  0  0
   -2.2416    1.5423   -0.3033 O   0  0  0  0  0  0  0  0  0  0  0  0
   -0.6927    1.7304    1.3223 N   0  0  0  0  0  0  0  0  0  0  0  0
    0.0178    1.2410    1.8469 H   0  0  0  0  0  0  0  0  0  0  0  0
   -0.8259    3.1712    1.5254 C   0  0  0  0  0  0  0  0  0  0  0  0
   -1.8769    3.4302    1.6645 H   0  0  0  0  0  0  0  0  0  0  0  0
   -0.2598    3.4806    2.4054 H   0  0  0  0  0  0  0  0  0  0  0  0
   -0.4486    3.7020    0.6489 H   0  0  0  0  0  0  0  0  0  0  0  0
  5  6  2  0  0  0  0
  5  7  1  0  0  0  0
  2  3  1  0  0  0  0
  2  4  1  0  0  0  0
  2  5  1  0  0  0  0
  1  2  1  0  0  0  0
 26 27  2  0  0  0  0
 26 28  1  0  0  0  0
 24 25  1  0  0  0  0
 22 23  1  0  0  0  0
 22 24  2  0  0  0  0
 20 21  1  0  0  0  0
 19 20  1  0  0  0  0
 19 22  1  0  0  0  0
 17 18  1  0  0  0  0
 17 19  2  0  0  0  0
 15 16  1  0  0  0  0
 15 17  1  0  0  0  0
 14 15  2  0  0  0  0
 14 24  1  0  0  0  0
 11 12  1  0  0  0  0
 11 13  1  0  0  0  0
 11 14  1  0  0  0  0
  9 10  1  0  0  0  0
  9 11  1  0  0  0  0
  9 26  1  0  0  0  0
  7  8  1  0  0  0  0
  7  9  1  0  0  0  0
 30 31  1  0  0  0  0
 30 32  1  0  0  0  0
 30 33  1  0  0  0  0
 28 29  1  0  0  0  0
 28 30  1  0  0  0  0
M  END
$$$$
default_name
  -OEChem-02102213163D

 33 33  0     1  0  0  0  0  0999 V2000
   -4.0702   -3.8485    1.4554 H   0  0  0  0  0  0  0  0  0  0  0  0
   -4.0012   -2.9605    0.8284 C   0  0  0  0  0  0  0  0  0  0  0  0
   -4.7652   -2.2435    1.1234 H   0  0  0  0  0  0  0  0  0  0  0  0
   -4.1352   -3.2385   -0.2156 H   0  0  0  0  0  0  0  0  0  0  0  0
   -2.6362   -2.3395    1.0094 C   0  0  0  0  0  0  0  0  0  0  0  0
   -1.8292   -2.8395    1.7814 O   0  0  0  0  0  0  0  0  0  0  0  0
   -2.3832   -1.2445    0.2964 N   0  0  0  0  0  0  0  0  0  0  0  0
   -3.1102   -0.8685   -0.2946 H   0  0  0  0  0  0  0  0  0  0  0  0
   -1.1292   -0.4875    0.3524 C   0  0  1  0  0  0  0  0  0  0  0  0
   -0.5898   -0.7762    1.2552 H   0  0  0  0  0  0  0  0  0  0  0  0
   -0.2608   -0.8470   -0.8656 C   0  0  0  0  0  0  0  0  0  0  0  0
    0.7622   -1.0244   -0.5314 H   0  0  0  0  0  0  0  0  0  0  0  0
   -0.6290   -1.7781   -1.2996 H   0  0  0  0  0  0  0  0  0  0  0  0
   -0.2269    0.2268   -1.9358 C   0  0  0  0  0  0  0  0  0  0  0  0
    0.9948    0.5984   -2.5323 C   0  0  0  0  0  0  0  0  0  0  0  0
    1.9179    0.1356   -2.2088 H   0  0  0  0  0  0  0  0  0  0  0  0
    1.0159    1.5673   -3.5544 C   0  0  0  0  0  0  0  0  0  0  0  0
    1.9533    1.8505   -4.0078 H   0  0  0  0  0  0  0  0  0  0  0  0
   -0.1897    2.1637   -3.9837 C   0  0  0  0  0  0  0  0  0  0  0  0
   -0.1803    3.0970   -4.9707 O   0  0  0  0  0  0  0  0  0  0  0  0
    0.7096    3.3347   -5.2344 H   0  0  0  0  0  0  0  0  0  0  0  0
   -1.4118    1.7872   -3.3891 C   0  0  0  0  0  0  0  0  0  0  0  0
   -2.3265    2.2536   -3.7230 H   0  0  0  0  0  0  0  0  0  0  0  0
   -1.4291    0.8218   -2.3646 C   0  0  0  0  0  0  0  0  0  0  0  0
   -2.3674    0.5397   -1.9018 H   0  0  0  0  0  0  0  0  0  0  0  0
   -1.4018    1.0238    0.4329 C   0  0  0  0  0  0  0  0  0  0  0  0
   -2.2416    1.5423   -0.3033 O   0  0  0  0  0  0  0  0  0  0  0  0
   -0.6927    1.7304    1.3223 N   0  0  0  0  0  0  0  0  0  0  0  0
    0.0178    1.2410    1.8469 H   0  0  0  0  0  0  0  0  0  0  0  0
   -0.8259    3.1712    1.5254 C   0  0  0  0  0  0  0  0  0  0  0  0
   -1.8769    3.4302    1.6645 H   0  0  0  0  0  0  0  0  0  0  0  0
   -0.2598    3.4806    2.4054 H   0  0  0  0  0  0  0  0  0  0  0  0
   -0.4486    3.7020    0.6489 H   0  0  0  0  0  0  0  0  0  0  0  0
  5  6  2  0  0  0  0
  5  7  1  0  0  0  0
  2  3  1  0  0  0  0
  2  4  1  0  0  0  0
  2  5  1  0  0  0  0
  1  2  1  0  0  0  0
 26 27  2  0  0  0  0
 26 28  1  0  0  0  0
 24 25  1  0  0  0  0
 22 23  1  0  0  0  0
 22 24  2  0  0  0  0
 20 21  1  0  0  0  0
 19 20  1  0  0  0  0
 19 22  1  0  0  0  0
 17 18  1  0  0  0  0
 17 19  2  0  0  0  0
 15 16  1  0  0  0  0
 15 17  1  0  0  0  0
 14 15  2  0  0  0  0
 14 24  1  0  0  0  0
 11 12  1  0  0  0  0
 11 13  1  0  0  0  0
 11 14  1  0  0  0  0
  9 10  1  0  0  0  0
  9 11  1  0  0  0  0
  9 26  1  0  0  0  0
  7  8  1  0  0  0  0
  7  9  1  0  0  0  0
 30 31  1  0  0  0  0
 30 32  1  0  0  0  0
 30 33  1  0  0  0  0
 28 29  1  0  0  0  0
 28 30  1  0  0  0  0
M  END
$$$$
default_name
  -OEChem-02102213163D

 33 33  0     1  0  0  0  0  0999 V2000
   -4.0702   -3.8485    1.4554 H   0  0  0  0  0  0  0  0  0  0  0  0
   -4.0012   -2.9605    0.8284 C   0  0  0  0  0  0  0  0  0  0  0  0
   -4.7652   -2.2435    1.1234 H   0  0  0  0  0  0  0  0  0  0  0  0
   -4.1352   -3.2385   -0.2156 H   0  0  0  0  0  0  0  0  0  0  0  0
   -2.6362   -2.3395    1.0094 C   0  0  0  0  0  0  0  0  0  0  0  0
   -1.8292   -2.8395    1.7814 O   0  0  0  0  0  0  0  0  0  0  0  0
   -2.3832   -1.2445    0.2964 N   0  0  0  0  0  0  0  0  0  0  0  0
   -3.1102   -0.8685   -0.2946 H   0  0  0  0  0  0  0  0  0  0  0  0
   -1.1292   -0.4875    0.3524 C   0  0  1  0  0  0  0  0  0  0  0  0
   -0.5898   -0.7762    1.2552 H   0  0  0  0  0  0  0  0  0  0  0  0
   -0.2608   -0.8470   -0.8656 C   0  0  0  0  0  0  0  0  0  0  0  0
    0.7622   -1.0244   -0.5314 H   0  0  0  0  0  0  0  0  0  0  0  0
   -0.6290   -1.7781   -1.2996 H   0  0  0  0  0  0  0  0  0  0  0  0
   -0.2269    0.2268   -1.9358 C   0  0  0  0  0  0  0  0  0  0  0  0
    0.9122    0.3832   -2.7508 C   0  0  0  0  0  0  0  0  0  0  0  0
    1.7783   -0.2472   -2.5973 H   0  0  0  0  0  0  0  0  0  0  0  0
    0.9234    1.3551   -3.7702 C   0  0  0  0  0  0  0  0  0  0  0  0
    1.7979    1.4731   -4.3914 H   0  0  0  0  0  0  0  0  0  0  0  0
   -0.2104    2.1708   -3.9773 C   0  0  0  0  0  0  0  0  0  0  0  0
   -0.2106    3.1090   -4.9596 O   0  0  0  0  0  0  0  0  0  0  0  0
    0.6443    3.1866   -5.3850 H   0  0  0  0  0  0  0  0  0  0  0  0
   -1.3512    2.0096   -3.1640 C   0  0  0  0  0  0  0  0  0  0  0  0
   -2.2102    2.6423   -3.3293 H   0  0  0  0  0  0  0  0  0  0  0  0
   -1.3576    1.0404   -2.1430 C   0  0  0  0  0  0  0  0  0  0  0  0
   -2.2310    0.9235   -1.5125 H   0  0  0  0  0  0  0  0  0  0  0  0
   -1.4018    1.0238    0.4329 C   0  0  0  0  0  0  0  0  0  0  0  0
   -2.2416    1.5423   -0.3033 O   0  0  0  0  0  0  0  0  0  0  0  0
   -0.6927    1.7304    1.3223 N   0  0  0  0  0  0  0  0  0  0  0  0
    0.0178    1.2410    1.8469 H   0  0  0  0  0  0  0  0  0  0  0  0
   -0.8259    3.1712    1.5254 C   0  0  0  0  0  0  0  0  0  0  0  0
   -1.8769    3.4302    1.6645 H   0  0  0  0  0  0  0  0  0  0  0  0
   -0.2598    3.4806    2.4054 H   0  0  0  0  0  0  0  0  0  0  0  0
   -0.4486    3.7020    0.6489 H   0  0  0  0  0  0  0  0  0  0  0  0
  5  6  2  0  0  0  0
  5  7  1  0  0  0  0
  2  3  1  0  0  0  0
  2  4  1  0  0  0  0
  2  5  1  0  0  0  0
  1  2  1  0  0  0  0
 26 27  2  0  0  0  0
 26 28  1  0  0  0  0
 24 25  1  0  0  0  0
 22 23  1  0  0  0  0
 22 24  2  0  0  0  0
 20 21  1  0  0  0  0
 19 20  1  0  0  0  0
 19 22  1  0  0  0  0
 17 18  1  0  0  0  0
 17 19  2  0  0  0  0
 15 16  1  0  0  0  0
 15 17  1  0  0  0  0
 14 15  2  0  0  0  0
 14 24  1  0  0  0  0
 11 12  1  0  0  0  0
 11 13  1  0  0  0  0
 11 14  1  0  0  0  0
  9 10  1  0  0  0  0
  9 11  1  0  0  0  0
  9 26  1  0  0  0  0
  7  8  1  0  0  0  0
  7  9  1  0  0  0  0
 30 31  1  0  0  0  0
 30 32  1  0  0  0  0
 30 33  1  0  0  0  0
 28 29  1  0  0  0  0
 28 30  1  0  0  0  0
M  END
$$$$
default_name
  -OEChem-02102213163D

 33 33  0     1  0  0  0  0  0999 V2000
   -4.0702   -3.8485    1.4554 H   0  0  0  0  0  0  0  0  0  0  0  0
   -4.0012   -2.9605    0.8284 C   0  0  0  0  0  0  0  0  0  0  0  0
   -4.7652   -2.2435    1.1234 H   0  0  0  0  0  0  0  0  0  0  0  0
   -4.1352   -3.2385   -0.2156 H   0  0  0  0  0  0  0  0  0  0  0  0
   -2.6362   -2.3395    1.0094 C   0  0  0  0  0  0  0  0  0  0  0  0
   -1.8292   -2.8395    1.7814 O   0  0  0  0  0  0  0  0  0  0  0  0
   -2.3832   -1.2445    0.2964 N   0  0  0  0  0  0  0  0  0  0  0  0
   -3.1102   -0.8685   -0.2946 H   0  0  0  0  0  0  0  0  0  0  0  0
   -1.1292   -0.4875    0.3524 C   0  0  1  0  0  0  0  0  0  0  0  0
   -0.5898   -0.7762    1.2552 H   0  0  0  0  0  0  0  0  0  0  0  0
   -0.2608   -0.8470   -0.8656 C   0  0  0  0  0  0  0  0  0  0  0  0
    0.7622   -1.0244   -0.5314 H   0  0  0  0  0  0  0  0  0  0  0  0
   -0.6290   -1.7781   -1.2996 H   0  0  0  0  0  0  0  0  0  0  0  0
   -0.2269    0.2268   -1.9358 C   0  0  0  0  0  0  0  0  0  0  0  0
    0.7531    0.1917   -2.9480 C   0  0  0  0  0  0  0  0  0  0  0  0
    1.5023   -0.5893   -2.9492 H   0  0  0  0  0  0  0  0  0  0  0  0
    0.7557    1.1683   -3.9629 C   0  0  0  0  0  0  0  0  0  0  0  0
    1.5086    1.1392   -4.7356 H   0  0  0  0  0  0  0  0  0  0  0  0
   -0.2278    2.1813   -3.9673 C   0  0  0  0  0  0  0  0  0  0  0  0
   -0.2357    3.1260   -4.9433 O   0  0  0  0  0  0  0  0  0  0  0  0
    0.5266    3.0564   -5.5194 H   0  0  0  0  0  0  0  0  0  0  0  0
   -1.2107    2.2121   -2.9564 C   0  0  0  0  0  0  0  0  0  0  0  0
   -1.9548    2.9943   -2.9680 H   0  0  0  0  0  0  0  0  0  0  0  0
   -1.2079    1.2372   -1.9407 C   0  0  0  0  0  0  0  0  0  0  0  0
   -1.9577    1.2670   -1.1592 H   0  0  0  0  0  0  0  0  0  0  0  0
   -1.4018    1.0238    0.4329 C   0  0  0  0  0  0  0  0  0  0  0  0
   -2.2416    1.5423   -0.3033 O   0  0  0  0  0  0  0  0  0  0  0  0
   -0.6927    1.7304    1.3223 N   0  0  0  0  0  0  0  0  0  0  0  0
    0.0178    1.2410    1.8469 H   0  0  0  0  0  0  0  0  0  0  0  0
   -0.8259    3.1712    1.5254 C   0  0  0  0  0  0  0  0  0  0  0  0
   -1.8769    3.4302    1.6645 H   0  0  0  0  0  0  0  0  0  0  0  0
   -0.2598    3.4806    2.4054 H   0  0  0  0  0  0  0  0  0  0  0  0
   -0.4486    3.7020    0.6489 H   0  0  0  0  0  0  0  0  0  0  0  0
  5  6  2  0  0  0  0
  5  7  1  0  0  0  0
  2  3  1  0  0  0  0
  2  4  1  0  0  0  0
  2  5  1  0  0  0  0
  1  2  1  0  0  0  0
 26 27  2  0  0  0  0
 26 28  1  0  0  0  0
 24 25  1  0  0  0  0
 22 23  1  0  0  0  0
 22 24  2  0  0  0  0
 20 21  1  0  0  0  0
 19 20  1  0  0  0  0
 19 22  1  0  0  0  0
 17 18  1  0  0  0  0
 17 19  2  0  0  0  0
 15 16  1  0  0  0  0
 15 17  1  0  0  0  0
 14 15  2  0  0  0  0
 14 24  1  0  0  0  0
 11 12  1  0  0  0  0
 11 13  1  0  0  0  0
 11 14  1  0  0  0  0
  9 10  1  0  0  0  0
  9 11  1  0  0  0  0
  9 26  1  0  0  0  0
  7  8  1  0  0  0  0
  7  9  1  0  0  0  0
 30 31  1  0  0  0  0
 30 32  1  0  0  0  0
 30 33  1  0  0  0  0
 28 29  1  0  0  0  0
 28 30  1  0  0  0  0
M  END
$$$$
default_name
  -OEChem-02102213163D

 33 33  0     1  0  0  0  0  0999 V2000
   -4.0702   -3.8485    1.4554 H   0  0  0  0  0  0  0  0  0  0  0  0
   -4.0012   -2.9605    0.8284 C   0  0  0  0  0  0  0  0  0  0  0  0
   -4.7652   -2.2435    1.1234 H   0  0  0  0  0  0  0  0  0  0  0  0
   -4.1352   -3.2385   -0.2156 H   0  0  0  0  0  0  0  0  0  0  0  0
   -2.6362   -2.3395    1.0094 C   0  0  0  0  0  0  0  0  0  0  0  0
   -1.8292   -2.8395    1.7814 O   0  0  0  0  0  0  0  0  0  0  0  0
   -2.3832   -1.2445    0.2964 N   0  0  0  0  0  0  0  0  0  0  0  0
   -3.1102   -0.8685   -0.2946 H   0  0  0  0  0  0  0  0  0  0  0  0
   -1.1292   -0.4875    0.3524 C   0  0  1  0  0  0  0  0  0  0  0  0
   -0.5898   -0.7762    1.2552 H   0  0  0  0  0  0  0  0  0  0  0  0
   -0.2608   -0.8470   -0.8656 C   0  0  0  0  0  0  0  0  0  0  0  0
    0.6776   -1.2796   -0.5164 H   0  0  0  0  0  0  0  0  0  0  0  0
   -0.7742   -1.6104   -1.4526 H   0  0  0  0  0  0  0  0  0  0  0  0
    0.0686    0.3348   -1.7570 C   0  0  0  0  0  0  0  0  0  0  0  0
    0.8571    0.1570   -2.9115 C   0  0  0  0  0  0  0  0  0  0  0  0
    1.2527   -0.8213   -3.1515 H   0  0  0  0  0  0  0  0  0  0  0  0
    1.1265    1.2499   -3.7581 C   0  0  0  0  0  0  0  0  0  0  0  0
    1.7320    1.1105   -4.6404 H   0  0  0  0  0  0  0  0  0  0  0  0
    0.6020    2.5243   -3.4506 C   0  0  0  0  0  0  0  0  0  0  0  0
    0.8536    3.5841   -4.2622 O   0  0  0  0  0  0  0  0  0  0  0  0
    1.4721    3.3653   -4.9605 H   0  0  0  0  0  0  0  0  0  0  0  0
   -0.1910    2.6993   -2.2976 C   0  0  0  0  0  0  0  0  0  0  0  0
   -0.5826    3.6795   -2.0708 H   0  0  0  0  0  0  0  0  0  0  0  0
   -0.4546    1.6059   -1.4509 C   0  0  0  0  0  0  0  0  0  0  0  0
   -1.0562    1.7431   -0.5603 H   0  0  0  0  0  0  0  0  0  0  0  0
   -1.4018    1.0238    0.4329 C   0  0  0  0  0  0  0  0  0  0  0  0
   -2.2416    1.5423   -0.3033 O   0  0  0  0  0  0  0  0  0  0  0  0
   -0.6927    1.7304    1.3223 N   0  0  0  0  0  0  0  0  0  0  0  0
    0.0178    1.2410    1.8469 H   0  0  0  0  0  0  0  0  0  0  0  0
   -0.8259    3.1712    1.5254 C   0  0  0  0  0  0  0  0  0  0  0  0
   -1.8769    3.4302    1.6645 H   0  0  0  0  0  0  0  0  0  0  0  0
   -0.2598    3.4806    2.4054 H   0  0  0  0  0  0  0  0  0  0  0  0
   -0.4486    3.7020    0.6489 H   0  0  0  0  0  0  0  0  0  0  0  0
  5  6  2  0  0  0  0
  5  7  1  0  0  0  0
  2  3  1  0  0  0  0
  2  4  1  0  0  0  0
  2  5  1  0  0  0  0
  1  2  1  0  0  0  0
 26 27  2  0  0  0  0
 26 28  1  0  0  0  0
 24 25  1  0  0  0  0
 22 23  1  0  0  0  0
 22 24  2  0  0  0  0
 20 21  1  0  0  0  0
 19 20  1  0  0  0  0
 19 22  1  0  0  0  0
 17 18  1  0  0  0  0
 17 19  2  0  0  0  0
 15 16  1  0  0  0  0
 15 17  1  0  0  0  0
 14 15  2  0  0  0  0
 14 24  1  0  0  0  0
 11 12  1  0  0  0  0
 11 13  1  0  0  0  0
 11 14  1  0  0  0  0
  9 10  1  0  0  0  0
  9 11  1  0  0  0  0
  9 26  1  0  0  0  0
  7  8  1  0  0  0  0
  7  9  1  0  0  0  0
 30 31  1  0  0  0  0
 30 32  1  0  0  0  0
 30 33  1  0  0  0  0
 28 29  1  0  0  0  0
 28 30  1  0  0  0  0
M  END
$$$$
default_name
  -OEChem-02102213163D

 33 33  0     1  0  0  0  0  0999 V2000
   -4.0702   -3.8485    1.4554 H   0  0  0  0  0  0  0  0  0  0  0  0
   -4.0012   -2.9605    0.8284 C   0  0  0  0  0  0  0  0  0  0  0  0
   -4.7652   -2.2435    1.1234 H   0  0  0  0  0  0  0  0  0  0  0  0
   -4.1352   -3.2385   -0.2156 H   0  0  0  0  0  0  0  0  0  0  0  0
   -2.6362   -2.3395    1.0094 C   0  0  0  0  0  0  0  0  0  0  0  0
   -1.8292   -2.8395    1.7814 O   0  0  0  0  0  0  0  0  0  0  0  0
   -2.3832   -1.2445    0.2964 N   0  0  0  0  0  0  0  0  0  0  0  0
   -3.1102   -0.8685   -0.2946 H   0  0  0  0  0  0  0  0  0  0  0  0
   -1.1292   -0.4875    0.3524 C   0  0  1  0  0  0  0  0  0  0  0  0
   -0.5898   -0.7762    1.2552 H   0  0  0  0  0  0  0  0  0  0  0  0
   -0.2608   -0.8470   -0.8656 C   0  0  0  0  0  0  0  0  0  0  0  0
    0.6776   -1.2796   -0.5164 H   0  0  0  0  0  0  0  0  0  0  0  0
   -0.7742   -1.6104   -1.4526 H   0  0  0  0  0  0  0  0  0  0  0  0
    0.0686    0.3348   -1.7570 C   0  0  0  0  0  0  0  0  0  0  0  0
    0.5756    0.1268   -3.0555 C   0  0  0  0  0  0  0  0  0  0  0  0
    0.7565   -0.8790   -3.4113 H   0  0  0  0  0  0  0  0  0  0  0  0
    0.8418    1.2266   -3.8943 C   0  0  0  0  0  0  0  0  0  0  0  0
    1.2315    1.0637   -4.8874 H   0  0  0  0  0  0  0  0  0  0  0  0
    0.5963    2.5385   -3.4338 C   0  0  0  0  0  0  0  0  0  0  0  0
    0.8469    3.6056   -4.2361 O   0  0  0  0  0  0  0  0  0  0  0  0
    1.2730    3.3494   -5.0552 H   0  0  0  0  0  0  0  0  0  0  0  0
    0.0842    2.7445   -2.1360 C   0  0  0  0  0  0  0  0  0  0  0  0
   -0.0952    3.7526   -1.7938 H   0  0  0  0  0  0  0  0  0  0  0  0
   -0.1765    1.6435   -1.2983 C   0  0  0  0  0  0  0  0  0  0  0  0
   -0.5612    1.8029   -0.2980 H   0  0  0  0  0  0  0  0  0  0  0  0
   -1.4018    1.0238    0.4329 C   0  0  0  0  0  0  0  0  0  0  0  0
   -2.2416    1.5423   -0.3033 O   0  0  0  0  0  0  0  0  0  0  0  0
   -0.6927    1.7304    1.3223 N   0  0  0  0  0  0  0  0  0  0  0  0
    0.0178    1.2410    1.8469 H   0  0  0  0  0  0  0  0  0  0  0  0
   -0.8259    3.1712    1.5254 C   0  0  0  0  0  0  0  0  0  0  0  0
   -1.8769    3.4302    1.6645 H   0  0  0  0  0  0  0  0  0  0  0  0
   -0.2598    3.4806    2.4054 H   0  0  0  0  0  0  0  0  0  0  0  0
   -0.4486    3.7020    0.6489 H   0  0  0  0  0  0  0  0  0  0  0  0
  5  6  2  0  0  0  0
  5  7  1  0  0  0  0
  2  3  1  0  0  0  0
  2  4  1  0  0  0  0
  2  5  1  0  0  0  0
  1  2  1  0  0  0  0
 26 27  2  0  0  0  0
 26 28  1  0  0  0  0
 24 25  1  0  0  0  0
 22 23  1  0  0  0  0
 22 24  2  0  0  0  0
 20 21  1  0  0  0  0
 19 20  1  0  0  0  0
 19 22  1  0  0  0  0
 17 18  1  0  0  0  0
 17 19  2  0  0  0  0
 15 16  1  0  0  0  0
 15 17  1  0  0  0  0
 14 15  2  0  0  0  0
 14 24  1  0  0  0  0
 11 12  1  0  0  0  0
 11 13  1  0  0  0  0
 11 14  1  0  0  0  0
  9 10  1  0  0  0  0
  9 11  1  0  0  0  0
  9 26  1  0  0  0  0
  7  8  1  0  0  0  0
  7  9  1  0  0  0  0
 30 31  1  0  0  0  0
 30 32  1  0  0  0  0
 30 33  1  0  0  0  0
 28 29  1  0  0  0  0
 28 30  1  0  0  0  0
M  END
$$$$
default_name
  -OEChem-02102213163D

 33 33  0     1  0  0  0  0  0999 V2000
   -4.0702   -3.8485    1.4554 H   0  0  0  0  0  0  0  0  0  0  0  0
   -4.0012   -2.9605    0.8284 C   0  0  0  0  0  0  0  0  0  0  0  0
   -4.7652   -2.2435    1.1234 H   0  0  0  0  0  0  0  0  0  0  0  0
   -4.1352   -3.2385   -0.2156 H   0  0  0  0  0  0  0  0  0  0  0  0
   -2.6362   -2.3395    1.0094 C   0  0  0  0  0  0  0  0  0  0  0  0
   -1.8292   -2.8395    1.7814 O   0  0  0  0  0  0  0  0  0  0  0  0
   -2.3832   -1.2445    0.2964 N   0  0  0  0  0  0  0  0  0  0  0  0
   -3.1102   -0.8685   -0.2946 H   0  0  0  0  0  0  0  0  0  0  0  0
   -1.1292   -0.4875    0.3524 C   0  0  1  0  0  0  0  0  0  0  0  0
   -0.5898   -0.7762    1.2552 H   0  0  0  0  0  0  0  0  0  0  0  0
   -0.2608   -0.8470   -0.8656 C   0  0  0  0  0  0  0  0  0  0  0  0
    0.6776   -1.2796   -0.5164 H   0  0  0  0  0  0  0  0  0  0  0  0
   -0.7742   -1.6104   -1.4526 H   0  0  0  0  0  0  0  0  0  0  0  0
    0.0686    0.3348   -1.7570 C   0  0  0  0  0  0  0  0  0  0  0  0
    0.2701    0.1487   -3.1394 C   0  0  0  0  0  0  0  0  0  0  0  0
    0.2160   -0.8447   -3.5654 H   0  0  0  0  0  0  0  0  0  0  0  0
    0.5358    1.2549   -3.9697 C   0  0  0  0  0  0  0  0  0  0  0  0
    0.6912    1.1086   -5.0276 H   0  0  0  0  0  0  0  0  0  0  0  0
    0.5963    2.5522   -3.4157 C   0  0  0  0  0  0  0  0  0  0  0  0
    0.8489    3.6259   -4.2084 O   0  0  0  0  0  0  0  0  0  0  0  0
    1.0591    3.3696   -5.1074 H   0  0  0  0  0  0  0  0  0  0  0  0
    0.3894    2.7372   -2.0330 C   0  0  0  0  0  0  0  0  0  0  0  0
    0.4426    3.7335   -1.6205 H   0  0  0  0  0  0  0  0  0  0  0  0
    0.1287    1.6289   -1.2049 C   0  0  0  0  0  0  0  0  0  0  0  0
   -0.0210    1.7707   -0.1412 H   0  0  0  0  0  0  0  0  0  0  0  0
   -1.4018    1.0238    0.4329 C   0  0  0  0  0  0  0  0  0  0  0  0
   -2.2416    1.5423   -0.3033 O   0  0  0  0  0  0  0  0  0  0  0  0
   -0.6927    1.7304    1.3223 N   0  0  0  0  0  0  0  0  0  0  0  0
    0.0178    1.2410    1.8469 H   0  0  0  0  0  0  0  0  0  0  0  0
   -0.8259    3.1712    1.5254 C   0  0  0  0  0  0  0  0  0  0  0  0
   -1.8769    3.4302    1.6645 H   0  0  0  0  0  0  0  0  0  0  0  0
   -0.2598    3.4806    2.4054 H   0  0  0  0  0  0  0  0  0  0  0  0
   -0.4486    3.7020    0.6489 H   0  0  0  0  0  0  0  0  0  0  0  0
  5  6  2  0  0  0  0
  5  7  1  0  0  0  0
  2  3  1  0  0  0  0
  2  4  1  0  0  0  0
  2  5  1  0  0  0  0
  1  2  1  0  0  0  0
 26 27  2  0  0  0  0
 26 28  1  0  0  0  0
 24 25  1  0  0  0  0
 22 23  1  0  0  0  0
 22 24  2  0  0  0  0
 20 21  1  0  0  0  0
 19 20  1  0  0  0  0
 19 22  1  0  0  0  0
 17 18  1  0  0  0  0
 17 19  2  0  0  0  0
 15 16  1  0  0  0  0
 15 17  1  0  0  0  0
 14 15  2  0  0  0  0
 14 24  1  0  0  0  0
 11 12  1  0  0  0  0
 11 13  1  0  0  0  0
 11 14  1  0  0  0  0
  9 10  1  0  0  0  0
  9 11  1  0  0  0  0
  9 26  1  0  0  0  0
  7  8  1  0  0  0  0
  7  9  1  0  0  0  0
 30 31  1  0  0  0  0
 30 32  1  0  0  0  0
 30 33  1  0  0  0  0
 28 29  1  0  0  0  0
 28 30  1  0  0  0  0
M  END
$$$$
default_name
  -OEChem-02102213163D

 33 33  0     1  0  0  0  0  0999 V2000
   -4.0702   -3.8485    1.4554 H   0  0  0  0  0  0  0  0  0  0  0  0
   -4.0012   -2.9605    0.8284 C   0  0  0  0  0  0  0  0  0  0  0  0
   -4.7652   -2.2435    1.1234 H   0  0  0  0  0  0  0  0  0  0  0  0
   -4.1352   -3.2385   -0.2156 H   0  0  0  0  0  0  0  0  0  0  0  0
   -2.6362   -2.3395    1.0094 C   0  0  0  0  0  0  0  0  0  0  0  0
   -1.8292   -2.8395    1.7814 O   0  0  0  0  0  0  0  0  0  0  0  0
   -2.3832   -1.2445    0.2964 N   0  0  0  0  0  0  0  0  0  0  0  0
   -3.1102   -0.8685   -0.2946 H   0  0  0  0  0  0  0  0  0  0  0  0
   -1.1292   -0.4875    0.3524 C   0  0  1  0  0  0  0  0  0  0  0  0
   -0.5898   -0.7762    1.2552 H   0  0  0  0  0  0  0  0  0  0  0  0
   -0.2608   -0.8470   -0.8656 C   0  0  0  0  0  0  0  0  0  0  0  0
    0.6776   -1.2796   -0.5164 H   0  0  0  0  0  0  0  0  0  0  0  0
   -0.7742   -1.6104   -1.4526 H   0  0  0  0  0  0  0  0  0  0  0  0
    0.0686    0.3348   -1.7570 C   0  0  0  0  0  0  0  0  0  0  0  0
   -0.0386    0.2209   -3.1577 C   0  0  0  0  0  0  0  0  0  0  0  0
   -0.3319   -0.7206   -3.6034 H   0  0  0  0  0  0  0  0  0  0  0  0
    0.2293    1.3332   -3.9793 C   0  0  0  0  0  0  0  0  0  0  0  0
    0.1478    1.2420   -5.0515 H   0  0  0  0  0  0  0  0  0  0  0  0
    0.6020    2.5644   -3.3974 C   0  0  0  0  0  0  0  0  0  0  0  0
    0.8596    3.6437   -4.1809 O   0  0  0  0  0  0  0  0  0  0  0  0
    0.8450    3.4246   -5.1135 H   0  0  0  0  0  0  0  0  0  0  0  0
    0.7040    2.6779   -1.9954 C   0  0  0  0  0  0  0  0  0  0  0  0
    0.9941    3.6234   -1.5626 H   0  0  0  0  0  0  0  0  0  0  0  0
    0.4400    1.5631   -1.1771 C   0  0  0  0  0  0  0  0  0  0  0  0
    0.5276    1.6485   -0.1005 H   0  0  0  0  0  0  0  0  0  0  0  0
   -1.4018    1.0238    0.4329 C   0  0  0  0  0  0  0  0  0  0  0  0
   -2.2416    1.5423   -0.3033 O   0  0  0  0  0  0  0  0  0  0  0  0
   -0.6927    1.7304    1.3223 N   0  0  0  0  0  0  0  0  0  0  0  0
    0.0178    1.2410    1.8469 H   0  0  0  0  0  0  0  0  0  0  0  0
   -0.8259    3.1712    1.5254 C   0  0  0  0  0  0  0  0  0  0  0  0
   -1.8769    3.4302    1.6645 H   0  0  0  0  0  0  0  0  0  0  0  0
   -0.2598    3.4806    2.4054 H   0  0  0  0  0  0  0  0  0  0  0  0
   -0.4486    3.7020    0.6489 H   0  0  0  0  0  0  0  0  0  0  0  0
  5  6  2  0  0  0  0
  5  7  1  0  0  0  0
  2  3  1  0  0  0  0
  2  4  1  0  0  0  0
  2  5  1  0  0  0  0
  1  2  1  0  0  0  0
 26 27  2  0  0  0  0
 26 28  1  0  0  0  0
 24 25  1  0  0  0  0
 22 23  1  0  0  0  0
 22 24  2  0  0  0  0
 20 21  1  0  0  0  0
 19 20  1  0  0  0  0
 19 22  1  0  0  0  0
 17 18  1  0  0  0  0
 17 19  2  0  0  0  0
 15 16  1  0  0  0  0
 15 17  1  0  0  0  0
 14 15  2  0  0  0  0
 14 24  1  0  0  0  0
 11 12  1  0  0  0  0
 11 13  1  0  0  0  0
 11 14  1  0  0  0  0
  9 10  1  0  0  0  0
  9 11  1  0  0  0  0
  9 26  1  0  0  0  0
  7  8  1  0  0  0  0
  7  9  1  0  0  0  0
 30 31  1  0  0  0  0
 30 32  1  0  0  0  0
 30 33  1  0  0  0  0
 28 29  1  0  0  0  0
 28 30  1  0  0  0  0
M  END
$$$$
default_name
  -OEChem-02102213163D

 33 33  0     1  0  0  0  0  0999 V2000
   -4.0702   -3.8485    1.4554 H   0  0  0  0  0  0  0  0  0  0  0  0
   -4.0012   -2.9605    0.8284 C   0  0  0  0  0  0  0  0  0  0  0  0
   -4.7652   -2.2435    1.1234 H   0  0  0  0  0  0  0  0  0  0  0  0
   -4.1352   -3.2385   -0.2156 H   0  0  0  0  0  0  0  0  0  0  0  0
   -2.6362   -2.3395    1.0094 C   0  0  0  0  0  0  0  0  0  0  0  0
   -1.8292   -2.8395    1.7814 O   0  0  0  0  0  0  0  0  0  0  0  0
   -2.3832   -1.2445    0.2964 N   0  0  0  0  0  0  0  0  0  0  0  0
   -3.1102   -0.8685   -0.2946 H   0  0  0  0  0  0  0  0  0  0  0  0
   -1.1292   -0.4875    0.3524 C   0  0  1  0  0  0  0  0  0  0  0  0
   -0.5898   -0.7762    1.2552 H   0  0  0  0  0  0  0  0  0  0  0  0
   -0.2608   -0.8470   -0.8656 C   0  0  0  0  0  0  0  0  0  0  0  0
    0.6776   -1.2796   -0.5164 H   0  0  0  0  0  0  0  0  0  0  0  0
   -0.7742   -1.6104   -1.4526 H   0  0  0  0  0  0  0  0  0  0  0  0
    0.0686    0.3348   -1.7570 C   0  0  0  0  0  0  0  0  0  0  0  0
   -0.3295    0.3387   -3.1090 C   0  0  0  0  0  0  0  0  0  0  0  0
   -0.8499   -0.5152   -3.5226 H   0  0  0  0  0  0  0  0  0  0  0  0
   -0.0568    1.4559   -3.9223 C   0  0  0  0  0  0  0  0  0  0  0  0
   -0.3617    1.4549   -4.9575 H   0  0  0  0  0  0  0  0  0  0  0  0
    0.6131    2.5743   -3.3802 C   0  0  0  0  0  0  0  0  0  0  0  0
    0.8781    3.6578   -4.1555 O   0  0  0  0  0  0  0  0  0  0  0  0
    0.6454    3.5107   -5.0732 H   0  0  0  0  0  0  0  0  0  0  0  0
    1.0063    2.5706   -2.0258 C   0  0  0  0  0  0  0  0  0  0  0  0
    1.5217    3.4300   -1.6240 H   0  0  0  0  0  0  0  0  0  0  0  0
    0.7364    1.4506   -1.2167 C   0  0  0  0  0  0  0  0  0  0  0  0
    1.0470    1.4448   -0.1787 H   0  0  0  0  0  0  0  0  0  0  0  0
   -1.4018    1.0238    0.4329 C   0  0  0  0  0  0  0  0  0  0  0  0
   -2.2416    1.5423   -0.3033 O   0  0  0  0  0  0  0  0  0  0  0  0
   -0.6927    1.7304    1.3223 N   0  0  0  0  0  0  0  0  0  0  0  0
    0.0178    1.2410    1.8469 H   0  0  0  0  0  0  0  0  0  0  0  0
   -0.8259    3.1712    1.5254 C   0  0  0  0  0  0  0  0  0  0  0  0
   -1.8769    3.4302    1.6645 H   0  0  0  0  0  0  0  0  0  0  0  0
   -0.2598    3.4806    2.4054 H   0  0  0  0  0  0  0  0  0  0  0  0
   -0.4486    3.7020    0.6489 H   0  0  0  0  0  0  0  0  0  0  0  0
  5  6  2  0  0  0  0
  5  7  1  0  0  0  0
  2  3  1  0  0  0  0
  2  4  1  0  0  0  0
  2  5  1  0  0  0  0
  1  2  1  0  0  0  0
 26 27  2  0  0  0  0
 26 28  1  0  0  0  0
 24 25  1  0  0  0  0
 22 23  1  0  0  0  0
 22 24  2  0  0  0  0
 20 21  1  0  0  0  0
 19 20  1  0  0  0  0
 19 22  1  0  0  0  0
 17 18  1  0  0  0  0
 17 19  2  0  0  0  0
 15 16  1  0  0  0  0
 15 17  1  0  0  0  0
 14 15  2  0  0  0  0
 14 24  1  0  0  0  0
 11 12  1  0  0  0  0
 11 13  1  0  0  0  0
 11 14  1  0  0  0  0
  9 10  1  0  0  0  0
  9 11  1  0  0  0  0
  9 26  1  0  0  0  0
  7  8  1  0  0  0  0
  7  9  1  0  0  0  0
 30 31  1  0  0  0  0
 30 32  1  0  0  0  0
 30 33  1  0  0  0  0
 28 29  1  0  0  0  0
 28 30  1  0  0  0  0
M  END
$$$$
default_name
  -OEChem-02102213163D

 33 33  0     1  0  0  0  0  0999 V2000
   -4.0702   -3.8485    1.4554 H   0  0  0  0  0  0  0  0  0  0  0  0
   -4.0012   -2.9605    0.8284 C   0  0  0  0  0  0  0  0  0  0  0  0
   -4.7652   -2.2435    1.1234 H   0  0  0  0  0  0  0  0  0  0  0  0
   -4.1352   -3.2385   -0.2156 H   0  0  0  0  0  0  0  0  0  0  0  0
   -2.6362   -2.3395    1.0094 C   0  0  0  0  0  0  0  0  0  0  0  0
   -1.8292   -2.8395    1.7814 O   0  0  0  0  0  0  0  0  0  0  0  0
   -2.3832   -1.2445    0.2964 N   0  0  0  0  0  0  0  0  0  0  0  0
   -3.1102   -0.8685   -0.2946 H   0  0  0  0  0  0  0  0  0  0  0  0
   -1.1292   -0.4875    0.3524 C   0  0  1  0  0  0  0  0  0  0  0  0
   -0.5898   -0.7762    1.2552 H   0  0  0  0  0  0  0  0  0  0  0  0
   -0.2608   -0.8470   -0.8656 C   0  0  0  0  0  0  0  0  0  0  0  0
    0.6776   -1.2796   -0.5164 H   0  0  0  0  0  0  0  0  0  0  0  0
   -0.7742   -1.6104   -1.4526 H   0  0  0  0  0  0  0  0  0  0  0  0
    0.0686    0.3348   -1.7570 C   0  0  0  0  0  0  0  0  0  0  0  0
   -0.5827    0.4941   -2.9967 C   0  0  0  0  0  0  0  0  0  0  0  0
   -1.3027   -0.2426   -3.3285 H   0  0  0  0  0  0  0  0  0  0  0  0
   -0.3030    1.6147   -3.8027 C   0  0  0  0  0  0  0  0  0  0  0  0
   -0.8024    1.7327   -4.7520 H   0  0  0  0  0  0  0  0  0  0  0  0
    0.6288    2.5812   -3.3652 C   0  0  0  0  0  0  0  0  0  0  0  0
    0.9033    3.6671   -4.1338 O   0  0  0  0  0  0  0  0  0  0  0  0
    0.4738    3.6219   -4.9891 H   0  0  0  0  0  0  0  0  0  0  0  0
    1.2759    2.4227   -2.1222 C   0  0  0  0  0  0  0  0  0  0  0  0
    1.9896    3.1663   -1.8007 H   0  0  0  0  0  0  0  0  0  0  0  0
    0.9975    1.2991   -1.3210 C   0  0  0  0  0  0  0  0  0  0  0  0
    1.5020    1.1733   -0.3704 H   0  0  0  0  0  0  0  0  0  0  0  0
   -1.4018    1.0238    0.4329 C   0  0  0  0  0  0  0  0  0  0  0  0
   -2.2416    1.5423   -0.3033 O   0  0  0  0  0  0  0  0  0  0  0  0
   -0.6927    1.7304    1.3223 N   0  0  0  0  0  0  0  0  0  0  0  0
    0.0178    1.2410    1.8469 H   0  0  0  0  0  0  0  0  0  0  0  0
   -0.8259    3.1712    1.5254 C   0  0  0  0  0  0  0  0  0  0  0  0
   -1.8769    3.4302    1.6645 H   0  0  0  0  0  0  0  0  0  0  0  0
   -0.2598    3.4806    2.4054 H   0  0  0  0  0  0  0  0  0  0  0  0
   -0.4486    3.7020    0.6489 H   0  0  0  0  0  0  0  0  0  0  0  0
  5  6  2  0  0  0  0
  5  7  1  0  0  0  0
  2  3  1  0  0  0  0
  2  4  1  0  0  0  0
  2  5  1  0  0  0  0
  1  2  1  0  0  0  0
 26 27  2  0  0  0  0
 26 28  1  0  0  0  0
 24 25  1  0  0  0  0
 22 23  1  0  0  0  0
 22 24  2  0  0  0  0
 20 21  1  0  0  0  0
 19 20  1  0  0  0  0
 19 22  1  0  0  0  0
 17 18  1  0  0  0  0
 17 19  2  0  0  0  0
 15 16  1  0  0  0  0
 15 17  1  0  0  0  0
 14 15  2  0  0  0  0
 14 24  1  0  0  0  0
 11 12  1  0  0  0  0
 11 13  1  0  0  0  0
 11 14  1  0  0  0  0
  9 10  1  0  0  0  0
  9 11  1  0  0  0  0
  9 26  1  0  0  0  0
  7  8  1  0  0  0  0
  7  9  1  0  0  0  0
 30 31  1  0  0  0  0
 30 32  1  0  0  0  0
 30 33  1  0  0  0  0
 28 29  1  0  0  0  0
 28 30  1  0  0  0  0
M  END
$$$$
default_name
  -OEChem-02102213163D

 33 33  0     1  0  0  0  0  0999 V2000
   -4.0702   -3.8485    1.4554 H   0  0  0  0  0  0  0  0  0  0  0  0
   -4.0012   -2.9605    0.8284 C   0  0  0  0  0  0  0  0  0  0  0  0
   -4.7652   -2.2435    1.1234 H   0  0  0  0  0  0  0  0  0  0  0  0
   -4.1352   -3.2385   -0.2156 H   0  0  0  0  0  0  0  0  0  0  0  0
   -2.6362   -2.3395    1.0094 C   0  0  0  0  0  0  0  0  0  0  0  0
   -1.8292   -2.8395    1.7814 O   0  0  0  0  0  0  0  0  0  0  0  0
   -2.3832   -1.2445    0.2964 N   0  0  0  0  0  0  0  0  0  0  0  0
   -3.1102   -0.8685   -0.2946 H   0  0  0  0  0  0  0  0  0  0  0  0
   -1.1292   -0.4875    0.3524 C   0  0  1  0  0  0  0  0  0  0  0  0
   -0.5898   -0.7762    1.2552 H   0  0  0  0  0  0  0  0  0  0  0  0
   -0.2608   -0.8470   -0.8656 C   0  0  0  0  0  0  0  0  0  0  0  0
    0.6776   -1.2796   -0.5164 H   0  0  0  0  0  0  0  0  0  0  0  0
   -0.7742   -1.6104   -1.4526 H   0  0  0  0  0  0  0  0  0  0  0  0
    0.0686    0.3348   -1.7570 C   0  0  0  0  0  0  0  0  0  0  0  0
   -0.7811    0.6763   -2.8284 C   0  0  0  0  0  0  0  0  0  0  0  0
   -1.6594    0.0787   -3.0344 H   0  0  0  0  0  0  0  0  0  0  0  0
   -0.4925    1.7989   -3.6285 C   0  0  0  0  0  0  0  0  0  0  0  0
   -1.1444    2.0566   -4.4490 H   0  0  0  0  0  0  0  0  0  0  0  0
    0.6480    2.5847   -3.3536 C   0  0  0  0  0  0  0  0  0  0  0  0
    0.9334    3.6710   -4.1175 O   0  0  0  0  0  0  0  0  0  0  0  0
    0.3419    3.7508   -4.8670 H   0  0  0  0  0  0  0  0  0  0  0  0
    1.4944    2.2443   -2.2781 C   0  0  0  0  0  0  0  0  0  0  0  0
    2.3657    2.8503   -2.0806 H   0  0  0  0  0  0  0  0  0  0  0  0
    1.2057    1.1189   -1.4830 C   0  0  0  0  0  0  0  0  0  0  0  0
    1.8615    0.8526   -0.6626 H   0  0  0  0  0  0  0  0  0  0  0  0
   -1.4018    1.0238    0.4329 C   0  0  0  0  0  0  0  0  0  0  0  0
   -2.2416    1.5423   -0.3033 O   0  0  0  0  0  0  0  0  0  0  0  0
   -0.6927    1.7304    1.3223 N   0  0  0  0  0  0  0  0  0  0  0  0
    0.0178    1.2410    1.8469 H   0  0  0  0  0  0  0  0  0  0  0  0
   -0.8259    3.1712    1.5254 C   0  0  0  0  0  0  0  0  0  0  0  0
   -1.8769    3.4302    1.6645 H   0  0  0  0  0  0  0  0  0  0  0  0
   -0.2598    3.4806    2.4054 H   0  0  0  0  0  0  0  0  0  0  0  0
   -0.4486    3.7020    0.6489 H   0  0  0  0  0  0  0  0  0  0  0  0
  5  6  2  0  0  0  0
  5  7  1  0  0  0  0
  2  3  1  0  0  0  0
  2  4  1  0  0  0  0
  2  5  1  0  0  0  0
  1  2  1  0  0  0  0
 26 27  2  0  0  0  0
 26 28  1  0  0  0  0
 24 25  1  0  0  0  0
 22 23  1  0  0  0  0
 22 24  2  0  0  0  0
 20 21  1  0  0  0  0
 19 20  1  0  0  0  0
 19 22  1  0  0  0  0
 17 18  1  0  0  0  0
 17 19  2  0  0  0  0
 15 16  1  0  0  0  0
 15 17  1  0  0  0  0
 14 15  2  0  0  0  0
 14 24  1  0  0  0  0
 11 12  1  0  0  0  0
 11 13  1  0  0  0  0
 11 14  1  0  0  0  0
  9 10  1  0  0  0  0
  9 11  1  0  0  0  0
  9 26  1  0  0  0  0
  7  8  1  0  0  0  0
  7  9  1  0  0  0  0
 30 31  1  0  0  0  0
 30 32  1  0  0  0  0
 30 33  1  0  0  0  0
 28 29  1  0  0  0  0
 28 30  1  0  0  0  0
M  END
$$$$
default_name
  -OEChem-02102213163D

 33 33  0     1  0  0  0  0  0999 V2000
   -4.0702   -3.8485    1.4554 H   0  0  0  0  0  0  0  0  0  0  0  0
   -4.0012   -2.9605    0.8284 C   0  0  0  0  0  0  0  0  0  0  0  0
   -4.7652   -2.2435    1.1234 H   0  0  0  0  0  0  0  0  0  0  0  0
   -4.1352   -3.2385   -0.2156 H   0  0  0  0  0  0  0  0  0  0  0  0
   -2.6362   -2.3395    1.0094 C   0  0  0  0  0  0  0  0  0  0  0  0
   -1.8292   -2.8395    1.7814 O   0  0  0  0  0  0  0  0  0  0  0  0
   -2.3832   -1.2445    0.2964 N   0  0  0  0  0  0  0  0  0  0  0  0
   -3.1102   -0.8685   -0.2946 H   0  0  0  0  0  0  0  0  0  0  0  0
   -1.1292   -0.4875    0.3524 C   0  0  1  0  0  0  0  0  0  0  0  0
   -0.5898   -0.7762    1.2552 H   0  0  0  0  0  0  0  0  0  0  0  0
   -0.2608   -0.8470   -0.8656 C   0  0  0  0  0  0  0  0  0  0  0  0
    0.6776   -1.2796   -0.5164 H   0  0  0  0  0  0  0  0  0  0  0  0
   -0.7742   -1.6104   -1.4526 H   0  0  0  0  0  0  0  0  0  0  0  0
    0.0686    0.3348   -1.7570 C   0  0  0  0  0  0  0  0  0  0  0  0
   -0.9110    0.8730   -2.6156 C   0  0  0  0  0  0  0  0  0  0  0  0
   -1.8958    0.4268   -2.6602 H   0  0  0  0  0  0  0  0  0  0  0  0
   -0.6123    1.9959   -3.4117 C   0  0  0  0  0  0  0  0  0  0  0  0
   -1.3643    2.4045   -4.0692 H   0  0  0  0  0  0  0  0  0  0  0  0
    0.6694    2.5844   -3.3460 C   0  0  0  0  0  0  0  0  0  0  0  0
    0.9663    3.6693   -4.1076 O   0  0  0  0  0  0  0  0  0  0  0  0
    0.2588    3.8884   -4.7153 H   0  0  0  0  0  0  0  0  0  0  0  0
    1.6468    2.0475   -2.4827 C   0  0  0  0  0  0  0  0  0  0  0  0
    2.6246    2.5036   -2.4445 H   0  0  0  0  0  0  0  0  0  0  0  0
    1.3467    0.9223   -1.6915 C   0  0  0  0  0  0  0  0  0  0  0  0
    2.1011    0.5047   -1.0354 H   0  0  0  0  0  0  0  0  0  0  0  0
   -1.4018    1.0238    0.4329 C   0  0  0  0  0  0  0  0  0  0  0  0
   -2.2416    1.5423   -0.3033 O   0  0  0  0  0  0  0  0  0  0  0  0
   -0.6927    1.7304    1.3223 N   0  0  0  0  0  0  0  0  0  0  0  0
    0.0178    1.2410    1.8469 H   0  0  0  0  0  0  0  0  0  0  0  0
   -0.8259    3.1712    1.5254 C   0  0  0  0  0  0  0  0  0  0  0  0
   -1.8769    3.4302    1.6645 H   0  0  0  0  0  0  0  0  0  0  0  0
   -0.2598    3.4806    2.4054 H   0  0  0  0  0  0  0  0  0  0  0  0
   -0.4486    3.7020    0.6489 H   0  0  0  0  0  0  0  0  0  0  0  0
  5  6  2  0  0  0  0
  5  7  1  0  0  0  0
  2  3  1  0  0  0  0
  2  4  1  0  0  0  0
  2  5  1  0  0  0  0
  1  2  1  0  0  0  0
 26 27  2  0  0  0  0
 26 28  1  0  0  0  0
 24 25  1  0  0  0  0
 22 23  1  0  0  0  0
 22 24  2  0  0  0  0
 20 21  1  0  0  0  0
 19 20  1  0  0  0  0
 19 22  1  0  0  0  0
 17 18  1  0  0  0  0
 17 19  2  0  0  0  0
 15 16  1  0  0  0  0
 15 17  1  0  0  0  0
 14 15  2  0  0  0  0
 14 24  1  0  0  0  0
 11 12  1  0  0  0  0
 11 13  1  0  0  0  0
 11 14  1  0  0  0  0
  9 10  1  0  0  0  0
  9 11  1  0  0  0  0
  9 26  1  0  0  0  0
  7  8  1  0  0  0  0
  7  9  1  0  0  0  0
 30 31  1  0  0  0  0
 30 32  1  0  0  0  0
 30 33  1  0  0  0  0
 28 29  1  0  0  0  0
 28 30  1  0  0  0  0
M  END
$$$$
default_name
  -OEChem-02102213163D

 33 33  0     1  0  0  0  0  0999 V2000
   -4.0702   -3.8485    1.4554 H   0  0  0  0  0  0  0  0  0  0  0  0
   -4.0012   -2.9605    0.8284 C   0  0  0  0  0  0  0  0  0  0  0  0
   -4.7652   -2.2435    1.1234 H   0  0  0  0  0  0  0  0  0  0  0  0
   -4.1352   -3.2385   -0.2156 H   0  0  0  0  0  0  0  0  0  0  0  0
   -2.6362   -2.3395    1.0094 C   0  0  0  0  0  0  0  0  0  0  0  0
   -1.8292   -2.8395    1.7814 O   0  0  0  0  0  0  0  0  0  0  0  0
   -2.3832   -1.2445    0.2964 N   0  0  0  0  0  0  0  0  0  0  0  0
   -3.1102   -0.8685   -0.2946 H   0  0  0  0  0  0  0  0  0  0  0  0
   -1.1292   -0.4875    0.3524 C   0  0  1  0  0  0  0  0  0  0  0  0
   -0.5898   -0.7762    1.2552 H   0  0  0  0  0  0  0  0  0  0  0  0
   -0.2608   -0.8470   -0.8656 C   0  0  0  0  0  0  0  0  0  0  0  0
    0.6776   -1.2796   -0.5164 H   0  0  0  0  0  0  0  0  0  0  0  0
   -0.7742   -1.6104   -1.4526 H   0  0  0  0  0  0  0  0  0  0  0  0
    0.0686    0.3348   -1.7570 C   0  0  0  0  0  0  0  0  0  0  0  0
   -0.9636    1.0709   -2.3727 C   0  0  0  0  0  0  0  0  0  0  0  0
   -1.9957    0.7780   -2.2316 H   0  0  0  0  0  0  0  0  0  0  0  0
   -0.6545    2.1922   -3.1671 C   0  0  0  0  0  0  0  0  0  0  0  0
   -1.4472    2.7526   -3.6383 H   0  0  0  0  0  0  0  0  0  0  0  0
    0.6916    2.5805   -3.3430 C   0  0  0  0  0  0  0  0  0  0  0  0
    0.9999    3.6621   -4.1047 O   0  0  0  0  0  0  0  0  0  0  0  0
    0.2300    4.0255   -4.5442 H   0  0  0  0  0  0  0  0  0  0  0  0
    1.7228    1.8456   -2.7221 C   0  0  0  0  0  0  0  0  0  0  0  0
    2.7484    2.1499   -2.8678 H   0  0  0  0  0  0  0  0  0  0  0  0
    1.4109    0.7226   -1.9325 C   0  0  0  0  0  0  0  0  0  0  0  0
    2.2043    0.1530   -1.4634 H   0  0  0  0  0  0  0  0  0  0  0  0
   -1.4018    1.0238    0.4329 C   0  0  0  0  0  0  0  0  0  0  0  0
   -2.2416    1.5423   -0.3033 O   0  0  0  0  0  0  0  0  0  0  0  0
   -0.6927    1.7304    1.3223 N   0  0  0  0  0  0  0  0  0  0  0  0
    0.0178    1.2410    1.8469 H   0  0  0  0  0  0  0  0  0  0  0  0
   -0.8259    3.1712    1.5254 C   0  0  0  0  0  0  0  0  0  0  0  0
   -1.8769    3.4302    1.6645 H   0  0  0  0  0  0  0  0  0  0  0  0
   -0.2598    3.4806    2.4054 H   0  0  0  0  0  0  0  0  0  0  0  0
   -0.4486    3.7020    0.6489 H   0  0  0  0  0  0  0  0  0  0  0  0
  5  6  2  0  0  0  0
  5  7  1  0  0  0  0
  2  3  1  0  0  0  0
  2  4  1  0  0  0  0
  2  5  1  0  0  0  0
  1  2  1  0  0  0  0
 26 27  2  0  0  0  0
 26 28  1  0  0  0  0
 24 25  1  0  0  0  0
 22 23  1  0  0  0  0
 22 24  2  0  0  0  0
 20 21  1  0  0  0  0
 19 20  1  0  0  0  0
 19 22  1  0  0  0  0
 17 18  1  0  0  0  0
 17 19  2  0  0  0  0
 15 16  1  0  0  0  0
 15 17  1  0  0  0  0
 14 15  2  0  0  0  0
 14 24  1  0  0  0  0
 11 12  1  0  0  0  0
 11 13  1  0  0  0  0
 11 14  1  0  0  0  0
  9 10  1  0  0  0  0
  9 11  1  0  0  0  0
  9 26  1  0  0  0  0
  7  8  1  0  0  0  0
  7  9  1  0  0  0  0
 30 31  1  0  0  0  0
 30 32  1  0  0  0  0
 30 33  1  0  0  0  0
 28 29  1  0  0  0  0
 28 30  1  0  0  0  0
M  END
$$$$
default_name
  -OEChem-02102213163D

 33 33  0     1  0  0  0  0  0999 V2000
   -4.0702   -3.8485    1.4554 H   0  0  0  0  0  0  0  0  0  0  0  0
   -4.0012   -2.9605    0.8284 C   0  0  0  0  0  0  0  0  0  0  0  0
   -4.7652   -2.2435    1.1234 H   0  0  0  0  0  0  0  0  0  0  0  0
   -4.1352   -3.2385   -0.2156 H   0  0  0  0  0  0  0  0  0  0  0  0
   -2.6362   -2.3395    1.0094 C   0  0  0  0  0  0  0  0  0  0  0  0
   -1.8292   -2.8395    1.7814 O   0  0  0  0  0  0  0  0  0  0  0  0
   -2.3832   -1.2445    0.2964 N   0  0  0  0  0  0  0  0  0  0  0  0
   -3.1102   -0.8685   -0.2946 H   0  0  0  0  0  0  0  0  0  0  0  0
   -1.1292   -0.4875    0.3524 C   0  0  1  0  0  0  0  0  0  0  0  0
   -0.5898   -0.7762    1.2552 H   0  0  0  0  0  0  0  0  0  0  0  0
   -0.2608   -0.8470   -0.8656 C   0  0  0  0  0  0  0  0  0  0  0  0
    0.6776   -1.2796   -0.5164 H   0  0  0  0  0  0  0  0  0  0  0  0
   -0.7742   -1.6104   -1.4526 H   0  0  0  0  0  0  0  0  0  0  0  0
    0.0686    0.3348   -1.7570 C   0  0  0  0  0  0  0  0  0  0  0  0
   -0.9353    1.2563   -2.1165 C   0  0  0  0  0  0  0  0  0  0  0  0
   -1.9524    1.1084   -1.7777 H   0  0  0  0  0  0  0  0  0  0  0  0
   -0.6159    2.3744   -2.9113 C   0  0  0  0  0  0  0  0  0  0  0  0
   -1.3874    3.0772   -3.1859 H   0  0  0  0  0  0  0  0  0  0  0  0
    0.7130    2.5732   -3.3448 C   0  0  0  0  0  0  0  0  0  0  0  0
    1.0318    3.6498   -4.1092 O   0  0  0  0  0  0  0  0  0  0  0  0
    0.2576    4.1527   -4.3655 H   0  0  0  0  0  0  0  0  0  0  0  0
    1.7173    1.6526   -2.9801 C   0  0  0  0  0  0  0  0  0  0  0  0
    2.7288    1.8131   -3.3214 H   0  0  0  0  0  0  0  0  0  0  0  0
    1.3940    0.5335   -2.1894 C   0  0  0  0  0  0  0  0  0  0  0  0
    2.1642   -0.1783   -1.9174 H   0  0  0  0  0  0  0  0  0  0  0  0
   -1.4018    1.0238    0.4329 C   0  0  0  0  0  0  0  0  0  0  0  0
   -2.2416    1.5423   -0.3033 O   0  0  0  0  0  0  0  0  0  0  0  0
   -0.6927    1.7304    1.3223 N   0  0  0  0  0  0  0  0  0  0  0  0
    0.0178    1.2410    1.8469 H   0  0  0  0  0  0  0  0  0  0  0  0
   -0.8259    3.1712    1.5254 C   0  0  0  0  0  0  0  0  0  0  0  0
   -1.8769    3.4302    1.6645 H   0  0  0  0  0  0  0  0  0  0  0  0
   -0.2598    3.4806    2.4054 H   0  0  0  0  0  0  0  0  0  0  0  0
   -0.4486    3.7020    0.6489 H   0  0  0  0  0  0  0  0  0  0  0  0
  5  6  2  0  0  0  0
  5  7  1  0  0  0  0
  2  3  1  0  0  0  0
  2  4  1  0  0  0  0
  2  5  1  0  0  0  0
  1  2  1  0  0  0  0
 26 27  2  0  0  0  0
 26 28  1  0  0  0  0
 24 25  1  0  0  0  0
 22 23  1  0  0  0  0
 22 24  2  0  0  0  0
 20 21  1  0  0  0  0
 19 20  1  0  0  0  0
 19 22  1  0  0  0  0
 17 18  1  0  0  0  0
 17 19  2  0  0  0  0
 15 16  1  0  0  0  0
 15 17  1  0  0  0  0
 14 15  2  0  0  0  0
 14 24  1  0  0  0  0
 11 12  1  0  0  0  0
 11 13  1  0  0  0  0
 11 14  1  0  0  0  0
  9 10  1  0  0  0  0
  9 11  1  0  0  0  0
  9 26  1  0  0  0  0
  7  8  1  0  0  0  0
  7  9  1  0  0  0  0
 30 31  1  0  0  0  0
 30 32  1  0  0  0  0
 30 33  1  0  0  0  0
 28 29  1  0  0  0  0
 28 30  1  0  0  0  0
M  END
$$$$
default_name
  -OEChem-02102213163D

 33 33  0     1  0  0  0  0  0999 V2000
   -4.0702   -3.8485    1.4554 H   0  0  0  0  0  0  0  0  0  0  0  0
   -4.0012   -2.9605    0.8284 C   0  0  0  0  0  0  0  0  0  0  0  0
   -4.7652   -2.2435    1.1234 H   0  0  0  0  0  0  0  0  0  0  0  0
   -4.1352   -3.2385   -0.2156 H   0  0  0  0  0  0  0  0  0  0  0  0
   -2.6362   -2.3395    1.0094 C   0  0  0  0  0  0  0  0  0  0  0  0
   -1.8292   -2.8395    1.7814 O   0  0  0  0  0  0  0  0  0  0  0  0
   -2.3832   -1.2445    0.2964 N   0  0  0  0  0  0  0  0  0  0  0  0
   -3.1102   -0.8685   -0.2946 H   0  0  0  0  0  0  0  0  0  0  0  0
   -1.1292   -0.4875    0.3524 C   0  0  1  0  0  0  0  0  0  0  0  0
   -0.5898   -0.7762    1.2552 H   0  0  0  0  0  0  0  0  0  0  0  0
   -0.2608   -0.8470   -0.8656 C   0  0  0  0  0  0  0  0  0  0  0  0
    0.6776   -1.2796   -0.5164 H   0  0  0  0  0  0  0  0  0  0  0  0
   -0.7742   -1.6104   -1.4526 H   0  0  0  0  0  0  0  0  0  0  0  0
    0.0686    0.3348   -1.7570 C   0  0  0  0  0  0  0  0  0  0  0  0
   -0.8281    1.4168   -1.8642 C   0  0  0  0  0  0  0  0  0  0  0  0
   -1.7687    1.3953   -1.3294 H   0  0  0  0  0  0  0  0  0  0  0  0
   -0.4994    2.5302   -2.6617 C   0  0  0  0  0  0  0  0  0  0  0  0
   -1.1891    3.3563   -2.7427 H   0  0  0  0  0  0  0  0  0  0  0  0
    0.7323    2.5629   -3.3513 C   0  0  0  0  0  0  0  0  0  0  0  0
    1.0599    3.6334   -4.1206 O   0  0  0  0  0  0  0  0  0  0  0  0
    0.3396    4.2613   -4.1912 H   0  0  0  0  0  0  0  0  0  0  0  0
    1.6305    1.4815   -3.2390 C   0  0  0  0  0  0  0  0  0  0  0  0
    2.5672    1.5162   -3.7746 H   0  0  0  0  0  0  0  0  0  0  0  0
    1.2970    0.3679   -2.4448 C   0  0  0  0  0  0  0  0  0  0  0  0
    1.9835   -0.4667   -2.3664 H   0  0  0  0  0  0  0  0  0  0  0  0
   -1.4018    1.0238    0.4329 C   0  0  0  0  0  0  0  0  0  0  0  0
   -2.2416    1.5423   -0.3033 O   0  0  0  0  0  0  0  0  0  0  0  0
   -0.6927    1.7304    1.3223 N   0  0  0  0  0  0  0  0  0  0  0  0
    0.0178    1.2410    1.8469 H   0  0  0  0  0  0  0  0  0  0  0  0
   -0.8259    3.1712    1.5254 C   0  0  0  0  0  0  0  0  0  0  0  0
   -1.8769    3.4302    1.6645 H   0  0  0  0  0  0  0  0  0  0  0  0
   -0.2598    3.4806    2.4054 H   0  0  0  0  0  0  0  0  0  0  0  0
   -0.4486    3.7020    0.6489 H   0  0  0  0  0  0  0  0  0  0  0  0
  5  6  2  0  0  0  0
  5  7  1  0  0  0  0
  2  3  1  0  0  0  0
  2  4  1  0  0  0  0
  2  5  1  0  0  0  0
  1  2  1  0  0  0  0
 26 27  2  0  0  0  0
 26 28  1  0  0  0  0
 24 25  1  0  0  0  0
 22 23  1  0  0  0  0
 22 24  2  0  0  0  0
 20 21  1  0  0  0  0
 19 20  1  0  0  0  0
 19 22  1  0  0  0  0
 17 18  1  0  0  0  0
 17 19  2  0  0  0  0
 15 16  1  0  0  0  0
 15 17  1  0  0  0  0
 14 15  2  0  0  0  0
 14 24  1  0  0  0  0
 11 12  1  0  0  0  0
 11 13  1  0  0  0  0
 11 14  1  0  0  0  0
  9 10  1  0  0  0  0
  9 11  1  0  0  0  0
  9 26  1  0  0  0  0
  7  8  1  0  0  0  0
  7  9  1  0  0  0  0
 30 31  1  0  0  0  0
 30 32  1  0  0  0  0
 30 33  1  0  0  0  0
 28 29  1  0  0  0  0
 28 30  1  0  0  0  0
M  END
$$$$
default_name
  -OEChem-02102213163D

 33 33  0     1  0  0  0  0  0999 V2000
   -4.0702   -3.8485    1.4554 H   0  0  0  0  0  0  0  0  0  0  0  0
   -4.0012   -2.9605    0.8284 C   0  0  0  0  0  0  0  0  0  0  0  0
   -4.7652   -2.2435    1.1234 H   0  0  0  0  0  0  0  0  0  0  0  0
   -4.1352   -3.2385   -0.2156 H   0  0  0  0  0  0  0  0  0  0  0  0
   -2.6362   -2.3395    1.0094 C   0  0  0  0  0  0  0  0  0  0  0  0
   -1.8292   -2.8395    1.7814 O   0  0  0  0  0  0  0  0  0  0  0  0
   -2.3832   -1.2445    0.2964 N   0  0  0  0  0  0  0  0  0  0  0  0
   -3.1102   -0.8685   -0.2946 H   0  0  0  0  0  0  0  0  0  0  0  0
   -1.1292   -0.4875    0.3524 C   0  0  1  0  0  0  0  0  0  0  0  0
   -0.5898   -0.7762    1.2552 H   0  0  0  0  0  0  0  0  0  0  0  0
   -0.2608   -0.8470   -0.8656 C   0  0  0  0  0  0  0  0  0  0  0  0
    0.6776   -1.2796   -0.5164 H   0  0  0  0  0  0  0  0  0  0  0  0
   -0.7742   -1.6104   -1.4526 H   0  0  0  0  0  0  0  0  0  0  0  0
    0.0686    0.3348   -1.7570 C   0  0  0  0  0  0  0  0  0  0  0  0
   -0.6493    1.5412   -1.6331 C   0  0  0  0  0  0  0  0  0  0  0  0
   -1.4572    1.6194   -0.9174 H   0  0  0  0  0  0  0  0  0  0  0  0
   -0.3128    2.6490   -2.4353 C   0  0  0  0  0  0  0  0  0  0  0  0
   -0.8656    3.5707   -2.3389 H   0  0  0  0  0  0  0  0  0  0  0  0
    0.7480    2.5504   -3.3620 C   0  0  0  0  0  0  0  0  0  0  0  0
    1.0822    3.6139   -4.1382 O   0  0  0  0  0  0  0  0  0  0  0  0
    0.4705    4.3439   -4.0333 H   0  0  0  0  0  0  0  0  0  0  0  0
    1.4684    1.3439   -3.4812 C   0  0  0  0  0  0  0  0  0  0  0  0
    2.2745    1.2796   -4.1965 H   0  0  0  0  0  0  0  0  0  0  0  0
    1.1266    0.2371   -2.6812 C   0  0  0  0  0  0  0  0  0  0  0  0
    1.6746   -0.6925   -2.7799 H   0  0  0  0  0  0  0  0  0  0  0  0
   -1.4018    1.0238    0.4329 C   0  0  0  0  0  0  0  0  0  0  0  0
   -2.2416    1.5423   -0.3033 O   0  0  0  0  0  0  0  0  0  0  0  0
   -0.6927    1.7304    1.3223 N   0  0  0  0  0  0  0  0  0  0  0  0
    0.0178    1.2410    1.8469 H   0  0  0  0  0  0  0  0  0  0  0  0
   -0.8259    3.1712    1.5254 C   0  0  0  0  0  0  0  0  0  0  0  0
   -1.8769    3.4302    1.6645 H   0  0  0  0  0  0  0  0  0  0  0  0
   -0.2598    3.4806    2.4054 H   0  0  0  0  0  0  0  0  0  0  0  0
   -0.4486    3.7020    0.6489 H   0  0  0  0  0  0  0  0  0  0  0  0
  5  6  2  0  0  0  0
  5  7  1  0  0  0  0
  2  3  1  0  0  0  0
  2  4  1  0  0  0  0
  2  5  1  0  0  0  0
  1  2  1  0  0  0  0
 26 27  2  0  0  0  0
 26 28  1  0  0  0  0
 24 25  1  0  0  0  0
 22 23  1  0  0  0  0
 22 24  2  0  0  0  0
 20 21  1  0  0  0  0
 19 20  1  0  0  0  0
 19 22  1  0  0  0  0
 17 18  1  0  0  0  0
 17 19  2  0  0  0  0
 15 16  1  0  0  0  0
 15 17  1  0  0  0  0
 14 15  2  0  0  0  0
 14 24  1  0  0  0  0
 11 12  1  0  0  0  0
 11 13  1  0  0  0  0
 11 14  1  0  0  0  0
  9 10  1  0  0  0  0
  9 11  1  0  0  0  0
  9 26  1  0  0  0  0
  7  8  1  0  0  0  0
  7  9  1  0  0  0  0
 30 31  1  0  0  0  0
 30 32  1  0  0  0  0
 30 33  1  0  0  0  0
 28 29  1  0  0  0  0
 28 30  1  0  0  0  0
M  END
$$$$
default_name
  -OEChem-02102213163D

 33 33  0     1  0  0  0  0  0999 V2000
   -4.0702   -3.8485    1.4554 H   0  0  0  0  0  0  0  0  0  0  0  0
   -4.0012   -2.9605    0.8284 C   0  0  0  0  0  0  0  0  0  0  0  0
   -4.7652   -2.2435    1.1234 H   0  0  0  0  0  0  0  0  0  0  0  0
   -4.1352   -3.2385   -0.2156 H   0  0  0  0  0  0  0  0  0  0  0  0
   -2.6362   -2.3395    1.0094 C   0  0  0  0  0  0  0  0  0  0  0  0
   -1.8292   -2.8395    1.7814 O   0  0  0  0  0  0  0  0  0  0  0  0
   -2.3832   -1.2445    0.2964 N   0  0  0  0  0  0  0  0  0  0  0  0
   -3.1102   -0.8685   -0.2946 H   0  0  0  0  0  0  0  0  0  0  0  0
   -1.1292   -0.4875    0.3524 C   0  0  1  0  0  0  0  0  0  0  0  0
   -0.5898   -0.7762    1.2552 H   0  0  0  0  0  0  0  0  0  0  0  0
   -0.2608   -0.8470   -0.8656 C   0  0  0  0  0  0  0  0  0  0  0  0
    0.6776   -1.2796   -0.5164 H   0  0  0  0  0  0  0  0  0  0  0  0
   -0.7742   -1.6104   -1.4526 H   0  0  0  0  0  0  0  0  0  0  0  0
    0.0686    0.3348   -1.7570 C   0  0  0  0  0  0  0  0  0  0  0  0
   -0.4110    1.6213   -1.4390 C   0  0  0  0  0  0  0  0  0  0  0  0
   -1.0391    1.7652   -0.5696 H   0  0  0  0  0  0  0  0  0  0  0  0
   -0.0688    2.7225   -2.2477 C   0  0  0  0  0  0  0  0  0  0  0  0
   -0.4391    3.7060   -2.0020 H   0  0  0  0  0  0  0  0  0  0  0  0
    0.7591    2.5366   -3.3762 C   0  0  0  0  0  0  0  0  0  0  0  0
    1.0972    3.5927   -4.1608 O   0  0  0  0  0  0  0  0  0  0  0  0
    0.6414    4.3949   -3.9026 H   0  0  0  0  0  0  0  0  0  0  0  0
    1.2421    1.2493   -3.6902 C   0  0  0  0  0  0  0  0  0  0  0  0
    1.8707    1.1192   -4.5582 H   0  0  0  0  0  0  0  0  0  0  0  0
    0.8945    0.1499   -2.8826 C   0  0  0  0  0  0  0  0  0  0  0  0
    1.2584   -0.8404   -3.1297 H   0  0  0  0  0  0  0  0  0  0  0  0
   -1.4018    1.0238    0.4329 C   0  0  0  0  0  0  0  0  0  0  0  0
   -2.2416    1.5423   -0.3033 O   0  0  0  0  0  0  0  0  0  0  0  0
   -0.6927    1.7304    1.3223 N   0  0  0  0  0  0  0  0  0  0  0  0
    0.0178    1.2410    1.8469 H   0  0  0  0  0  0  0  0  0  0  0  0
   -0.8259    3.1712    1.5254 C   0  0  0  0  0  0  0  0  0  0  0  0
   -1.8769    3.4302    1.6645 H   0  0  0  0  0  0  0  0  0  0  0  0
   -0.2598    3.4806    2.4054 H   0  0  0  0  0  0  0  0  0  0  0  0
   -0.4486    3.7020    0.6489 H   0  0  0  0  0  0  0  0  0  0  0  0
  5  6  2  0  0  0  0
  5  7  1  0  0  0  0
  2  3  1  0  0  0  0
  2  4  1  0  0  0  0
  2  5  1  0  0  0  0
  1  2  1  0  0  0  0
 26 27  2  0  0  0  0
 26 28  1  0  0  0  0
 24 25  1  0  0  0  0
 22 23  1  0  0  0  0
 22 24  2  0  0  0  0
 20 21  1  0  0  0  0
 19 20  1  0  0  0  0
 19 22  1  0  0  0  0
 17 18  1  0  0  0  0
 17 19  2  0  0  0  0
 15 16  1  0  0  0  0
 15 17  1  0  0  0  0
 14 15  2  0  0  0  0
 14 24  1  0  0  0  0
 11 12  1  0  0  0  0
 11 13  1  0  0  0  0
 11 14  1  0  0  0  0
  9 10  1  0  0  0  0
  9 11  1  0  0  0  0
  9 26  1  0  0  0  0
  7  8  1  0  0  0  0
  7  9  1  0  0  0  0
 30 31  1  0  0  0  0
 30 32  1  0  0  0  0
 30 33  1  0  0  0  0
 28 29  1  0  0  0  0
 28 30  1  0  0  0  0
M  END
$$$$
default_name
  -OEChem-02102213163D

 33 33  0     1  0  0  0  0  0999 V2000
   -4.0702   -3.8485    1.4554 H   0  0  0  0  0  0  0  0  0  0  0  0
   -4.0012   -2.9605    0.8284 C   0  0  0  0  0  0  0  0  0  0  0  0
   -4.7652   -2.2435    1.1234 H   0  0  0  0  0  0  0  0  0  0  0  0
   -4.1352   -3.2385   -0.2156 H   0  0  0  0  0  0  0  0  0  0  0  0
   -2.6362   -2.3395    1.0094 C   0  0  0  0  0  0  0  0  0  0  0  0
   -1.8292   -2.8395    1.7814 O   0  0  0  0  0  0  0  0  0  0  0  0
   -2.3832   -1.2445    0.2964 N   0  0  0  0  0  0  0  0  0  0  0  0
   -3.1102   -0.8685   -0.2946 H   0  0  0  0  0  0  0  0  0  0  0  0
   -1.1292   -0.4875    0.3524 C   0  0  1  0  0  0  0  0  0  0  0  0
   -0.5898   -0.7762    1.2552 H   0  0  0  0  0  0  0  0  0  0  0  0
   -0.2608   -0.8470   -0.8656 C   0  0  0  0  0  0  0  0  0  0  0  0
    0.6776   -1.2796   -0.5164 H   0  0  0  0  0  0  0  0  0  0  0  0
   -0.7742   -1.6104   -1.4526 H   0  0  0  0  0  0  0  0  0  0  0  0
    0.0686    0.3348   -1.7570 C   0  0  0  0  0  0  0  0  0  0  0  0
   -0.1295    1.6514   -1.2950 C   0  0  0  0  0  0  0  0  0  0  0  0
   -0.5429    1.8229   -0.3098 H   0  0  0  0  0  0  0  0  0  0  0  0
    0.2159    2.7459   -2.1115 C   0  0  0  0  0  0  0  0  0  0  0  0
    0.0614    3.7528   -1.7551 H   0  0  0  0  0  0  0  0  0  0  0  0
    0.7648    2.5224   -3.3930 C   0  0  0  0  0  0  0  0  0  0  0  0
    1.1040    3.5712   -4.1868 O   0  0  0  0  0  0  0  0  0  0  0  0
    0.8405    4.4108   -3.8079 H   0  0  0  0  0  0  0  0  0  0  0  0
    0.9669    1.2042   -3.8518 C   0  0  0  0  0  0  0  0  0  0  0  0
    1.3833    1.0461   -4.8352 H   0  0  0  0  0  0  0  0  0  0  0  0
    0.6164    0.1123   -3.0352 C   0  0  0  0  0  0  0  0  0  0  0  0
    0.7633   -0.9002   -3.3920 H   0  0  0  0  0  0  0  0  0  0  0  0
   -1.4018    1.0238    0.4329 C   0  0  0  0  0  0  0  0  0  0  0  0
   -2.2416    1.5423   -0.3033 O   0  0  0  0  0  0  0  0  0  0  0  0
   -0.6927    1.7304    1.3223 N   0  0  0  0  0  0  0  0  0  0  0  0
    0.0178    1.2410    1.8469 H   0  0  0  0  0  0  0  0  0  0  0  0
   -0.8259    3.1712    1.5254 C   0  0  0  0  0  0  0  0  0  0  0  0
   -1.8769    3.4302    1.6645 H   0  0  0  0  0  0  0  0  0  0  0  0
   -0.2598    3.4806    2.4054 H   0  0  0  0  0  0  0  0  0  0  0  0
   -0.4486    3.7020    0.6489 H   0  0  0  0  0  0  0  0  0  0  0  0
  5  6  2  0  0  0  0
  5  7  1  0  0  0  0
  2  3  1  0  0  0  0
  2  4  1  0  0  0  0
  2  5  1  0  0  0  0
  1  2  1  0  0  0  0
 26 27  2  0  0  0  0
 26 28  1  0  0  0  0
 24 25  1  0  0  0  0
 22 23  1  0  0  0  0
 22 24  2  0  0  0  0
 20 21  1  0  0  0  0
 19 20  1  0  0  0  0
 19 22  1  0  0  0  0
 17 18  1  0  0  0  0
 17 19  2  0  0  0  0
 15 16  1  0  0  0  0
 15 17  1  0  0  0  0
 14 15  2  0  0  0  0
 14 24  1  0  0  0  0
 11 12  1  0  0  0  0
 11 13  1  0  0  0  0
 11 14  1  0  0  0  0
  9 10  1  0  0  0  0
  9 11  1  0  0  0  0
  9 26  1  0  0  0  0
  7  8  1  0  0  0  0
  7  9  1  0  0  0  0
 30 31  1  0  0  0  0
 30 32  1  0  0  0  0
 30 33  1  0  0  0  0
 28 29  1  0  0  0  0
 28 30  1  0  0  0  0
M  END
$$$$
default_name
  -OEChem-02102213163D

 33 33  0     1  0  0  0  0  0999 V2000
   -4.0702   -3.8485    1.4554 H   0  0  0  0  0  0  0  0  0  0  0  0
   -4.0012   -2.9605    0.8284 C   0  0  0  0  0  0  0  0  0  0  0  0
   -4.7652   -2.2435    1.1234 H   0  0  0  0  0  0  0  0  0  0  0  0
   -4.1352   -3.2385   -0.2156 H   0  0  0  0  0  0  0  0  0  0  0  0
   -2.6362   -2.3395    1.0094 C   0  0  0  0  0  0  0  0  0  0  0  0
   -1.8292   -2.8395    1.7814 O   0  0  0  0  0  0  0  0  0  0  0  0
   -2.3832   -1.2445    0.2964 N   0  0  0  0  0  0  0  0  0  0  0  0
   -3.1102   -0.8685   -0.2946 H   0  0  0  0  0  0  0  0  0  0  0  0
   -1.1292   -0.4875    0.3524 C   0  0  1  0  0  0  0  0  0  0  0  0
   -0.5898   -0.7762    1.2552 H   0  0  0  0  0  0  0  0  0  0  0  0
   -0.2608   -0.8470   -0.8656 C   0  0  0  0  0  0  0  0  0  0  0  0
    0.6776   -1.2796   -0.5164 H   0  0  0  0  0  0  0  0  0  0  0  0
   -0.7742   -1.6104   -1.4526 H   0  0  0  0  0  0  0  0  0  0  0  0
    0.0686    0.3348   -1.7570 C   0  0  0  0  0  0  0  0  0  0  0  0
    0.1760    1.6296   -1.2110 C   0  0  0  0  0  0  0  0  0  0  0  0
   -0.0025    1.7885   -0.1556 H   0  0  0  0  0  0  0  0  0  0  0  0
    0.5219    2.7175   -2.0360 C   0  0  0  0  0  0  0  0  0  0  0  0
    0.6018    3.7079   -1.6149 H   0  0  0  0  0  0  0  0  0  0  0  0
    0.7649    2.5087   -3.4111 C   0  0  0  0  0  0  0  0  0  0  0  0
    1.1019    3.5508   -4.2145 O   0  0  0  0  0  0  0  0  0  0  0  0
    1.0544    4.3906   -3.7557 H   0  0  0  0  0  0  0  0  0  0  0  0
    0.6617    1.2115   -3.9548 C   0  0  0  0  0  0  0  0  0  0  0  0
    0.8455    1.0653   -5.0086 H   0  0  0  0  0  0  0  0  0  0  0  0
    0.3112    0.1269   -3.1286 C   0  0  0  0  0  0  0  0  0  0  0  0
    0.2231   -0.8679   -3.5488 H   0  0  0  0  0  0  0  0  0  0  0  0
   -1.4018    1.0238    0.4329 C   0  0  0  0  0  0  0  0  0  0  0  0
   -2.2416    1.5423   -0.3033 O   0  0  0  0  0  0  0  0  0  0  0  0
   -0.6927    1.7304    1.3223 N   0  0  0  0  0  0  0  0  0  0  0  0
    0.0178    1.2410    1.8469 H   0  0  0  0  0  0  0  0  0  0  0  0
   -0.8259    3.1712    1.5254 C   0  0  0  0  0  0  0  0  0  0  0  0
   -1.8769    3.4302    1.6645 H   0  0  0  0  0  0  0  0  0  0  0  0
   -0.2598    3.4806    2.4054 H   0  0  0  0  0  0  0  0  0  0  0  0
   -0.4486    3.7020    0.6489 H   0  0  0  0  0  0  0  0  0  0  0  0
  5  6  2  0  0  0  0
  5  7  1  0  0  0  0
  2  3  1  0  0  0  0
  2  4  1  0  0  0  0
  2  5  1  0  0  0  0
  1  2  1  0  0  0  0
 26 27  2  0  0  0  0
 26 28  1  0  0  0  0
 24 25  1  0  0  0  0
 22 23  1  0  0  0  0
 22 24  2  0  0  0  0
 20 21  1  0  0  0  0
 19 20  1  0  0  0  0
 19 22  1  0  0  0  0
 17 18  1  0  0  0  0
 17 19  2  0  0  0  0
 15 16  1  0  0  0  0
 15 17  1  0  0  0  0
 14 15  2  0  0  0  0
 14 24  1  0  0  0  0
 11 12  1  0  0  0  0
 11 13  1  0  0  0  0
 11 14  1  0  0  0  0
  9 10  1  0  0  0  0
  9 11  1  0  0  0  0
  9 26  1  0  0  0  0
  7  8  1  0  0  0  0
  7  9  1  0  0  0  0
 30 31  1  0  0  0  0
 30 32  1  0  0  0  0
 30 33  1  0  0  0  0
 28 29  1  0  0  0  0
 28 30  1  0  0  0  0
M  END
$$$$
default_name
  -OEChem-02102213163D

 33 33  0     1  0  0  0  0  0999 V2000
   -4.0702   -3.8485    1.4554 H   0  0  0  0  0  0  0  0  0  0  0  0
   -4.0012   -2.9605    0.8284 C   0  0  0  0  0  0  0  0  0  0  0  0
   -4.7652   -2.2435    1.1234 H   0  0  0  0  0  0  0  0  0  0  0  0
   -4.1352   -3.2385   -0.2156 H   0  0  0  0  0  0  0  0  0  0  0  0
   -2.6362   -2.3395    1.0094 C   0  0  0  0  0  0  0  0  0  0  0  0
   -1.8292   -2.8395    1.7814 O   0  0  0  0  0  0  0  0  0  0  0  0
   -2.3832   -1.2445    0.2964 N   0  0  0  0  0  0  0  0  0  0  0  0
   -3.1102   -0.8685   -0.2946 H   0  0  0  0  0  0  0  0  0  0  0  0
   -1.1292   -0.4875    0.3524 C   0  0  1  0  0  0  0  0  0  0  0  0
   -0.5898   -0.7762    1.2552 H   0  0  0  0  0  0  0  0  0  0  0  0
   -0.2608   -0.8470   -0.8656 C   0  0  0  0  0  0  0  0  0  0  0  0
    0.6776   -1.2796   -0.5164 H   0  0  0  0  0  0  0  0  0  0  0  0
   -0.7742   -1.6104   -1.4526 H   0  0  0  0  0  0  0  0  0  0  0  0
    0.0686    0.3348   -1.7570 C   0  0  0  0  0  0  0  0  0  0  0  0
    0.4847    1.5573   -1.1928 C   0  0  0  0  0  0  0  0  0  0  0  0
    0.5454    1.6644   -0.1177 H   0  0  0  0  0  0  0  0  0  0  0  0
    0.8285    2.6393   -2.0265 C   0  0  0  0  0  0  0  0  0  0  0  0
    1.1452    3.5745   -1.5909 H   0  0  0  0  0  0  0  0  0  0  0  0
    0.7591    2.4965   -3.4294 C   0  0  0  0  0  0  0  0  0  0  0  0
    1.0913    3.5330   -4.2421 O   0  0  0  0  0  0  0  0  0  0  0  0
    1.2685    4.3355   -3.7496 H   0  0  0  0  0  0  0  0  0  0  0  0
    0.3472    1.2708   -3.9924 C   0  0  0  0  0  0  0  0  0  0  0  0
    0.2940    1.1753   -5.0665 H   0  0  0  0  0  0  0  0  0  0  0  0
   -0.0001    0.1926   -3.1564 C   0  0  0  0  0  0  0  0  0  0  0  0
   -0.3255   -0.7458   -3.5895 H   0  0  0  0  0  0  0  0  0  0  0  0
   -1.4018    1.0238    0.4329 C   0  0  0  0  0  0  0  0  0  0  0  0
   -2.2416    1.5423   -0.3033 O   0  0  0  0  0  0  0  0  0  0  0  0
   -0.6927    1.7304    1.3223 N   0  0  0  0  0  0  0  0  0  0  0  0
    0.0178    1.2410    1.8469 H   0  0  0  0  0  0  0  0  0  0  0  0
   -0.8259    3.1712    1.5254 C   0  0  0  0  0  0  0  0  0  0  0  0
   -1.8769    3.4302    1.6645 H   0  0  0  0  0  0  0  0  0  0  0  0
   -0.2598    3.4806    2.4054 H   0  0  0  0  0  0  0  0  0  0  0  0
   -0.4486    3.7020    0.6489 H   0  0  0  0  0  0  0  0  0  0  0  0
  5  6  2  0  0  0  0
  5  7  1  0  0  0  0
  2  3  1  0  0  0  0
  2  4  1  0  0  0  0
  2  5  1  0  0  0  0
  1  2  1  0  0  0  0
 26 27  2  0  0  0  0
 26 28  1  0  0  0  0
 24 25  1  0  0  0  0
 22 23  1  0  0  0  0
 22 24  2  0  0  0  0
 20 21  1  0  0  0  0
 19 20  1  0  0  0  0
 19 22  1  0  0  0  0
 17 18  1  0  0  0  0
 17 19  2  0  0  0  0
 15 16  1  0  0  0  0
 15 17  1  0  0  0  0
 14 15  2  0  0  0  0
 14 24  1  0  0  0  0
 11 12  1  0  0  0  0
 11 13  1  0  0  0  0
 11 14  1  0  0  0  0
  9 10  1  0  0  0  0
  9 11  1  0  0  0  0
  9 26  1  0  0  0  0
  7  8  1  0  0  0  0
  7  9  1  0  0  0  0
 30 31  1  0  0  0  0
 30 32  1  0  0  0  0
 30 33  1  0  0  0  0
 28 29  1  0  0  0  0
 28 30  1  0  0  0  0
M  END
$$$$
default_name
  -OEChem-02102213163D

 33 33  0     1  0  0  0  0  0999 V2000
   -4.0702   -3.8485    1.4554 H   0  0  0  0  0  0  0  0  0  0  0  0
   -4.0012   -2.9605    0.8284 C   0  0  0  0  0  0  0  0  0  0  0  0
   -4.7652   -2.2435    1.1234 H   0  0  0  0  0  0  0  0  0  0  0  0
   -4.1352   -3.2385   -0.2156 H   0  0  0  0  0  0  0  0  0  0  0  0
   -2.6362   -2.3395    1.0094 C   0  0  0  0  0  0  0  0  0  0  0  0
   -1.8292   -2.8395    1.7814 O   0  0  0  0  0  0  0  0  0  0  0  0
   -2.3832   -1.2445    0.2964 N   0  0  0  0  0  0  0  0  0  0  0  0
   -3.1102   -0.8685   -0.2946 H   0  0  0  0  0  0  0  0  0  0  0  0
   -1.1292   -0.4875    0.3524 C   0  0  1  0  0  0  0  0  0  0  0  0
   -0.5898   -0.7762    1.2552 H   0  0  0  0  0  0  0  0  0  0  0  0
   -0.2608   -0.8470   -0.8656 C   0  0  0  0  0  0  0  0  0  0  0  0
    0.6776   -1.2796   -0.5164 H   0  0  0  0  0  0  0  0  0  0  0  0
   -0.7742   -1.6104   -1.4526 H   0  0  0  0  0  0  0  0  0  0  0  0
    0.0686    0.3348   -1.7570 C   0  0  0  0  0  0  0  0  0  0  0  0
    0.7756    1.4395   -1.2415 C   0  0  0  0  0  0  0  0  0  0  0  0
    1.0635    1.4591   -0.1985 H   0  0  0  0  0  0  0  0  0  0  0  0
    1.1145    2.5166   -2.0834 C   0  0  0  0  0  0  0  0  0  0  0  0
    1.6547    3.3616   -1.6849 H   0  0  0  0  0  0  0  0  0  0  0  0
    0.7480    2.4866   -3.4467 C   0  0  0  0  0  0  0  0  0  0  0  0
    1.0728    3.5190   -4.2675 O   0  0  0  0  0  0  0  0  0  0  0  0
    1.4681    4.2495   -3.7899 H   0  0  0  0  0  0  0  0  0  0  0  0
    0.0448    1.3781   -3.9620 C   0  0  0  0  0  0  0  0  0  0  0  0
   -0.2337    1.3688   -5.0050 H   0  0  0  0  0  0  0  0  0  0  0  0
   -0.2965    0.3051   -3.1168 C   0  0  0  0  0  0  0  0  0  0  0  0
   -0.8449   -0.5420   -3.5114 H   0  0  0  0  0  0  0  0  0  0  0  0
   -1.4018    1.0238    0.4329 C   0  0  0  0  0  0  0  0  0  0  0  0
   -2.2416    1.5423   -0.3033 O   0  0  0  0  0  0  0  0  0  0  0  0
   -0.6927    1.7304    1.3223 N   0  0  0  0  0  0  0  0  0  0  0  0
    0.0178    1.2410    1.8469 H   0  0  0  0  0  0  0  0  0  0  0  0
   -0.8259    3.1712    1.5254 C   0  0  0  0  0  0  0  0  0  0  0  0
   -1.8769    3.4302    1.6645 H   0  0  0  0  0  0  0  0  0  0  0  0
   -0.2598    3.4806    2.4054 H   0  0  0  0  0  0  0  0  0  0  0  0
   -0.4486    3.7020    0.6489 H   0  0  0  0  0  0  0  0  0  0  0  0
  5  6  2  0  0  0  0
  5  7  1  0  0  0  0
  2  3  1  0  0  0  0
  2  4  1  0  0  0  0
  2  5  1  0  0  0  0
  1  2  1  0  0  0  0
 26 27  2  0  0  0  0
 26 28  1  0  0  0  0
 24 25  1  0  0  0  0
 22 23  1  0  0  0  0
 22 24  2  0  0  0  0
 20 21  1  0  0  0  0
 19 20  1  0  0  0  0
 19 22  1  0  0  0  0
 17 18  1  0  0  0  0
 17 19  2  0  0  0  0
 15 16  1  0  0  0  0
 15 17  1  0  0  0  0
 14 15  2  0  0  0  0
 14 24  1  0  0  0  0
 11 12  1  0  0  0  0
 11 13  1  0  0  0  0
 11 14  1  0  0  0  0
  9 10  1  0  0  0  0
  9 11  1  0  0  0  0
  9 26  1  0  0  0  0
  7  8  1  0  0  0  0
  7  9  1  0  0  0  0
 30 31  1  0  0  0  0
 30 32  1  0  0  0  0
 30 33  1  0  0  0  0
 28 29  1  0  0  0  0
 28 30  1  0  0  0  0
M  END
$$$$
default_name
  -OEChem-02102213163D

 33 33  0     1  0  0  0  0  0999 V2000
   -4.0702   -3.8485    1.4554 H   0  0  0  0  0  0  0  0  0  0  0  0
   -4.0012   -2.9605    0.8284 C   0  0  0  0  0  0  0  0  0  0  0  0
   -4.7652   -2.2435    1.1234 H   0  0  0  0  0  0  0  0  0  0  0  0
   -4.1352   -3.2385   -0.2156 H   0  0  0  0  0  0  0  0  0  0  0  0
   -2.6362   -2.3395    1.0094 C   0  0  0  0  0  0  0  0  0  0  0  0
   -1.8292   -2.8395    1.7814 O   0  0  0  0  0  0  0  0  0  0  0  0
   -2.3832   -1.2445    0.2964 N   0  0  0  0  0  0  0  0  0  0  0  0
   -3.1102   -0.8685   -0.2946 H   0  0  0  0  0  0  0  0  0  0  0  0
   -1.1292   -0.4875    0.3524 C   0  0  1  0  0  0  0  0  0  0  0  0
   -0.5898   -0.7762    1.2552 H   0  0  0  0  0  0  0  0  0  0  0  0
   -0.2608   -0.8470   -0.8656 C   0  0  0  0  0  0  0  0  0  0  0  0
    0.6776   -1.2796   -0.5164 H   0  0  0  0  0  0  0  0  0  0  0  0
   -0.7742   -1.6104   -1.4526 H   0  0  0  0  0  0  0  0  0  0  0  0
    0.0686    0.3348   -1.7570 C   0  0  0  0  0  0  0  0  0  0  0  0
    1.0289    1.2842   -1.3538 C   0  0  0  0  0  0  0  0  0  0  0  0
    1.5163    1.1865   -0.3926 H   0  0  0  0  0  0  0  0  0  0  0  0
    1.3607    2.3577   -2.2031 C   0  0  0  0  0  0  0  0  0  0  0  0
    2.0954    3.0837   -1.8904 H   0  0  0  0  0  0  0  0  0  0  0  0
    0.7324    2.4797   -3.4616 C   0  0  0  0  0  0  0  0  0  0  0  0
    1.0476    3.5097   -4.2891 O   0  0  0  0  0  0  0  0  0  0  0  0
    1.6397    4.1382   -3.8740 H   0  0  0  0  0  0  0  0  0  0  0  0
   -0.2248    1.5259   -3.8655 C   0  0  0  0  0  0  0  0  0  0  0  0
   -0.7015    1.6325   -4.8283 H   0  0  0  0  0  0  0  0  0  0  0  0
   -0.5577    0.4566   -3.0125 C   0  0  0  0  0  0  0  0  0  0  0  0
   -1.2999   -0.2706   -3.3196 H   0  0  0  0  0  0  0  0  0  0  0  0
   -1.4018    1.0238    0.4329 C   0  0  0  0  0  0  0  0  0  0  0  0
   -2.2416    1.5423   -0.3033 O   0  0  0  0  0  0  0  0  0  0  0  0
   -0.6927    1.7304    1.3223 N   0  0  0  0  0  0  0  0  0  0  0  0
    0.0178    1.2410    1.8469 H   0  0  0  0  0  0  0  0  0  0  0  0
   -0.8259    3.1712    1.5254 C   0  0  0  0  0  0  0  0  0  0  0  0
   -1.8769    3.4302    1.6645 H   0  0  0  0  0  0  0  0  0  0  0  0
   -0.2598    3.4806    2.4054 H   0  0  0  0  0  0  0  0  0  0  0  0
   -0.4486    3.7020    0.6489 H   0  0  0  0  0  0  0  0  0  0  0  0
  5  6  2  0  0  0  0
  5  7  1  0  0  0  0
  2  3  1  0  0  0  0
  2  4  1  0  0  0  0
  2  5  1  0  0  0  0
  1  2  1  0  0  0  0
 26 27  2  0  0  0  0
 26 28  1  0  0  0  0
 24 25  1  0  0  0  0
 22 23  1  0  0  0  0
 22 24  2  0  0  0  0
 20 21  1  0  0  0  0
 19 20  1  0  0  0  0
 19 22  1  0  0  0  0
 17 18  1  0  0  0  0
 17 19  2  0  0  0  0
 15 16  1  0  0  0  0
 15 17  1  0  0  0  0
 14 15  2  0  0  0  0
 14 24  1  0  0  0  0
 11 12  1  0  0  0  0
 11 13  1  0  0  0  0
 11 14  1  0  0  0  0
  9 10  1  0  0  0  0
  9 11  1  0  0  0  0
  9 26  1  0  0  0  0
  7  8  1  0  0  0  0
  7  9  1  0  0  0  0
 30 31  1  0  0  0  0
 30 32  1  0  0  0  0
 30 33  1  0  0  0  0
 28 29  1  0  0  0  0
 28 30  1  0  0  0  0
M  END
$$$$
default_name
  -OEChem-02102213163D

 33 33  0     1  0  0  0  0  0999 V2000
   -4.0702   -3.8485    1.4554 H   0  0  0  0  0  0  0  0  0  0  0  0
   -4.0012   -2.9605    0.8284 C   0  0  0  0  0  0  0  0  0  0  0  0
   -4.7652   -2.2435    1.1234 H   0  0  0  0  0  0  0  0  0  0  0  0
   -4.1352   -3.2385   -0.2156 H   0  0  0  0  0  0  0  0  0  0  0  0
   -2.6362   -2.3395    1.0094 C   0  0  0  0  0  0  0  0  0  0  0  0
   -1.8292   -2.8395    1.7814 O   0  0  0  0  0  0  0  0  0  0  0  0
   -2.3832   -1.2445    0.2964 N   0  0  0  0  0  0  0  0  0  0  0  0
   -3.1102   -0.8685   -0.2946 H   0  0  0  0  0  0  0  0  0  0  0  0
   -1.1292   -0.4875    0.3524 C   0  0  1  0  0  0  0  0  0  0  0  0
   -0.5898   -0.7762    1.2552 H   0  0  0  0  0  0  0  0  0  0  0  0
   -0.2608   -0.8470   -0.8656 C   0  0  0  0  0  0  0  0  0  0  0  0
    0.6776   -1.2796   -0.5164 H   0  0  0  0  0  0  0  0  0  0  0  0
   -0.7742   -1.6104   -1.4526 H   0  0  0  0  0  0  0  0  0  0  0  0
    0.0686    0.3348   -1.7570 C   0  0  0  0  0  0  0  0  0  0  0  0
    1.2272    1.1019   -1.5221 C   0  0  0  0  0  0  0  0  0  0  0  0
    1.8730    0.8651   -0.6867 H   0  0  0  0  0  0  0  0  0  0  0  0
    1.5502    2.1735   -2.3772 C   0  0  0  0  0  0  0  0  0  0  0  0
    2.4374    2.7598   -2.1934 H   0  0  0  0  0  0  0  0  0  0  0  0
    0.7132    2.4762   -3.4733 C   0  0  0  0  0  0  0  0  0  0  0  0
    1.0175    3.5058   -4.3055 O   0  0  0  0  0  0  0  0  0  0  0  0
    1.7715    4.0094   -3.9960 H   0  0  0  0  0  0  0  0  0  0  0  0
   -0.4433    1.7044   -3.7097 C   0  0  0  0  0  0  0  0  0  0  0  0
   -1.0777    1.9484   -4.5485 H   0  0  0  0  0  0  0  0  0  0  0  0
   -0.7658    0.6368   -2.8505 C   0  0  0  0  0  0  0  0  0  0  0  0
   -1.6594    0.0501   -3.0274 H   0  0  0  0  0  0  0  0  0  0  0  0
   -1.4018    1.0238    0.4329 C   0  0  0  0  0  0  0  0  0  0  0  0
   -2.2416    1.5423   -0.3033 O   0  0  0  0  0  0  0  0  0  0  0  0
   -0.6927    1.7304    1.3223 N   0  0  0  0  0  0  0  0  0  0  0  0
    0.0178    1.2410    1.8469 H   0  0  0  0  0  0  0  0  0  0  0  0
   -0.8259    3.1712    1.5254 C   0  0  0  0  0  0  0  0  0  0  0  0
   -1.8769    3.4302    1.6645 H   0  0  0  0  0  0  0  0  0  0  0  0
   -0.2598    3.4806    2.4054 H   0  0  0  0  0  0  0  0  0  0  0  0
   -0.4486    3.7020    0.6489 H   0  0  0  0  0  0  0  0  0  0  0  0
  5  6  2  0  0  0  0
  5  7  1  0  0  0  0
  2  3  1  0  0  0  0
  2  4  1  0  0  0  0
  2  5  1  0  0  0  0
  1  2  1  0  0  0  0
 26 27  2  0  0  0  0
 26 28  1  0  0  0  0
 24 25  1  0  0  0  0
 22 23  1  0  0  0  0
 22 24  2  0  0  0  0
 20 21  1  0  0  0  0
 19 20  1  0  0  0  0
 19 22  1  0  0  0  0
 17 18  1  0  0  0  0
 17 19  2  0  0  0  0
 15 16  1  0  0  0  0
 15 17  1  0  0  0  0
 14 15  2  0  0  0  0
 14 24  1  0  0  0  0
 11 12  1  0  0  0  0
 11 13  1  0  0  0  0
 11 14  1  0  0  0  0
  9 10  1  0  0  0  0
  9 11  1  0  0  0  0
  9 26  1  0  0  0  0
  7  8  1  0  0  0  0
  7  9  1  0  0  0  0
 30 31  1  0  0  0  0
 30 32  1  0  0  0  0
 30 33  1  0  0  0  0
 28 29  1  0  0  0  0
 28 30  1  0  0  0  0
M  END
$$$$
default_name
  -OEChem-02102213163D

 33 33  0     1  0  0  0  0  0999 V2000
   -4.0702   -3.8485    1.4554 H   0  0  0  0  0  0  0  0  0  0  0  0
   -4.0012   -2.9605    0.8284 C   0  0  0  0  0  0  0  0  0  0  0  0
   -4.7652   -2.2435    1.1234 H   0  0  0  0  0  0  0  0  0  0  0  0
   -4.1352   -3.2385   -0.2156 H   0  0  0  0  0  0  0  0  0  0  0  0
   -2.6362   -2.3395    1.0094 C   0  0  0  0  0  0  0  0  0  0  0  0
   -1.8292   -2.8395    1.7814 O   0  0  0  0  0  0  0  0  0  0  0  0
   -2.3832   -1.2445    0.2964 N   0  0  0  0  0  0  0  0  0  0  0  0
   -3.1102   -0.8685   -0.2946 H   0  0  0  0  0  0  0  0  0  0  0  0
   -1.1292   -0.4875    0.3524 C   0  0  1  0  0  0  0  0  0  0  0  0
   -0.5898   -0.7762    1.2552 H   0  0  0  0  0  0  0  0  0  0  0  0
   -0.2608   -0.8470   -0.8656 C   0  0  0  0  0  0  0  0  0  0  0  0
    0.6776   -1.2796   -0.5164 H   0  0  0  0  0  0  0  0  0  0  0  0
   -0.7742   -1.6104   -1.4526 H   0  0  0  0  0  0  0  0  0  0  0  0
    0.0686    0.3348   -1.7570 C   0  0  0  0  0  0  0  0  0  0  0  0
    1.3571    0.9052   -1.7349 C   0  0  0  0  0  0  0  0  0  0  0  0
    2.1094    0.5170   -1.0608 H   0  0  0  0  0  0  0  0  0  0  0  0
    1.6701    1.9766   -2.5940 C   0  0  0  0  0  0  0  0  0  0  0  0
    2.6573    2.4120   -2.5733 H   0  0  0  0  0  0  0  0  0  0  0  0
    0.6917    2.4765   -3.4808 C   0  0  0  0  0  0  0  0  0  0  0  0
    0.9845    3.5075   -4.3154 O   0  0  0  0  0  0  0  0  0  0  0  0
    1.8547    3.8717   -4.1478 H   0  0  0  0  0  0  0  0  0  0  0  0
   -0.5957    1.9012   -3.5051 C   0  0  0  0  0  0  0  0  0  0  0  0
   -1.3365    2.2951   -4.1845 H   0  0  0  0  0  0  0  0  0  0  0  0
   -0.9068    0.8335   -2.6420 C   0  0  0  0  0  0  0  0  0  0  0  0
   -1.8990    0.3981   -2.6546 H   0  0  0  0  0  0  0  0  0  0  0  0
   -1.4018    1.0238    0.4329 C   0  0  0  0  0  0  0  0  0  0  0  0
   -2.2416    1.5423   -0.3033 O   0  0  0  0  0  0  0  0  0  0  0  0
   -0.6927    1.7304    1.3223 N   0  0  0  0  0  0  0  0  0  0  0  0
    0.0178    1.2410    1.8469 H   0  0  0  0  0  0  0  0  0  0  0  0
   -0.8259    3.1712    1.5254 C   0  0  0  0  0  0  0  0  0  0  0  0
   -1.8769    3.4302    1.6645 H   0  0  0  0  0  0  0  0  0  0  0  0
   -0.2598    3.4806    2.4054 H   0  0  0  0  0  0  0  0  0  0  0  0
   -0.4486    3.7020    0.6489 H   0  0  0  0  0  0  0  0  0  0  0  0
  5  6  2  0  0  0  0
  5  7  1  0  0  0  0
  2  3  1  0  0  0  0
  2  4  1  0  0  0  0
  2  5  1  0  0  0  0
  1  2  1  0  0  0  0
 26 27  2  0  0  0  0
 26 28  1  0  0  0  0
 24 25  1  0  0  0  0
 22 23  1  0  0  0  0
 22 24  2  0  0  0  0
 20 21  1  0  0  0  0
 19 20  1  0  0  0  0
 19 22  1  0  0  0  0
 17 18  1  0  0  0  0
 17 19  2  0  0  0  0
 15 16  1  0  0  0  0
 15 17  1  0  0  0  0
 14 15  2  0  0  0  0
 14 24  1  0  0  0  0
 11 12  1  0  0  0  0
 11 13  1  0  0  0  0
 11 14  1  0  0  0  0
  9 10  1  0  0  0  0
  9 11  1  0  0  0  0
  9 26  1  0  0  0  0
  7  8  1  0  0  0  0
  7  9  1  0  0  0  0
 30 31  1  0  0  0  0
 30 32  1  0  0  0  0
 30 33  1  0  0  0  0
 28 29  1  0  0  0  0
 28 30  1  0  0  0  0
M  END
$$$$
default_name
  -OEChem-02102213163D

 33 33  0     1  0  0  0  0  0999 V2000
   -4.0702   -3.8485    1.4554 H   0  0  0  0  0  0  0  0  0  0  0  0
   -4.0012   -2.9605    0.8284 C   0  0  0  0  0  0  0  0  0  0  0  0
   -4.7652   -2.2435    1.1234 H   0  0  0  0  0  0  0  0  0  0  0  0
   -4.1352   -3.2385   -0.2156 H   0  0  0  0  0  0  0  0  0  0  0  0
   -2.6362   -2.3395    1.0094 C   0  0  0  0  0  0  0  0  0  0  0  0
   -1.8292   -2.8395    1.7814 O   0  0  0  0  0  0  0  0  0  0  0  0
   -2.3832   -1.2445    0.2964 N   0  0  0  0  0  0  0  0  0  0  0  0
   -3.1102   -0.8685   -0.2946 H   0  0  0  0  0  0  0  0  0  0  0  0
   -1.1292   -0.4875    0.3524 C   0  0  1  0  0  0  0  0  0  0  0  0
   -0.5898   -0.7762    1.2552 H   0  0  0  0  0  0  0  0  0  0  0  0
   -0.2608   -0.8470   -0.8656 C   0  0  0  0  0  0  0  0  0  0  0  0
    0.6776   -1.2796   -0.5164 H   0  0  0  0  0  0  0  0  0  0  0  0
   -0.7742   -1.6104   -1.4526 H   0  0  0  0  0  0  0  0  0  0  0  0
    0.0686    0.3348   -1.7570 C   0  0  0  0  0  0  0  0  0  0  0  0
    1.4097    0.7074   -1.9777 C   0  0  0  0  0  0  0  0  0  0  0  0
    2.2093    0.1658   -1.4894 H   0  0  0  0  0  0  0  0  0  0  0  0
    1.7122    1.7803   -2.8386 C   0  0  0  0  0  0  0  0  0  0  0  0
    2.7402    2.0639   -3.0041 H   0  0  0  0  0  0  0  0  0  0  0  0
    0.6695    2.4804   -3.4838 C   0  0  0  0  0  0  0  0  0  0  0  0
    0.9510    3.5147   -4.3182 O   0  0  0  0  0  0  0  0  0  0  0  0
    1.8835    3.7347   -4.3188 H   0  0  0  0  0  0  0  0  0  0  0  0
   -0.6717    2.1031   -3.2657 C   0  0  0  0  0  0  0  0  0  0  0  0
   -1.4604    2.6489   -3.7613 H   0  0  0  0  0  0  0  0  0  0  0  0
   -0.9711    1.0331   -2.4010 C   0  0  0  0  0  0  0  0  0  0  0  0
   -2.0022    0.7497   -2.2266 H   0  0  0  0  0  0  0  0  0  0  0  0
   -1.4018    1.0238    0.4329 C   0  0  0  0  0  0  0  0  0  0  0  0
   -2.2416    1.5423   -0.3033 O   0  0  0  0  0  0  0  0  0  0  0  0
   -0.6927    1.7304    1.3223 N   0  0  0  0  0  0  0  0  0  0  0  0
    0.0178    1.2410    1.8469 H   0  0  0  0  0  0  0  0  0  0  0  0
   -0.8259    3.1712    1.5254 C   0  0  0  0  0  0  0  0  0  0  0  0
   -1.8769    3.4302    1.6645 H   0  0  0  0  0  0  0  0  0  0  0  0
   -0.2598    3.4806    2.4054 H   0  0  0  0  0  0  0  0  0  0  0  0
   -0.4486    3.7020    0.6489 H   0  0  0  0  0  0  0  0  0  0  0  0
  5  6  2  0  0  0  0
  5  7  1  0  0  0  0
  2  3  1  0  0  0  0
  2  4  1  0  0  0  0
  2  5  1  0  0  0  0
  1  2  1  0  0  0  0
 26 27  2  0  0  0  0
 26 28  1  0  0  0  0
 24 25  1  0  0  0  0
 22 23  1  0  0  0  0
 22 24  2  0  0  0  0
 20 21  1  0  0  0  0
 19 20  1  0  0  0  0
 19 22  1  0  0  0  0
 17 18  1  0  0  0  0
 17 19  2  0  0  0  0
 15 16  1  0  0  0  0
 15 17  1  0  0  0  0
 14 15  2  0  0  0  0
 14 24  1  0  0  0  0
 11 12  1  0  0  0  0
 11 13  1  0  0  0  0
 11 14  1  0  0  0  0
  9 10  1  0  0  0  0
  9 11  1  0  0  0  0
  9 26  1  0  0  0  0
  7  8  1  0  0  0  0
  7  9  1  0  0  0  0
 30 31  1  0  0  0  0
 30 32  1  0  0  0  0
 30 33  1  0  0  0  0
 28 29  1  0  0  0  0
 28 30  1  0  0  0  0
M  END
$$$$
default_name
  -OEChem-02102213163D

 33 33  0     1  0  0  0  0  0999 V2000
   -4.0702   -3.8485    1.4554 H   0  0  0  0  0  0  0  0  0  0  0  0
   -4.0012   -2.9605    0.8284 C   0  0  0  0  0  0  0  0  0  0  0  0
   -4.7652   -2.2435    1.1234 H   0  0  0  0  0  0  0  0  0  0  0  0
   -4.1352   -3.2385   -0.2156 H   0  0  0  0  0  0  0  0  0  0  0  0
   -2.6362   -2.3395    1.0094 C   0  0  0  0  0  0  0  0  0  0  0  0
   -1.8292   -2.8395    1.7814 O   0  0  0  0  0  0  0  0  0  0  0  0
   -2.3832   -1.2445    0.2964 N   0  0  0  0  0  0  0  0  0  0  0  0
   -3.1102   -0.8685   -0.2946 H   0  0  0  0  0  0  0  0  0  0  0  0
   -1.1292   -0.4875    0.3524 C   0  0  1  0  0  0  0  0  0  0  0  0
   -0.5898   -0.7762    1.2552 H   0  0  0  0  0  0  0  0  0  0  0  0
   -0.2608   -0.8470   -0.8656 C   0  0  0  0  0  0  0  0  0  0  0  0
    0.6776   -1.2796   -0.5164 H   0  0  0  0  0  0  0  0  0  0  0  0
   -0.7742   -1.6104   -1.4526 H   0  0  0  0  0  0  0  0  0  0  0  0
    0.0686    0.3348   -1.7570 C   0  0  0  0  0  0  0  0  0  0  0  0
    1.3815    0.5219   -2.2340 C   0  0  0  0  0  0  0  0  0  0  0  0
    2.1660   -0.1645   -1.9433 H   0  0  0  0  0  0  0  0  0  0  0  0
    1.6737    1.5980   -3.0945 C   0  0  0  0  0  0  0  0  0  0  0  0
    2.6804    1.7392   -3.4565 H   0  0  0  0  0  0  0  0  0  0  0  0
    0.6481    2.4878   -3.4820 C   0  0  0  0  0  0  0  0  0  0  0  0
    0.9191    3.5269   -4.3138 O   0  0  0  0  0  0  0  0  0  0  0  0
    1.8559    3.6075   -4.4976 H   0  0  0  0  0  0  0  0  0  0  0  0
   -0.6661    2.2961   -3.0077 C   0  0  0  0  0  0  0  0  0  0  0  0
   -1.4408    2.9857   -3.3076 H   0  0  0  0  0  0  0  0  0  0  0  0
   -0.9541    1.2222   -2.1441 C   0  0  0  0  0  0  0  0  0  0  0  0
   -1.9621    1.0810   -1.7727 H   0  0  0  0  0  0  0  0  0  0  0  0
   -1.4018    1.0238    0.4329 C   0  0  0  0  0  0  0  0  0  0  0  0
   -2.2416    1.5423   -0.3033 O   0  0  0  0  0  0  0  0  0  0  0  0
   -0.6927    1.7304    1.3223 N   0  0  0  0  0  0  0  0  0  0  0  0
    0.0178    1.2410    1.8469 H   0  0  0  0  0  0  0  0  0  0  0  0
   -0.8259    3.1712    1.5254 C   0  0  0  0  0  0  0  0  0  0  0  0
   -1.8769    3.4302    1.6645 H   0  0  0  0  0  0  0  0  0  0  0  0
   -0.2598    3.4806    2.4054 H   0  0  0  0  0  0  0  0  0  0  0  0
   -0.4486    3.7020    0.6489 H   0  0  0  0  0  0  0  0  0  0  0  0
  5  6  2  0  0  0  0
  5  7  1  0  0  0  0
  2  3  1  0  0  0  0
  2  4  1  0  0  0  0
  2  5  1  0  0  0  0
  1  2  1  0  0  0  0
 26 27  2  0  0  0  0
 26 28  1  0  0  0  0
 24 25  1  0  0  0  0
 22 23  1  0  0  0  0
 22 24  2  0  0  0  0
 20 21  1  0  0  0  0
 19 20  1  0  0  0  0
 19 22  1  0  0  0  0
 17 18  1  0  0  0  0
 17 19  2  0  0  0  0
 15 16  1  0  0  0  0
 15 17  1  0  0  0  0
 14 15  2  0  0  0  0
 14 24  1  0  0  0  0
 11 12  1  0  0  0  0
 11 13  1  0  0  0  0
 11 14  1  0  0  0  0
  9 10  1  0  0  0  0
  9 11  1  0  0  0  0
  9 26  1  0  0  0  0
  7  8  1  0  0  0  0
  7  9  1  0  0  0  0
 30 31  1  0  0  0  0
 30 32  1  0  0  0  0
 30 33  1  0  0  0  0
 28 29  1  0  0  0  0
 28 30  1  0  0  0  0
M  END
$$$$
default_name
  -OEChem-02102213163D

 33 33  0     1  0  0  0  0  0999 V2000
   -4.0702   -3.8485    1.4554 H   0  0  0  0  0  0  0  0  0  0  0  0
   -4.0012   -2.9605    0.8284 C   0  0  0  0  0  0  0  0  0  0  0  0
   -4.7652   -2.2435    1.1234 H   0  0  0  0  0  0  0  0  0  0  0  0
   -4.1352   -3.2385   -0.2156 H   0  0  0  0  0  0  0  0  0  0  0  0
   -2.6362   -2.3395    1.0094 C   0  0  0  0  0  0  0  0  0  0  0  0
   -1.8292   -2.8395    1.7814 O   0  0  0  0  0  0  0  0  0  0  0  0
   -2.3832   -1.2445    0.2964 N   0  0  0  0  0  0  0  0  0  0  0  0
   -3.1102   -0.8685   -0.2946 H   0  0  0  0  0  0  0  0  0  0  0  0
   -1.1292   -0.4875    0.3524 C   0  0  1  0  0  0  0  0  0  0  0  0
   -0.5898   -0.7762    1.2552 H   0  0  0  0  0  0  0  0  0  0  0  0
   -0.2608   -0.8470   -0.8656 C   0  0  0  0  0  0  0  0  0  0  0  0
    0.6776   -1.2796   -0.5164 H   0  0  0  0  0  0  0  0  0  0  0  0
   -0.7742   -1.6104   -1.4526 H   0  0  0  0  0  0  0  0  0  0  0  0
    0.0686    0.3348   -1.7570 C   0  0  0  0  0  0  0  0  0  0  0  0
    1.2743    0.3615   -2.4863 C   0  0  0  0  0  0  0  0  0  0  0  0
    1.9823   -0.4514   -2.3916 H   0  0  0  0  0  0  0  0  0  0  0  0
    1.5571    1.4422   -3.3441 C   0  0  0  0  0  0  0  0  0  0  0  0
    2.4820    1.4602   -3.8998 H   0  0  0  0  0  0  0  0  0  0  0  0
    0.6289    2.4980   -3.4755 C   0  0  0  0  0  0  0  0  0  0  0  0
    0.8910    3.5433   -4.3024 O   0  0  0  0  0  0  0  0  0  0  0  0
    1.7739    3.4989   -4.6718 H   0  0  0  0  0  0  0  0  0  0  0  0
   -0.5794    2.4672   -2.7488 C   0  0  0  0  0  0  0  0  0  0  0  0
   -1.2792    3.2825   -2.8544 H   0  0  0  0  0  0  0  0  0  0  0  0
   -0.8571    1.3878   -1.8887 C   0  0  0  0  0  0  0  0  0  0  0  0
   -1.7814    1.3694   -1.3236 H   0  0  0  0  0  0  0  0  0  0  0  0
   -1.4018    1.0238    0.4329 C   0  0  0  0  0  0  0  0  0  0  0  0
   -2.2416    1.5423   -0.3033 O   0  0  0  0  0  0  0  0  0  0  0  0
   -0.6927    1.7304    1.3223 N   0  0  0  0  0  0  0  0  0  0  0  0
    0.0178    1.2410    1.8469 H   0  0  0  0  0  0  0  0  0  0  0  0
   -0.8259    3.1712    1.5254 C   0  0  0  0  0  0  0  0  0  0  0  0
   -1.8769    3.4302    1.6645 H   0  0  0  0  0  0  0  0  0  0  0  0
   -0.2598    3.4806    2.4054 H   0  0  0  0  0  0  0  0  0  0  0  0
   -0.4486    3.7020    0.6489 H   0  0  0  0  0  0  0  0  0  0  0  0
  5  6  2  0  0  0  0
  5  7  1  0  0  0  0
  2  3  1  0  0  0  0
  2  4  1  0  0  0  0
  2  5  1  0  0  0  0
  1  2  1  0  0  0  0
 26 27  2  0  0  0  0
 26 28  1  0  0  0  0
 24 25  1  0  0  0  0
 22 23  1  0  0  0  0
 22 24  2  0  0  0  0
 20 21  1  0  0  0  0
 19 20  1  0  0  0  0
 19 22  1  0  0  0  0
 17 18  1  0  0  0  0
 17 19  2  0  0  0  0
 15 16  1  0  0  0  0
 15 17  1  0  0  0  0
 14 15  2  0  0  0  0
 14 24  1  0  0  0  0
 11 12  1  0  0  0  0
 11 13  1  0  0  0  0
 11 14  1  0  0  0  0
  9 10  1  0  0  0  0
  9 11  1  0  0  0  0
  9 26  1  0  0  0  0
  7  8  1  0  0  0  0
  7  9  1  0  0  0  0
 30 31  1  0  0  0  0
 30 32  1  0  0  0  0
 30 33  1  0  0  0  0
 28 29  1  0  0  0  0
 28 30  1  0  0  0  0
M  END
$$$$
default_name
  -OEChem-02102213163D

 33 33  0     1  0  0  0  0  0999 V2000
   -4.0702   -3.8485    1.4554 H   0  0  0  0  0  0  0  0  0  0  0  0
   -4.0012   -2.9605    0.8284 C   0  0  0  0  0  0  0  0  0  0  0  0
   -4.7652   -2.2435    1.1234 H   0  0  0  0  0  0  0  0  0  0  0  0
   -4.1352   -3.2385   -0.2156 H   0  0  0  0  0  0  0  0  0  0  0  0
   -2.6362   -2.3395    1.0094 C   0  0  0  0  0  0  0  0  0  0  0  0
   -1.8292   -2.8395    1.7814 O   0  0  0  0  0  0  0  0  0  0  0  0
   -2.3832   -1.2445    0.2964 N   0  0  0  0  0  0  0  0  0  0  0  0
   -3.1102   -0.8685   -0.2946 H   0  0  0  0  0  0  0  0  0  0  0  0
   -1.1292   -0.4875    0.3524 C   0  0  1  0  0  0  0  0  0  0  0  0
   -0.5898   -0.7762    1.2552 H   0  0  0  0  0  0  0  0  0  0  0  0
   -0.2608   -0.8470   -0.8656 C   0  0  0  0  0  0  0  0  0  0  0  0
    0.6776   -1.2796   -0.5164 H   0  0  0  0  0  0  0  0  0  0  0  0
   -0.7742   -1.6104   -1.4526 H   0  0  0  0  0  0  0  0  0  0  0  0
    0.0686    0.3348   -1.7570 C   0  0  0  0  0  0  0  0  0  0  0  0
    1.0954    0.2370   -2.7174 C   0  0  0  0  0  0  0  0  0  0  0  0
    1.6708   -0.6755   -2.8037 H   0  0  0  0  0  0  0  0  0  0  0  0
    1.3705    1.3235   -3.5704 C   0  0  0  0  0  0  0  0  0  0  0  0
    2.1586    1.2457   -4.3036 H   0  0  0  0  0  0  0  0  0  0  0  0
    0.6132    2.5105   -3.4648 C   0  0  0  0  0  0  0  0  0  0  0  0
    0.8687    3.5628   -4.2848 O   0  0  0  0  0  0  0  0  0  0  0  0
    1.6430    3.4163   -4.8297 H   0  0  0  0  0  0  0  0  0  0  0  0
   -0.4173    2.6048   -2.5066 C   0  0  0  0  0  0  0  0  0  0  0  0
   -0.9865    3.5192   -2.4326 H   0  0  0  0  0  0  0  0  0  0  0  0
   -0.6868    1.5187   -1.6523 C   0  0  0  0  0  0  0  0  0  0  0  0
   -1.4725    1.5952   -0.9101 H   0  0  0  0  0  0  0  0  0  0  0  0
   -1.4018    1.0238    0.4329 C   0  0  0  0  0  0  0  0  0  0  0  0
   -2.2416    1.5423   -0.3033 O   0  0  0  0  0  0  0  0  0  0  0  0
   -0.6927    1.7304    1.3223 N   0  0  0  0  0  0  0  0  0  0  0  0
    0.0178    1.2410    1.8469 H   0  0  0  0  0  0  0  0  0  0  0  0
   -0.8259    3.1712    1.5254 C   0  0  0  0  0  0  0  0  0  0  0  0
   -1.8769    3.4302    1.6645 H   0  0  0  0  0  0  0  0  0  0  0  0
   -0.2598    3.4806    2.4054 H   0  0  0  0  0  0  0  0  0  0  0  0
   -0.4486    3.7020    0.6489 H   0  0  0  0  0  0  0  0  0  0  0  0
  5  6  2  0  0  0  0
  5  7  1  0  0  0  0
  2  3  1  0  0  0  0
  2  4  1  0  0  0  0
  2  5  1  0  0  0  0
  1  2  1  0  0  0  0
 26 27  2  0  0  0  0
 26 28  1  0  0  0  0
 24 25  1  0  0  0  0
 22 23  1  0  0  0  0
 22 24  2  0  0  0  0
 20 21  1  0  0  0  0
 19 20  1  0  0  0  0
 19 22  1  0  0  0  0
 17 18  1  0  0  0  0
 17 19  2  0  0  0  0
 15 16  1  0  0  0  0
 15 17  1  0  0  0  0
 14 15  2  0  0  0  0
 14 24  1  0  0  0  0
 11 12  1  0  0  0  0
 11 13  1  0  0  0  0
 11 14  1  0  0  0  0
  9 10  1  0  0  0  0
  9 11  1  0  0  0  0
  9 26  1  0  0  0  0
  7  8  1  0  0  0  0
  7  9  1  0  0  0  0
 30 31  1  0  0  0  0
 30 32  1  0  0  0  0
 30 33  1  0  0  0  0
 28 29  1  0  0  0  0
 28 30  1  0  0  0  0
M  END
$$$$
default_name
  -OEChem-02102213163D

 33 33  0     1  0  0  0  0  0999 V2000
   -4.0702   -3.8485    1.4554 H   0  0  0  0  0  0  0  0  0  0  0  0
   -4.0012   -2.9605    0.8284 C   0  0  0  0  0  0  0  0  0  0  0  0
   -4.7652   -2.2435    1.1234 H   0  0  0  0  0  0  0  0  0  0  0  0
   -4.1352   -3.2385   -0.2156 H   0  0  0  0  0  0  0  0  0  0  0  0
   -2.6362   -2.3395    1.0094 C   0  0  0  0  0  0  0  0  0  0  0  0
   -1.8292   -2.8395    1.7814 O   0  0  0  0  0  0  0  0  0  0  0  0
   -2.3832   -1.2445    0.2964 N   0  0  0  0  0  0  0  0  0  0  0  0
   -3.1102   -0.8685   -0.2946 H   0  0  0  0  0  0  0  0  0  0  0  0
   -1.1292   -0.4875    0.3524 C   0  0  1  0  0  0  0  0  0  0  0  0
   -0.5898   -0.7762    1.2552 H   0  0  0  0  0  0  0  0  0  0  0  0
   -0.2608   -0.8470   -0.8656 C   0  0  0  0  0  0  0  0  0  0  0  0
    0.5427   -1.5110   -0.5443 H   0  0  0  0  0  0  0  0  0  0  0  0
   -0.8708   -1.3962   -1.5847 H   0  0  0  0  0  0  0  0  0  0  0  0
    0.3652    0.3523   -1.5507 C   0  0  0  0  0  0  0  0  0  0  0  0
    1.1873    0.1765   -2.6819 C   0  0  0  0  0  0  0  0  0  0  0  0
    1.3957   -0.8195   -3.0500 H   0  0  0  0  0  0  0  0  0  0  0  0
    1.7336    1.2962   -3.3389 C   0  0  0  0  0  0  0  0  0  0  0  0
    2.3639    1.1578   -4.2039 H   0  0  0  0  0  0  0  0  0  0  0  0
    1.4534    2.5964   -2.8649 C   0  0  0  0  0  0  0  0  0  0  0  0
    1.9729    3.6828   -3.4933 O   0  0  0  0  0  0  0  0  0  0  0  0
    2.5861    3.4392   -4.1880 H   0  0  0  0  0  0  0  0  0  0  0  0
    0.6266    2.7707   -1.7357 C   0  0  0  0  0  0  0  0  0  0  0  0
    0.4232    3.7696   -1.3802 H   0  0  0  0  0  0  0  0  0  0  0  0
    0.0858    1.6493   -1.0784 C   0  0  0  0  0  0  0  0  0  0  0  0
   -0.5418    1.7835   -0.2054 H   0  0  0  0  0  0  0  0  0  0  0  0
   -1.4018    1.0238    0.4329 C   0  0  0  0  0  0  0  0  0  0  0  0
   -2.2416    1.5423   -0.3033 O   0  0  0  0  0  0  0  0  0  0  0  0
   -0.6927    1.7304    1.3223 N   0  0  0  0  0  0  0  0  0  0  0  0
    0.0178    1.2410    1.8469 H   0  0  0  0  0  0  0  0  0  0  0  0
   -0.8259    3.1712    1.5254 C   0  0  0  0  0  0  0  0  0  0  0  0
   -1.8769    3.4302    1.6645 H   0  0  0  0  0  0  0  0  0  0  0  0
   -0.2598    3.4806    2.4054 H   0  0  0  0  0  0  0  0  0  0  0  0
   -0.4486    3.7020    0.6489 H   0  0  0  0  0  0  0  0  0  0  0  0
  5  6  2  0  0  0  0
  5  7  1  0  0  0  0
  2  3  1  0  0  0  0
  2  4  1  0  0  0  0
  2  5  1  0  0  0  0
  1  2  1  0  0  0  0
 26 27  2  0  0  0  0
 26 28  1  0  0  0  0
 24 25  1  0  0  0  0
 22 23  1  0  0  0  0
 22 24  2  0  0  0  0
 20 21  1  0  0  0  0
 19 20  1  0  0  0  0
 19 22  1  0  0  0  0
 17 18  1  0  0  0  0
 17 19  2  0  0  0  0
 15 16  1  0  0  0  0
 15 17  1  0  0  0  0
 14 15  2  0  0  0  0
 14 24  1  0  0  0  0
 11 12  1  0  0  0  0
 11 13  1  0  0  0  0
 11 14  1  0  0  0  0
  9 10  1  0  0  0  0
  9 11  1  0  0  0  0
  9 26  1  0  0  0  0
  7  8  1  0  0  0  0
  7  9  1  0  0  0  0
 30 31  1  0  0  0  0
 30 32  1  0  0  0  0
 30 33  1  0  0  0  0
 28 29  1  0  0  0  0
 28 30  1  0  0  0  0
M  END
$$$$
default_name
  -OEChem-02102213163D

 33 33  0     1  0  0  0  0  0999 V2000
   -4.0702   -3.8485    1.4554 H   0  0  0  0  0  0  0  0  0  0  0  0
   -4.0012   -2.9605    0.8284 C   0  0  0  0  0  0  0  0  0  0  0  0
   -4.7652   -2.2435    1.1234 H   0  0  0  0  0  0  0  0  0  0  0  0
   -4.1352   -3.2385   -0.2156 H   0  0  0  0  0  0  0  0  0  0  0  0
   -2.6362   -2.3395    1.0094 C   0  0  0  0  0  0  0  0  0  0  0  0
   -1.8292   -2.8395    1.7814 O   0  0  0  0  0  0  0  0  0  0  0  0
   -2.3832   -1.2445    0.2964 N   0  0  0  0  0  0  0  0  0  0  0  0
   -3.1102   -0.8685   -0.2946 H   0  0  0  0  0  0  0  0  0  0  0  0
   -1.1292   -0.4875    0.3524 C   0  0  1  0  0  0  0  0  0  0  0  0
   -0.5898   -0.7762    1.2552 H   0  0  0  0  0  0  0  0  0  0  0  0
   -0.2608   -0.8470   -0.8656 C   0  0  0  0  0  0  0  0  0  0  0  0
    0.5427   -1.5110   -0.5443 H   0  0  0  0  0  0  0  0  0  0  0  0
   -0.8708   -1.3962   -1.5847 H   0  0  0  0  0  0  0  0  0  0  0  0
    0.3652    0.3523   -1.5507 C   0  0  0  0  0  0  0  0  0  0  0  0
    0.9172    0.2264   -2.8413 C   0  0  0  0  0  0  0  0  0  0  0  0
    0.9192   -0.7351   -3.3378 H   0  0  0  0  0  0  0  0  0  0  0  0
    1.4611    1.3523   -3.4898 C   0  0  0  0  0  0  0  0  0  0  0  0
    1.8843    1.2519   -4.4775 H   0  0  0  0  0  0  0  0  0  0  0  0
    1.4493    2.6090   -2.8464 C   0  0  0  0  0  0  0  0  0  0  0  0
    1.9687    3.7014   -3.4646 O   0  0  0  0  0  0  0  0  0  0  0  0
    2.3955    3.4787   -4.2929 H   0  0  0  0  0  0  0  0  0  0  0  0
    0.8921    2.7342   -1.5569 C   0  0  0  0  0  0  0  0  0  0  0  0
    0.8930    3.6995   -1.0735 H   0  0  0  0  0  0  0  0  0  0  0  0
    0.3534    1.6061   -0.9095 C   0  0  0  0  0  0  0  0  0  0  0  0
   -0.0661    1.7011    0.0850 H   0  0  0  0  0  0  0  0  0  0  0  0
   -1.4018    1.0238    0.4329 C   0  0  0  0  0  0  0  0  0  0  0  0
   -2.2416    1.5423   -0.3033 O   0  0  0  0  0  0  0  0  0  0  0  0
   -0.6927    1.7304    1.3223 N   0  0  0  0  0  0  0  0  0  0  0  0
    0.0178    1.2410    1.8469 H   0  0  0  0  0  0  0  0  0  0  0  0
   -0.8259    3.1712    1.5254 C   0  0  0  0  0  0  0  0  0  0  0  0
   -1.8769    3.4302    1.6645 H   0  0  0  0  0  0  0  0  0  0  0  0
   -0.2598    3.4806    2.4054 H   0  0  0  0  0  0  0  0  0  0  0  0
   -0.4486    3.7020    0.6489 H   0  0  0  0  0  0  0  0  0  0  0  0
  5  6  2  0  0  0  0
  5  7  1  0  0  0  0
  2  3  1  0  0  0  0
  2  4  1  0  0  0  0
  2  5  1  0  0  0  0
  1  2  1  0  0  0  0
 26 27  2  0  0  0  0
 26 28  1  0  0  0  0
 24 25  1  0  0  0  0
 22 23  1  0  0  0  0
 22 24  2  0  0  0  0
 20 21  1  0  0  0  0
 19 20  1  0  0  0  0
 19 22  1  0  0  0  0
 17 18  1  0  0  0  0
 17 19  2  0  0  0  0
 15 16  1  0  0  0  0
 15 17  1  0  0  0  0
 14 15  2  0  0  0  0
 14 24  1  0  0  0  0
 11 12  1  0  0  0  0
 11 13  1  0  0  0  0
 11 14  1  0  0  0  0
  9 10  1  0  0  0  0
  9 11  1  0  0  0  0
  9 26  1  0  0  0  0
  7  8  1  0  0  0  0
  7  9  1  0  0  0  0
 30 31  1  0  0  0  0
 30 32  1  0  0  0  0
 30 33  1  0  0  0  0
 28 29  1  0  0  0  0
 28 30  1  0  0  0  0
M  END
$$$$
default_name
  -OEChem-02102213163D

 33 33  0     1  0  0  0  0  0999 V2000
   -4.0702   -3.8485    1.4554 H   0  0  0  0  0  0  0  0  0  0  0  0
   -4.0012   -2.9605    0.8284 C   0  0  0  0  0  0  0  0  0  0  0  0
   -4.7652   -2.2435    1.1234 H   0  0  0  0  0  0  0  0  0  0  0  0
   -4.1352   -3.2385   -0.2156 H   0  0  0  0  0  0  0  0  0  0  0  0
   -2.6362   -2.3395    1.0094 C   0  0  0  0  0  0  0  0  0  0  0  0
   -1.8292   -2.8395    1.7814 O   0  0  0  0  0  0  0  0  0  0  0  0
   -2.3832   -1.2445    0.2964 N   0  0  0  0  0  0  0  0  0  0  0  0
   -3.1102   -0.8685   -0.2946 H   0  0  0  0  0  0  0  0  0  0  0  0
   -1.1292   -0.4875    0.3524 C   0  0  1  0  0  0  0  0  0  0  0  0
   -0.5898   -0.7762    1.2552 H   0  0  0  0  0  0  0  0  0  0  0  0
   -0.2608   -0.8470   -0.8656 C   0  0  0  0  0  0  0  0  0  0  0  0
    0.5427   -1.5110   -0.5443 H   0  0  0  0  0  0  0  0  0  0  0  0
   -0.8708   -1.3962   -1.5847 H   0  0  0  0  0  0  0  0  0  0  0  0
    0.3652    0.3523   -1.5507 C   0  0  0  0  0  0  0  0  0  0  0  0
    0.6295    0.3233   -2.9347 C   0  0  0  0  0  0  0  0  0  0  0  0
    0.4098   -0.5672   -3.5092 H   0  0  0  0  0  0  0  0  0  0  0  0
    1.1736    1.4544   -3.5739 C   0  0  0  0  0  0  0  0  0  0  0  0
    1.3761    1.4280   -4.6335 H   0  0  0  0  0  0  0  0  0  0  0  0
    1.4507    2.6198   -2.8264 C   0  0  0  0  0  0  0  0  0  0  0  0
    1.9727    3.7168   -3.4340 O   0  0  0  0  0  0  0  0  0  0  0  0
    2.1946    3.5504   -4.3511 H   0  0  0  0  0  0  0  0  0  0  0  0
    1.1810    2.6488   -1.4424 C   0  0  0  0  0  0  0  0  0  0  0  0
    1.4013    3.5442   -0.8810 H   0  0  0  0  0  0  0  0  0  0  0  0
    0.6415    1.5150   -0.8057 C   0  0  0  0  0  0  0  0  0  0  0  0
    0.4432    1.5349    0.2594 H   0  0  0  0  0  0  0  0  0  0  0  0
   -1.4018    1.0238    0.4329 C   0  0  0  0  0  0  0  0  0  0  0  0
   -2.2416    1.5423   -0.3033 O   0  0  0  0  0  0  0  0  0  0  0  0
   -0.6927    1.7304    1.3223 N   0  0  0  0  0  0  0  0  0  0  0  0
    0.0178    1.2410    1.8469 H   0  0  0  0  0  0  0  0  0  0  0  0
   -0.8259    3.1712    1.5254 C   0  0  0  0  0  0  0  0  0  0  0  0
   -1.8769    3.4302    1.6645 H   0  0  0  0  0  0  0  0  0  0  0  0
   -0.2598    3.4806    2.4054 H   0  0  0  0  0  0  0  0  0  0  0  0
   -0.4486    3.7020    0.6489 H   0  0  0  0  0  0  0  0  0  0  0  0
  5  6  2  0  0  0  0
  5  7  1  0  0  0  0
  2  3  1  0  0  0  0
  2  4  1  0  0  0  0
  2  5  1  0  0  0  0
  1  2  1  0  0  0  0
 26 27  2  0  0  0  0
 26 28  1  0  0  0  0
 24 25  1  0  0  0  0
 22 23  1  0  0  0  0
 22 24  2  0  0  0  0
 20 21  1  0  0  0  0
 19 20  1  0  0  0  0
 19 22  1  0  0  0  0
 17 18  1  0  0  0  0
 17 19  2  0  0  0  0
 15 16  1  0  0  0  0
 15 17  1  0  0  0  0
 14 15  2  0  0  0  0
 14 24  1  0  0  0  0
 11 12  1  0  0  0  0
 11 13  1  0  0  0  0
 11 14  1  0  0  0  0
  9 10  1  0  0  0  0
  9 11  1  0  0  0  0
  9 26  1  0  0  0  0
  7  8  1  0  0  0  0
  7  9  1  0  0  0  0
 30 31  1  0  0  0  0
 30 32  1  0  0  0  0
 30 33  1  0  0  0  0
 28 29  1  0  0  0  0
 28 30  1  0  0  0  0
M  END
$$$$
default_name
  -OEChem-02102213163D

 33 33  0     1  0  0  0  0  0999 V2000
   -4.0702   -3.8485    1.4554 H   0  0  0  0  0  0  0  0  0  0  0  0
   -4.0012   -2.9605    0.8284 C   0  0  0  0  0  0  0  0  0  0  0  0
   -4.7652   -2.2435    1.1234 H   0  0  0  0  0  0  0  0  0  0  0  0
   -4.1352   -3.2385   -0.2156 H   0  0  0  0  0  0  0  0  0  0  0  0
   -2.6362   -2.3395    1.0094 C   0  0  0  0  0  0  0  0  0  0  0  0
   -1.8292   -2.8395    1.7814 O   0  0  0  0  0  0  0  0  0  0  0  0
   -2.3832   -1.2445    0.2964 N   0  0  0  0  0  0  0  0  0  0  0  0
   -3.1102   -0.8685   -0.2946 H   0  0  0  0  0  0  0  0  0  0  0  0
   -1.1292   -0.4875    0.3524 C   0  0  1  0  0  0  0  0  0  0  0  0
   -0.5898   -0.7762    1.2552 H   0  0  0  0  0  0  0  0  0  0  0  0
   -0.2608   -0.8470   -0.8656 C   0  0  0  0  0  0  0  0  0  0  0  0
    0.5427   -1.5110   -0.5443 H   0  0  0  0  0  0  0  0  0  0  0  0
   -0.8708   -1.3962   -1.5847 H   0  0  0  0  0  0  0  0  0  0  0  0
    0.3652    0.3523   -1.5507 C   0  0  0  0  0  0  0  0  0  0  0  0
    0.3438    0.4604   -2.9557 C   0  0  0  0  0  0  0  0  0  0  0  0
   -0.0976   -0.3270   -3.5525 H   0  0  0  0  0  0  0  0  0  0  0  0
    0.8906    1.5956   -3.5852 C   0  0  0  0  0  0  0  0  0  0  0  0
    0.8738    1.6743   -4.6614 H   0  0  0  0  0  0  0  0  0  0  0  0
    1.4573    2.6278   -2.8062 C   0  0  0  0  0  0  0  0  0  0  0  0
    1.9845    3.7279   -3.4036 O   0  0  0  0  0  0  0  0  0  0  0  0
    1.9970    3.6493   -4.3584 H   0  0  0  0  0  0  0  0  0  0  0  0
    1.4735    2.5202   -1.4001 C   0  0  0  0  0  0  0  0  0  0  0  0
    1.9136    3.3141   -0.8156 H   0  0  0  0  0  0  0  0  0  0  0  0
    0.9303    1.3823   -0.7741 C   0  0  0  0  0  0  0  0  0  0  0  0
    0.9515    1.2961    0.3058 H   0  0  0  0  0  0  0  0  0  0  0  0
   -1.4018    1.0238    0.4329 C   0  0  0  0  0  0  0  0  0  0  0  0
   -2.2416    1.5423   -0.3033 O   0  0  0  0  0  0  0  0  0  0  0  0
   -0.6927    1.7304    1.3223 N   0  0  0  0  0  0  0  0  0  0  0  0
    0.0178    1.2410    1.8469 H   0  0  0  0  0  0  0  0  0  0  0  0
   -0.8259    3.1712    1.5254 C   0  0  0  0  0  0  0  0  0  0  0  0
   -1.8769    3.4302    1.6645 H   0  0  0  0  0  0  0  0  0  0  0  0
   -0.2598    3.4806    2.4054 H   0  0  0  0  0  0  0  0  0  0  0  0
   -0.4486    3.7020    0.6489 H   0  0  0  0  0  0  0  0  0  0  0  0
  5  6  2  0  0  0  0
  5  7  1  0  0  0  0
  2  3  1  0  0  0  0
  2  4  1  0  0  0  0
  2  5  1  0  0  0  0
  1  2  1  0  0  0  0
 26 27  2  0  0  0  0
 26 28  1  0  0  0  0
 24 25  1  0  0  0  0
 22 23  1  0  0  0  0
 22 24  2  0  0  0  0
 20 21  1  0  0  0  0
 19 20  1  0  0  0  0
 19 22  1  0  0  0  0
 17 18  1  0  0  0  0
 17 19  2  0  0  0  0
 15 16  1  0  0  0  0
 15 17  1  0  0  0  0
 14 15  2  0  0  0  0
 14 24  1  0  0  0  0
 11 12  1  0  0  0  0
 11 13  1  0  0  0  0
 11 14  1  0  0  0  0
  9 10  1  0  0  0  0
  9 11  1  0  0  0  0
  9 26  1  0  0  0  0
  7  8  1  0  0  0  0
  7  9  1  0  0  0  0
 30 31  1  0  0  0  0
 30 32  1  0  0  0  0
 30 33  1  0  0  0  0
 28 29  1  0  0  0  0
 28 30  1  0  0  0  0
M  END
$$$$
default_name
  -OEChem-02102213163D

 33 33  0     1  0  0  0  0  0999 V2000
   -4.0702   -3.8485    1.4554 H   0  0  0  0  0  0  0  0  0  0  0  0
   -4.0012   -2.9605    0.8284 C   0  0  0  0  0  0  0  0  0  0  0  0
   -4.7652   -2.2435    1.1234 H   0  0  0  0  0  0  0  0  0  0  0  0
   -4.1352   -3.2385   -0.2156 H   0  0  0  0  0  0  0  0  0  0  0  0
   -2.6362   -2.3395    1.0094 C   0  0  0  0  0  0  0  0  0  0  0  0
   -1.8292   -2.8395    1.7814 O   0  0  0  0  0  0  0  0  0  0  0  0
   -2.3832   -1.2445    0.2964 N   0  0  0  0  0  0  0  0  0  0  0  0
   -3.1102   -0.8685   -0.2946 H   0  0  0  0  0  0  0  0  0  0  0  0
   -1.1292   -0.4875    0.3524 C   0  0  1  0  0  0  0  0  0  0  0  0
   -0.5898   -0.7762    1.2552 H   0  0  0  0  0  0  0  0  0  0  0  0
   -0.2608   -0.8470   -0.8656 C   0  0  0  0  0  0  0  0  0  0  0  0
    0.5427   -1.5110   -0.5443 H   0  0  0  0  0  0  0  0  0  0  0  0
   -0.8708   -1.3962   -1.5847 H   0  0  0  0  0  0  0  0  0  0  0  0
    0.3652    0.3523   -1.5507 C   0  0  0  0  0  0  0  0  0  0  0  0
    0.0796    0.6285   -2.9029 C   0  0  0  0  0  0  0  0  0  0  0  0
   -0.5685   -0.0311   -3.4649 H   0  0  0  0  0  0  0  0  0  0  0  0
    0.6314    1.7663   -3.5232 C   0  0  0  0  0  0  0  0  0  0  0  0
    0.4118    1.9738   -4.5592 H   0  0  0  0  0  0  0  0  0  0  0  0
    1.4688    2.6327   -2.7872 C   0  0  0  0  0  0  0  0  0  0  0  0
    2.0035    3.7341   -3.3755 O   0  0  0  0  0  0  0  0  0  0  0  0
    1.8162    3.7688   -4.3145 H   0  0  0  0  0  0  0  0  0  0  0  0
    1.7497    2.3574   -1.4329 C   0  0  0  0  0  0  0  0  0  0  0  0
    2.3949    3.0250   -0.8819 H   0  0  0  0  0  0  0  0  0  0  0  0
    1.2003    1.2169   -0.8169 C   0  0  0  0  0  0  0  0  0  0  0  0
    1.4239    1.0010    0.2211 H   0  0  0  0  0  0  0  0  0  0  0  0
   -1.4018    1.0238    0.4329 C   0  0  0  0  0  0  0  0  0  0  0  0
   -2.2416    1.5423   -0.3033 O   0  0  0  0  0  0  0  0  0  0  0  0
   -0.6927    1.7304    1.3223 N   0  0  0  0  0  0  0  0  0  0  0  0
    0.0178    1.2410    1.8469 H   0  0  0  0  0  0  0  0  0  0  0  0
   -0.8259    3.1712    1.5254 C   0  0  0  0  0  0  0  0  0  0  0  0
   -1.8769    3.4302    1.6645 H   0  0  0  0  0  0  0  0  0  0  0  0
   -0.2598    3.4806    2.4054 H   0  0  0  0  0  0  0  0  0  0  0  0
   -0.4486    3.7020    0.6489 H   0  0  0  0  0  0  0  0  0  0  0  0
  5  6  2  0  0  0  0
  5  7  1  0  0  0  0
  2  3  1  0  0  0  0
  2  4  1  0  0  0  0
  2  5  1  0  0  0  0
  1  2  1  0  0  0  0
 26 27  2  0  0  0  0
 26 28  1  0  0  0  0
 24 25  1  0  0  0  0
 22 23  1  0  0  0  0
 22 24  2  0  0  0  0
 20 21  1  0  0  0  0
 19 20  1  0  0  0  0
 19 22  1  0  0  0  0
 17 18  1  0  0  0  0
 17 19  2  0  0  0  0
 15 16  1  0  0  0  0
 15 17  1  0  0  0  0
 14 15  2  0  0  0  0
 14 24  1  0  0  0  0
 11 12  1  0  0  0  0
 11 13  1  0  0  0  0
 11 14  1  0  0  0  0
  9 10  1  0  0  0  0
  9 11  1  0  0  0  0
  9 26  1  0  0  0  0
  7  8  1  0  0  0  0
  7  9  1  0  0  0  0
 30 31  1  0  0  0  0
 30 32  1  0  0  0  0
 30 33  1  0  0  0  0
 28 29  1  0  0  0  0
 28 30  1  0  0  0  0
M  END
$$$$
default_name
  -OEChem-02102213163D

 33 33  0     1  0  0  0  0  0999 V2000
   -4.0702   -3.8485    1.4554 H   0  0  0  0  0  0  0  0  0  0  0  0
   -4.0012   -2.9605    0.8284 C   0  0  0  0  0  0  0  0  0  0  0  0
   -4.7652   -2.2435    1.1234 H   0  0  0  0  0  0  0  0  0  0  0  0
   -4.1352   -3.2385   -0.2156 H   0  0  0  0  0  0  0  0  0  0  0  0
   -2.6362   -2.3395    1.0094 C   0  0  0  0  0  0  0  0  0  0  0  0
   -1.8292   -2.8395    1.7814 O   0  0  0  0  0  0  0  0  0  0  0  0
   -2.3832   -1.2445    0.2964 N   0  0  0  0  0  0  0  0  0  0  0  0
   -3.1102   -0.8685   -0.2946 H   0  0  0  0  0  0  0  0  0  0  0  0
   -1.1292   -0.4875    0.3524 C   0  0  1  0  0  0  0  0  0  0  0  0
   -0.5898   -0.7762    1.2552 H   0  0  0  0  0  0  0  0  0  0  0  0
   -0.2608   -0.8470   -0.8656 C   0  0  0  0  0  0  0  0  0  0  0  0
    0.5427   -1.5110   -0.5443 H   0  0  0  0  0  0  0  0  0  0  0  0
   -0.8708   -1.3962   -1.5847 H   0  0  0  0  0  0  0  0  0  0  0  0
    0.3652    0.3523   -1.5507 C   0  0  0  0  0  0  0  0  0  0  0  0
   -0.1452    0.8162   -2.7798 C   0  0  0  0  0  0  0  0  0  0  0  0
   -0.9709    0.3004   -3.2522 H   0  0  0  0  0  0  0  0  0  0  0  0
    0.4137    1.9549   -3.3921 C   0  0  0  0  0  0  0  0  0  0  0  0
    0.0214    2.3063   -4.3340 H   0  0  0  0  0  0  0  0  0  0  0  0
    1.4844    2.6340   -2.7707 C   0  0  0  0  0  0  0  0  0  0  0  0
    2.0284    3.7348   -3.3516 O   0  0  0  0  0  0  0  0  0  0  0  0
    1.6646    3.9006   -4.2223 H   0  0  0  0  0  0  0  0  0  0  0  0
    1.9907    2.1713   -1.5384 C   0  0  0  0  0  0  0  0  0  0  0  0
    2.8124    2.6965   -1.0754 H   0  0  0  0  0  0  0  0  0  0  0  0
    1.4329    1.0302   -0.9312 C   0  0  0  0  0  0  0  0  0  0  0  0
    1.8285    0.6699    0.0110 H   0  0  0  0  0  0  0  0  0  0  0  0
   -1.4018    1.0238    0.4329 C   0  0  0  0  0  0  0  0  0  0  0  0
   -2.2416    1.5423   -0.3033 O   0  0  0  0  0  0  0  0  0  0  0  0
   -0.6927    1.7304    1.3223 N   0  0  0  0  0  0  0  0  0  0  0  0
    0.0178    1.2410    1.8469 H   0  0  0  0  0  0  0  0  0  0  0  0
   -0.8259    3.1712    1.5254 C   0  0  0  0  0  0  0  0  0  0  0  0
   -1.8769    3.4302    1.6645 H   0  0  0  0  0  0  0  0  0  0  0  0
   -0.2598    3.4806    2.4054 H   0  0  0  0  0  0  0  0  0  0  0  0
   -0.4486    3.7020    0.6489 H   0  0  0  0  0  0  0  0  0  0  0  0
  5  6  2  0  0  0  0
  5  7  1  0  0  0  0
  2  3  1  0  0  0  0
  2  4  1  0  0  0  0
  2  5  1  0  0  0  0
  1  2  1  0  0  0  0
 26 27  2  0  0  0  0
 26 28  1  0  0  0  0
 24 25  1  0  0  0  0
 22 23  1  0  0  0  0
 22 24  2  0  0  0  0
 20 21  1  0  0  0  0
 19 20  1  0  0  0  0
 19 22  1  0  0  0  0
 17 18  1  0  0  0  0
 17 19  2  0  0  0  0
 15 16  1  0  0  0  0
 15 17  1  0  0  0  0
 14 15  2  0  0  0  0
 14 24  1  0  0  0  0
 11 12  1  0  0  0  0
 11 13  1  0  0  0  0
 11 14  1  0  0  0  0
  9 10  1  0  0  0  0
  9 11  1  0  0  0  0
  9 26  1  0  0  0  0
  7  8  1  0  0  0  0
  7  9  1  0  0  0  0
 30 31  1  0  0  0  0
 30 32  1  0  0  0  0
 30 33  1  0  0  0  0
 28 29  1  0  0  0  0
 28 30  1  0  0  0  0
M  END
$$$$
default_name
  -OEChem-02102213163D

 33 33  0     1  0  0  0  0  0999 V2000
   -4.0702   -3.8485    1.4554 H   0  0  0  0  0  0  0  0  0  0  0  0
   -4.0012   -2.9605    0.8284 C   0  0  0  0  0  0  0  0  0  0  0  0
   -4.7652   -2.2435    1.1234 H   0  0  0  0  0  0  0  0  0  0  0  0
   -4.1352   -3.2385   -0.2156 H   0  0  0  0  0  0  0  0  0  0  0  0
   -2.6362   -2.3395    1.0094 C   0  0  0  0  0  0  0  0  0  0  0  0
   -1.8292   -2.8395    1.7814 O   0  0  0  0  0  0  0  0  0  0  0  0
   -2.3832   -1.2445    0.2964 N   0  0  0  0  0  0  0  0  0  0  0  0
   -3.1102   -0.8685   -0.2946 H   0  0  0  0  0  0  0  0  0  0  0  0
   -1.1292   -0.4875    0.3524 C   0  0  1  0  0  0  0  0  0  0  0  0
   -0.5898   -0.7762    1.2552 H   0  0  0  0  0  0  0  0  0  0  0  0
   -0.2608   -0.8470   -0.8656 C   0  0  0  0  0  0  0  0  0  0  0  0
    0.5427   -1.5110   -0.5443 H   0  0  0  0  0  0  0  0  0  0  0  0
   -0.8708   -1.3962   -1.5847 H   0  0  0  0  0  0  0  0  0  0  0  0
    0.3652    0.3523   -1.5507 C   0  0  0  0  0  0  0  0  0  0  0  0
   -0.3151    1.0105   -2.5948 C   0  0  0  0  0  0  0  0  0  0  0  0
   -1.2772    0.6450   -2.9290 H   0  0  0  0  0  0  0  0  0  0  0  0
    0.2524    2.1484   -3.2006 C   0  0  0  0  0  0  0  0  0  0  0  0
   -0.2707    2.6490   -4.0009 H   0  0  0  0  0  0  0  0  0  0  0  0
    1.5030    2.6316   -2.7578 C   0  0  0  0  0  0  0  0  0  0  0  0
    2.0573    3.7300   -3.3336 O   0  0  0  0  0  0  0  0  0  0  0  0
    1.5523    4.0358   -4.0882 H   0  0  0  0  0  0  0  0  0  0  0  0
    2.1801    1.9746   -1.7096 C   0  0  0  0  0  0  0  0  0  0  0  0
    3.1377    2.3511   -1.3828 H   0  0  0  0  0  0  0  0  0  0  0  0
    1.6124    0.8348   -1.1091 C   0  0  0  0  0  0  0  0  0  0  0  0
    2.1375    0.3251   -0.3101 H   0  0  0  0  0  0  0  0  0  0  0  0
   -1.4018    1.0238    0.4329 C   0  0  0  0  0  0  0  0  0  0  0  0
   -2.2416    1.5423   -0.3033 O   0  0  0  0  0  0  0  0  0  0  0  0
   -0.6927    1.7304    1.3223 N   0  0  0  0  0  0  0  0  0  0  0  0
    0.0178    1.2410    1.8469 H   0  0  0  0  0  0  0  0  0  0  0  0
   -0.8259    3.1712    1.5254 C   0  0  0  0  0  0  0  0  0  0  0  0
   -1.8769    3.4302    1.6645 H   0  0  0  0  0  0  0  0  0  0  0  0
   -0.2598    3.4806    2.4054 H   0  0  0  0  0  0  0  0  0  0  0  0
   -0.4486    3.7020    0.6489 H   0  0  0  0  0  0  0  0  0  0  0  0
  5  6  2  0  0  0  0
  5  7  1  0  0  0  0
  2  3  1  0  0  0  0
  2  4  1  0  0  0  0
  2  5  1  0  0  0  0
  1  2  1  0  0  0  0
 26 27  2  0  0  0  0
 26 28  1  0  0  0  0
 24 25  1  0  0  0  0
 22 23  1  0  0  0  0
 22 24  2  0  0  0  0
 20 21  1  0  0  0  0
 19 20  1  0  0  0  0
 19 22  1  0  0  0  0
 17 18  1  0  0  0  0
 17 19  2  0  0  0  0
 15 16  1  0  0  0  0
 15 17  1  0  0  0  0
 14 15  2  0  0  0  0
 14 24  1  0  0  0  0
 11 12  1  0  0  0  0
 11 13  1  0  0  0  0
 11 14  1  0  0  0  0
  9 10  1  0  0  0  0
  9 11  1  0  0  0  0
  9 26  1  0  0  0  0
  7  8  1  0  0  0  0
  7  9  1  0  0  0  0
 30 31  1  0  0  0  0
 30 32  1  0  0  0  0
 30 33  1  0  0  0  0
 28 29  1  0  0  0  0
 28 30  1  0  0  0  0
M  END
$$$$
default_name
  -OEChem-02102213163D

 33 33  0     1  0  0  0  0  0999 V2000
   -4.0702   -3.8485    1.4554 H   0  0  0  0  0  0  0  0  0  0  0  0
   -4.0012   -2.9605    0.8284 C   0  0  0  0  0  0  0  0  0  0  0  0
   -4.7652   -2.2435    1.1234 H   0  0  0  0  0  0  0  0  0  0  0  0
   -4.1352   -3.2385   -0.2156 H   0  0  0  0  0  0  0  0  0  0  0  0
   -2.6362   -2.3395    1.0094 C   0  0  0  0  0  0  0  0  0  0  0  0
   -1.8292   -2.8395    1.7814 O   0  0  0  0  0  0  0  0  0  0  0  0
   -2.3832   -1.2445    0.2964 N   0  0  0  0  0  0  0  0  0  0  0  0
   -3.1102   -0.8685   -0.2946 H   0  0  0  0  0  0  0  0  0  0  0  0
   -1.1292   -0.4875    0.3524 C   0  0  1  0  0  0  0  0  0  0  0  0
   -0.5898   -0.7762    1.2552 H   0  0  0  0  0  0  0  0  0  0  0  0
   -0.2608   -0.8470   -0.8656 C   0  0  0  0  0  0  0  0  0  0  0  0
    0.5427   -1.5110   -0.5443 H   0  0  0  0  0  0  0  0  0  0  0  0
   -0.8708   -1.3962   -1.5847 H   0  0  0  0  0  0  0  0  0  0  0  0
    0.3652    0.3523   -1.5507 C   0  0  0  0  0  0  0  0  0  0  0  0
   -0.4187    1.1984   -2.3606 C   0  0  0  0  0  0  0  0  0  0  0  0
   -1.4667    0.9791   -2.5173 H   0  0  0  0  0  0  0  0  0  0  0  0
    0.1583    2.3338   -2.9620 C   0  0  0  0  0  0  0  0  0  0  0  0
   -0.4445    2.9786   -3.5828 H   0  0  0  0  0  0  0  0  0  0  0  0
    1.5233    2.6259   -2.7494 C   0  0  0  0  0  0  0  0  0  0  0  0
    2.0884    3.7200   -3.3225 O   0  0  0  0  0  0  0  0  0  0  0  0
    1.4872    4.1652   -3.9211 H   0  0  0  0  0  0  0  0  0  0  0  0
    2.3050    1.7808   -1.9347 C   0  0  0  0  0  0  0  0  0  0  0  0
    3.3486    2.0122   -1.7832 H   0  0  0  0  0  0  0  0  0  0  0  0
    1.7265    0.6441   -1.3386 C   0  0  0  0  0  0  0  0  0  0  0  0
    2.3300   -0.0097   -0.7203 H   0  0  0  0  0  0  0  0  0  0  0  0
   -1.4018    1.0238    0.4329 C   0  0  0  0  0  0  0  0  0  0  0  0
   -2.2416    1.5423   -0.3033 O   0  0  0  0  0  0  0  0  0  0  0  0
   -0.6927    1.7304    1.3223 N   0  0  0  0  0  0  0  0  0  0  0  0
    0.0178    1.2410    1.8469 H   0  0  0  0  0  0  0  0  0  0  0  0
   -0.8259    3.1712    1.5254 C   0  0  0  0  0  0  0  0  0  0  0  0
   -1.8769    3.4302    1.6645 H   0  0  0  0  0  0  0  0  0  0  0  0
   -0.2598    3.4806    2.4054 H   0  0  0  0  0  0  0  0  0  0  0  0
   -0.4486    3.7020    0.6489 H   0  0  0  0  0  0  0  0  0  0  0  0
  5  6  2  0  0  0  0
  5  7  1  0  0  0  0
  2  3  1  0  0  0  0
  2  4  1  0  0  0  0
  2  5  1  0  0  0  0
  1  2  1  0  0  0  0
 26 27  2  0  0  0  0
 26 28  1  0  0  0  0
 24 25  1  0  0  0  0
 22 23  1  0  0  0  0
 22 24  2  0  0  0  0
 20 21  1  0  0  0  0
 19 20  1  0  0  0  0
 19 22  1  0  0  0  0
 17 18  1  0  0  0  0
 17 19  2  0  0  0  0
 15 16  1  0  0  0  0
 15 17  1  0  0  0  0
 14 15  2  0  0  0  0
 14 24  1  0  0  0  0
 11 12  1  0  0  0  0
 11 13  1  0  0  0  0
 11 14  1  0  0  0  0
  9 10  1  0  0  0  0
  9 11  1  0  0  0  0
  9 26  1  0  0  0  0
  7  8  1  0  0  0  0
  7  9  1  0  0  0  0
 30 31  1  0  0  0  0
 30 32  1  0  0  0  0
 30 33  1  0  0  0  0
 28 29  1  0  0  0  0
 28 30  1  0  0  0  0
M  END
$$$$
default_name
  -OEChem-02102213163D

 33 33  0     1  0  0  0  0  0999 V2000
   -4.0702   -3.8485    1.4554 H   0  0  0  0  0  0  0  0  0  0  0  0
   -4.0012   -2.9605    0.8284 C   0  0  0  0  0  0  0  0  0  0  0  0
   -4.7652   -2.2435    1.1234 H   0  0  0  0  0  0  0  0  0  0  0  0
   -4.1352   -3.2385   -0.2156 H   0  0  0  0  0  0  0  0  0  0  0  0
   -2.6362   -2.3395    1.0094 C   0  0  0  0  0  0  0  0  0  0  0  0
   -1.8292   -2.8395    1.7814 O   0  0  0  0  0  0  0  0  0  0  0  0
   -2.3832   -1.2445    0.2964 N   0  0  0  0  0  0  0  0  0  0  0  0
   -3.1102   -0.8685   -0.2946 H   0  0  0  0  0  0  0  0  0  0  0  0
   -1.1292   -0.4875    0.3524 C   0  0  1  0  0  0  0  0  0  0  0  0
   -0.5898   -0.7762    1.2552 H   0  0  0  0  0  0  0  0  0  0  0  0
   -0.2608   -0.8470   -0.8656 C   0  0  0  0  0  0  0  0  0  0  0  0
    0.5427   -1.5110   -0.5443 H   0  0  0  0  0  0  0  0  0  0  0  0
   -0.8708   -1.3962   -1.5847 H   0  0  0  0  0  0  0  0  0  0  0  0
    0.3652    0.3523   -1.5507 C   0  0  0  0  0  0  0  0  0  0  0  0
   -0.4488    1.3669   -2.0931 C   0  0  0  0  0  0  0  0  0  0  0  0
   -1.5264    1.2799   -2.0451 H   0  0  0  0  0  0  0  0  0  0  0  0
    0.1380    2.4984   -2.6925 C   0  0  0  0  0  0  0  0  0  0  0  0
   -0.4884    3.2727   -3.1082 H   0  0  0  0  0  0  0  0  0  0  0  0
    1.5439    2.6170   -2.7460 C   0  0  0  0  0  0  0  0  0  0  0  0
    2.1195    3.7056   -3.3193 O   0  0  0  0  0  0  0  0  0  0  0  0
    1.4736    4.2800   -3.7327 H   0  0  0  0  0  0  0  0  0  0  0  0
    2.3570    1.6031   -2.1984 C   0  0  0  0  0  0  0  0  0  0  0  0
    3.4307    1.7031   -2.2494 H   0  0  0  0  0  0  0  0  0  0  0  0
    1.7675    0.4711   -1.6041 C   0  0  0  0  0  0  0  0  0  0  0  0
    2.3928   -0.3118   -1.1918 H   0  0  0  0  0  0  0  0  0  0  0  0
   -1.4018    1.0238    0.4329 C   0  0  0  0  0  0  0  0  0  0  0  0
   -2.2416    1.5423   -0.3033 O   0  0  0  0  0  0  0  0  0  0  0  0
   -0.6927    1.7304    1.3223 N   0  0  0  0  0  0  0  0  0  0  0  0
    0.0178    1.2410    1.8469 H   0  0  0  0  0  0  0  0  0  0  0  0
   -0.8259    3.1712    1.5254 C   0  0  0  0  0  0  0  0  0  0  0  0
   -1.8769    3.4302    1.6645 H   0  0  0  0  0  0  0  0  0  0  0  0
   -0.2598    3.4806    2.4054 H   0  0  0  0  0  0  0  0  0  0  0  0
   -0.4486    3.7020    0.6489 H   0  0  0  0  0  0  0  0  0  0  0  0
  5  6  2  0  0  0  0
  5  7  1  0  0  0  0
  2  3  1  0  0  0  0
  2  4  1  0  0  0  0
  2  5  1  0  0  0  0
  1  2  1  0  0  0  0
 26 27  2  0  0  0  0
 26 28  1  0  0  0  0
 24 25  1  0  0  0  0
 22 23  1  0  0  0  0
 22 24  2  0  0  0  0
 20 21  1  0  0  0  0
 19 20  1  0  0  0  0
 19 22  1  0  0  0  0
 17 18  1  0  0  0  0
 17 19  2  0  0  0  0
 15 16  1  0  0  0  0
 15 17  1  0  0  0  0
 14 15  2  0  0  0  0
 14 24  1  0  0  0  0
 11 12  1  0  0  0  0
 11 13  1  0  0  0  0
 11 14  1  0  0  0  0
  9 10  1  0  0  0  0
  9 11  1  0  0  0  0
  9 26  1  0  0  0  0
  7  8  1  0  0  0  0
  7  9  1  0  0  0  0
 30 31  1  0  0  0  0
 30 32  1  0  0  0  0
 30 33  1  0  0  0  0
 28 29  1  0  0  0  0
 28 30  1  0  0  0  0
M  END
$$$$
default_name
  -OEChem-02102213163D

 33 33  0     1  0  0  0  0  0999 V2000
   -4.0702   -3.8485    1.4554 H   0  0  0  0  0  0  0  0  0  0  0  0
   -4.0012   -2.9605    0.8284 C   0  0  0  0  0  0  0  0  0  0  0  0
   -4.7652   -2.2435    1.1234 H   0  0  0  0  0  0  0  0  0  0  0  0
   -4.1352   -3.2385   -0.2156 H   0  0  0  0  0  0  0  0  0  0  0  0
   -2.6362   -2.3395    1.0094 C   0  0  0  0  0  0  0  0  0  0  0  0
   -1.8292   -2.8395    1.7814 O   0  0  0  0  0  0  0  0  0  0  0  0
   -2.3832   -1.2445    0.2964 N   0  0  0  0  0  0  0  0  0  0  0  0
   -3.1102   -0.8685   -0.2946 H   0  0  0  0  0  0  0  0  0  0  0  0
   -1.1292   -0.4875    0.3524 C   0  0  1  0  0  0  0  0  0  0  0  0
   -0.5898   -0.7762    1.2552 H   0  0  0  0  0  0  0  0  0  0  0  0
   -0.2608   -0.8470   -0.8656 C   0  0  0  0  0  0  0  0  0  0  0  0
    0.5427   -1.5110   -0.5443 H   0  0  0  0  0  0  0  0  0  0  0  0
   -0.8708   -1.3962   -1.5847 H   0  0  0  0  0  0  0  0  0  0  0  0
    0.3652    0.3523   -1.5507 C   0  0  0  0  0  0  0  0  0  0  0  0
   -0.4034    1.5047   -1.8105 C   0  0  0  0  0  0  0  0  0  0  0  0
   -1.4522    1.5271   -1.5447 H   0  0  0  0  0  0  0  0  0  0  0  0
    0.1928    2.6310   -2.4104 C   0  0  0  0  0  0  0  0  0  0  0  0
   -0.3992    3.5111   -2.6093 H   0  0  0  0  0  0  0  0  0  0  0  0
    1.5636    2.6056   -2.7480 C   0  0  0  0  0  0  0  0  0  0  0  0
    2.1486    3.6877   -3.3241 O   0  0  0  0  0  0  0  0  0  0  0  0
    1.5125    4.3723   -3.5356 H   0  0  0  0  0  0  0  0  0  0  0  0
    2.3324    1.4535   -2.4828 C   0  0  0  0  0  0  0  0  0  0  0  0
    3.3785    1.4447   -2.7495 H   0  0  0  0  0  0  0  0  0  0  0  0
    1.7324    0.3276   -1.8873 C   0  0  0  0  0  0  0  0  0  0  0  0
    2.3216   -0.5606   -1.6923 H   0  0  0  0  0  0  0  0  0  0  0  0
   -1.4018    1.0238    0.4329 C   0  0  0  0  0  0  0  0  0  0  0  0
   -2.2416    1.5423   -0.3033 O   0  0  0  0  0  0  0  0  0  0  0  0
   -0.6927    1.7304    1.3223 N   0  0  0  0  0  0  0  0  0  0  0  0
    0.0178    1.2410    1.8469 H   0  0  0  0  0  0  0  0  0  0  0  0
   -0.8259    3.1712    1.5254 C   0  0  0  0  0  0  0  0  0  0  0  0
   -1.8769    3.4302    1.6645 H   0  0  0  0  0  0  0  0  0  0  0  0
   -0.2598    3.4806    2.4054 H   0  0  0  0  0  0  0  0  0  0  0  0
   -0.4486    3.7020    0.6489 H   0  0  0  0  0  0  0  0  0  0  0  0
  5  6  2  0  0  0  0
  5  7  1  0  0  0  0
  2  3  1  0  0  0  0
  2  4  1  0  0  0  0
  2  5  1  0  0  0  0
  1  2  1  0  0  0  0
 26 27  2  0  0  0  0
 26 28  1  0  0  0  0
 24 25  1  0  0  0  0
 22 23  1  0  0  0  0
 22 24  2  0  0  0  0
 20 21  1  0  0  0  0
 19 20  1  0  0  0  0
 19 22  1  0  0  0  0
 17 18  1  0  0  0  0
 17 19  2  0  0  0  0
 15 16  1  0  0  0  0
 15 17  1  0  0  0  0
 14 15  2  0  0  0  0
 14 24  1  0  0  0  0
 11 12  1  0  0  0  0
 11 13  1  0  0  0  0
 11 14  1  0  0  0  0
  9 10  1  0  0  0  0
  9 11  1  0  0  0  0
  9 26  1  0  0  0  0
  7  8  1  0  0  0  0
  7  9  1  0  0  0  0
 30 31  1  0  0  0  0
 30 32  1  0  0  0  0
 30 33  1  0  0  0  0
 28 29  1  0  0  0  0
 28 30  1  0  0  0  0
M  END
$$$$
default_name
  -OEChem-02102213163D

 33 33  0     1  0  0  0  0  0999 V2000
   -4.0702   -3.8485    1.4554 H   0  0  0  0  0  0  0  0  0  0  0  0
   -4.0012   -2.9605    0.8284 C   0  0  0  0  0  0  0  0  0  0  0  0
   -4.7652   -2.2435    1.1234 H   0  0  0  0  0  0  0  0  0  0  0  0
   -4.1352   -3.2385   -0.2156 H   0  0  0  0  0  0  0  0  0  0  0  0
   -2.6362   -2.3395    1.0094 C   0  0  0  0  0  0  0  0  0  0  0  0
   -1.8292   -2.8395    1.7814 O   0  0  0  0  0  0  0  0  0  0  0  0
   -2.3832   -1.2445    0.2964 N   0  0  0  0  0  0  0  0  0  0  0  0
   -3.1102   -0.8685   -0.2946 H   0  0  0  0  0  0  0  0  0  0  0  0
   -1.1292   -0.4875    0.3524 C   0  0  1  0  0  0  0  0  0  0  0  0
   -0.5898   -0.7762    1.2552 H   0  0  0  0  0  0  0  0  0  0  0  0
   -0.2608   -0.8470   -0.8656 C   0  0  0  0  0  0  0  0  0  0  0  0
    0.5427   -1.5110   -0.5443 H   0  0  0  0  0  0  0  0  0  0  0  0
   -0.8708   -1.3962   -1.5847 H   0  0  0  0  0  0  0  0  0  0  0  0
    0.3652    0.3523   -1.5507 C   0  0  0  0  0  0  0  0  0  0  0  0
   -0.2857    1.6022   -1.5322 C   0  0  0  0  0  0  0  0  0  0  0  0
   -1.2492    1.7037   -1.0501 H   0  0  0  0  0  0  0  0  0  0  0  0
    0.3190    2.7225   -2.1349 C   0  0  0  0  0  0  0  0  0  0  0  0
   -0.1830    3.6777   -2.1202 H   0  0  0  0  0  0  0  0  0  0  0  0
    1.5808    2.5926   -2.7551 C   0  0  0  0  0  0  0  0  0  0  0  0
    2.1736    3.6676   -3.3366 O   0  0  0  0  0  0  0  0  0  0  0  0
    1.6012    4.4359   -3.3433 H   0  0  0  0  0  0  0  0  0  0  0  0
    2.2329    1.3422   -2.7684 C   0  0  0  0  0  0  0  0  0  0  0  0
    3.1954    1.2546   -3.2495 H   0  0  0  0  0  0  0  0  0  0  0  0
    1.6239    0.2233   -2.1690 C   0  0  0  0  0  0  0  0  0  0  0  0
    2.1213   -0.7391   -2.1878 H   0  0  0  0  0  0  0  0  0  0  0  0
   -1.4018    1.0238    0.4329 C   0  0  0  0  0  0  0  0  0  0  0  0
   -2.2416    1.5423   -0.3033 O   0  0  0  0  0  0  0  0  0  0  0  0
   -0.6927    1.7304    1.3223 N   0  0  0  0  0  0  0  0  0  0  0  0
    0.0178    1.2410    1.8469 H   0  0  0  0  0  0  0  0  0  0  0  0
   -0.8259    3.1712    1.5254 C   0  0  0  0  0  0  0  0  0  0  0  0
   -1.8769    3.4302    1.6645 H   0  0  0  0  0  0  0  0  0  0  0  0
   -0.2598    3.4806    2.4054 H   0  0  0  0  0  0  0  0  0  0  0  0
   -0.4486    3.7020    0.6489 H   0  0  0  0  0  0  0  0  0  0  0  0
  5  6  2  0  0  0  0
  5  7  1  0  0  0  0
  2  3  1  0  0  0  0
  2  4  1  0  0  0  0
  2  5  1  0  0  0  0
  1  2  1  0  0  0  0
 26 27  2  0  0  0  0
 26 28  1  0  0  0  0
 24 25  1  0  0  0  0
 22 23  1  0  0  0  0
 22 24  2  0  0  0  0
 20 21  1  0  0  0  0
 19 20  1  0  0  0  0
 19 22  1  0  0  0  0
 17 18  1  0  0  0  0
 17 19  2  0  0  0  0
 15 16  1  0  0  0  0
 15 17  1  0  0  0  0
 14 15  2  0  0  0  0
 14 24  1  0  0  0  0
 11 12  1  0  0  0  0
 11 13  1  0  0  0  0
 11 14  1  0  0  0  0
  9 10  1  0  0  0  0
  9 11  1  0  0  0  0
  9 26  1  0  0  0  0
  7  8  1  0  0  0  0
  7  9  1  0  0  0  0
 30 31  1  0  0  0  0
 30 32  1  0  0  0  0
 30 33  1  0  0  0  0
 28 29  1  0  0  0  0
 28 30  1  0  0  0  0
M  END
$$$$
default_name
  -OEChem-02102213163D

 33 33  0     1  0  0  0  0  0999 V2000
   -4.0702   -3.8485    1.4554 H   0  0  0  0  0  0  0  0  0  0  0  0
   -4.0012   -2.9605    0.8284 C   0  0  0  0  0  0  0  0  0  0  0  0
   -4.7652   -2.2435    1.1234 H   0  0  0  0  0  0  0  0  0  0  0  0
   -4.1352   -3.2385   -0.2156 H   0  0  0  0  0  0  0  0  0  0  0  0
   -2.6362   -2.3395    1.0094 C   0  0  0  0  0  0  0  0  0  0  0  0
   -1.8292   -2.8395    1.7814 O   0  0  0  0  0  0  0  0  0  0  0  0
   -2.3832   -1.2445    0.2964 N   0  0  0  0  0  0  0  0  0  0  0  0
   -3.1102   -0.8685   -0.2946 H   0  0  0  0  0  0  0  0  0  0  0  0
   -1.1292   -0.4875    0.3524 C   0  0  1  0  0  0  0  0  0  0  0  0
   -0.5898   -0.7762    1.2552 H   0  0  0  0  0  0  0  0  0  0  0  0
   -0.2608   -0.8470   -0.8656 C   0  0  0  0  0  0  0  0  0  0  0  0
    0.5427   -1.5110   -0.5443 H   0  0  0  0  0  0  0  0  0  0  0  0
   -0.8708   -1.3962   -1.5847 H   0  0  0  0  0  0  0  0  0  0  0  0
    0.3652    0.3523   -1.5507 C   0  0  0  0  0  0  0  0  0  0  0  0
   -0.1035    1.6529   -1.2770 C   0  0  0  0  0  0  0  0  0  0  0  0
   -0.9312    1.7977   -0.5950 H   0  0  0  0  0  0  0  0  0  0  0  0
    0.5079    2.7667   -1.8849 C   0  0  0  0  0  0  0  0  0  0  0  0
    0.1454    3.7610   -1.6742 H   0  0  0  0  0  0  0  0  0  0  0  0
    1.5944    2.5787   -2.7668 C   0  0  0  0  0  0  0  0  0  0  0  0
    2.1928    3.6465   -3.3559 O   0  0  0  0  0  0  0  0  0  0  0  0
    1.7337    4.4663   -3.1689 H   0  0  0  0  0  0  0  0  0  0  0  0
    2.0654    1.2769   -3.0358 C   0  0  0  0  0  0  0  0  0  0  0  0
    2.8940    1.1458   -3.7153 H   0  0  0  0  0  0  0  0  0  0  0  0
    1.4491    0.1654   -2.4301 C   0  0  0  0  0  0  0  0  0  0  0  0
    1.8055   -0.8351   -2.6444 H   0  0  0  0  0  0  0  0  0  0  0  0
   -1.4018    1.0238    0.4329 C   0  0  0  0  0  0  0  0  0  0  0  0
   -2.2416    1.5423   -0.3033 O   0  0  0  0  0  0  0  0  0  0  0  0
   -0.6927    1.7304    1.3223 N   0  0  0  0  0  0  0  0  0  0  0  0
    0.0178    1.2410    1.8469 H   0  0  0  0  0  0  0  0  0  0  0  0
   -0.8259    3.1712    1.5254 C   0  0  0  0  0  0  0  0  0  0  0  0
   -1.8769    3.4302    1.6645 H   0  0  0  0  0  0  0  0  0  0  0  0
   -0.2598    3.4806    2.4054 H   0  0  0  0  0  0  0  0  0  0  0  0
   -0.4486    3.7020    0.6489 H   0  0  0  0  0  0  0  0  0  0  0  0
  5  6  2  0  0  0  0
  5  7  1  0  0  0  0
  2  3  1  0  0  0  0
  2  4  1  0  0  0  0
  2  5  1  0  0  0  0
  1  2  1  0  0  0  0
 26 27  2  0  0  0  0
 26 28  1  0  0  0  0
 24 25  1  0  0  0  0
 22 23  1  0  0  0  0
 22 24  2  0  0  0  0
 20 21  1  0  0  0  0
 19 20  1  0  0  0  0
 19 22  1  0  0  0  0
 17 18  1  0  0  0  0
 17 19  2  0  0  0  0
 15 16  1  0  0  0  0
 15 17  1  0  0  0  0
 14 15  2  0  0  0  0
 14 24  1  0  0  0  0
 11 12  1  0  0  0  0
 11 13  1  0  0  0  0
 11 14  1  0  0  0  0
  9 10  1  0  0  0  0
  9 11  1  0  0  0  0
  9 26  1  0  0  0  0
  7  8  1  0  0  0  0
  7  9  1  0  0  0  0
 30 31  1  0  0  0  0
 30 32  1  0  0  0  0
 30 33  1  0  0  0  0
 28 29  1  0  0  0  0
 28 30  1  0  0  0  0
M  END
$$$$
default_name
  -OEChem-02102213163D

 33 33  0     1  0  0  0  0  0999 V2000
   -4.0702   -3.8485    1.4554 H   0  0  0  0  0  0  0  0  0  0  0  0
   -4.0012   -2.9605    0.8284 C   0  0  0  0  0  0  0  0  0  0  0  0
   -4.7652   -2.2435    1.1234 H   0  0  0  0  0  0  0  0  0  0  0  0
   -4.1352   -3.2385   -0.2156 H   0  0  0  0  0  0  0  0  0  0  0  0
   -2.6362   -2.3395    1.0094 C   0  0  0  0  0  0  0  0  0  0  0  0
   -1.8292   -2.8395    1.7814 O   0  0  0  0  0  0  0  0  0  0  0  0
   -2.3832   -1.2445    0.2964 N   0  0  0  0  0  0  0  0  0  0  0  0
   -3.1102   -0.8685   -0.2946 H   0  0  0  0  0  0  0  0  0  0  0  0
   -1.1292   -0.4875    0.3524 C   0  0  1  0  0  0  0  0  0  0  0  0
   -0.5898   -0.7762    1.2552 H   0  0  0  0  0  0  0  0  0  0  0  0
   -0.2608   -0.8470   -0.8656 C   0  0  0  0  0  0  0  0  0  0  0  0
    0.5427   -1.5110   -0.5443 H   0  0  0  0  0  0  0  0  0  0  0  0
   -0.8708   -1.3962   -1.5847 H   0  0  0  0  0  0  0  0  0  0  0  0
    0.3652    0.3523   -1.5507 C   0  0  0  0  0  0  0  0  0  0  0  0
    0.1306    1.6534   -1.0623 C   0  0  0  0  0  0  0  0  0  0  0  0
   -0.5199    1.8026   -0.2105 H   0  0  0  0  0  0  0  0  0  0  0  0
    0.7468    2.7605   -1.6774 C   0  0  0  0  0  0  0  0  0  0  0  0
    0.5636    3.7555   -1.3018 H   0  0  0  0  0  0  0  0  0  0  0  0
    1.6036    2.5650   -2.7825 C   0  0  0  0  0  0  0  0  0  0  0  0
    2.2049    3.6259   -3.3808 O   0  0  0  0  0  0  0  0  0  0  0  0
    1.9009    4.4617   -3.0243 H   0  0  0  0  0  0  0  0  0  0  0  0
    1.8412    1.2620   -3.2668 C   0  0  0  0  0  0  0  0  0  0  0  0
    2.4948    1.1258   -4.1152 H   0  0  0  0  0  0  0  0  0  0  0  0
    1.2201    0.1578   -2.6527 C   0  0  0  0  0  0  0  0  0  0  0  0
    1.3958   -0.8422   -3.0312 H   0  0  0  0  0  0  0  0  0  0  0  0
   -1.4018    1.0238    0.4329 C   0  0  0  0  0  0  0  0  0  0  0  0
   -2.2416    1.5423   -0.3033 O   0  0  0  0  0  0  0  0  0  0  0  0
   -0.6927    1.7304    1.3223 N   0  0  0  0  0  0  0  0  0  0  0  0
    0.0178    1.2410    1.8469 H   0  0  0  0  0  0  0  0  0  0  0  0
   -0.8259    3.1712    1.5254 C   0  0  0  0  0  0  0  0  0  0  0  0
   -1.8769    3.4302    1.6645 H   0  0  0  0  0  0  0  0  0  0  0  0
   -0.2598    3.4806    2.4054 H   0  0  0  0  0  0  0  0  0  0  0  0
   -0.4486    3.7020    0.6489 H   0  0  0  0  0  0  0  0  0  0  0  0
  5  6  2  0  0  0  0
  5  7  1  0  0  0  0
  2  3  1  0  0  0  0
  2  4  1  0  0  0  0
  2  5  1  0  0  0  0
  1  2  1  0  0  0  0
 26 27  2  0  0  0  0
 26 28  1  0  0  0  0
 24 25  1  0  0  0  0
 22 23  1  0  0  0  0
 22 24  2  0  0  0  0
 20 21  1  0  0  0  0
 19 20  1  0  0  0  0
 19 22  1  0  0  0  0
 17 18  1  0  0  0  0
 17 19  2  0  0  0  0
 15 16  1  0  0  0  0
 15 17  1  0  0  0  0
 14 15  2  0  0  0  0
 14 24  1  0  0  0  0
 11 12  1  0  0  0  0
 11 13  1  0  0  0  0
 11 14  1  0  0  0  0
  9 10  1  0  0  0  0
  9 11  1  0  0  0  0
  9 26  1  0  0  0  0
  7  8  1  0  0  0  0
  7  9  1  0  0  0  0
 30 31  1  0  0  0  0
 30 32  1  0  0  0  0
 30 33  1  0  0  0  0
 28 29  1  0  0  0  0
 28 30  1  0  0  0  0
M  END
$$$$
default_name
  -OEChem-02102213163D

 33 33  0     1  0  0  0  0  0999 V2000
   -4.0702   -3.8485    1.4554 H   0  0  0  0  0  0  0  0  0  0  0  0
   -4.0012   -2.9605    0.8284 C   0  0  0  0  0  0  0  0  0  0  0  0
   -4.7652   -2.2435    1.1234 H   0  0  0  0  0  0  0  0  0  0  0  0
   -4.1352   -3.2385   -0.2156 H   0  0  0  0  0  0  0  0  0  0  0  0
   -2.6362   -2.3395    1.0094 C   0  0  0  0  0  0  0  0  0  0  0  0
   -1.8292   -2.8395    1.7814 O   0  0  0  0  0  0  0  0  0  0  0  0
   -2.3832   -1.2445    0.2964 N   0  0  0  0  0  0  0  0  0  0  0  0
   -3.1102   -0.8685   -0.2946 H   0  0  0  0  0  0  0  0  0  0  0  0
   -1.1292   -0.4875    0.3524 C   0  0  1  0  0  0  0  0  0  0  0  0
   -0.5898   -0.7762    1.2552 H   0  0  0  0  0  0  0  0  0  0  0  0
   -0.2608   -0.8470   -0.8656 C   0  0  0  0  0  0  0  0  0  0  0  0
    0.5427   -1.5110   -0.5443 H   0  0  0  0  0  0  0  0  0  0  0  0
   -0.8708   -1.3962   -1.5847 H   0  0  0  0  0  0  0  0  0  0  0  0
    0.3652    0.3523   -1.5507 C   0  0  0  0  0  0  0  0  0  0  0  0
    0.4007    1.6035   -0.9029 C   0  0  0  0  0  0  0  0  0  0  0  0
   -0.0434    1.7183    0.0773 H   0  0  0  0  0  0  0  0  0  0  0  0
    1.0192    2.7045   -1.5265 C   0  0  0  0  0  0  0  0  0  0  0  0
    1.0431    3.6614   -1.0282 H   0  0  0  0  0  0  0  0  0  0  0  0
    1.6076    2.5524   -2.8009 C   0  0  0  0  0  0  0  0  0  0  0  0
    2.2092    3.6073   -3.4095 O   0  0  0  0  0  0  0  0  0  0  0  0
    2.0914    4.4221   -2.9194 H   0  0  0  0  0  0  0  0  0  0  0  0
    1.5756    1.2985   -3.4456 C   0  0  0  0  0  0  0  0  0  0  0  0
    2.0251    1.1958   -4.4218 H   0  0  0  0  0  0  0  0  0  0  0  0
    0.9525    0.2010   -2.8217 C   0  0  0  0  0  0  0  0  0  0  0  0
    0.9201   -0.7598   -3.3216 H   0  0  0  0  0  0  0  0  0  0  0  0
   -1.4018    1.0238    0.4329 C   0  0  0  0  0  0  0  0  0  0  0  0
   -2.2416    1.5423   -0.3033 O   0  0  0  0  0  0  0  0  0  0  0  0
   -0.6927    1.7304    1.3223 N   0  0  0  0  0  0  0  0  0  0  0  0
    0.0178    1.2410    1.8469 H   0  0  0  0  0  0  0  0  0  0  0  0
   -0.8259    3.1712    1.5254 C   0  0  0  0  0  0  0  0  0  0  0  0
   -1.8769    3.4302    1.6645 H   0  0  0  0  0  0  0  0  0  0  0  0
   -0.2598    3.4806    2.4054 H   0  0  0  0  0  0  0  0  0  0  0  0
   -0.4486    3.7020    0.6489 H   0  0  0  0  0  0  0  0  0  0  0  0
  5  6  2  0  0  0  0
  5  7  1  0  0  0  0
  2  3  1  0  0  0  0
  2  4  1  0  0  0  0
  2  5  1  0  0  0  0
  1  2  1  0  0  0  0
 26 27  2  0  0  0  0
 26 28  1  0  0  0  0
 24 25  1  0  0  0  0
 22 23  1  0  0  0  0
 22 24  2  0  0  0  0
 20 21  1  0  0  0  0
 19 20  1  0  0  0  0
 19 22  1  0  0  0  0
 17 18  1  0  0  0  0
 17 19  2  0  0  0  0
 15 16  1  0  0  0  0
 15 17  1  0  0  0  0
 14 15  2  0  0  0  0
 14 24  1  0  0  0  0
 11 12  1  0  0  0  0
 11 13  1  0  0  0  0
 11 14  1  0  0  0  0
  9 10  1  0  0  0  0
  9 11  1  0  0  0  0
  9 26  1  0  0  0  0
  7  8  1  0  0  0  0
  7  9  1  0  0  0  0
 30 31  1  0  0  0  0
 30 32  1  0  0  0  0
 30 33  1  0  0  0  0
 28 29  1  0  0  0  0
 28 30  1  0  0  0  0
M  END
$$$$
default_name
  -OEChem-02102213163D

 33 33  0     1  0  0  0  0  0999 V2000
   -4.0702   -3.8485    1.4554 H   0  0  0  0  0  0  0  0  0  0  0  0
   -4.0012   -2.9605    0.8284 C   0  0  0  0  0  0  0  0  0  0  0  0
   -4.7652   -2.2435    1.1234 H   0  0  0  0  0  0  0  0  0  0  0  0
   -4.1352   -3.2385   -0.2156 H   0  0  0  0  0  0  0  0  0  0  0  0
   -2.6362   -2.3395    1.0094 C   0  0  0  0  0  0  0  0  0  0  0  0
   -1.8292   -2.8395    1.7814 O   0  0  0  0  0  0  0  0  0  0  0  0
   -2.3832   -1.2445    0.2964 N   0  0  0  0  0  0  0  0  0  0  0  0
   -3.1102   -0.8685   -0.2946 H   0  0  0  0  0  0  0  0  0  0  0  0
   -1.1292   -0.4875    0.3524 C   0  0  1  0  0  0  0  0  0  0  0  0
   -0.5898   -0.7762    1.2552 H   0  0  0  0  0  0  0  0  0  0  0  0
   -0.2608   -0.8470   -0.8656 C   0  0  0  0  0  0  0  0  0  0  0  0
    0.5427   -1.5110   -0.5443 H   0  0  0  0  0  0  0  0  0  0  0  0
   -0.8708   -1.3962   -1.5847 H   0  0  0  0  0  0  0  0  0  0  0  0
    0.3652    0.3523   -1.5507 C   0  0  0  0  0  0  0  0  0  0  0  0
    0.6884    1.5066   -0.8095 C   0  0  0  0  0  0  0  0  0  0  0  0
    0.4660    1.5503    0.2487 H   0  0  0  0  0  0  0  0  0  0  0  0
    1.3067    2.6024   -1.4425 C   0  0  0  0  0  0  0  0  0  0  0  0
    1.5514    3.4853   -0.8721 H   0  0  0  0  0  0  0  0  0  0  0  0
    1.6063    2.5417   -2.8209 C   0  0  0  0  0  0  0  0  0  0  0  0
    2.2052    3.5919   -3.4400 O   0  0  0  0  0  0  0  0  0  0  0  0
    2.2923    4.3504   -2.8612 H   0  0  0  0  0  0  0  0  0  0  0  0
    1.2867    1.3839   -3.5601 C   0  0  0  0  0  0  0  0  0  0  0  0
    1.5167    1.3512   -4.6144 H   0  0  0  0  0  0  0  0  0  0  0  0
    0.6644    0.2921   -2.9255 C   0  0  0  0  0  0  0  0  0  0  0  0
    0.4108   -0.5935   -3.4960 H   0  0  0  0  0  0  0  0  0  0  0  0
   -1.4018    1.0238    0.4329 C   0  0  0  0  0  0  0  0  0  0  0  0
   -2.2416    1.5423   -0.3033 O   0  0  0  0  0  0  0  0  0  0  0  0
   -0.6927    1.7304    1.3223 N   0  0  0  0  0  0  0  0  0  0  0  0
    0.0178    1.2410    1.8469 H   0  0  0  0  0  0  0  0  0  0  0  0
   -0.8259    3.1712    1.5254 C   0  0  0  0  0  0  0  0  0  0  0  0
   -1.8769    3.4302    1.6645 H   0  0  0  0  0  0  0  0  0  0  0  0
   -0.2598    3.4806    2.4054 H   0  0  0  0  0  0  0  0  0  0  0  0
   -0.4486    3.7020    0.6489 H   0  0  0  0  0  0  0  0  0  0  0  0
  5  6  2  0  0  0  0
  5  7  1  0  0  0  0
  2  3  1  0  0  0  0
  2  4  1  0  0  0  0
  2  5  1  0  0  0  0
  1  2  1  0  0  0  0
 26 27  2  0  0  0  0
 26 28  1  0  0  0  0
 24 25  1  0  0  0  0
 22 23  1  0  0  0  0
 22 24  2  0  0  0  0
 20 21  1  0  0  0  0
 19 20  1  0  0  0  0
 19 22  1  0  0  0  0
 17 18  1  0  0  0  0
 17 19  2  0  0  0  0
 15 16  1  0  0  0  0
 15 17  1  0  0  0  0
 14 15  2  0  0  0  0
 14 24  1  0  0  0  0
 11 12  1  0  0  0  0
 11 13  1  0  0  0  0
 11 14  1  0  0  0  0
  9 10  1  0  0  0  0
  9 11  1  0  0  0  0
  9 26  1  0  0  0  0
  7  8  1  0  0  0  0
  7  9  1  0  0  0  0
 30 31  1  0  0  0  0
 30 32  1  0  0  0  0
 30 33  1  0  0  0  0
 28 29  1  0  0  0  0
 28 30  1  0  0  0  0
M  END
$$$$
default_name
  -OEChem-02102213163D

 33 33  0     1  0  0  0  0  0999 V2000
   -4.0702   -3.8485    1.4554 H   0  0  0  0  0  0  0  0  0  0  0  0
   -4.0012   -2.9605    0.8284 C   0  0  0  0  0  0  0  0  0  0  0  0
   -4.7652   -2.2435    1.1234 H   0  0  0  0  0  0  0  0  0  0  0  0
   -4.1352   -3.2385   -0.2156 H   0  0  0  0  0  0  0  0  0  0  0  0
   -2.6362   -2.3395    1.0094 C   0  0  0  0  0  0  0  0  0  0  0  0
   -1.8292   -2.8395    1.7814 O   0  0  0  0  0  0  0  0  0  0  0  0
   -2.3832   -1.2445    0.2964 N   0  0  0  0  0  0  0  0  0  0  0  0
   -3.1102   -0.8685   -0.2946 H   0  0  0  0  0  0  0  0  0  0  0  0
   -1.1292   -0.4875    0.3524 C   0  0  1  0  0  0  0  0  0  0  0  0
   -0.5898   -0.7762    1.2552 H   0  0  0  0  0  0  0  0  0  0  0  0
   -0.2608   -0.8470   -0.8656 C   0  0  0  0  0  0  0  0  0  0  0  0
    0.5427   -1.5110   -0.5443 H   0  0  0  0  0  0  0  0  0  0  0  0
   -0.8708   -1.3962   -1.5847 H   0  0  0  0  0  0  0  0  0  0  0  0
    0.3652    0.3523   -1.5507 C   0  0  0  0  0  0  0  0  0  0  0  0
    0.9741    1.3695   -0.7885 C   0  0  0  0  0  0  0  0  0  0  0  0
    0.9734    1.3102    0.2921 H   0  0  0  0  0  0  0  0  0  0  0  0
    1.5897    2.4612   -1.4311 C   0  0  0  0  0  0  0  0  0  0  0  0
    2.0536    3.2390   -0.8442 H   0  0  0  0  0  0  0  0  0  0  0  0
    1.5996    2.5336   -2.8411 C   0  0  0  0  0  0  0  0  0  0  0  0
    2.1933    3.5808   -3.4704 O   0  0  0  0  0  0  0  0  0  0  0  0
    2.4899    4.2515   -2.8539 H   0  0  0  0  0  0  0  0  0  0  0  0
    0.9942    1.5124   -3.6024 C   0  0  0  0  0  0  0  0  0  0  0  0
    1.0044    1.5812   -4.6798 H   0  0  0  0  0  0  0  0  0  0  0  0
    0.3756    0.4248   -2.9570 C   0  0  0  0  0  0  0  0  0  0  0  0
   -0.0974   -0.3547   -3.5424 H   0  0  0  0  0  0  0  0  0  0  0  0
   -1.4018    1.0238    0.4329 C   0  0  0  0  0  0  0  0  0  0  0  0
   -2.2416    1.5423   -0.3033 O   0  0  0  0  0  0  0  0  0  0  0  0
   -0.6927    1.7304    1.3223 N   0  0  0  0  0  0  0  0  0  0  0  0
    0.0178    1.2410    1.8469 H   0  0  0  0  0  0  0  0  0  0  0  0
   -0.8259    3.1712    1.5254 C   0  0  0  0  0  0  0  0  0  0  0  0
   -1.8769    3.4302    1.6645 H   0  0  0  0  0  0  0  0  0  0  0  0
   -0.2598    3.4806    2.4054 H   0  0  0  0  0  0  0  0  0  0  0  0
   -0.4486    3.7020    0.6489 H   0  0  0  0  0  0  0  0  0  0  0  0
  5  6  2  0  0  0  0
  5  7  1  0  0  0  0
  2  3  1  0  0  0  0
  2  4  1  0  0  0  0
  2  5  1  0  0  0  0
  1  2  1  0  0  0  0
 26 27  2  0  0  0  0
 26 28  1  0  0  0  0
 24 25  1  0  0  0  0
 22 23  1  0  0  0  0
 22 24  2  0  0  0  0
 20 21  1  0  0  0  0
 19 20  1  0  0  0  0
 19 22  1  0  0  0  0
 17 18  1  0  0  0  0
 17 19  2  0  0  0  0
 15 16  1  0  0  0  0
 15 17  1  0  0  0  0
 14 15  2  0  0  0  0
 14 24  1  0  0  0  0
 11 12  1  0  0  0  0
 11 13  1  0  0  0  0
 11 14  1  0  0  0  0
  9 10  1  0  0  0  0
  9 11  1  0  0  0  0
  9 26  1  0  0  0  0
  7  8  1  0  0  0  0
  7  9  1  0  0  0  0
 30 31  1  0  0  0  0
 30 32  1  0  0  0  0
 30 33  1  0  0  0  0
 28 29  1  0  0  0  0
 28 30  1  0  0  0  0
M  END
$$$$
default_name
  -OEChem-02102213163D

 33 33  0     1  0  0  0  0  0999 V2000
   -4.0702   -3.8485    1.4554 H   0  0  0  0  0  0  0  0  0  0  0  0
   -4.0012   -2.9605    0.8284 C   0  0  0  0  0  0  0  0  0  0  0  0
   -4.7652   -2.2435    1.1234 H   0  0  0  0  0  0  0  0  0  0  0  0
   -4.1352   -3.2385   -0.2156 H   0  0  0  0  0  0  0  0  0  0  0  0
   -2.6362   -2.3395    1.0094 C   0  0  0  0  0  0  0  0  0  0  0  0
   -1.8292   -2.8395    1.7814 O   0  0  0  0  0  0  0  0  0  0  0  0
   -2.3832   -1.2445    0.2964 N   0  0  0  0  0  0  0  0  0  0  0  0
   -3.1102   -0.8685   -0.2946 H   0  0  0  0  0  0  0  0  0  0  0  0
   -1.1292   -0.4875    0.3524 C   0  0  1  0  0  0  0  0  0  0  0  0
   -0.5898   -0.7762    1.2552 H   0  0  0  0  0  0  0  0  0  0  0  0
   -0.2608   -0.8470   -0.8656 C   0  0  0  0  0  0  0  0  0  0  0  0
    0.5427   -1.5110   -0.5443 H   0  0  0  0  0  0  0  0  0  0  0  0
   -0.8708   -1.3962   -1.5847 H   0  0  0  0  0  0  0  0  0  0  0  0
    0.3652    0.3523   -1.5507 C   0  0  0  0  0  0  0  0  0  0  0  0
    1.2383    1.2014   -0.8413 C   0  0  0  0  0  0  0  0  0  0  0  0
    1.4444    1.0143    0.2044 H   0  0  0  0  0  0  0  0  0  0  0  0
    1.8489    2.2905   -1.4931 C   0  0  0  0  0  0  0  0  0  0  0  0
    2.5157    2.9395   -0.9464 H   0  0  0  0  0  0  0  0  0  0  0  0
    1.5881    2.5287   -2.8601 C   0  0  0  0  0  0  0  0  0  0  0  0
    2.1743    3.5747   -3.4985 O   0  0  0  0  0  0  0  0  0  0  0  0
    2.6707    4.1321   -2.8978 H   0  0  0  0  0  0  0  0  0  0  0  0
    0.7181    1.6752   -3.5697 C   0  0  0  0  0  0  0  0  0  0  0  0
    0.5231    1.8704   -4.6135 H   0  0  0  0  0  0  0  0  0  0  0  0
    0.1057    0.5902   -2.9142 C   0  0  0  0  0  0  0  0  0  0  0  0
   -0.5699   -0.0597   -3.4577 H   0  0  0  0  0  0  0  0  0  0  0  0
   -1.4018    1.0238    0.4329 C   0  0  0  0  0  0  0  0  0  0  0  0
   -2.2416    1.5423   -0.3033 O   0  0  0  0  0  0  0  0  0  0  0  0
   -0.6927    1.7304    1.3223 N   0  0  0  0  0  0  0  0  0  0  0  0
    0.0178    1.2410    1.8469 H   0  0  0  0  0  0  0  0  0  0  0  0
   -0.8259    3.1712    1.5254 C   0  0  0  0  0  0  0  0  0  0  0  0
   -1.8769    3.4302    1.6645 H   0  0  0  0  0  0  0  0  0  0  0  0
   -0.2598    3.4806    2.4054 H   0  0  0  0  0  0  0  0  0  0  0  0
   -0.4486    3.7020    0.6489 H   0  0  0  0  0  0  0  0  0  0  0  0
  5  6  2  0  0  0  0
  5  7  1  0  0  0  0
  2  3  1  0  0  0  0
  2  4  1  0  0  0  0
  2  5  1  0  0  0  0
  1  2  1  0  0  0  0
 26 27  2  0  0  0  0
 26 28  1  0  0  0  0
 24 25  1  0  0  0  0
 22 23  1  0  0  0  0
 22 24  2  0  0  0  0
 20 21  1  0  0  0  0
 19 20  1  0  0  0  0
 19 22  1  0  0  0  0
 17 18  1  0  0  0  0
 17 19  2  0  0  0  0
 15 16  1  0  0  0  0
 15 17  1  0  0  0  0
 14 15  2  0  0  0  0
 14 24  1  0  0  0  0
 11 12  1  0  0  0  0
 11 13  1  0  0  0  0
 11 14  1  0  0  0  0
  9 10  1  0  0  0  0
  9 11  1  0  0  0  0
  9 26  1  0  0  0  0
  7  8  1  0  0  0  0
  7  9  1  0  0  0  0
 30 31  1  0  0  0  0
 30 32  1  0  0  0  0
 30 33  1  0  0  0  0
 28 29  1  0  0  0  0
 28 30  1  0  0  0  0
M  END
$$$$
default_name
  -OEChem-02102213163D

 33 33  0     1  0  0  0  0  0999 V2000
   -4.0702   -3.8485    1.4554 H   0  0  0  0  0  0  0  0  0  0  0  0
   -4.0012   -2.9605    0.8284 C   0  0  0  0  0  0  0  0  0  0  0  0
   -4.7652   -2.2435    1.1234 H   0  0  0  0  0  0  0  0  0  0  0  0
   -4.1352   -3.2385   -0.2156 H   0  0  0  0  0  0  0  0  0  0  0  0
   -2.6362   -2.3395    1.0094 C   0  0  0  0  0  0  0  0  0  0  0  0
   -1.8292   -2.8395    1.7814 O   0  0  0  0  0  0  0  0  0  0  0  0
   -2.3832   -1.2445    0.2964 N   0  0  0  0  0  0  0  0  0  0  0  0
   -3.1102   -0.8685   -0.2946 H   0  0  0  0  0  0  0  0  0  0  0  0
   -1.1292   -0.4875    0.3524 C   0  0  1  0  0  0  0  0  0  0  0  0
   -0.5898   -0.7762    1.2552 H   0  0  0  0  0  0  0  0  0  0  0  0
   -0.2608   -0.8470   -0.8656 C   0  0  0  0  0  0  0  0  0  0  0  0
    0.5427   -1.5110   -0.5443 H   0  0  0  0  0  0  0  0  0  0  0  0
   -0.8708   -1.3962   -1.5847 H   0  0  0  0  0  0  0  0  0  0  0  0
    0.3652    0.3523   -1.5507 C   0  0  0  0  0  0  0  0  0  0  0  0
    1.4630    1.0137   -0.9644 C   0  0  0  0  0  0  0  0  0  0  0  0
    1.8467    0.6827   -0.0082 H   0  0  0  0  0  0  0  0  0  0  0  0
    2.0666    2.1019   -1.6243 C   0  0  0  0  0  0  0  0  0  0  0  0
    2.9060    2.6070   -1.1717 H   0  0  0  0  0  0  0  0  0  0  0  0
    1.5725    2.5274   -2.8766 C   0  0  0  0  0  0  0  0  0  0  0  0
    2.1495    3.5740   -3.5224 O   0  0  0  0  0  0  0  0  0  0  0  0
    2.8224    4.0002   -2.9899 H   0  0  0  0  0  0  0  0  0  0  0  0
    0.4771    1.8613   -3.4641 C   0  0  0  0  0  0  0  0  0  0  0  0
    0.1056    2.1988   -4.4200 H   0  0  0  0  0  0  0  0  0  0  0  0
   -0.1270    0.7769   -2.8000 C   0  0  0  0  0  0  0  0  0  0  0  0
   -0.9745    0.2715   -3.2476 H   0  0  0  0  0  0  0  0  0  0  0  0
   -1.4018    1.0238    0.4329 C   0  0  0  0  0  0  0  0  0  0  0  0
   -2.2416    1.5423   -0.3033 O   0  0  0  0  0  0  0  0  0  0  0  0
   -0.6927    1.7304    1.3223 N   0  0  0  0  0  0  0  0  0  0  0  0
    0.0178    1.2410    1.8469 H   0  0  0  0  0  0  0  0  0  0  0  0
   -0.8259    3.1712    1.5254 C   0  0  0  0  0  0  0  0  0  0  0  0
   -1.8769    3.4302    1.6645 H   0  0  0  0  0  0  0  0  0  0  0  0
   -0.2598    3.4806    2.4054 H   0  0  0  0  0  0  0  0  0  0  0  0
   -0.4486    3.7020    0.6489 H   0  0  0  0  0  0  0  0  0  0  0  0
  5  6  2  0  0  0  0
  5  7  1  0  0  0  0
  2  3  1  0  0  0  0
  2  4  1  0  0  0  0
  2  5  1  0  0  0  0
  1  2  1  0  0  0  0
 26 27  2  0  0  0  0
 26 28  1  0  0  0  0
 24 25  1  0  0  0  0
 22 23  1  0  0  0  0
 22 24  2  0  0  0  0
 20 21  1  0  0  0  0
 19 20  1  0  0  0  0
 19 22  1  0  0  0  0
 17 18  1  0  0  0  0
 17 19  2  0  0  0  0
 15 16  1  0  0  0  0
 15 17  1  0  0  0  0
 14 15  2  0  0  0  0
 14 24  1  0  0  0  0
 11 12  1  0  0  0  0
 11 13  1  0  0  0  0
 11 14  1  0  0  0  0
  9 10  1  0  0  0  0
  9 11  1  0  0  0  0
  9 26  1  0  0  0  0
  7  8  1  0  0  0  0
  7  9  1  0  0  0  0
 30 31  1  0  0  0  0
 30 32  1  0  0  0  0
 30 33  1  0  0  0  0
 28 29  1  0  0  0  0
 28 30  1  0  0  0  0
M  END
$$$$
default_name
  -OEChem-02102213163D

 33 33  0     1  0  0  0  0  0999 V2000
   -4.0702   -3.8485    1.4554 H   0  0  0  0  0  0  0  0  0  0  0  0
   -4.0012   -2.9605    0.8284 C   0  0  0  0  0  0  0  0  0  0  0  0
   -4.7652   -2.2435    1.1234 H   0  0  0  0  0  0  0  0  0  0  0  0
   -4.1352   -3.2385   -0.2156 H   0  0  0  0  0  0  0  0  0  0  0  0
   -2.6362   -2.3395    1.0094 C   0  0  0  0  0  0  0  0  0  0  0  0
   -1.8292   -2.8395    1.7814 O   0  0  0  0  0  0  0  0  0  0  0  0
   -2.3832   -1.2445    0.2964 N   0  0  0  0  0  0  0  0  0  0  0  0
   -3.1102   -0.8685   -0.2946 H   0  0  0  0  0  0  0  0  0  0  0  0
   -1.1292   -0.4875    0.3524 C   0  0  1  0  0  0  0  0  0  0  0  0
   -0.5898   -0.7762    1.2552 H   0  0  0  0  0  0  0  0  0  0  0  0
   -0.2608   -0.8470   -0.8656 C   0  0  0  0  0  0  0  0  0  0  0  0
    0.5427   -1.5110   -0.5443 H   0  0  0  0  0  0  0  0  0  0  0  0
   -0.8708   -1.3962   -1.5847 H   0  0  0  0  0  0  0  0  0  0  0  0
    0.3652    0.3523   -1.5507 C   0  0  0  0  0  0  0  0  0  0  0  0
    1.6329    0.8194   -1.1494 C   0  0  0  0  0  0  0  0  0  0  0  0
    2.1531    0.3382   -0.3315 H   0  0  0  0  0  0  0  0  0  0  0  0
    2.2279    1.9083   -1.8157 C   0  0  0  0  0  0  0  0  0  0  0  0
    3.1981    2.2643   -1.5047 H   0  0  0  0  0  0  0  0  0  0  0  0
    1.5540    2.5298   -2.8896 C   0  0  0  0  0  0  0  0  0  0  0  0
    2.1206    3.5787   -3.5405 O   0  0  0  0  0  0  0  0  0  0  0  0
    2.9346    3.8650   -3.1241 H   0  0  0  0  0  0  0  0  0  0  0  0
    0.2876    2.0580   -3.2930 C   0  0  0  0  0  0  0  0  0  0  0  0
   -0.2197    2.5443   -4.1126 H   0  0  0  0  0  0  0  0  0  0  0  0
   -0.3065    0.9722   -2.6220 C   0  0  0  0  0  0  0  0  0  0  0  0
   -1.2835    0.6163   -2.9265 H   0  0  0  0  0  0  0  0  0  0  0  0
   -1.4018    1.0238    0.4329 C   0  0  0  0  0  0  0  0  0  0  0  0
   -2.2416    1.5423   -0.3033 O   0  0  0  0  0  0  0  0  0  0  0  0
   -0.6927    1.7304    1.3223 N   0  0  0  0  0  0  0  0  0  0  0  0
    0.0178    1.2410    1.8469 H   0  0  0  0  0  0  0  0  0  0  0  0
   -0.8259    3.1712    1.5254 C   0  0  0  0  0  0  0  0  0  0  0  0
   -1.8769    3.4302    1.6645 H   0  0  0  0  0  0  0  0  0  0  0  0
   -0.2598    3.4806    2.4054 H   0  0  0  0  0  0  0  0  0  0  0  0
   -0.4486    3.7020    0.6489 H   0  0  0  0  0  0  0  0  0  0  0  0
  5  6  2  0  0  0  0
  5  7  1  0  0  0  0
  2  3  1  0  0  0  0
  2  4  1  0  0  0  0
  2  5  1  0  0  0  0
  1  2  1  0  0  0  0
 26 27  2  0  0  0  0
 26 28  1  0  0  0  0
 24 25  1  0  0  0  0
 22 23  1  0  0  0  0
 22 24  2  0  0  0  0
 20 21  1  0  0  0  0
 19 20  1  0  0  0  0
 19 22  1  0  0  0  0
 17 18  1  0  0  0  0
 17 19  2  0  0  0  0
 15 16  1  0  0  0  0
 15 17  1  0  0  0  0
 14 15  2  0  0  0  0
 14 24  1  0  0  0  0
 11 12  1  0  0  0  0
 11 13  1  0  0  0  0
 11 14  1  0  0  0  0
  9 10  1  0  0  0  0
  9 11  1  0  0  0  0
  9 26  1  0  0  0  0
  7  8  1  0  0  0  0
  7  9  1  0  0  0  0
 30 31  1  0  0  0  0
 30 32  1  0  0  0  0
 30 33  1  0  0  0  0
 28 29  1  0  0  0  0
 28 30  1  0  0  0  0
M  END
$$$$
default_name
  -OEChem-02102213163D

 33 33  0     1  0  0  0  0  0999 V2000
   -4.0702   -3.8485    1.4554 H   0  0  0  0  0  0  0  0  0  0  0  0
   -4.0012   -2.9605    0.8284 C   0  0  0  0  0  0  0  0  0  0  0  0
   -4.7652   -2.2435    1.1234 H   0  0  0  0  0  0  0  0  0  0  0  0
   -4.1352   -3.2385   -0.2156 H   0  0  0  0  0  0  0  0  0  0  0  0
   -2.6362   -2.3395    1.0094 C   0  0  0  0  0  0  0  0  0  0  0  0
   -1.8292   -2.8395    1.7814 O   0  0  0  0  0  0  0  0  0  0  0  0
   -2.3832   -1.2445    0.2964 N   0  0  0  0  0  0  0  0  0  0  0  0
   -3.1102   -0.8685   -0.2946 H   0  0  0  0  0  0  0  0  0  0  0  0
   -1.1292   -0.4875    0.3524 C   0  0  1  0  0  0  0  0  0  0  0  0
   -0.5898   -0.7762    1.2552 H   0  0  0  0  0  0  0  0  0  0  0  0
   -0.2608   -0.8470   -0.8656 C   0  0  0  0  0  0  0  0  0  0  0  0
    0.5427   -1.5110   -0.5443 H   0  0  0  0  0  0  0  0  0  0  0  0
   -0.8708   -1.3962   -1.5847 H   0  0  0  0  0  0  0  0  0  0  0  0
    0.3652    0.3523   -1.5507 C   0  0  0  0  0  0  0  0  0  0  0  0
    1.7365    0.6315   -1.3836 C   0  0  0  0  0  0  0  0  0  0  0  0
    2.3425    0.0041   -0.7432 H   0  0  0  0  0  0  0  0  0  0  0  0
    2.3220    1.7229   -2.0543 C   0  0  0  0  0  0  0  0  0  0  0  0
    3.3720    1.9347   -1.9228 H   0  0  0  0  0  0  0  0  0  0  0  0
    1.5337    2.5356   -2.8980 C   0  0  0  0  0  0  0  0  0  0  0  0
    2.0895    3.5887   -3.5515 O   0  0  0  0  0  0  0  0  0  0  0  0
    2.9997    3.7356   -3.2911 H   0  0  0  0  0  0  0  0  0  0  0  0
    0.1627    2.2518   -3.0679 C   0  0  0  0  0  0  0  0  0  0  0  0
   -0.4305    2.8831   -3.7121 H   0  0  0  0  0  0  0  0  0  0  0  0
   -0.4206    1.1629   -2.3925 C   0  0  0  0  0  0  0  0  0  0  0  0
   -1.4760    0.9511   -2.5163 H   0  0  0  0  0  0  0  0  0  0  0  0
   -1.4018    1.0238    0.4329 C   0  0  0  0  0  0  0  0  0  0  0  0
   -2.2416    1.5423   -0.3033 O   0  0  0  0  0  0  0  0  0  0  0  0
   -0.6927    1.7304    1.3223 N   0  0  0  0  0  0  0  0  0  0  0  0
    0.0178    1.2410    1.8469 H   0  0  0  0  0  0  0  0  0  0  0  0
   -0.8259    3.1712    1.5254 C   0  0  0  0  0  0  0  0  0  0  0  0
   -1.8769    3.4302    1.6645 H   0  0  0  0  0  0  0  0  0  0  0  0
   -0.2598    3.4806    2.4054 H   0  0  0  0  0  0  0  0  0  0  0  0
   -0.4486    3.7020    0.6489 H   0  0  0  0  0  0  0  0  0  0  0  0
  5  6  2  0  0  0  0
  5  7  1  0  0  0  0
  2  3  1  0  0  0  0
  2  4  1  0  0  0  0
  2  5  1  0  0  0  0
  1  2  1  0  0  0  0
 26 27  2  0  0  0  0
 26 28  1  0  0  0  0
 24 25  1  0  0  0  0
 22 23  1  0  0  0  0
 22 24  2  0  0  0  0
 20 21  1  0  0  0  0
 19 20  1  0  0  0  0
 19 22  1  0  0  0  0
 17 18  1  0  0  0  0
 17 19  2  0  0  0  0
 15 16  1  0  0  0  0
 15 17  1  0  0  0  0
 14 15  2  0  0  0  0
 14 24  1  0  0  0  0
 11 12  1  0  0  0  0
 11 13  1  0  0  0  0
 11 14  1  0  0  0  0
  9 10  1  0  0  0  0
  9 11  1  0  0  0  0
  9 26  1  0  0  0  0
  7  8  1  0  0  0  0
  7  9  1  0  0  0  0
 30 31  1  0  0  0  0
 30 32  1  0  0  0  0
 30 33  1  0  0  0  0
 28 29  1  0  0  0  0
 28 30  1  0  0  0  0
M  END
$$$$
default_name
  -OEChem-02102213163D

 33 33  0     1  0  0  0  0  0999 V2000
   -4.0702   -3.8485    1.4554 H   0  0  0  0  0  0  0  0  0  0  0  0
   -4.0012   -2.9605    0.8284 C   0  0  0  0  0  0  0  0  0  0  0  0
   -4.7652   -2.2435    1.1234 H   0  0  0  0  0  0  0  0  0  0  0  0
   -4.1352   -3.2385   -0.2156 H   0  0  0  0  0  0  0  0  0  0  0  0
   -2.6362   -2.3395    1.0094 C   0  0  0  0  0  0  0  0  0  0  0  0
   -1.8292   -2.8395    1.7814 O   0  0  0  0  0  0  0  0  0  0  0  0
   -2.3832   -1.2445    0.2964 N   0  0  0  0  0  0  0  0  0  0  0  0
   -3.1102   -0.8685   -0.2946 H   0  0  0  0  0  0  0  0  0  0  0  0
   -1.1292   -0.4875    0.3524 C   0  0  1  0  0  0  0  0  0  0  0  0
   -0.5898   -0.7762    1.2552 H   0  0  0  0  0  0  0  0  0  0  0  0
   -0.2608   -0.8470   -0.8656 C   0  0  0  0  0  0  0  0  0  0  0  0
    0.5427   -1.5110   -0.5443 H   0  0  0  0  0  0  0  0  0  0  0  0
   -0.8708   -1.3962   -1.5847 H   0  0  0  0  0  0  0  0  0  0  0  0
    0.3652    0.3523   -1.5507 C   0  0  0  0  0  0  0  0  0  0  0  0
    1.7666    0.4630   -1.6511 C   0  0  0  0  0  0  0  0  0  0  0  0
    2.4022   -0.2968   -1.2153 H   0  0  0  0  0  0  0  0  0  0  0  0
    2.3423    1.5583   -2.3238 C   0  0  0  0  0  0  0  0  0  0  0  0
    3.4158    1.6406   -2.3975 H   0  0  0  0  0  0  0  0  0  0  0  0
    1.5130    2.5444   -2.9013 C   0  0  0  0  0  0  0  0  0  0  0  0
    2.0583    3.6031   -3.5547 O   0  0  0  0  0  0  0  0  0  0  0  0
    3.0133    3.6208   -3.4796 H   0  0  0  0  0  0  0  0  0  0  0  0
    0.1108    2.4296   -2.8041 C   0  0  0  0  0  0  0  0  0  0  0  0
   -0.5127    3.1923   -3.2460 H   0  0  0  0  0  0  0  0  0  0  0  0
   -0.4615    1.3359   -2.1271 C   0  0  0  0  0  0  0  0  0  0  0  0
   -1.5387    1.2532   -2.0448 H   0  0  0  0  0  0  0  0  0  0  0  0
   -1.4018    1.0238    0.4329 C   0  0  0  0  0  0  0  0  0  0  0  0
   -2.2416    1.5423   -0.3033 O   0  0  0  0  0  0  0  0  0  0  0  0
   -0.6927    1.7304    1.3223 N   0  0  0  0  0  0  0  0  0  0  0  0
    0.0178    1.2410    1.8469 H   0  0  0  0  0  0  0  0  0  0  0  0
   -0.8259    3.1712    1.5254 C   0  0  0  0  0  0  0  0  0  0  0  0
   -1.8769    3.4302    1.6645 H   0  0  0  0  0  0  0  0  0  0  0  0
   -0.2598    3.4806    2.4054 H   0  0  0  0  0  0  0  0  0  0  0  0
   -0.4486    3.7020    0.6489 H   0  0  0  0  0  0  0  0  0  0  0  0
  5  6  2  0  0  0  0
  5  7  1  0  0  0  0
  2  3  1  0  0  0  0
  2  4  1  0  0  0  0
  2  5  1  0  0  0  0
  1  2  1  0  0  0  0
 26 27  2  0  0  0  0
 26 28  1  0  0  0  0
 24 25  1  0  0  0  0
 22 23  1  0  0  0  0
 22 24  2  0  0  0  0
 20 21  1  0  0  0  0
 19 20  1  0  0  0  0
 19 22  1  0  0  0  0
 17 18  1  0  0  0  0
 17 19  2  0  0  0  0
 15 16  1  0  0  0  0
 15 17  1  0  0  0  0
 14 15  2  0  0  0  0
 14 24  1  0  0  0  0
 11 12  1  0  0  0  0
 11 13  1  0  0  0  0
 11 14  1  0  0  0  0
  9 10  1  0  0  0  0
  9 11  1  0  0  0  0
  9 26  1  0  0  0  0
  7  8  1  0  0  0  0
  7  9  1  0  0  0  0
 30 31  1  0  0  0  0
 30 32  1  0  0  0  0
 30 33  1  0  0  0  0
 28 29  1  0  0  0  0
 28 30  1  0  0  0  0
M  END
$$$$
default_name
  -OEChem-02102213163D

 33 33  0     1  0  0  0  0  0999 V2000
   -4.0702   -3.8485    1.4554 H   0  0  0  0  0  0  0  0  0  0  0  0
   -4.0012   -2.9605    0.8284 C   0  0  0  0  0  0  0  0  0  0  0  0
   -4.7652   -2.2435    1.1234 H   0  0  0  0  0  0  0  0  0  0  0  0
   -4.1352   -3.2385   -0.2156 H   0  0  0  0  0  0  0  0  0  0  0  0
   -2.6362   -2.3395    1.0094 C   0  0  0  0  0  0  0  0  0  0  0  0
   -1.8292   -2.8395    1.7814 O   0  0  0  0  0  0  0  0  0  0  0  0
   -2.3832   -1.2445    0.2964 N   0  0  0  0  0  0  0  0  0  0  0  0
   -3.1102   -0.8685   -0.2946 H   0  0  0  0  0  0  0  0  0  0  0  0
   -1.1292   -0.4875    0.3524 C   0  0  1  0  0  0  0  0  0  0  0  0
   -0.5898   -0.7762    1.2552 H   0  0  0  0  0  0  0  0  0  0  0  0
   -0.2608   -0.8470   -0.8656 C   0  0  0  0  0  0  0  0  0  0  0  0
    0.5427   -1.5110   -0.5443 H   0  0  0  0  0  0  0  0  0  0  0  0
   -0.8708   -1.3962   -1.5847 H   0  0  0  0  0  0  0  0  0  0  0  0
    0.3652    0.3523   -1.5507 C   0  0  0  0  0  0  0  0  0  0  0  0
    1.7213    0.3252   -1.9337 C   0  0  0  0  0  0  0  0  0  0  0  0
    2.3280   -0.5440   -1.7158 H   0  0  0  0  0  0  0  0  0  0  0  0
    2.2875    1.4258   -2.6059 C   0  0  0  0  0  0  0  0  0  0  0  0
    3.3266    1.4022   -2.8963 H   0  0  0  0  0  0  0  0  0  0  0  0
    1.4934    2.5558   -2.8994 C   0  0  0  0  0  0  0  0  0  0  0  0
    2.0293    3.6210   -3.5500 O   0  0  0  0  0  0  0  0  0  0  0  0
    2.9745    3.5285   -3.6767 H   0  0  0  0  0  0  0  0  0  0  0  0
    0.1354    2.5792   -2.5198 C   0  0  0  0  0  0  0  0  0  0  0  0
   -0.4604    3.4507   -2.7459 H   0  0  0  0  0  0  0  0  0  0  0  0
   -0.4265    1.4794   -1.8439 C   0  0  0  0  0  0  0  0  0  0  0  0
   -1.4676    1.5020   -1.5443 H   0  0  0  0  0  0  0  0  0  0  0  0
   -1.4018    1.0238    0.4329 C   0  0  0  0  0  0  0  0  0  0  0  0
   -2.2416    1.5423   -0.3033 O   0  0  0  0  0  0  0  0  0  0  0  0
   -0.6927    1.7304    1.3223 N   0  0  0  0  0  0  0  0  0  0  0  0
    0.0178    1.2410    1.8469 H   0  0  0  0  0  0  0  0  0  0  0  0
   -0.8259    3.1712    1.5254 C   0  0  0  0  0  0  0  0  0  0  0  0
   -1.8769    3.4302    1.6645 H   0  0  0  0  0  0  0  0  0  0  0  0
   -0.2598    3.4806    2.4054 H   0  0  0  0  0  0  0  0  0  0  0  0
   -0.4486    3.7020    0.6489 H   0  0  0  0  0  0  0  0  0  0  0  0
  5  6  2  0  0  0  0
  5  7  1  0  0  0  0
  2  3  1  0  0  0  0
  2  4  1  0  0  0  0
  2  5  1  0  0  0  0
  1  2  1  0  0  0  0
 26 27  2  0  0  0  0
 26 28  1  0  0  0  0
 24 25  1  0  0  0  0
 22 23  1  0  0  0  0
 22 24  2  0  0  0  0
 20 21  1  0  0  0  0
 19 20  1  0  0  0  0
 19 22  1  0  0  0  0
 17 18  1  0  0  0  0
 17 19  2  0  0  0  0
 15 16  1  0  0  0  0
 15 17  1  0  0  0  0
 14 15  2  0  0  0  0
 14 24  1  0  0  0  0
 11 12  1  0  0  0  0
 11 13  1  0  0  0  0
 11 14  1  0  0  0  0
  9 10  1  0  0  0  0
  9 11  1  0  0  0  0
  9 26  1  0  0  0  0
  7  8  1  0  0  0  0
  7  9  1  0  0  0  0
 30 31  1  0  0  0  0
 30 32  1  0  0  0  0
 30 33  1  0  0  0  0
 28 29  1  0  0  0  0
 28 30  1  0  0  0  0
M  END
$$$$
default_name
  -OEChem-02102213163D

 33 33  0     1  0  0  0  0  0999 V2000
   -4.0702   -3.8485    1.4554 H   0  0  0  0  0  0  0  0  0  0  0  0
   -4.0012   -2.9605    0.8284 C   0  0  0  0  0  0  0  0  0  0  0  0
   -4.7652   -2.2435    1.1234 H   0  0  0  0  0  0  0  0  0  0  0  0
   -4.1352   -3.2385   -0.2156 H   0  0  0  0  0  0  0  0  0  0  0  0
   -2.6362   -2.3395    1.0094 C   0  0  0  0  0  0  0  0  0  0  0  0
   -1.8292   -2.8395    1.7814 O   0  0  0  0  0  0  0  0  0  0  0  0
   -2.3832   -1.2445    0.2964 N   0  0  0  0  0  0  0  0  0  0  0  0
   -3.1102   -0.8685   -0.2946 H   0  0  0  0  0  0  0  0  0  0  0  0
   -1.1292   -0.4875    0.3524 C   0  0  1  0  0  0  0  0  0  0  0  0
   -0.5898   -0.7762    1.2552 H   0  0  0  0  0  0  0  0  0  0  0  0
   -0.2608   -0.8470   -0.8656 C   0  0  0  0  0  0  0  0  0  0  0  0
    0.5427   -1.5110   -0.5443 H   0  0  0  0  0  0  0  0  0  0  0  0
   -0.8708   -1.3962   -1.5847 H   0  0  0  0  0  0  0  0  0  0  0  0
    0.3652    0.3523   -1.5507 C   0  0  0  0  0  0  0  0  0  0  0  0
    1.6035    0.2277   -2.2120 C   0  0  0  0  0  0  0  0  0  0  0  0
    2.1250   -0.7206   -2.2104 H   0  0  0  0  0  0  0  0  0  0  0  0
    2.1613    1.3343   -2.8814 C   0  0  0  0  0  0  0  0  0  0  0  0
    3.1105    1.2357   -3.3854 H   0  0  0  0  0  0  0  0  0  0  0  0
    1.4762    2.5688   -2.8923 C   0  0  0  0  0  0  0  0  0  0  0  0
    2.0043    3.6412   -3.5375 O   0  0  0  0  0  0  0  0  0  0  0  0
    2.8858    3.4649   -3.8690 H   0  0  0  0  0  0  0  0  0  0  0  0
    0.2348    2.6904   -2.2342 C   0  0  0  0  0  0  0  0  0  0  0  0
   -0.2773    3.6408   -2.2459 H   0  0  0  0  0  0  0  0  0  0  0  0
   -0.3179    1.5837   -1.5621 C   0  0  0  0  0  0  0  0  0  0  0  0
   -1.2673    1.6804   -1.0488 H   0  0  0  0  0  0  0  0  0  0  0  0
   -1.4018    1.0238    0.4329 C   0  0  0  0  0  0  0  0  0  0  0  0
   -2.2416    1.5423   -0.3033 O   0  0  0  0  0  0  0  0  0  0  0  0
   -0.6927    1.7304    1.3223 N   0  0  0  0  0  0  0  0  0  0  0  0
    0.0178    1.2410    1.8469 H   0  0  0  0  0  0  0  0  0  0  0  0
   -0.8259    3.1712    1.5254 C   0  0  0  0  0  0  0  0  0  0  0  0
   -1.8769    3.4302    1.6645 H   0  0  0  0  0  0  0  0  0  0  0  0
   -0.2598    3.4806    2.4054 H   0  0  0  0  0  0  0  0  0  0  0  0
   -0.4486    3.7020    0.6489 H   0  0  0  0  0  0  0  0  0  0  0  0
  5  6  2  0  0  0  0
  5  7  1  0  0  0  0
  2  3  1  0  0  0  0
  2  4  1  0  0  0  0
  2  5  1  0  0  0  0
  1  2  1  0  0  0  0
 26 27  2  0  0  0  0
 26 28  1  0  0  0  0
 24 25  1  0  0  0  0
 22 23  1  0  0  0  0
 22 24  2  0  0  0  0
 20 21  1  0  0  0  0
 19 20  1  0  0  0  0
 19 22  1  0  0  0  0
 17 18  1  0  0  0  0
 17 19  2  0  0  0  0
 15 16  1  0  0  0  0
 15 17  1  0  0  0  0
 14 15  2  0  0  0  0
 14 24  1  0  0  0  0
 11 12  1  0  0  0  0
 11 13  1  0  0  0  0
 11 14  1  0  0  0  0
  9 10  1  0  0  0  0
  9 11  1  0  0  0  0
  9 26  1  0  0  0  0
  7  8  1  0  0  0  0
  7  9  1  0  0  0  0
 30 31  1  0  0  0  0
 30 32  1  0  0  0  0
 30 33  1  0  0  0  0
 28 29  1  0  0  0  0
 28 30  1  0  0  0  0
M  END
$$$$
default_name
  -OEChem-02102213163D

 33 33  0     1  0  0  0  0  0999 V2000
   -4.0702   -3.8485    1.4554 H   0  0  0  0  0  0  0  0  0  0  0  0
   -4.0012   -2.9605    0.8284 C   0  0  0  0  0  0  0  0  0  0  0  0
   -4.7652   -2.2435    1.1234 H   0  0  0  0  0  0  0  0  0  0  0  0
   -4.1352   -3.2385   -0.2156 H   0  0  0  0  0  0  0  0  0  0  0  0
   -2.6362   -2.3395    1.0094 C   0  0  0  0  0  0  0  0  0  0  0  0
   -1.8292   -2.8395    1.7814 O   0  0  0  0  0  0  0  0  0  0  0  0
   -2.3832   -1.2445    0.2964 N   0  0  0  0  0  0  0  0  0  0  0  0
   -3.1102   -0.8685   -0.2946 H   0  0  0  0  0  0  0  0  0  0  0  0
   -1.1292   -0.4875    0.3524 C   0  0  1  0  0  0  0  0  0  0  0  0
   -0.5898   -0.7762    1.2552 H   0  0  0  0  0  0  0  0  0  0  0  0
   -0.2608   -0.8470   -0.8656 C   0  0  0  0  0  0  0  0  0  0  0  0
    0.5427   -1.5110   -0.5443 H   0  0  0  0  0  0  0  0  0  0  0  0
   -0.8708   -1.3962   -1.5847 H   0  0  0  0  0  0  0  0  0  0  0  0
    0.3652    0.3523   -1.5507 C   0  0  0  0  0  0  0  0  0  0  0  0
    1.4214    0.1770   -2.4672 C   0  0  0  0  0  0  0  0  0  0  0  0
    1.8070   -0.8145   -2.6655 H   0  0  0  0  0  0  0  0  0  0  0  0
    1.9724    1.2901   -3.1314 C   0  0  0  0  0  0  0  0  0  0  0  0
    2.7821    1.1523   -3.8314 H   0  0  0  0  0  0  0  0  0  0  0  0
    1.4625    2.5827   -2.8805 C   0  0  0  0  0  0  0  0  0  0  0  0
    1.9851    3.6622   -3.5181 O   0  0  0  0  0  0  0  0  0  0  0  0
    2.7533    3.4345   -4.0434 H   0  0  0  0  0  0  0  0  0  0  0  0
    0.4023    2.7557   -1.9667 C   0  0  0  0  0  0  0  0  0  0  0  0
    0.0240    3.7495   -1.7801 H   0  0  0  0  0  0  0  0  0  0  0  0
   -0.1432    1.6417   -1.3010 C   0  0  0  0  0  0  0  0  0  0  0  0
   -0.9515    1.7765   -0.5922 H   0  0  0  0  0  0  0  0  0  0  0  0
   -1.4018    1.0238    0.4329 C   0  0  0  0  0  0  0  0  0  0  0  0
   -2.2416    1.5423   -0.3033 O   0  0  0  0  0  0  0  0  0  0  0  0
   -0.6927    1.7304    1.3223 N   0  0  0  0  0  0  0  0  0  0  0  0
    0.0178    1.2410    1.8469 H   0  0  0  0  0  0  0  0  0  0  0  0
   -0.8259    3.1712    1.5254 C   0  0  0  0  0  0  0  0  0  0  0  0
   -1.8769    3.4302    1.6645 H   0  0  0  0  0  0  0  0  0  0  0  0
   -0.2598    3.4806    2.4054 H   0  0  0  0  0  0  0  0  0  0  0  0
   -0.4486    3.7020    0.6489 H   0  0  0  0  0  0  0  0  0  0  0  0
  5  6  2  0  0  0  0
  5  7  1  0  0  0  0
  2  3  1  0  0  0  0
  2  4  1  0  0  0  0
  2  5  1  0  0  0  0
  1  2  1  0  0  0  0
 26 27  2  0  0  0  0
 26 28  1  0  0  0  0
 24 25  1  0  0  0  0
 22 23  1  0  0  0  0
 22 24  2  0  0  0  0
 20 21  1  0  0  0  0
 19 20  1  0  0  0  0
 19 22  1  0  0  0  0
 17 18  1  0  0  0  0
 17 19  2  0  0  0  0
 15 16  1  0  0  0  0
 15 17  1  0  0  0  0
 14 15  2  0  0  0  0
 14 24  1  0  0  0  0
 11 12  1  0  0  0  0
 11 13  1  0  0  0  0
 11 14  1  0  0  0  0
  9 10  1  0  0  0  0
  9 11  1  0  0  0  0
  9 26  1  0  0  0  0
  7  8  1  0  0  0  0
  7  9  1  0  0  0  0
 30 31  1  0  0  0  0
 30 32  1  0  0  0  0
 30 33  1  0  0  0  0
 28 29  1  0  0  0  0
 28 30  1  0  0  0  0
M  END
$$$$
default_name
  -OEChem-02102213163D

 33 33  0     1  0  0  0  0  0999 V2000
   -4.0702   -3.8485    1.4554 H   0  0  0  0  0  0  0  0  0  0  0  0
   -4.0012   -2.9605    0.8284 C   0  0  0  0  0  0  0  0  0  0  0  0
   -4.7652   -2.2435    1.1234 H   0  0  0  0  0  0  0  0  0  0  0  0
   -4.1352   -3.2385   -0.2156 H   0  0  0  0  0  0  0  0  0  0  0  0
   -2.6362   -2.3395    1.0094 C   0  0  0  0  0  0  0  0  0  0  0  0
   -1.8292   -2.8395    1.7814 O   0  0  0  0  0  0  0  0  0  0  0  0
   -2.3832   -1.2445    0.2964 N   0  0  0  0  0  0  0  0  0  0  0  0
   -3.1102   -0.8685   -0.2946 H   0  0  0  0  0  0  0  0  0  0  0  0
   -1.1292   -0.4875    0.3524 C   0  0  1  0  0  0  0  0  0  0  0  0
   -0.5898   -0.7762    1.2552 H   0  0  0  0  0  0  0  0  0  0  0  0
   -0.2608   -0.8470   -0.8656 C   0  0  0  0  0  0  0  0  0  0  0  0
    0.3666   -1.7028   -0.6132 H   0  0  0  0  0  0  0  0  0  0  0  0
   -0.9123   -1.1503   -1.6869 H   0  0  0  0  0  0  0  0  0  0  0  0
    0.6429    0.2784   -1.3309 C   0  0  0  0  0  0  0  0  0  0  0  0
    1.4963    0.0942   -2.4372 C   0  0  0  0  0  0  0  0  0  0  0  0
    1.5282   -0.8619   -2.9430 H   0  0  0  0  0  0  0  0  0  0  0  0
    2.3040    1.1553   -2.8906 C   0  0  0  0  0  0  0  0  0  0  0  0
    2.9575    1.0103   -3.7371 H   0  0  0  0  0  0  0  0  0  0  0  0
    2.2550    2.4060   -2.2371 C   0  0  0  0  0  0  0  0  0  0  0  0
    3.0278    3.4364   -2.6684 O   0  0  0  0  0  0  0  0  0  0  0  0
    3.6305    3.1694   -3.3637 H   0  0  0  0  0  0  0  0  0  0  0  0
    1.3968    2.5899   -1.1332 C   0  0  0  0  0  0  0  0  0  0  0  0
    1.3715    3.5496   -0.6391 H   0  0  0  0  0  0  0  0  0  0  0  0
    0.5941    1.5260   -0.6796 C   0  0  0  0  0  0  0  0  0  0  0  0
   -0.0581    1.6654    0.1743 H   0  0  0  0  0  0  0  0  0  0  0  0
   -1.4018    1.0238    0.4329 C   0  0  0  0  0  0  0  0  0  0  0  0
   -2.2416    1.5423   -0.3033 O   0  0  0  0  0  0  0  0  0  0  0  0
   -0.6927    1.7304    1.3223 N   0  0  0  0  0  0  0  0  0  0  0  0
    0.0178    1.2410    1.8469 H   0  0  0  0  0  0  0  0  0  0  0  0
   -0.8259    3.1712    1.5254 C   0  0  0  0  0  0  0  0  0  0  0  0
   -1.8769    3.4302    1.6645 H   0  0  0  0  0  0  0  0  0  0  0  0
   -0.2598    3.4806    2.4054 H   0  0  0  0  0  0  0  0  0  0  0  0
   -0.4486    3.7020    0.6489 H   0  0  0  0  0  0  0  0  0  0  0  0
  5  6  2  0  0  0  0
  5  7  1  0  0  0  0
  2  3  1  0  0  0  0
  2  4  1  0  0  0  0
  2  5  1  0  0  0  0
  1  2  1  0  0  0  0
 26 27  2  0  0  0  0
 26 28  1  0  0  0  0
 24 25  1  0  0  0  0
 22 23  1  0  0  0  0
 22 24  2  0  0  0  0
 20 21  1  0  0  0  0
 19 20  1  0  0  0  0
 19 22  1  0  0  0  0
 17 18  1  0  0  0  0
 17 19  2  0  0  0  0
 15 16  1  0  0  0  0
 15 17  1  0  0  0  0
 14 15  2  0  0  0  0
 14 24  1  0  0  0  0
 11 12  1  0  0  0  0
 11 13  1  0  0  0  0
 11 14  1  0  0  0  0
  9 10  1  0  0  0  0
  9 11  1  0  0  0  0
  9 26  1  0  0  0  0
  7  8  1  0  0  0  0
  7  9  1  0  0  0  0
 30 31  1  0  0  0  0
 30 32  1  0  0  0  0
 30 33  1  0  0  0  0
 28 29  1  0  0  0  0
 28 30  1  0  0  0  0
M  END
$$$$
default_name
  -OEChem-02102213163D

 33 33  0     1  0  0  0  0  0999 V2000
   -4.0702   -3.8485    1.4554 H   0  0  0  0  0  0  0  0  0  0  0  0
   -4.0012   -2.9605    0.8284 C   0  0  0  0  0  0  0  0  0  0  0  0
   -4.7652   -2.2435    1.1234 H   0  0  0  0  0  0  0  0  0  0  0  0
   -4.1352   -3.2385   -0.2156 H   0  0  0  0  0  0  0  0  0  0  0  0
   -2.6362   -2.3395    1.0094 C   0  0  0  0  0  0  0  0  0  0  0  0
   -1.8292   -2.8395    1.7814 O   0  0  0  0  0  0  0  0  0  0  0  0
   -2.3832   -1.2445    0.2964 N   0  0  0  0  0  0  0  0  0  0  0  0
   -3.1102   -0.8685   -0.2946 H   0  0  0  0  0  0  0  0  0  0  0  0
   -1.1292   -0.4875    0.3524 C   0  0  1  0  0  0  0  0  0  0  0  0
   -0.5898   -0.7762    1.2552 H   0  0  0  0  0  0  0  0  0  0  0  0
   -0.2608   -0.8470   -0.8656 C   0  0  0  0  0  0  0  0  0  0  0  0
    0.3666   -1.7028   -0.6132 H   0  0  0  0  0  0  0  0  0  0  0  0
   -0.9123   -1.1503   -1.6869 H   0  0  0  0  0  0  0  0  0  0  0  0
    0.6429    0.2784   -1.3309 C   0  0  0  0  0  0  0  0  0  0  0  0
    1.2546    0.2214   -2.5993 C   0  0  0  0  0  0  0  0  0  0  0  0
    1.1014   -0.6402   -3.2359 H   0  0  0  0  0  0  0  0  0  0  0  0
    2.0605    1.2877   -3.0434 C   0  0  0  0  0  0  0  0  0  0  0  0
    2.5286    1.2400   -4.0146 H   0  0  0  0  0  0  0  0  0  0  0  0
    2.2522    2.4165   -2.2171 C   0  0  0  0  0  0  0  0  0  0  0  0
    3.0252    3.4513   -2.6374 O   0  0  0  0  0  0  0  0  0  0  0  0
    3.4603    3.2622   -3.4699 H   0  0  0  0  0  0  0  0  0  0  0  0
    1.6354    2.4740   -0.9502 C   0  0  0  0  0  0  0  0  0  0  0  0
    1.7931    3.3405   -0.3258 H   0  0  0  0  0  0  0  0  0  0  0  0
    0.8341    1.4046   -0.5073 C   0  0  0  0  0  0  0  0  0  0  0  0
    0.3681    1.4454    0.4701 H   0  0  0  0  0  0  0  0  0  0  0  0
   -1.4018    1.0238    0.4329 C   0  0  0  0  0  0  0  0  0  0  0  0
   -2.2416    1.5423   -0.3033 O   0  0  0  0  0  0  0  0  0  0  0  0
   -0.6927    1.7304    1.3223 N   0  0  0  0  0  0  0  0  0  0  0  0
    0.0178    1.2410    1.8469 H   0  0  0  0  0  0  0  0  0  0  0  0
   -0.8259    3.1712    1.5254 C   0  0  0  0  0  0  0  0  0  0  0  0
   -1.8769    3.4302    1.6645 H   0  0  0  0  0  0  0  0  0  0  0  0
   -0.2598    3.4806    2.4054 H   0  0  0  0  0  0  0  0  0  0  0  0
   -0.4486    3.7020    0.6489 H   0  0  0  0  0  0  0  0  0  0  0  0
  5  6  2  0  0  0  0
  5  7  1  0  0  0  0
  2  3  1  0  0  0  0
  2  4  1  0  0  0  0
  2  5  1  0  0  0  0
  1  2  1  0  0  0  0
 26 27  2  0  0  0  0
 26 28  1  0  0  0  0
 24 25  1  0  0  0  0
 22 23  1  0  0  0  0
 22 24  2  0  0  0  0
 20 21  1  0  0  0  0
 19 20  1  0  0  0  0
 19 22  1  0  0  0  0
 17 18  1  0  0  0  0
 17 19  2  0  0  0  0
 15 16  1  0  0  0  0
 15 17  1  0  0  0  0
 14 15  2  0  0  0  0
 14 24  1  0  0  0  0
 11 12  1  0  0  0  0
 11 13  1  0  0  0  0
 11 14  1  0  0  0  0
  9 10  1  0  0  0  0
  9 11  1  0  0  0  0
  9 26  1  0  0  0  0
  7  8  1  0  0  0  0
  7  9  1  0  0  0  0
 30 31  1  0  0  0  0
 30 32  1  0  0  0  0
 30 33  1  0  0  0  0
 28 29  1  0  0  0  0
 28 30  1  0  0  0  0
M  END
$$$$
default_name
  -OEChem-02102213163D

 33 33  0     1  0  0  0  0  0999 V2000
   -4.0702   -3.8485    1.4554 H   0  0  0  0  0  0  0  0  0  0  0  0
   -4.0012   -2.9605    0.8284 C   0  0  0  0  0  0  0  0  0  0  0  0
   -4.7652   -2.2435    1.1234 H   0  0  0  0  0  0  0  0  0  0  0  0
   -4.1352   -3.2385   -0.2156 H   0  0  0  0  0  0  0  0  0  0  0  0
   -2.6362   -2.3395    1.0094 C   0  0  0  0  0  0  0  0  0  0  0  0
   -1.8292   -2.8395    1.7814 O   0  0  0  0  0  0  0  0  0  0  0  0
   -2.3832   -1.2445    0.2964 N   0  0  0  0  0  0  0  0  0  0  0  0
   -3.1102   -0.8685   -0.2946 H   0  0  0  0  0  0  0  0  0  0  0  0
   -1.1292   -0.4875    0.3524 C   0  0  1  0  0  0  0  0  0  0  0  0
   -0.5898   -0.7762    1.2552 H   0  0  0  0  0  0  0  0  0  0  0  0
   -0.2608   -0.8470   -0.8656 C   0  0  0  0  0  0  0  0  0  0  0  0
    0.3666   -1.7028   -0.6132 H   0  0  0  0  0  0  0  0  0  0  0  0
   -0.9123   -1.1503   -1.6869 H   0  0  0  0  0  0  0  0  0  0  0  0
    0.6429    0.2784   -1.3309 C   0  0  0  0  0  0  0  0  0  0  0  0
    1.0000    0.3884   -2.6898 C   0  0  0  0  0  0  0  0  0  0  0  0
    0.6505   -0.3471   -3.4025 H   0  0  0  0  0  0  0  0  0  0  0  0
    1.8065    1.4585   -3.1238 C   0  0  0  0  0  0  0  0  0  0  0  0
    2.0793    1.5387   -4.1648 H   0  0  0  0  0  0  0  0  0  0  0  0
    2.2542    2.4238   -2.1957 C   0  0  0  0  0  0  0  0  0  0  0  0
    3.0299    3.4611   -2.6047 O   0  0  0  0  0  0  0  0  0  0  0  0
    3.2828    3.3818   -3.5254 H   0  0  0  0  0  0  0  0  0  0  0  0
    1.8918    2.3149   -0.8371 C   0  0  0  0  0  0  0  0  0  0  0  0
    2.2439    3.0568   -0.1363 H   0  0  0  0  0  0  0  0  0  0  0  0
    1.0894    1.2416   -0.4056 C   0  0  0  0  0  0  0  0  0  0  0  0
    0.8191    1.1535    0.6399 H   0  0  0  0  0  0  0  0  0  0  0  0
   -1.4018    1.0238    0.4329 C   0  0  0  0  0  0  0  0  0  0  0  0
   -2.2416    1.5423   -0.3033 O   0  0  0  0  0  0  0  0  0  0  0  0
   -0.6927    1.7304    1.3223 N   0  0  0  0  0  0  0  0  0  0  0  0
    0.0178    1.2410    1.8469 H   0  0  0  0  0  0  0  0  0  0  0  0
   -0.8259    3.1712    1.5254 C   0  0  0  0  0  0  0  0  0  0  0  0
   -1.8769    3.4302    1.6645 H   0  0  0  0  0  0  0  0  0  0  0  0
   -0.2598    3.4806    2.4054 H   0  0  0  0  0  0  0  0  0  0  0  0
   -0.4486    3.7020    0.6489 H   0  0  0  0  0  0  0  0  0  0  0  0
  5  6  2  0  0  0  0
  5  7  1  0  0  0  0
  2  3  1  0  0  0  0
  2  4  1  0  0  0  0
  2  5  1  0  0  0  0
  1  2  1  0  0  0  0
 26 27  2  0  0  0  0
 26 28  1  0  0  0  0
 24 25  1  0  0  0  0
 22 23  1  0  0  0  0
 22 24  2  0  0  0  0
 20 21  1  0  0  0  0
 19 20  1  0  0  0  0
 19 22  1  0  0  0  0
 17 18  1  0  0  0  0
 17 19  2  0  0  0  0
 15 16  1  0  0  0  0
 15 17  1  0  0  0  0
 14 15  2  0  0  0  0
 14 24  1  0  0  0  0
 11 12  1  0  0  0  0
 11 13  1  0  0  0  0
 11 14  1  0  0  0  0
  9 10  1  0  0  0  0
  9 11  1  0  0  0  0
  9 26  1  0  0  0  0
  7  8  1  0  0  0  0
  7  9  1  0  0  0  0
 30 31  1  0  0  0  0
 30 32  1  0  0  0  0
 30 33  1  0  0  0  0
 28 29  1  0  0  0  0
 28 30  1  0  0  0  0
M  END
$$$$
default_name
  -OEChem-02102213163D

 33 33  0     1  0  0  0  0  0999 V2000
   -4.0702   -3.8485    1.4554 H   0  0  0  0  0  0  0  0  0  0  0  0
   -4.0012   -2.9605    0.8284 C   0  0  0  0  0  0  0  0  0  0  0  0
   -4.7652   -2.2435    1.1234 H   0  0  0  0  0  0  0  0  0  0  0  0
   -4.1352   -3.2385   -0.2156 H   0  0  0  0  0  0  0  0  0  0  0  0
   -2.6362   -2.3395    1.0094 C   0  0  0  0  0  0  0  0  0  0  0  0
   -1.8292   -2.8395    1.7814 O   0  0  0  0  0  0  0  0  0  0  0  0
   -2.3832   -1.2445    0.2964 N   0  0  0  0  0  0  0  0  0  0  0  0
   -3.1102   -0.8685   -0.2946 H   0  0  0  0  0  0  0  0  0  0  0  0
   -1.1292   -0.4875    0.3524 C   0  0  1  0  0  0  0  0  0  0  0  0
   -0.5898   -0.7762    1.2552 H   0  0  0  0  0  0  0  0  0  0  0  0
   -0.2608   -0.8470   -0.8656 C   0  0  0  0  0  0  0  0  0  0  0  0
    0.3666   -1.7028   -0.6132 H   0  0  0  0  0  0  0  0  0  0  0  0
   -0.9123   -1.1503   -1.6869 H   0  0  0  0  0  0  0  0  0  0  0  0
    0.6429    0.2784   -1.3309 C   0  0  0  0  0  0  0  0  0  0  0  0
    0.7500    0.5839   -2.7025 C   0  0  0  0  0  0  0  0  0  0  0  0
    0.2063   -0.0024   -3.4317 H   0  0  0  0  0  0  0  0  0  0  0  0
    1.5593    1.6560   -3.1263 C   0  0  0  0  0  0  0  0  0  0  0  0
    1.6402    1.8861   -4.1775 H   0  0  0  0  0  0  0  0  0  0  0  0
    2.2607    2.4274   -2.1742 C   0  0  0  0  0  0  0  0  0  0  0  0
    3.0414    3.4652   -2.5725 O   0  0  0  0  0  0  0  0  0  0  0  0
    3.1102    3.5199   -3.5266 H   0  0  0  0  0  0  0  0  0  0  0  0
    2.1485    2.1233   -0.8017 C   0  0  0  0  0  0  0  0  0  0  0  0
    2.6933    2.7178   -0.0837 H   0  0  0  0  0  0  0  0  0  0  0  0
    1.3425    1.0482   -0.3816 C   0  0  0  0  0  0  0  0  0  0  0  0
    1.2641    0.8095    0.6724 H   0  0  0  0  0  0  0  0  0  0  0  0
   -1.4018    1.0238    0.4329 C   0  0  0  0  0  0  0  0  0  0  0  0
   -2.2416    1.5423   -0.3033 O   0  0  0  0  0  0  0  0  0  0  0  0
   -0.6927    1.7304    1.3223 N   0  0  0  0  0  0  0  0  0  0  0  0
    0.0178    1.2410    1.8469 H   0  0  0  0  0  0  0  0  0  0  0  0
   -0.8259    3.1712    1.5254 C   0  0  0  0  0  0  0  0  0  0  0  0
   -1.8769    3.4302    1.6645 H   0  0  0  0  0  0  0  0  0  0  0  0
   -0.2598    3.4806    2.4054 H   0  0  0  0  0  0  0  0  0  0  0  0
   -0.4486    3.7020    0.6489 H   0  0  0  0  0  0  0  0  0  0  0  0
  5  6  2  0  0  0  0
  5  7  1  0  0  0  0
  2  3  1  0  0  0  0
  2  4  1  0  0  0  0
  2  5  1  0  0  0  0
  1  2  1  0  0  0  0
 26 27  2  0  0  0  0
 26 28  1  0  0  0  0
 24 25  1  0  0  0  0
 22 23  1  0  0  0  0
 22 24  2  0  0  0  0
 20 21  1  0  0  0  0
 19 20  1  0  0  0  0
 19 22  1  0  0  0  0
 17 18  1  0  0  0  0
 17 19  2  0  0  0  0
 15 16  1  0  0  0  0
 15 17  1  0  0  0  0
 14 15  2  0  0  0  0
 14 24  1  0  0  0  0
 11 12  1  0  0  0  0
 11 13  1  0  0  0  0
 11 14  1  0  0  0  0
  9 10  1  0  0  0  0
  9 11  1  0  0  0  0
  9 26  1  0  0  0  0
  7  8  1  0  0  0  0
  7  9  1  0  0  0  0
 30 31  1  0  0  0  0
 30 32  1  0  0  0  0
 30 33  1  0  0  0  0
 28 29  1  0  0  0  0
 28 30  1  0  0  0  0
M  END
$$$$
default_name
  -OEChem-02102213163D

 33 33  0     1  0  0  0  0  0999 V2000
   -4.0702   -3.8485    1.4554 H   0  0  0  0  0  0  0  0  0  0  0  0
   -4.0012   -2.9605    0.8284 C   0  0  0  0  0  0  0  0  0  0  0  0
   -4.7652   -2.2435    1.1234 H   0  0  0  0  0  0  0  0  0  0  0  0
   -4.1352   -3.2385   -0.2156 H   0  0  0  0  0  0  0  0  0  0  0  0
   -2.6362   -2.3395    1.0094 C   0  0  0  0  0  0  0  0  0  0  0  0
   -1.8292   -2.8395    1.7814 O   0  0  0  0  0  0  0  0  0  0  0  0
   -2.3832   -1.2445    0.2964 N   0  0  0  0  0  0  0  0  0  0  0  0
   -3.1102   -0.8685   -0.2946 H   0  0  0  0  0  0  0  0  0  0  0  0
   -1.1292   -0.4875    0.3524 C   0  0  1  0  0  0  0  0  0  0  0  0
   -0.5898   -0.7762    1.2552 H   0  0  0  0  0  0  0  0  0  0  0  0
   -0.2608   -0.8470   -0.8656 C   0  0  0  0  0  0  0  0  0  0  0  0
    0.3666   -1.7028   -0.6132 H   0  0  0  0  0  0  0  0  0  0  0  0
   -0.9123   -1.1503   -1.6869 H   0  0  0  0  0  0  0  0  0  0  0  0
    0.6429    0.2784   -1.3309 C   0  0  0  0  0  0  0  0  0  0  0  0
    0.5216    0.7945   -2.6367 C   0  0  0  0  0  0  0  0  0  0  0  0
   -0.2011    0.3704   -3.3214 H   0  0  0  0  0  0  0  0  0  0  0  0
    1.3356    1.8668   -3.0508 C   0  0  0  0  0  0  0  0  0  0  0  0
    1.2411    2.2585   -4.0519 H   0  0  0  0  0  0  0  0  0  0  0  0
    2.2715    2.4270   -2.1542 C   0  0  0  0  0  0  0  0  0  0  0  0
    3.0591    3.4632   -2.5430 O   0  0  0  0  0  0  0  0  0  0  0  0
    2.9542    3.6673   -3.4732 H   0  0  0  0  0  0  0  0  0  0  0  0
    2.3881    1.9125   -0.8463 C   0  0  0  0  0  0  0  0  0  0  0  0
    3.1105    2.3464   -0.1714 H   0  0  0  0  0  0  0  0  0  0  0  0
    1.5763    0.8377   -0.4369 C   0  0  0  0  0  0  0  0  0  0  0  0
    1.6729    0.4368    0.5651 H   0  0  0  0  0  0  0  0  0  0  0  0
   -1.4018    1.0238    0.4329 C   0  0  0  0  0  0  0  0  0  0  0  0
   -2.2416    1.5423   -0.3033 O   0  0  0  0  0  0  0  0  0  0  0  0
   -0.6927    1.7304    1.3223 N   0  0  0  0  0  0  0  0  0  0  0  0
    0.0178    1.2410    1.8469 H   0  0  0  0  0  0  0  0  0  0  0  0
   -0.8259    3.1712    1.5254 C   0  0  0  0  0  0  0  0  0  0  0  0
   -1.8769    3.4302    1.6645 H   0  0  0  0  0  0  0  0  0  0  0  0
   -0.2598    3.4806    2.4054 H   0  0  0  0  0  0  0  0  0  0  0  0
   -0.4486    3.7020    0.6489 H   0  0  0  0  0  0  0  0  0  0  0  0
  5  6  2  0  0  0  0
  5  7  1  0  0  0  0
  2  3  1  0  0  0  0
  2  4  1  0  0  0  0
  2  5  1  0  0  0  0
  1  2  1  0  0  0  0
 26 27  2  0  0  0  0
 26 28  1  0  0  0  0
 24 25  1  0  0  0  0
 22 23  1  0  0  0  0
 22 24  2  0  0  0  0
 20 21  1  0  0  0  0
 19 20  1  0  0  0  0
 19 22  1  0  0  0  0
 17 18  1  0  0  0  0
 17 19  2  0  0  0  0
 15 16  1  0  0  0  0
 15 17  1  0  0  0  0
 14 15  2  0  0  0  0
 14 24  1  0  0  0  0
 11 12  1  0  0  0  0
 11 13  1  0  0  0  0
 11 14  1  0  0  0  0
  9 10  1  0  0  0  0
  9 11  1  0  0  0  0
  9 26  1  0  0  0  0
  7  8  1  0  0  0  0
  7  9  1  0  0  0  0
 30 31  1  0  0  0  0
 30 32  1  0  0  0  0
 30 33  1  0  0  0  0
 28 29  1  0  0  0  0
 28 30  1  0  0  0  0
M  END
$$$$
default_name
  -OEChem-02102213163D

 33 33  0     1  0  0  0  0  0999 V2000
   -4.0702   -3.8485    1.4554 H   0  0  0  0  0  0  0  0  0  0  0  0
   -4.0012   -2.9605    0.8284 C   0  0  0  0  0  0  0  0  0  0  0  0
   -4.7652   -2.2435    1.1234 H   0  0  0  0  0  0  0  0  0  0  0  0
   -4.1352   -3.2385   -0.2156 H   0  0  0  0  0  0  0  0  0  0  0  0
   -2.6362   -2.3395    1.0094 C   0  0  0  0  0  0  0  0  0  0  0  0
   -1.8292   -2.8395    1.7814 O   0  0  0  0  0  0  0  0  0  0  0  0
   -2.3832   -1.2445    0.2964 N   0  0  0  0  0  0  0  0  0  0  0  0
   -3.1102   -0.8685   -0.2946 H   0  0  0  0  0  0  0  0  0  0  0  0
   -1.1292   -0.4875    0.3524 C   0  0  1  0  0  0  0  0  0  0  0  0
   -0.5898   -0.7762    1.2552 H   0  0  0  0  0  0  0  0  0  0  0  0
   -0.2608   -0.8470   -0.8656 C   0  0  0  0  0  0  0  0  0  0  0  0
    0.3666   -1.7028   -0.6132 H   0  0  0  0  0  0  0  0  0  0  0  0
   -0.9123   -1.1503   -1.6869 H   0  0  0  0  0  0  0  0  0  0  0  0
    0.6429    0.2784   -1.3309 C   0  0  0  0  0  0  0  0  0  0  0  0
    0.3304    1.0060   -2.4967 C   0  0  0  0  0  0  0  0  0  0  0  0
   -0.5438    0.7458   -3.0791 H   0  0  0  0  0  0  0  0  0  0  0  0
    1.1509    2.0765   -2.9024 C   0  0  0  0  0  0  0  0  0  0  0  0
    0.9094    2.6305   -3.7965 H   0  0  0  0  0  0  0  0  0  0  0  0
    2.2857    2.4227   -2.1370 C   0  0  0  0  0  0  0  0  0  0  0  0
    3.0816    3.4553   -2.5182 O   0  0  0  0  0  0  0  0  0  0  0  0
    2.8255    3.8137   -3.3690 H   0  0  0  0  0  0  0  0  0  0  0  0
    2.5942    1.6967   -0.9680 C   0  0  0  0  0  0  0  0  0  0  0  0
    3.4671    1.9682   -0.3936 H   0  0  0  0  0  0  0  0  0  0  0  0
    1.7747    0.6242   -0.5676 C   0  0  0  0  0  0  0  0  0  0  0  0
    2.0176    0.0610    0.3256 H   0  0  0  0  0  0  0  0  0  0  0  0
   -1.4018    1.0238    0.4329 C   0  0  0  0  0  0  0  0  0  0  0  0
   -2.2416    1.5423   -0.3033 O   0  0  0  0  0  0  0  0  0  0  0  0
   -0.6927    1.7304    1.3223 N   0  0  0  0  0  0  0  0  0  0  0  0
    0.0178    1.2410    1.8469 H   0  0  0  0  0  0  0  0  0  0  0  0
   -0.8259    3.1712    1.5254 C   0  0  0  0  0  0  0  0  0  0  0  0
   -1.8769    3.4302    1.6645 H   0  0  0  0  0  0  0  0  0  0  0  0
   -0.2598    3.4806    2.4054 H   0  0  0  0  0  0  0  0  0  0  0  0
   -0.4486    3.7020    0.6489 H   0  0  0  0  0  0  0  0  0  0  0  0
  5  6  2  0  0  0  0
  5  7  1  0  0  0  0
  2  3  1  0  0  0  0
  2  4  1  0  0  0  0
  2  5  1  0  0  0  0
  1  2  1  0  0  0  0
 26 27  2  0  0  0  0
 26 28  1  0  0  0  0
 24 25  1  0  0  0  0
 22 23  1  0  0  0  0
 22 24  2  0  0  0  0
 20 21  1  0  0  0  0
 19 20  1  0  0  0  0
 19 22  1  0  0  0  0
 17 18  1  0  0  0  0
 17 19  2  0  0  0  0
 15 16  1  0  0  0  0
 15 17  1  0  0  0  0
 14 15  2  0  0  0  0
 14 24  1  0  0  0  0
 11 12  1  0  0  0  0
 11 13  1  0  0  0  0
 11 14  1  0  0  0  0
  9 10  1  0  0  0  0
  9 11  1  0  0  0  0
  9 26  1  0  0  0  0
  7  8  1  0  0  0  0
  7  9  1  0  0  0  0
 30 31  1  0  0  0  0
 30 32  1  0  0  0  0
 30 33  1  0  0  0  0
 28 29  1  0  0  0  0
 28 30  1  0  0  0  0
M  END
$$$$
default_name
  -OEChem-02102213163D

 33 33  0     1  0  0  0  0  0999 V2000
   -4.0702   -3.8485    1.4554 H   0  0  0  0  0  0  0  0  0  0  0  0
   -4.0012   -2.9605    0.8284 C   0  0  0  0  0  0  0  0  0  0  0  0
   -4.7652   -2.2435    1.1234 H   0  0  0  0  0  0  0  0  0  0  0  0
   -4.1352   -3.2385   -0.2156 H   0  0  0  0  0  0  0  0  0  0  0  0
   -2.6362   -2.3395    1.0094 C   0  0  0  0  0  0  0  0  0  0  0  0
   -1.8292   -2.8395    1.7814 O   0  0  0  0  0  0  0  0  0  0  0  0
   -2.3832   -1.2445    0.2964 N   0  0  0  0  0  0  0  0  0  0  0  0
   -3.1102   -0.8685   -0.2946 H   0  0  0  0  0  0  0  0  0  0  0  0
   -1.1292   -0.4875    0.3524 C   0  0  1  0  0  0  0  0  0  0  0  0
   -0.5898   -0.7762    1.2552 H   0  0  0  0  0  0  0  0  0  0  0  0
   -0.2608   -0.8470   -0.8656 C   0  0  0  0  0  0  0  0  0  0  0  0
    0.3666   -1.7028   -0.6132 H   0  0  0  0  0  0  0  0  0  0  0  0
   -0.9123   -1.1503   -1.6869 H   0  0  0  0  0  0  0  0  0  0  0  0
    0.6429    0.2784   -1.3309 C   0  0  0  0  0  0  0  0  0  0  0  0
    0.1894    1.2038   -2.2922 C   0  0  0  0  0  0  0  0  0  0  0  0
   -0.7984    1.0982   -2.7214 H   0  0  0  0  0  0  0  0  0  0  0  0
    1.0176    2.2709   -2.6912 C   0  0  0  0  0  0  0  0  0  0  0  0
    0.6676    2.9768   -3.4287 H   0  0  0  0  0  0  0  0  0  0  0  0
    2.3024    2.4148   -2.1238 C   0  0  0  0  0  0  0  0  0  0  0  0
    3.1076    3.4421   -2.4997 O   0  0  0  0  0  0  0  0  0  0  0  0
    2.7328    3.9494   -3.2210 H   0  0  0  0  0  0  0  0  0  0  0  0
    2.7528    1.4906   -1.1583 C   0  0  0  0  0  0  0  0  0  0  0  0
    3.7389    1.6087   -0.7350 H   0  0  0  0  0  0  0  0  0  0  0  0
    1.9244    0.4224   -0.7649 C   0  0  0  0  0  0  0  0  0  0  0  0
    2.2747   -0.2925   -0.0300 H   0  0  0  0  0  0  0  0  0  0  0  0
   -1.4018    1.0238    0.4329 C   0  0  0  0  0  0  0  0  0  0  0  0
   -2.2416    1.5423   -0.3033 O   0  0  0  0  0  0  0  0  0  0  0  0
   -0.6927    1.7304    1.3223 N   0  0  0  0  0  0  0  0  0  0  0  0
    0.0178    1.2410    1.8469 H   0  0  0  0  0  0  0  0  0  0  0  0
   -0.8259    3.1712    1.5254 C   0  0  0  0  0  0  0  0  0  0  0  0
   -1.8769    3.4302    1.6645 H   0  0  0  0  0  0  0  0  0  0  0  0
   -0.2598    3.4806    2.4054 H   0  0  0  0  0  0  0  0  0  0  0  0
   -0.4486    3.7020    0.6489 H   0  0  0  0  0  0  0  0  0  0  0  0
  5  6  2  0  0  0  0
  5  7  1  0  0  0  0
  2  3  1  0  0  0  0
  2  4  1  0  0  0  0
  2  5  1  0  0  0  0
  1  2  1  0  0  0  0
 26 27  2  0  0  0  0
 26 28  1  0  0  0  0
 24 25  1  0  0  0  0
 22 23  1  0  0  0  0
 22 24  2  0  0  0  0
 20 21  1  0  0  0  0
 19 20  1  0  0  0  0
 19 22  1  0  0  0  0
 17 18  1  0  0  0  0
 17 19  2  0  0  0  0
 15 16  1  0  0  0  0
 15 17  1  0  0  0  0
 14 15  2  0  0  0  0
 14 24  1  0  0  0  0
 11 12  1  0  0  0  0
 11 13  1  0  0  0  0
 11 14  1  0  0  0  0
  9 10  1  0  0  0  0
  9 11  1  0  0  0  0
  9 26  1  0  0  0  0
  7  8  1  0  0  0  0
  7  9  1  0  0  0  0
 30 31  1  0  0  0  0
 30 32  1  0  0  0  0
 30 33  1  0  0  0  0
 28 29  1  0  0  0  0
 28 30  1  0  0  0  0
M  END
$$$$
default_name
  -OEChem-02102213163D

 33 33  0     1  0  0  0  0  0999 V2000
   -4.0702   -3.8485    1.4554 H   0  0  0  0  0  0  0  0  0  0  0  0
   -4.0012   -2.9605    0.8284 C   0  0  0  0  0  0  0  0  0  0  0  0
   -4.7652   -2.2435    1.1234 H   0  0  0  0  0  0  0  0  0  0  0  0
   -4.1352   -3.2385   -0.2156 H   0  0  0  0  0  0  0  0  0  0  0  0
   -2.6362   -2.3395    1.0094 C   0  0  0  0  0  0  0  0  0  0  0  0
   -1.8292   -2.8395    1.7814 O   0  0  0  0  0  0  0  0  0  0  0  0
   -2.3832   -1.2445    0.2964 N   0  0  0  0  0  0  0  0  0  0  0  0
   -3.1102   -0.8685   -0.2946 H   0  0  0  0  0  0  0  0  0  0  0  0
   -1.1292   -0.4875    0.3524 C   0  0  1  0  0  0  0  0  0  0  0  0
   -0.5898   -0.7762    1.2552 H   0  0  0  0  0  0  0  0  0  0  0  0
   -0.2608   -0.8470   -0.8656 C   0  0  0  0  0  0  0  0  0  0  0  0
    0.3666   -1.7028   -0.6132 H   0  0  0  0  0  0  0  0  0  0  0  0
   -0.9123   -1.1503   -1.6869 H   0  0  0  0  0  0  0  0  0  0  0  0
    0.6429    0.2784   -1.3309 C   0  0  0  0  0  0  0  0  0  0  0  0
    0.1081    1.3746   -2.0370 C   0  0  0  0  0  0  0  0  0  0  0  0
   -0.9477    1.4036   -2.2726 H   0  0  0  0  0  0  0  0  0  0  0  0
    0.9448    2.4367   -2.4316 C   0  0  0  0  0  0  0  0  0  0  0  0
    0.5321    3.2737   -2.9736 H   0  0  0  0  0  0  0  0  0  0  0  0
    2.3205    2.4037   -2.1154 C   0  0  0  0  0  0  0  0  0  0  0  0
    3.1351    3.4245   -2.4889 O   0  0  0  0  0  0  0  0  0  0  0  0
    2.6825    4.0649   -3.0393 H   0  0  0  0  0  0  0  0  0  0  0  0
    2.8530    1.3084   -1.4045 C   0  0  0  0  0  0  0  0  0  0  0  0
    3.9073    1.2926   -1.1724 H   0  0  0  0  0  0  0  0  0  0  0  0
    2.0150    0.2461   -1.0154 C   0  0  0  0  0  0  0  0  0  0  0  0
    2.4266   -0.5995   -0.4773 H   0  0  0  0  0  0  0  0  0  0  0  0
   -1.4018    1.0238    0.4329 C   0  0  0  0  0  0  0  0  0  0  0  0
   -2.2416    1.5423   -0.3033 O   0  0  0  0  0  0  0  0  0  0  0  0
   -0.6927    1.7304    1.3223 N   0  0  0  0  0  0  0  0  0  0  0  0
    0.0178    1.2410    1.8469 H   0  0  0  0  0  0  0  0  0  0  0  0
   -0.8259    3.1712    1.5254 C   0  0  0  0  0  0  0  0  0  0  0  0
   -1.8769    3.4302    1.6645 H   0  0  0  0  0  0  0  0  0  0  0  0
   -0.2598    3.4806    2.4054 H   0  0  0  0  0  0  0  0  0  0  0  0
   -0.4486    3.7020    0.6489 H   0  0  0  0  0  0  0  0  0  0  0  0
  5  6  2  0  0  0  0
  5  7  1  0  0  0  0
  2  3  1  0  0  0  0
  2  4  1  0  0  0  0
  2  5  1  0  0  0  0
  1  2  1  0  0  0  0
 26 27  2  0  0  0  0
 26 28  1  0  0  0  0
 24 25  1  0  0  0  0
 22 23  1  0  0  0  0
 22 24  2  0  0  0  0
 20 21  1  0  0  0  0
 19 20  1  0  0  0  0
 19 22  1  0  0  0  0
 17 18  1  0  0  0  0
 17 19  2  0  0  0  0
 15 16  1  0  0  0  0
 15 17  1  0  0  0  0
 14 15  2  0  0  0  0
 14 24  1  0  0  0  0
 11 12  1  0  0  0  0
 11 13  1  0  0  0  0
 11 14  1  0  0  0  0
  9 10  1  0  0  0  0
  9 11  1  0  0  0  0
  9 26  1  0  0  0  0
  7  8  1  0  0  0  0
  7  9  1  0  0  0  0
 30 31  1  0  0  0  0
 30 32  1  0  0  0  0
 30 33  1  0  0  0  0
 28 29  1  0  0  0  0
 28 30  1  0  0  0  0
M  END
$$$$
default_name
  -OEChem-02102213163D

 33 33  0     1  0  0  0  0  0999 V2000
   -4.0702   -3.8485    1.4554 H   0  0  0  0  0  0  0  0  0  0  0  0
   -4.0012   -2.9605    0.8284 C   0  0  0  0  0  0  0  0  0  0  0  0
   -4.7652   -2.2435    1.1234 H   0  0  0  0  0  0  0  0  0  0  0  0
   -4.1352   -3.2385   -0.2156 H   0  0  0  0  0  0  0  0  0  0  0  0
   -2.6362   -2.3395    1.0094 C   0  0  0  0  0  0  0  0  0  0  0  0
   -1.8292   -2.8395    1.7814 O   0  0  0  0  0  0  0  0  0  0  0  0
   -2.3832   -1.2445    0.2964 N   0  0  0  0  0  0  0  0  0  0  0  0
   -3.1102   -0.8685   -0.2946 H   0  0  0  0  0  0  0  0  0  0  0  0
   -1.1292   -0.4875    0.3524 C   0  0  1  0  0  0  0  0  0  0  0  0
   -0.5898   -0.7762    1.2552 H   0  0  0  0  0  0  0  0  0  0  0  0
   -0.2608   -0.8470   -0.8656 C   0  0  0  0  0  0  0  0  0  0  0  0
    0.3666   -1.7028   -0.6132 H   0  0  0  0  0  0  0  0  0  0  0  0
   -0.9123   -1.1503   -1.6869 H   0  0  0  0  0  0  0  0  0  0  0  0
    0.6429    0.2784   -1.3309 C   0  0  0  0  0  0  0  0  0  0  0  0
    0.0922    1.5066   -1.7486 C   0  0  0  0  0  0  0  0  0  0  0  0
   -0.9814    1.6413   -1.7632 H   0  0  0  0  0  0  0  0  0  0  0  0
    0.9375    2.5625   -2.1413 C   0  0  0  0  0  0  0  0  0  0  0  0
    0.5123    3.5011   -2.4621 H   0  0  0  0  0  0  0  0  0  0  0  0
    2.3386    2.3904   -2.1125 C   0  0  0  0  0  0  0  0  0  0  0  0
    3.1624    3.4036   -2.4865 O   0  0  0  0  0  0  0  0  0  0  0  0
    2.6779    4.1525   -2.8363 H   0  0  0  0  0  0  0  0  0  0  0  0
    2.8881    1.1623   -1.6896 C   0  0  0  0  0  0  0  0  0  0  0  0
    3.9608    1.0414   -1.6761 H   0  0  0  0  0  0  0  0  0  0  0  0
    2.0404    0.1072   -1.3020 C   0  0  0  0  0  0  0  0  0  0  0  0
    2.4631   -0.8391   -0.9860 H   0  0  0  0  0  0  0  0  0  0  0  0
   -1.4018    1.0238    0.4329 C   0  0  0  0  0  0  0  0  0  0  0  0
   -2.2416    1.5423   -0.3033 O   0  0  0  0  0  0  0  0  0  0  0  0
   -0.6927    1.7304    1.3223 N   0  0  0  0  0  0  0  0  0  0  0  0
    0.0178    1.2410    1.8469 H   0  0  0  0  0  0  0  0  0  0  0  0
   -0.8259    3.1712    1.5254 C   0  0  0  0  0  0  0  0  0  0  0  0
   -1.8769    3.4302    1.6645 H   0  0  0  0  0  0  0  0  0  0  0  0
   -0.2598    3.4806    2.4054 H   0  0  0  0  0  0  0  0  0  0  0  0
   -0.4486    3.7020    0.6489 H   0  0  0  0  0  0  0  0  0  0  0  0
  5  6  2  0  0  0  0
  5  7  1  0  0  0  0
  2  3  1  0  0  0  0
  2  4  1  0  0  0  0
  2  5  1  0  0  0  0
  1  2  1  0  0  0  0
 26 27  2  0  0  0  0
 26 28  1  0  0  0  0
 24 25  1  0  0  0  0
 22 23  1  0  0  0  0
 22 24  2  0  0  0  0
 20 21  1  0  0  0  0
 19 20  1  0  0  0  0
 19 22  1  0  0  0  0
 17 18  1  0  0  0  0
 17 19  2  0  0  0  0
 15 16  1  0  0  0  0
 15 17  1  0  0  0  0
 14 15  2  0  0  0  0
 14 24  1  0  0  0  0
 11 12  1  0  0  0  0
 11 13  1  0  0  0  0
 11 14  1  0  0  0  0
  9 10  1  0  0  0  0
  9 11  1  0  0  0  0
  9 26  1  0  0  0  0
  7  8  1  0  0  0  0
  7  9  1  0  0  0  0
 30 31  1  0  0  0  0
 30 32  1  0  0  0  0
 30 33  1  0  0  0  0
 28 29  1  0  0  0  0
 28 30  1  0  0  0  0
M  END
$$$$
default_name
  -OEChem-02102213163D

 33 33  0     1  0  0  0  0  0999 V2000
   -4.0702   -3.8485    1.4554 H   0  0  0  0  0  0  0  0  0  0  0  0
   -4.0012   -2.9605    0.8284 C   0  0  0  0  0  0  0  0  0  0  0  0
   -4.7652   -2.2435    1.1234 H   0  0  0  0  0  0  0  0  0  0  0  0
   -4.1352   -3.2385   -0.2156 H   0  0  0  0  0  0  0  0  0  0  0  0
   -2.6362   -2.3395    1.0094 C   0  0  0  0  0  0  0  0  0  0  0  0
   -1.8292   -2.8395    1.7814 O   0  0  0  0  0  0  0  0  0  0  0  0
   -2.3832   -1.2445    0.2964 N   0  0  0  0  0  0  0  0  0  0  0  0
   -3.1102   -0.8685   -0.2946 H   0  0  0  0  0  0  0  0  0  0  0  0
   -1.1292   -0.4875    0.3524 C   0  0  1  0  0  0  0  0  0  0  0  0
   -0.5898   -0.7762    1.2552 H   0  0  0  0  0  0  0  0  0  0  0  0
   -0.2608   -0.8470   -0.8656 C   0  0  0  0  0  0  0  0  0  0  0  0
    0.3666   -1.7028   -0.6132 H   0  0  0  0  0  0  0  0  0  0  0  0
   -0.9123   -1.1503   -1.6869 H   0  0  0  0  0  0  0  0  0  0  0  0
    0.6429    0.2784   -1.3309 C   0  0  0  0  0  0  0  0  0  0  0  0
    0.1427    1.5909   -1.4466 C   0  0  0  0  0  0  0  0  0  0  0  0
   -0.8973    1.7950   -1.2281 H   0  0  0  0  0  0  0  0  0  0  0  0
    0.9962    2.6399   -1.8402 C   0  0  0  0  0  0  0  0  0  0  0  0
    0.6095    3.6434   -1.9292 H   0  0  0  0  0  0  0  0  0  0  0  0
    2.3557    2.3755   -2.1153 C   0  0  0  0  0  0  0  0  0  0  0  0
    3.1876    3.3808   -2.4927 O   0  0  0  0  0  0  0  0  0  0  0  0
    2.7195    4.2061   -2.6259 H   0  0  0  0  0  0  0  0  0  0  0  0
    2.8556    1.0624   -1.9942 C   0  0  0  0  0  0  0  0  0  0  0  0
    3.8959    0.8721   -2.2116 H   0  0  0  0  0  0  0  0  0  0  0  0
    1.9989    0.0152   -1.6051 C   0  0  0  0  0  0  0  0  0  0  0  0
    2.3816   -0.9950   -1.5213 H   0  0  0  0  0  0  0  0  0  0  0  0
   -1.4018    1.0238    0.4329 C   0  0  0  0  0  0  0  0  0  0  0  0
   -2.2416    1.5423   -0.3033 O   0  0  0  0  0  0  0  0  0  0  0  0
   -0.6927    1.7304    1.3223 N   0  0  0  0  0  0  0  0  0  0  0  0
    0.0178    1.2410    1.8469 H   0  0  0  0  0  0  0  0  0  0  0  0
   -0.8259    3.1712    1.5254 C   0  0  0  0  0  0  0  0  0  0  0  0
   -1.8769    3.4302    1.6645 H   0  0  0  0  0  0  0  0  0  0  0  0
   -0.2598    3.4806    2.4054 H   0  0  0  0  0  0  0  0  0  0  0  0
   -0.4486    3.7020    0.6489 H   0  0  0  0  0  0  0  0  0  0  0  0
  5  6  2  0  0  0  0
  5  7  1  0  0  0  0
  2  3  1  0  0  0  0
  2  4  1  0  0  0  0
  2  5  1  0  0  0  0
  1  2  1  0  0  0  0
 26 27  2  0  0  0  0
 26 28  1  0  0  0  0
 24 25  1  0  0  0  0
 22 23  1  0  0  0  0
 22 24  2  0  0  0  0
 20 21  1  0  0  0  0
 19 20  1  0  0  0  0
 19 22  1  0  0  0  0
 17 18  1  0  0  0  0
 17 19  2  0  0  0  0
 15 16  1  0  0  0  0
 15 17  1  0  0  0  0
 14 15  2  0  0  0  0
 14 24  1  0  0  0  0
 11 12  1  0  0  0  0
 11 13  1  0  0  0  0
 11 14  1  0  0  0  0
  9 10  1  0  0  0  0
  9 11  1  0  0  0  0
  9 26  1  0  0  0  0
  7  8  1  0  0  0  0
  7  9  1  0  0  0  0
 30 31  1  0  0  0  0
 30 32  1  0  0  0  0
 30 33  1  0  0  0  0
 28 29  1  0  0  0  0
 28 30  1  0  0  0  0
M  END
$$$$
default_name
  -OEChem-02102213163D

 33 33  0     1  0  0  0  0  0999 V2000
   -4.0702   -3.8485    1.4554 H   0  0  0  0  0  0  0  0  0  0  0  0
   -4.0012   -2.9605    0.8284 C   0  0  0  0  0  0  0  0  0  0  0  0
   -4.7652   -2.2435    1.1234 H   0  0  0  0  0  0  0  0  0  0  0  0
   -4.1352   -3.2385   -0.2156 H   0  0  0  0  0  0  0  0  0  0  0  0
   -2.6362   -2.3395    1.0094 C   0  0  0  0  0  0  0  0  0  0  0  0
   -1.8292   -2.8395    1.7814 O   0  0  0  0  0  0  0  0  0  0  0  0
   -2.3832   -1.2445    0.2964 N   0  0  0  0  0  0  0  0  0  0  0  0
   -3.1102   -0.8685   -0.2946 H   0  0  0  0  0  0  0  0  0  0  0  0
   -1.1292   -0.4875    0.3524 C   0  0  1  0  0  0  0  0  0  0  0  0
   -0.5898   -0.7762    1.2552 H   0  0  0  0  0  0  0  0  0  0  0  0
   -0.2608   -0.8470   -0.8656 C   0  0  0  0  0  0  0  0  0  0  0  0
    0.3666   -1.7028   -0.6132 H   0  0  0  0  0  0  0  0  0  0  0  0
   -0.9123   -1.1503   -1.6869 H   0  0  0  0  0  0  0  0  0  0  0  0
    0.6429    0.2784   -1.3309 C   0  0  0  0  0  0  0  0  0  0  0  0
    0.2562    1.6217   -1.1515 C   0  0  0  0  0  0  0  0  0  0  0  0
   -0.7011    1.8543   -0.7037 H   0  0  0  0  0  0  0  0  0  0  0  0
    1.1170    2.6635   -1.5486 C   0  0  0  0  0  0  0  0  0  0  0  0
    0.8169    3.6910   -1.4112 H   0  0  0  0  0  0  0  0  0  0  0  0
    2.3704    2.3603   -2.1235 C   0  0  0  0  0  0  0  0  0  0  0  0
    3.2089    3.3578   -2.5070 O   0  0  0  0  0  0  0  0  0  0  0  0
    2.8043    4.2222   -2.4224 H   0  0  0  0  0  0  0  0  0  0  0  0
    2.7578    1.0155   -2.2977 C   0  0  0  0  0  0  0  0  0  0  0  0
    3.7168    0.7964   -2.7425 H   0  0  0  0  0  0  0  0  0  0  0  0
    1.8933   -0.0236   -1.9040 C   0  0  0  0  0  0  0  0  0  0  0  0
    2.1877   -1.0565   -2.0467 H   0  0  0  0  0  0  0  0  0  0  0  0
   -1.4018    1.0238    0.4329 C   0  0  0  0  0  0  0  0  0  0  0  0
   -2.2416    1.5423   -0.3033 O   0  0  0  0  0  0  0  0  0  0  0  0
   -0.6927    1.7304    1.3223 N   0  0  0  0  0  0  0  0  0  0  0  0
    0.0178    1.2410    1.8469 H   0  0  0  0  0  0  0  0  0  0  0  0
   -0.8259    3.1712    1.5254 C   0  0  0  0  0  0  0  0  0  0  0  0
   -1.8769    3.4302    1.6645 H   0  0  0  0  0  0  0  0  0  0  0  0
   -0.2598    3.4806    2.4054 H   0  0  0  0  0  0  0  0  0  0  0  0
   -0.4486    3.7020    0.6489 H   0  0  0  0  0  0  0  0  0  0  0  0
  5  6  2  0  0  0  0
  5  7  1  0  0  0  0
  2  3  1  0  0  0  0
  2  4  1  0  0  0  0
  2  5  1  0  0  0  0
  1  2  1  0  0  0  0
 26 27  2  0  0  0  0
 26 28  1  0  0  0  0
 24 25  1  0  0  0  0
 22 23  1  0  0  0  0
 22 24  2  0  0  0  0
 20 21  1  0  0  0  0
 19 20  1  0  0  0  0
 19 22  1  0  0  0  0
 17 18  1  0  0  0  0
 17 19  2  0  0  0  0
 15 16  1  0  0  0  0
 15 17  1  0  0  0  0
 14 15  2  0  0  0  0
 14 24  1  0  0  0  0
 11 12  1  0  0  0  0
 11 13  1  0  0  0  0
 11 14  1  0  0  0  0
  9 10  1  0  0  0  0
  9 11  1  0  0  0  0
  9 26  1  0  0  0  0
  7  8  1  0  0  0  0
  7  9  1  0  0  0  0
 30 31  1  0  0  0  0
 30 32  1  0  0  0  0
 30 33  1  0  0  0  0
 28 29  1  0  0  0  0
 28 30  1  0  0  0  0
M  END
$$$$
default_name
  -OEChem-02102213163D

 33 33  0     1  0  0  0  0  0999 V2000
   -4.0702   -3.8485    1.4554 H   0  0  0  0  0  0  0  0  0  0  0  0
   -4.0012   -2.9605    0.8284 C   0  0  0  0  0  0  0  0  0  0  0  0
   -4.7652   -2.2435    1.1234 H   0  0  0  0  0  0  0  0  0  0  0  0
   -4.1352   -3.2385   -0.2156 H   0  0  0  0  0  0  0  0  0  0  0  0
   -2.6362   -2.3395    1.0094 C   0  0  0  0  0  0  0  0  0  0  0  0
   -1.8292   -2.8395    1.7814 O   0  0  0  0  0  0  0  0  0  0  0  0
   -2.3832   -1.2445    0.2964 N   0  0  0  0  0  0  0  0  0  0  0  0
   -3.1102   -0.8685   -0.2946 H   0  0  0  0  0  0  0  0  0  0  0  0
   -1.1292   -0.4875    0.3524 C   0  0  1  0  0  0  0  0  0  0  0  0
   -0.5898   -0.7762    1.2552 H   0  0  0  0  0  0  0  0  0  0  0  0
   -0.2608   -0.8470   -0.8656 C   0  0  0  0  0  0  0  0  0  0  0  0
    0.3666   -1.7028   -0.6132 H   0  0  0  0  0  0  0  0  0  0  0  0
   -0.9123   -1.1503   -1.6869 H   0  0  0  0  0  0  0  0  0  0  0  0
    0.6429    0.2784   -1.3309 C   0  0  0  0  0  0  0  0  0  0  0  0
    0.4250    1.5970   -0.8836 C   0  0  0  0  0  0  0  0  0  0  0  0
   -0.4061    1.8150   -0.2257 H   0  0  0  0  0  0  0  0  0  0  0  0
    1.2914    2.6318   -1.2865 C   0  0  0  0  0  0  0  0  0  0  0  0
    1.1206    3.6406   -0.9433 H   0  0  0  0  0  0  0  0  0  0  0  0
    2.3818    2.3457   -2.1366 C   0  0  0  0  0  0  0  0  0  0  0  0
    3.2249    3.3361   -2.5284 O   0  0  0  0  0  0  0  0  0  0  0  0
    2.9266    4.1995   -2.2396 H   0  0  0  0  0  0  0  0  0  0  0  0
    2.6013    1.0248   -2.5792 C   0  0  0  0  0  0  0  0  0  0  0  0
    3.4359    0.8194   -3.2326 H   0  0  0  0  0  0  0  0  0  0  0  0
    1.7308   -0.0066   -2.1785 C   0  0  0  0  0  0  0  0  0  0  0  0
    1.8946   -1.0195   -2.5265 H   0  0  0  0  0  0  0  0  0  0  0  0
   -1.4018    1.0238    0.4329 C   0  0  0  0  0  0  0  0  0  0  0  0
   -2.2416    1.5423   -0.3033 O   0  0  0  0  0  0  0  0  0  0  0  0
   -0.6927    1.7304    1.3223 N   0  0  0  0  0  0  0  0  0  0  0  0
    0.0178    1.2410    1.8469 H   0  0  0  0  0  0  0  0  0  0  0  0
   -0.8259    3.1712    1.5254 C   0  0  0  0  0  0  0  0  0  0  0  0
   -1.8769    3.4302    1.6645 H   0  0  0  0  0  0  0  0  0  0  0  0
   -0.2598    3.4806    2.4054 H   0  0  0  0  0  0  0  0  0  0  0  0
   -0.4486    3.7020    0.6489 H   0  0  0  0  0  0  0  0  0  0  0  0
  5  6  2  0  0  0  0
  5  7  1  0  0  0  0
  2  3  1  0  0  0  0
  2  4  1  0  0  0  0
  2  5  1  0  0  0  0
  1  2  1  0  0  0  0
 26 27  2  0  0  0  0
 26 28  1  0  0  0  0
 24 25  1  0  0  0  0
 22 23  1  0  0  0  0
 22 24  2  0  0  0  0
 20 21  1  0  0  0  0
 19 20  1  0  0  0  0
 19 22  1  0  0  0  0
 17 18  1  0  0  0  0
 17 19  2  0  0  0  0
 15 16  1  0  0  0  0
 15 17  1  0  0  0  0
 14 15  2  0  0  0  0
 14 24  1  0  0  0  0
 11 12  1  0  0  0  0
 11 13  1  0  0  0  0
 11 14  1  0  0  0  0
  9 10  1  0  0  0  0
  9 11  1  0  0  0  0
  9 26  1  0  0  0  0
  7  8  1  0  0  0  0
  7  9  1  0  0  0  0
 30 31  1  0  0  0  0
 30 32  1  0  0  0  0
 30 33  1  0  0  0  0
 28 29  1  0  0  0  0
 28 30  1  0  0  0  0
M  END
$$$$
default_name
  -OEChem-02102213163D

 33 33  0     1  0  0  0  0  0999 V2000
   -4.0702   -3.8485    1.4554 H   0  0  0  0  0  0  0  0  0  0  0  0
   -4.0012   -2.9605    0.8284 C   0  0  0  0  0  0  0  0  0  0  0  0
   -4.7652   -2.2435    1.1234 H   0  0  0  0  0  0  0  0  0  0  0  0
   -4.1352   -3.2385   -0.2156 H   0  0  0  0  0  0  0  0  0  0  0  0
   -2.6362   -2.3395    1.0094 C   0  0  0  0  0  0  0  0  0  0  0  0
   -1.8292   -2.8395    1.7814 O   0  0  0  0  0  0  0  0  0  0  0  0
   -2.3832   -1.2445    0.2964 N   0  0  0  0  0  0  0  0  0  0  0  0
   -3.1102   -0.8685   -0.2946 H   0  0  0  0  0  0  0  0  0  0  0  0
   -1.1292   -0.4875    0.3524 C   0  0  1  0  0  0  0  0  0  0  0  0
   -0.5898   -0.7762    1.2552 H   0  0  0  0  0  0  0  0  0  0  0  0
   -0.2608   -0.8470   -0.8656 C   0  0  0  0  0  0  0  0  0  0  0  0
    0.3666   -1.7028   -0.6132 H   0  0  0  0  0  0  0  0  0  0  0  0
   -0.9123   -1.1503   -1.6869 H   0  0  0  0  0  0  0  0  0  0  0  0
    0.6429    0.2784   -1.3309 C   0  0  0  0  0  0  0  0  0  0  0  0
    0.6375    1.5184   -0.6610 C   0  0  0  0  0  0  0  0  0  0  0  0
   -0.0325    1.6800    0.1733 H   0  0  0  0  0  0  0  0  0  0  0  0
    1.5078    2.5468   -1.0717 C   0  0  0  0  0  0  0  0  0  0  0  0
    1.4998    3.4956   -0.5575 H   0  0  0  0  0  0  0  0  0  0  0  0
    2.3892    2.3327   -2.1537 C   0  0  0  0  0  0  0  0  0  0  0  0
    3.2345    3.3171   -2.5555 O   0  0  0  0  0  0  0  0  0  0  0  0
    3.0780    4.1398   -2.0900 H   0  0  0  0  0  0  0  0  0  0  0  0
    2.3968    1.0896   -2.8197 C   0  0  0  0  0  0  0  0  0  0  0  0
    3.0722    0.9395   -3.6485 H   0  0  0  0  0  0  0  0  0  0  0  0
    1.5224    0.0651   -2.4098 C   0  0  0  0  0  0  0  0  0  0  0  0
    1.5223   -0.8865   -2.9279 H   0  0  0  0  0  0  0  0  0  0  0  0
   -1.4018    1.0238    0.4329 C   0  0  0  0  0  0  0  0  0  0  0  0
   -2.2416    1.5423   -0.3033 O   0  0  0  0  0  0  0  0  0  0  0  0
   -0.6927    1.7304    1.3223 N   0  0  0  0  0  0  0  0  0  0  0  0
    0.0178    1.2410    1.8469 H   0  0  0  0  0  0  0  0  0  0  0  0
   -0.8259    3.1712    1.5254 C   0  0  0  0  0  0  0  0  0  0  0  0
   -1.8769    3.4302    1.6645 H   0  0  0  0  0  0  0  0  0  0  0  0
   -0.2598    3.4806    2.4054 H   0  0  0  0  0  0  0  0  0  0  0  0
   -0.4486    3.7020    0.6489 H   0  0  0  0  0  0  0  0  0  0  0  0
  5  6  2  0  0  0  0
  5  7  1  0  0  0  0
  2  3  1  0  0  0  0
  2  4  1  0  0  0  0
  2  5  1  0  0  0  0
  1  2  1  0  0  0  0
 26 27  2  0  0  0  0
 26 28  1  0  0  0  0
 24 25  1  0  0  0  0
 22 23  1  0  0  0  0
 22 24  2  0  0  0  0
 20 21  1  0  0  0  0
 19 20  1  0  0  0  0
 19 22  1  0  0  0  0
 17 18  1  0  0  0  0
 17 19  2  0  0  0  0
 15 16  1  0  0  0  0
 15 17  1  0  0  0  0
 14 15  2  0  0  0  0
 14 24  1  0  0  0  0
 11 12  1  0  0  0  0
 11 13  1  0  0  0  0
 11 14  1  0  0  0  0
  9 10  1  0  0  0  0
  9 11  1  0  0  0  0
  9 26  1  0  0  0  0
  7  8  1  0  0  0  0
  7  9  1  0  0  0  0
 30 31  1  0  0  0  0
 30 32  1  0  0  0  0
 30 33  1  0  0  0  0
 28 29  1  0  0  0  0
 28 30  1  0  0  0  0
M  END
$$$$
default_name
  -OEChem-02102213163D

 33 33  0     1  0  0  0  0  0999 V2000
   -4.0702   -3.8485    1.4554 H   0  0  0  0  0  0  0  0  0  0  0  0
   -4.0012   -2.9605    0.8284 C   0  0  0  0  0  0  0  0  0  0  0  0
   -4.7652   -2.2435    1.1234 H   0  0  0  0  0  0  0  0  0  0  0  0
   -4.1352   -3.2385   -0.2156 H   0  0  0  0  0  0  0  0  0  0  0  0
   -2.6362   -2.3395    1.0094 C   0  0  0  0  0  0  0  0  0  0  0  0
   -1.8292   -2.8395    1.7814 O   0  0  0  0  0  0  0  0  0  0  0  0
   -2.3832   -1.2445    0.2964 N   0  0  0  0  0  0  0  0  0  0  0  0
   -3.1102   -0.8685   -0.2946 H   0  0  0  0  0  0  0  0  0  0  0  0
   -1.1292   -0.4875    0.3524 C   0  0  1  0  0  0  0  0  0  0  0  0
   -0.5898   -0.7762    1.2552 H   0  0  0  0  0  0  0  0  0  0  0  0
   -0.2608   -0.8470   -0.8656 C   0  0  0  0  0  0  0  0  0  0  0  0
    0.3666   -1.7028   -0.6132 H   0  0  0  0  0  0  0  0  0  0  0  0
   -0.9123   -1.1503   -1.6869 H   0  0  0  0  0  0  0  0  0  0  0  0
    0.6429    0.2784   -1.3309 C   0  0  0  0  0  0  0  0  0  0  0  0
    0.8792    1.3912   -0.4990 C   0  0  0  0  0  0  0  0  0  0  0  0
    0.3943    1.4583    0.4661 H   0  0  0  0  0  0  0  0  0  0  0  0
    1.7513    2.4145   -0.9189 C   0  0  0  0  0  0  0  0  0  0  0  0
    1.9287    3.2659   -0.2800 H   0  0  0  0  0  0  0  0  0  0  0  0
    2.3920    2.3222   -2.1737 C   0  0  0  0  0  0  0  0  0  0  0  0
    3.2371    3.3023   -2.5865 O   0  0  0  0  0  0  0  0  0  0  0  0
    3.2483    4.0469   -1.9838 H   0  0  0  0  0  0  0  0  0  0  0  0
    2.1582    1.2055   -3.0027 C   0  0  0  0  0  0  0  0  0  0  0  0
    2.6506    1.1485   -3.9618 H   0  0  0  0  0  0  0  0  0  0  0  0
    1.2825    0.1866   -2.5822 C   0  0  0  0  0  0  0  0  0  0  0  0
    1.0961   -0.6665   -3.2236 H   0  0  0  0  0  0  0  0  0  0  0  0
   -1.4018    1.0238    0.4329 C   0  0  0  0  0  0  0  0  0  0  0  0
   -2.2416    1.5423   -0.3033 O   0  0  0  0  0  0  0  0  0  0  0  0
   -0.6927    1.7304    1.3223 N   0  0  0  0  0  0  0  0  0  0  0  0
    0.0178    1.2410    1.8469 H   0  0  0  0  0  0  0  0  0  0  0  0
   -0.8259    3.1712    1.5254 C   0  0  0  0  0  0  0  0  0  0  0  0
   -1.8769    3.4302    1.6645 H   0  0  0  0  0  0  0  0  0  0  0  0
   -0.2598    3.4806    2.4054 H   0  0  0  0  0  0  0  0  0  0  0  0
   -0.4486    3.7020    0.6489 H   0  0  0  0  0  0  0  0  0  0  0  0
  5  6  2  0  0  0  0
  5  7  1  0  0  0  0
  2  3  1  0  0  0  0
  2  4  1  0  0  0  0
  2  5  1  0  0  0  0
  1  2  1  0  0  0  0
 26 27  2  0  0  0  0
 26 28  1  0  0  0  0
 24 25  1  0  0  0  0
 22 23  1  0  0  0  0
 22 24  2  0  0  0  0
 20 21  1  0  0  0  0
 19 20  1  0  0  0  0
 19 22  1  0  0  0  0
 17 18  1  0  0  0  0
 17 19  2  0  0  0  0
 15 16  1  0  0  0  0
 15 17  1  0  0  0  0
 14 15  2  0  0  0  0
 14 24  1  0  0  0  0
 11 12  1  0  0  0  0
 11 13  1  0  0  0  0
 11 14  1  0  0  0  0
  9 10  1  0  0  0  0
  9 11  1  0  0  0  0
  9 26  1  0  0  0  0
  7  8  1  0  0  0  0
  7  9  1  0  0  0  0
 30 31  1  0  0  0  0
 30 32  1  0  0  0  0
 30 33  1  0  0  0  0
 28 29  1  0  0  0  0
 28 30  1  0  0  0  0
M  END
$$$$
default_name
  -OEChem-02102213163D

 33 33  0     1  0  0  0  0  0999 V2000
   -4.0702   -3.8485    1.4554 H   0  0  0  0  0  0  0  0  0  0  0  0
   -4.0012   -2.9605    0.8284 C   0  0  0  0  0  0  0  0  0  0  0  0
   -4.7652   -2.2435    1.1234 H   0  0  0  0  0  0  0  0  0  0  0  0
   -4.1352   -3.2385   -0.2156 H   0  0  0  0  0  0  0  0  0  0  0  0
   -2.6362   -2.3395    1.0094 C   0  0  0  0  0  0  0  0  0  0  0  0
   -1.8292   -2.8395    1.7814 O   0  0  0  0  0  0  0  0  0  0  0  0
   -2.3832   -1.2445    0.2964 N   0  0  0  0  0  0  0  0  0  0  0  0
   -3.1102   -0.8685   -0.2946 H   0  0  0  0  0  0  0  0  0  0  0  0
   -1.1292   -0.4875    0.3524 C   0  0  1  0  0  0  0  0  0  0  0  0
   -0.5898   -0.7762    1.2552 H   0  0  0  0  0  0  0  0  0  0  0  0
   -0.2608   -0.8470   -0.8656 C   0  0  0  0  0  0  0  0  0  0  0  0
    0.3666   -1.7028   -0.6132 H   0  0  0  0  0  0  0  0  0  0  0  0
   -0.9123   -1.1503   -1.6869 H   0  0  0  0  0  0  0  0  0  0  0  0
    0.6429    0.2784   -1.3309 C   0  0  0  0  0  0  0  0  0  0  0  0
    1.1338    1.2242   -0.4085 C   0  0  0  0  0  0  0  0  0  0  0  0
    0.8452    1.1651    0.6328 H   0  0  0  0  0  0  0  0  0  0  0  0
    2.0053    2.2437   -0.8385 C   0  0  0  0  0  0  0  0  0  0  0  0
    2.3780    2.9672   -0.1298 H   0  0  0  0  0  0  0  0  0  0  0  0
    2.3901    2.3149   -2.1951 C   0  0  0  0  0  0  0  0  0  0  0  0
    3.2325    3.2924   -2.6192 O   0  0  0  0  0  0  0  0  0  0  0  0
    3.4258    3.9274   -1.9282 H   0  0  0  0  0  0  0  0  0  0  0  0
    1.9018    1.3646   -3.1158 C   0  0  0  0  0  0  0  0  0  0  0  0
    2.1998    1.4322   -4.1513 H   0  0  0  0  0  0  0  0  0  0  0  0
    1.0272    0.3496   -2.6838 C   0  0  0  0  0  0  0  0  0  0  0  0
    0.6452   -0.3746   -3.3935 H   0  0  0  0  0  0  0  0  0  0  0  0
   -1.4018    1.0238    0.4329 C   0  0  0  0  0  0  0  0  0  0  0  0
   -2.2416    1.5423   -0.3033 O   0  0  0  0  0  0  0  0  0  0  0  0
   -0.6927    1.7304    1.3223 N   0  0  0  0  0  0  0  0  0  0  0  0
    0.0178    1.2410    1.8469 H   0  0  0  0  0  0  0  0  0  0  0  0
   -0.8259    3.1712    1.5254 C   0  0  0  0  0  0  0  0  0  0  0  0
   -1.8769    3.4302    1.6645 H   0  0  0  0  0  0  0  0  0  0  0  0
   -0.2598    3.4806    2.4054 H   0  0  0  0  0  0  0  0  0  0  0  0
   -0.4486    3.7020    0.6489 H   0  0  0  0  0  0  0  0  0  0  0  0
  5  6  2  0  0  0  0
  5  7  1  0  0  0  0
  2  3  1  0  0  0  0
  2  4  1  0  0  0  0
  2  5  1  0  0  0  0
  1  2  1  0  0  0  0
 26 27  2  0  0  0  0
 26 28  1  0  0  0  0
 24 25  1  0  0  0  0
 22 23  1  0  0  0  0
 22 24  2  0  0  0  0
 20 21  1  0  0  0  0
 19 20  1  0  0  0  0
 19 22  1  0  0  0  0
 17 18  1  0  0  0  0
 17 19  2  0  0  0  0
 15 16  1  0  0  0  0
 15 17  1  0  0  0  0
 14 15  2  0  0  0  0
 14 24  1  0  0  0  0
 11 12  1  0  0  0  0
 11 13  1  0  0  0  0
 11 14  1  0  0  0  0
  9 10  1  0  0  0  0
  9 11  1  0  0  0  0
  9 26  1  0  0  0  0
  7  8  1  0  0  0  0
  7  9  1  0  0  0  0
 30 31  1  0  0  0  0
 30 32  1  0  0  0  0
 30 33  1  0  0  0  0
 28 29  1  0  0  0  0
 28 30  1  0  0  0  0
M  END
$$$$
default_name
  -OEChem-02102213163D

 33 33  0     1  0  0  0  0  0999 V2000
   -4.0702   -3.8485    1.4554 H   0  0  0  0  0  0  0  0  0  0  0  0
   -4.0012   -2.9605    0.8284 C   0  0  0  0  0  0  0  0  0  0  0  0
   -4.7652   -2.2435    1.1234 H   0  0  0  0  0  0  0  0  0  0  0  0
   -4.1352   -3.2385   -0.2156 H   0  0  0  0  0  0  0  0  0  0  0  0
   -2.6362   -2.3395    1.0094 C   0  0  0  0  0  0  0  0  0  0  0  0
   -1.8292   -2.8395    1.7814 O   0  0  0  0  0  0  0  0  0  0  0  0
   -2.3832   -1.2445    0.2964 N   0  0  0  0  0  0  0  0  0  0  0  0
   -3.1102   -0.8685   -0.2946 H   0  0  0  0  0  0  0  0  0  0  0  0
   -1.1292   -0.4875    0.3524 C   0  0  1  0  0  0  0  0  0  0  0  0
   -0.5898   -0.7762    1.2552 H   0  0  0  0  0  0  0  0  0  0  0  0
   -0.2608   -0.8470   -0.8656 C   0  0  0  0  0  0  0  0  0  0  0  0
    0.3666   -1.7028   -0.6132 H   0  0  0  0  0  0  0  0  0  0  0  0
   -0.9123   -1.1503   -1.6869 H   0  0  0  0  0  0  0  0  0  0  0  0
    0.6429    0.2784   -1.3309 C   0  0  0  0  0  0  0  0  0  0  0  0
    1.3837    1.0287   -0.3958 C   0  0  0  0  0  0  0  0  0  0  0  0
    1.2894    0.8204    0.6620 H   0  0  0  0  0  0  0  0  0  0  0  0
    2.2526    2.0462   -0.8360 C   0  0  0  0  0  0  0  0  0  0  0  0
    2.8171    2.6198   -0.1170 H   0  0  0  0  0  0  0  0  0  0  0  0
    2.3835    2.3113   -2.2166 C   0  0  0  0  0  0  0  0  0  0  0  0
    3.2209    3.2884   -2.6514 O   0  0  0  0  0  0  0  0  0  0  0  0
    3.5984    3.7892   -1.9271 H   0  0  0  0  0  0  0  0  0  0  0  0
    1.6451    1.5562   -3.1512 C   0  0  0  0  0  0  0  0  0  0  0  0
    1.7505    1.7713   -4.2039 H   0  0  0  0  0  0  0  0  0  0  0  0
    0.7741    0.5429   -2.7078 C   0  0  0  0  0  0  0  0  0  0  0  0
    0.2001   -0.0306   -3.4259 H   0  0  0  0  0  0  0  0  0  0  0  0
   -1.4018    1.0238    0.4329 C   0  0  0  0  0  0  0  0  0  0  0  0
   -2.2416    1.5423   -0.3033 O   0  0  0  0  0  0  0  0  0  0  0  0
   -0.6927    1.7304    1.3223 N   0  0  0  0  0  0  0  0  0  0  0  0
    0.0178    1.2410    1.8469 H   0  0  0  0  0  0  0  0  0  0  0  0
   -0.8259    3.1712    1.5254 C   0  0  0  0  0  0  0  0  0  0  0  0
   -1.8769    3.4302    1.6645 H   0  0  0  0  0  0  0  0  0  0  0  0
   -0.2598    3.4806    2.4054 H   0  0  0  0  0  0  0  0  0  0  0  0
   -0.4486    3.7020    0.6489 H   0  0  0  0  0  0  0  0  0  0  0  0
  5  6  2  0  0  0  0
  5  7  1  0  0  0  0
  2  3  1  0  0  0  0
  2  4  1  0  0  0  0
  2  5  1  0  0  0  0
  1  2  1  0  0  0  0
 26 27  2  0  0  0  0
 26 28  1  0  0  0  0
 24 25  1  0  0  0  0
 22 23  1  0  0  0  0
 22 24  2  0  0  0  0
 20 21  1  0  0  0  0
 19 20  1  0  0  0  0
 19 22  1  0  0  0  0
 17 18  1  0  0  0  0
 17 19  2  0  0  0  0
 15 16  1  0  0  0  0
 15 17  1  0  0  0  0
 14 15  2  0  0  0  0
 14 24  1  0  0  0  0
 11 12  1  0  0  0  0
 11 13  1  0  0  0  0
 11 14  1  0  0  0  0
  9 10  1  0  0  0  0
  9 11  1  0  0  0  0
  9 26  1  0  0  0  0
  7  8  1  0  0  0  0
  7  9  1  0  0  0  0
 30 31  1  0  0  0  0
 30 32  1  0  0  0  0
 30 33  1  0  0  0  0
 28 29  1  0  0  0  0
 28 30  1  0  0  0  0
M  END
$$$$
default_name
  -OEChem-02102213163D

 33 33  0     1  0  0  0  0  0999 V2000
   -4.0702   -3.8485    1.4554 H   0  0  0  0  0  0  0  0  0  0  0  0
   -4.0012   -2.9605    0.8284 C   0  0  0  0  0  0  0  0  0  0  0  0
   -4.7652   -2.2435    1.1234 H   0  0  0  0  0  0  0  0  0  0  0  0
   -4.1352   -3.2385   -0.2156 H   0  0  0  0  0  0  0  0  0  0  0  0
   -2.6362   -2.3395    1.0094 C   0  0  0  0  0  0  0  0  0  0  0  0
   -1.8292   -2.8395    1.7814 O   0  0  0  0  0  0  0  0  0  0  0  0
   -2.3832   -1.2445    0.2964 N   0  0  0  0  0  0  0  0  0  0  0  0
   -3.1102   -0.8685   -0.2946 H   0  0  0  0  0  0  0  0  0  0  0  0
   -1.1292   -0.4875    0.3524 C   0  0  1  0  0  0  0  0  0  0  0  0
   -0.5898   -0.7762    1.2552 H   0  0  0  0  0  0  0  0  0  0  0  0
   -0.2608   -0.8470   -0.8656 C   0  0  0  0  0  0  0  0  0  0  0  0
    0.3666   -1.7028   -0.6132 H   0  0  0  0  0  0  0  0  0  0  0  0
   -0.9123   -1.1503   -1.6869 H   0  0  0  0  0  0  0  0  0  0  0  0
    0.6429    0.2784   -1.3309 C   0  0  0  0  0  0  0  0  0  0  0  0
    1.6121    0.8181   -0.4616 C   0  0  0  0  0  0  0  0  0  0  0  0
    1.6968    0.4477    0.5516 H   0  0  0  0  0  0  0  0  0  0  0  0
    2.4762    1.8354   -0.9115 C   0  0  0  0  0  0  0  0  0  0  0  0
    3.2161    2.2474   -0.2427 H   0  0  0  0  0  0  0  0  0  0  0  0
    2.3727    2.3117   -2.2366 C   0  0  0  0  0  0  0  0  0  0  0  0
    3.2033    3.2904   -2.6809 O   0  0  0  0  0  0  0  0  0  0  0  0
    3.7543    3.6419   -1.9804 H   0  0  0  0  0  0  0  0  0  0  0  0
    1.4055    1.7670   -3.1066 C   0  0  0  0  0  0  0  0  0  0  0  0
    1.3333    2.1426   -4.1162 H   0  0  0  0  0  0  0  0  0  0  0  0
    0.5403    0.7535   -2.6526 C   0  0  0  0  0  0  0  0  0  0  0  0
   -0.2087    0.3420   -3.3187 H   0  0  0  0  0  0  0  0  0  0  0  0
   -1.4018    1.0238    0.4329 C   0  0  0  0  0  0  0  0  0  0  0  0
   -2.2416    1.5423   -0.3033 O   0  0  0  0  0  0  0  0  0  0  0  0
   -0.6927    1.7304    1.3223 N   0  0  0  0  0  0  0  0  0  0  0  0
    0.0178    1.2410    1.8469 H   0  0  0  0  0  0  0  0  0  0  0  0
   -0.8259    3.1712    1.5254 C   0  0  0  0  0  0  0  0  0  0  0  0
   -1.8769    3.4302    1.6645 H   0  0  0  0  0  0  0  0  0  0  0  0
   -0.2598    3.4806    2.4054 H   0  0  0  0  0  0  0  0  0  0  0  0
   -0.4486    3.7020    0.6489 H   0  0  0  0  0  0  0  0  0  0  0  0
  5  6  2  0  0  0  0
  5  7  1  0  0  0  0
  2  3  1  0  0  0  0
  2  4  1  0  0  0  0
  2  5  1  0  0  0  0
  1  2  1  0  0  0  0
 26 27  2  0  0  0  0
 26 28  1  0  0  0  0
 24 25  1  0  0  0  0
 22 23  1  0  0  0  0
 22 24  2  0  0  0  0
 20 21  1  0  0  0  0
 19 20  1  0  0  0  0
 19 22  1  0  0  0  0
 17 18  1  0  0  0  0
 17 19  2  0  0  0  0
 15 16  1  0  0  0  0
 15 17  1  0  0  0  0
 14 15  2  0  0  0  0
 14 24  1  0  0  0  0
 11 12  1  0  0  0  0
 11 13  1  0  0  0  0
 11 14  1  0  0  0  0
  9 10  1  0  0  0  0
  9 11  1  0  0  0  0
  9 26  1  0  0  0  0
  7  8  1  0  0  0  0
  7  9  1  0  0  0  0
 30 31  1  0  0  0  0
 30 32  1  0  0  0  0
 30 33  1  0  0  0  0
 28 29  1  0  0  0  0
 28 30  1  0  0  0  0
M  END
$$$$
default_name
  -OEChem-02102213163D

 33 33  0     1  0  0  0  0  0999 V2000
   -4.0702   -3.8485    1.4554 H   0  0  0  0  0  0  0  0  0  0  0  0
   -4.0012   -2.9605    0.8284 C   0  0  0  0  0  0  0  0  0  0  0  0
   -4.7652   -2.2435    1.1234 H   0  0  0  0  0  0  0  0  0  0  0  0
   -4.1352   -3.2385   -0.2156 H   0  0  0  0  0  0  0  0  0  0  0  0
   -2.6362   -2.3395    1.0094 C   0  0  0  0  0  0  0  0  0  0  0  0
   -1.8292   -2.8395    1.7814 O   0  0  0  0  0  0  0  0  0  0  0  0
   -2.3832   -1.2445    0.2964 N   0  0  0  0  0  0  0  0  0  0  0  0
   -3.1102   -0.8685   -0.2946 H   0  0  0  0  0  0  0  0  0  0  0  0
   -1.1292   -0.4875    0.3524 C   0  0  1  0  0  0  0  0  0  0  0  0
   -0.5898   -0.7762    1.2552 H   0  0  0  0  0  0  0  0  0  0  0  0
   -0.2608   -0.8470   -0.8656 C   0  0  0  0  0  0  0  0  0  0  0  0
    0.3666   -1.7028   -0.6132 H   0  0  0  0  0  0  0  0  0  0  0  0
   -0.9123   -1.1503   -1.6869 H   0  0  0  0  0  0  0  0  0  0  0  0
    0.6429    0.2784   -1.3309 C   0  0  0  0  0  0  0  0  0  0  0  0
    1.8034    0.6066   -0.6016 C   0  0  0  0  0  0  0  0  0  0  0  0
    2.0394    0.0723    0.3094 H   0  0  0  0  0  0  0  0  0  0  0  0
    2.6610    1.6256   -1.0599 C   0  0  0  0  0  0  0  0  0  0  0  0
    3.5479    1.8754   -0.4981 H   0  0  0  0  0  0  0  0  0  0  0  0
    2.3585    2.3160   -2.2538 C   0  0  0  0  0  0  0  0  0  0  0  0
    3.1807    3.2982   -2.7058 O   0  0  0  0  0  0  0  0  0  0  0  0
    3.8831    3.4954   -2.0847 H   0  0  0  0  0  0  0  0  0  0  0  0
    1.1994    1.9828   -2.9849 C   0  0  0  0  0  0  0  0  0  0  0  0
    0.9766    2.5209   -3.8940 H   0  0  0  0  0  0  0  0  0  0  0  0
    0.3418    0.9670   -2.5218 C   0  0  0  0  0  0  0  0  0  0  0  0
   -0.5534    0.7179   -3.0791 H   0  0  0  0  0  0  0  0  0  0  0  0
   -1.4018    1.0238    0.4329 C   0  0  0  0  0  0  0  0  0  0  0  0
   -2.2416    1.5423   -0.3033 O   0  0  0  0  0  0  0  0  0  0  0  0
   -0.6927    1.7304    1.3223 N   0  0  0  0  0  0  0  0  0  0  0  0
    0.0178    1.2410    1.8469 H   0  0  0  0  0  0  0  0  0  0  0  0
   -0.8259    3.1712    1.5254 C   0  0  0  0  0  0  0  0  0  0  0  0
   -1.8769    3.4302    1.6645 H   0  0  0  0  0  0  0  0  0  0  0  0
   -0.2598    3.4806    2.4054 H   0  0  0  0  0  0  0  0  0  0  0  0
   -0.4486    3.7020    0.6489 H   0  0  0  0  0  0  0  0  0  0  0  0
  5  6  2  0  0  0  0
  5  7  1  0  0  0  0
  2  3  1  0  0  0  0
  2  4  1  0  0  0  0
  2  5  1  0  0  0  0
  1  2  1  0  0  0  0
 26 27  2  0  0  0  0
 26 28  1  0  0  0  0
 24 25  1  0  0  0  0
 22 23  1  0  0  0  0
 22 24  2  0  0  0  0
 20 21  1  0  0  0  0
 19 20  1  0  0  0  0
 19 22  1  0  0  0  0
 17 18  1  0  0  0  0
 17 19  2  0  0  0  0
 15 16  1  0  0  0  0
 15 17  1  0  0  0  0
 14 15  2  0  0  0  0
 14 24  1  0  0  0  0
 11 12  1  0  0  0  0
 11 13  1  0  0  0  0
 11 14  1  0  0  0  0
  9 10  1  0  0  0  0
  9 11  1  0  0  0  0
  9 26  1  0  0  0  0
  7  8  1  0  0  0  0
  7  9  1  0  0  0  0
 30 31  1  0  0  0  0
 30 32  1  0  0  0  0
 30 33  1  0  0  0  0
 28 29  1  0  0  0  0
 28 30  1  0  0  0  0
M  END
$$$$
default_name
  -OEChem-02102213163D

 33 33  0     1  0  0  0  0  0999 V2000
   -4.0702   -3.8485    1.4554 H   0  0  0  0  0  0  0  0  0  0  0  0
   -4.0012   -2.9605    0.8284 C   0  0  0  0  0  0  0  0  0  0  0  0
   -4.7652   -2.2435    1.1234 H   0  0  0  0  0  0  0  0  0  0  0  0
   -4.1352   -3.2385   -0.2156 H   0  0  0  0  0  0  0  0  0  0  0  0
   -2.6362   -2.3395    1.0094 C   0  0  0  0  0  0  0  0  0  0  0  0
   -1.8292   -2.8395    1.7814 O   0  0  0  0  0  0  0  0  0  0  0  0
   -2.3832   -1.2445    0.2964 N   0  0  0  0  0  0  0  0  0  0  0  0
   -3.1102   -0.8685   -0.2946 H   0  0  0  0  0  0  0  0  0  0  0  0
   -1.1292   -0.4875    0.3524 C   0  0  1  0  0  0  0  0  0  0  0  0
   -0.5898   -0.7762    1.2552 H   0  0  0  0  0  0  0  0  0  0  0  0
   -0.2608   -0.8470   -0.8656 C   0  0  0  0  0  0  0  0  0  0  0  0
    0.3666   -1.7028   -0.6132 H   0  0  0  0  0  0  0  0  0  0  0  0
   -0.9123   -1.1503   -1.6869 H   0  0  0  0  0  0  0  0  0  0  0  0
    0.6429    0.2784   -1.3309 C   0  0  0  0  0  0  0  0  0  0  0  0
    1.9444    0.4088   -0.8061 C   0  0  0  0  0  0  0  0  0  0  0  0
    2.2941   -0.2801   -0.0484 H   0  0  0  0  0  0  0  0  0  0  0  0
    2.7943    1.4313   -1.2711 C   0  0  0  0  0  0  0  0  0  0  0  0
    3.7897    1.5291   -0.8659 H   0  0  0  0  0  0  0  0  0  0  0  0
    2.3418    2.3239   -2.2671 C   0  0  0  0  0  0  0  0  0  0  0  0
    3.1548    3.3114   -2.7242 O   0  0  0  0  0  0  0  0  0  0  0  0
    3.9757    3.3598   -2.2327 H   0  0  0  0  0  0  0  0  0  0  0  0
    1.0409    2.1889   -2.7946 C   0  0  0  0  0  0  0  0  0  0  0  0
    0.7049    2.8803   -3.5526 H   0  0  0  0  0  0  0  0  0  0  0  0
    0.1922    1.1687   -2.3245 C   0  0  0  0  0  0  0  0  0  0  0  0
   -0.8105    1.0714   -2.7236 H   0  0  0  0  0  0  0  0  0  0  0  0
   -1.4018    1.0238    0.4329 C   0  0  0  0  0  0  0  0  0  0  0  0
   -2.2416    1.5423   -0.3033 O   0  0  0  0  0  0  0  0  0  0  0  0
   -0.6927    1.7304    1.3223 N   0  0  0  0  0  0  0  0  0  0  0  0
    0.0178    1.2410    1.8469 H   0  0  0  0  0  0  0  0  0  0  0  0
   -0.8259    3.1712    1.5254 C   0  0  0  0  0  0  0  0  0  0  0  0
   -1.8769    3.4302    1.6645 H   0  0  0  0  0  0  0  0  0  0  0  0
   -0.2598    3.4806    2.4054 H   0  0  0  0  0  0  0  0  0  0  0  0
   -0.4486    3.7020    0.6489 H   0  0  0  0  0  0  0  0  0  0  0  0
  5  6  2  0  0  0  0
  5  7  1  0  0  0  0
  2  3  1  0  0  0  0
  2  4  1  0  0  0  0
  2  5  1  0  0  0  0
  1  2  1  0  0  0  0
 26 27  2  0  0  0  0
 26 28  1  0  0  0  0
 24 25  1  0  0  0  0
 22 23  1  0  0  0  0
 22 24  2  0  0  0  0
 20 21  1  0  0  0  0
 19 20  1  0  0  0  0
 19 22  1  0  0  0  0
 17 18  1  0  0  0  0
 17 19  2  0  0  0  0
 15 16  1  0  0  0  0
 15 17  1  0  0  0  0
 14 15  2  0  0  0  0
 14 24  1  0  0  0  0
 11 12  1  0  0  0  0
 11 13  1  0  0  0  0
 11 14  1  0  0  0  0
  9 10  1  0  0  0  0
  9 11  1  0  0  0  0
  9 26  1  0  0  0  0
  7  8  1  0  0  0  0
  7  9  1  0  0  0  0
 30 31  1  0  0  0  0
 30 32  1  0  0  0  0
 30 33  1  0  0  0  0
 28 29  1  0  0  0  0
 28 30  1  0  0  0  0
M  END
$$$$
default_name
  -OEChem-02102213163D

 33 33  0     1  0  0  0  0  0999 V2000
   -4.0702   -3.8485    1.4554 H   0  0  0  0  0  0  0  0  0  0  0  0
   -4.0012   -2.9605    0.8284 C   0  0  0  0  0  0  0  0  0  0  0  0
   -4.7652   -2.2435    1.1234 H   0  0  0  0  0  0  0  0  0  0  0  0
   -4.1352   -3.2385   -0.2156 H   0  0  0  0  0  0  0  0  0  0  0  0
   -2.6362   -2.3395    1.0094 C   0  0  0  0  0  0  0  0  0  0  0  0
   -1.8292   -2.8395    1.7814 O   0  0  0  0  0  0  0  0  0  0  0  0
   -2.3832   -1.2445    0.2964 N   0  0  0  0  0  0  0  0  0  0  0  0
   -3.1102   -0.8685   -0.2946 H   0  0  0  0  0  0  0  0  0  0  0  0
   -1.1292   -0.4875    0.3524 C   0  0  1  0  0  0  0  0  0  0  0  0
   -0.5898   -0.7762    1.2552 H   0  0  0  0  0  0  0  0  0  0  0  0
   -0.2608   -0.8470   -0.8656 C   0  0  0  0  0  0  0  0  0  0  0  0
    0.3666   -1.7028   -0.6132 H   0  0  0  0  0  0  0  0  0  0  0  0
   -0.9123   -1.1503   -1.6869 H   0  0  0  0  0  0  0  0  0  0  0  0
    0.6429    0.2784   -1.3309 C   0  0  0  0  0  0  0  0  0  0  0  0
    2.0257    0.2380   -1.0613 C   0  0  0  0  0  0  0  0  0  0  0  0
    2.4434   -0.5856   -0.4972 H   0  0  0  0  0  0  0  0  0  0  0  0
    2.8671    1.2655   -1.5306 C   0  0  0  0  0  0  0  0  0  0  0  0
    3.9251    1.2322   -1.3210 H   0  0  0  0  0  0  0  0  0  0  0  0
    2.3238    2.3349   -2.2754 C   0  0  0  0  0  0  0  0  0  0  0  0
    3.1272    3.3291   -2.7350 O   0  0  0  0  0  0  0  0  0  0  0  0
    4.0261    3.2443   -2.4143 H   0  0  0  0  0  0  0  0  0  0  0  0
    0.9406    2.3712   -2.5484 C   0  0  0  0  0  0  0  0  0  0  0  0
    0.5365    3.1964   -3.1152 H   0  0  0  0  0  0  0  0  0  0  0  0
    0.1015    1.3451   -2.0740 C   0  0  0  0  0  0  0  0  0  0  0  0
   -0.9624    1.3784   -2.2762 H   0  0  0  0  0  0  0  0  0  0  0  0
   -1.4018    1.0238    0.4329 C   0  0  0  0  0  0  0  0  0  0  0  0
   -2.2416    1.5423   -0.3033 O   0  0  0  0  0  0  0  0  0  0  0  0
   -0.6927    1.7304    1.3223 N   0  0  0  0  0  0  0  0  0  0  0  0
    0.0178    1.2410    1.8469 H   0  0  0  0  0  0  0  0  0  0  0  0
   -0.8259    3.1712    1.5254 C   0  0  0  0  0  0  0  0  0  0  0  0
   -1.8769    3.4302    1.6645 H   0  0  0  0  0  0  0  0  0  0  0  0
   -0.2598    3.4806    2.4054 H   0  0  0  0  0  0  0  0  0  0  0  0
   -0.4486    3.7020    0.6489 H   0  0  0  0  0  0  0  0  0  0  0  0
  5  6  2  0  0  0  0
  5  7  1  0  0  0  0
  2  3  1  0  0  0  0
  2  4  1  0  0  0  0
  2  5  1  0  0  0  0
  1  2  1  0  0  0  0
 26 27  2  0  0  0  0
 26 28  1  0  0  0  0
 24 25  1  0  0  0  0
 22 23  1  0  0  0  0
 22 24  2  0  0  0  0
 20 21  1  0  0  0  0
 19 20  1  0  0  0  0
 19 22  1  0  0  0  0
 17 18  1  0  0  0  0
 17 19  2  0  0  0  0
 15 16  1  0  0  0  0
 15 17  1  0  0  0  0
 14 15  2  0  0  0  0
 14 24  1  0  0  0  0
 11 12  1  0  0  0  0
 11 13  1  0  0  0  0
 11 14  1  0  0  0  0
  9 10  1  0  0  0  0
  9 11  1  0  0  0  0
  9 26  1  0  0  0  0
  7  8  1  0  0  0  0
  7  9  1  0  0  0  0
 30 31  1  0  0  0  0
 30 32  1  0  0  0  0
 30 33  1  0  0  0  0
 28 29  1  0  0  0  0
 28 30  1  0  0  0  0
M  END
$$$$
default_name
  -OEChem-02102213163D

 33 33  0     1  0  0  0  0  0999 V2000
   -4.0702   -3.8485    1.4554 H   0  0  0  0  0  0  0  0  0  0  0  0
   -4.0012   -2.9605    0.8284 C   0  0  0  0  0  0  0  0  0  0  0  0
   -4.7652   -2.2435    1.1234 H   0  0  0  0  0  0  0  0  0  0  0  0
   -4.1352   -3.2385   -0.2156 H   0  0  0  0  0  0  0  0  0  0  0  0
   -2.6362   -2.3395    1.0094 C   0  0  0  0  0  0  0  0  0  0  0  0
   -1.8292   -2.8395    1.7814 O   0  0  0  0  0  0  0  0  0  0  0  0
   -2.3832   -1.2445    0.2964 N   0  0  0  0  0  0  0  0  0  0  0  0
   -3.1102   -0.8685   -0.2946 H   0  0  0  0  0  0  0  0  0  0  0  0
   -1.1292   -0.4875    0.3524 C   0  0  1  0  0  0  0  0  0  0  0  0
   -0.5898   -0.7762    1.2552 H   0  0  0  0  0  0  0  0  0  0  0  0
   -0.2608   -0.8470   -0.8656 C   0  0  0  0  0  0  0  0  0  0  0  0
    0.3666   -1.7028   -0.6132 H   0  0  0  0  0  0  0  0  0  0  0  0
   -0.9123   -1.1503   -1.6869 H   0  0  0  0  0  0  0  0  0  0  0  0
    0.6429    0.2784   -1.3309 C   0  0  0  0  0  0  0  0  0  0  0  0
    2.0416    0.1060   -1.3497 C   0  0  0  0  0  0  0  0  0  0  0  0
    2.4771   -0.8233   -1.0065 H   0  0  0  0  0  0  0  0  0  0  0  0
    2.8743    1.1396   -1.8209 C   0  0  0  0  0  0  0  0  0  0  0  0
    3.9450    1.0048   -1.8325 H   0  0  0  0  0  0  0  0  0  0  0  0
    2.3056    2.3483   -2.2783 C   0  0  0  0  0  0  0  0  0  0  0  0
    3.0999    3.3500   -2.7374 O   0  0  0  0  0  0  0  0  0  0  0  0
    4.0306    3.1567   -2.6173 H   0  0  0  0  0  0  0  0  0  0  0  0
    0.9055    2.5172   -2.2633 C   0  0  0  0  0  0  0  0  0  0  0  0
    0.4829    3.4476   -2.6115 H   0  0  0  0  0  0  0  0  0  0  0  0
    0.0761    1.4840   -1.7875 C   0  0  0  0  0  0  0  0  0  0  0  0
   -0.9989    1.6180   -1.7676 H   0  0  0  0  0  0  0  0  0  0  0  0
   -1.4018    1.0238    0.4329 C   0  0  0  0  0  0  0  0  0  0  0  0
   -2.2416    1.5423   -0.3033 O   0  0  0  0  0  0  0  0  0  0  0  0
   -0.6927    1.7304    1.3223 N   0  0  0  0  0  0  0  0  0  0  0  0
    0.0178    1.2410    1.8469 H   0  0  0  0  0  0  0  0  0  0  0  0
   -0.8259    3.1712    1.5254 C   0  0  0  0  0  0  0  0  0  0  0  0
   -1.8769    3.4302    1.6645 H   0  0  0  0  0  0  0  0  0  0  0  0
   -0.2598    3.4806    2.4054 H   0  0  0  0  0  0  0  0  0  0  0  0
   -0.4486    3.7020    0.6489 H   0  0  0  0  0  0  0  0  0  0  0  0
  5  6  2  0  0  0  0
  5  7  1  0  0  0  0
  2  3  1  0  0  0  0
  2  4  1  0  0  0  0
  2  5  1  0  0  0  0
  1  2  1  0  0  0  0
 26 27  2  0  0  0  0
 26 28  1  0  0  0  0
 24 25  1  0  0  0  0
 22 23  1  0  0  0  0
 22 24  2  0  0  0  0
 20 21  1  0  0  0  0
 19 20  1  0  0  0  0
 19 22  1  0  0  0  0
 17 18  1  0  0  0  0
 17 19  2  0  0  0  0
 15 16  1  0  0  0  0
 15 17  1  0  0  0  0
 14 15  2  0  0  0  0
 14 24  1  0  0  0  0
 11 12  1  0  0  0  0
 11 13  1  0  0  0  0
 11 14  1  0  0  0  0
  9 10  1  0  0  0  0
  9 11  1  0  0  0  0
  9 26  1  0  0  0  0
  7  8  1  0  0  0  0
  7  9  1  0  0  0  0
 30 31  1  0  0  0  0
 30 32  1  0  0  0  0
 30 33  1  0  0  0  0
 28 29  1  0  0  0  0
 28 30  1  0  0  0  0
M  END
$$$$
default_name
  -OEChem-02102213163D

 33 33  0     1  0  0  0  0  0999 V2000
   -4.0702   -3.8485    1.4554 H   0  0  0  0  0  0  0  0  0  0  0  0
   -4.0012   -2.9605    0.8284 C   0  0  0  0  0  0  0  0  0  0  0  0
   -4.7652   -2.2435    1.1234 H   0  0  0  0  0  0  0  0  0  0  0  0
   -4.1352   -3.2385   -0.2156 H   0  0  0  0  0  0  0  0  0  0  0  0
   -2.6362   -2.3395    1.0094 C   0  0  0  0  0  0  0  0  0  0  0  0
   -1.8292   -2.8395    1.7814 O   0  0  0  0  0  0  0  0  0  0  0  0
   -2.3832   -1.2445    0.2964 N   0  0  0  0  0  0  0  0  0  0  0  0
   -3.1102   -0.8685   -0.2946 H   0  0  0  0  0  0  0  0  0  0  0  0
   -1.1292   -0.4875    0.3524 C   0  0  1  0  0  0  0  0  0  0  0  0
   -0.5898   -0.7762    1.2552 H   0  0  0  0  0  0  0  0  0  0  0  0
   -0.2608   -0.8470   -0.8656 C   0  0  0  0  0  0  0  0  0  0  0  0
    0.3666   -1.7028   -0.6132 H   0  0  0  0  0  0  0  0  0  0  0  0
   -0.9123   -1.1503   -1.6869 H   0  0  0  0  0  0  0  0  0  0  0  0
    0.6429    0.2784   -1.3309 C   0  0  0  0  0  0  0  0  0  0  0  0
    1.9910    0.0217   -1.6517 C   0  0  0  0  0  0  0  0  0  0  0  0
    2.3930   -0.9770   -1.5416 H   0  0  0  0  0  0  0  0  0  0  0  0
    2.8156    1.0622   -2.1221 C   0  0  0  0  0  0  0  0  0  0  0  0
    3.8478    0.8625   -2.3654 H   0  0  0  0  0  0  0  0  0  0  0  0
    2.2886    2.3631   -2.2755 C   0  0  0  0  0  0  0  0  0  0  0  0
    3.0748    3.3728   -2.7312 O   0  0  0  0  0  0  0  0  0  0  0  0
    3.9891    3.1031   -2.8277 H   0  0  0  0  0  0  0  0  0  0  0  0
    0.9380    2.6171   -1.9587 C   0  0  0  0  0  0  0  0  0  0  0  0
    0.5479    3.6169   -2.0760 H   0  0  0  0  0  0  0  0  0  0  0  0
    0.1176    1.5760   -1.4844 C   0  0  0  0  0  0  0  0  0  0  0  0
   -0.9174    1.7739   -1.2323 H   0  0  0  0  0  0  0  0  0  0  0  0
   -1.4018    1.0238    0.4329 C   0  0  0  0  0  0  0  0  0  0  0  0
   -2.2416    1.5423   -0.3033 O   0  0  0  0  0  0  0  0  0  0  0  0
   -0.6927    1.7304    1.3223 N   0  0  0  0  0  0  0  0  0  0  0  0
    0.0178    1.2410    1.8469 H   0  0  0  0  0  0  0  0  0  0  0  0
   -0.8259    3.1712    1.5254 C   0  0  0  0  0  0  0  0  0  0  0  0
   -1.8769    3.4302    1.6645 H   0  0  0  0  0  0  0  0  0  0  0  0
   -0.2598    3.4806    2.4054 H   0  0  0  0  0  0  0  0  0  0  0  0
   -0.4486    3.7020    0.6489 H   0  0  0  0  0  0  0  0  0  0  0  0
  5  6  2  0  0  0  0
  5  7  1  0  0  0  0
  2  3  1  0  0  0  0
  2  4  1  0  0  0  0
  2  5  1  0  0  0  0
  1  2  1  0  0  0  0
 26 27  2  0  0  0  0
 26 28  1  0  0  0  0
 24 25  1  0  0  0  0
 22 23  1  0  0  0  0
 22 24  2  0  0  0  0
 20 21  1  0  0  0  0
 19 20  1  0  0  0  0
 19 22  1  0  0  0  0
 17 18  1  0  0  0  0
 17 19  2  0  0  0  0
 15 16  1  0  0  0  0
 15 17  1  0  0  0  0
 14 15  2  0  0  0  0
 14 24  1  0  0  0  0
 11 12  1  0  0  0  0
 11 13  1  0  0  0  0
 11 14  1  0  0  0  0
  9 10  1  0  0  0  0
  9 11  1  0  0  0  0
  9 26  1  0  0  0  0
  7  8  1  0  0  0  0
  7  9  1  0  0  0  0
 30 31  1  0  0  0  0
 30 32  1  0  0  0  0
 30 33  1  0  0  0  0
 28 29  1  0  0  0  0
 28 30  1  0  0  0  0
M  END
$$$$
default_name
  -OEChem-02102213163D

 33 33  0     1  0  0  0  0  0999 V2000
   -4.0702   -3.8485    1.4554 H   0  0  0  0  0  0  0  0  0  0  0  0
   -4.0012   -2.9605    0.8284 C   0  0  0  0  0  0  0  0  0  0  0  0
   -4.7652   -2.2435    1.1234 H   0  0  0  0  0  0  0  0  0  0  0  0
   -4.1352   -3.2385   -0.2156 H   0  0  0  0  0  0  0  0  0  0  0  0
   -2.6362   -2.3395    1.0094 C   0  0  0  0  0  0  0  0  0  0  0  0
   -1.8292   -2.8395    1.7814 O   0  0  0  0  0  0  0  0  0  0  0  0
   -2.3832   -1.2445    0.2964 N   0  0  0  0  0  0  0  0  0  0  0  0
   -3.1102   -0.8685   -0.2946 H   0  0  0  0  0  0  0  0  0  0  0  0
   -1.1292   -0.4875    0.3524 C   0  0  1  0  0  0  0  0  0  0  0  0
   -0.5898   -0.7762    1.2552 H   0  0  0  0  0  0  0  0  0  0  0  0
   -0.2608   -0.8470   -0.8656 C   0  0  0  0  0  0  0  0  0  0  0  0
    0.3666   -1.7028   -0.6132 H   0  0  0  0  0  0  0  0  0  0  0  0
   -0.9123   -1.1503   -1.6869 H   0  0  0  0  0  0  0  0  0  0  0  0
    0.6429    0.2784   -1.3309 C   0  0  0  0  0  0  0  0  0  0  0  0
    1.8775   -0.0091   -1.9467 C   0  0  0  0  0  0  0  0  0  0  0  0
    2.1968   -1.0362   -2.0660 H   0  0  0  0  0  0  0  0  0  0  0  0
    2.6949    1.0386   -2.4137 C   0  0  0  0  0  0  0  0  0  0  0  0
    3.6404    0.8149   -2.8834 H   0  0  0  0  0  0  0  0  0  0  0  0
    2.2738    2.3784   -2.2673 C   0  0  0  0  0  0  0  0  0  0  0  0
    3.0535    3.3958   -2.7170 O   0  0  0  0  0  0  0  0  0  0  0  0
    3.9043    3.0870   -3.0313 H   0  0  0  0  0  0  0  0  0  0  0  0
    1.0358    2.6640   -1.6552 C   0  0  0  0  0  0  0  0  0  0  0  0
    0.7269    3.6926   -1.5451 H   0  0  0  0  0  0  0  0  0  0  0  0
    0.2232    1.6148   -1.1854 C   0  0  0  0  0  0  0  0  0  0  0  0
   -0.7235    1.8354   -0.7069 H   0  0  0  0  0  0  0  0  0  0  0  0
   -1.4018    1.0238    0.4329 C   0  0  0  0  0  0  0  0  0  0  0  0
   -2.2416    1.5423   -0.3033 O   0  0  0  0  0  0  0  0  0  0  0  0
   -0.6927    1.7304    1.3223 N   0  0  0  0  0  0  0  0  0  0  0  0
    0.0178    1.2410    1.8469 H   0  0  0  0  0  0  0  0  0  0  0  0
   -0.8259    3.1712    1.5254 C   0  0  0  0  0  0  0  0  0  0  0  0
   -1.8769    3.4302    1.6645 H   0  0  0  0  0  0  0  0  0  0  0  0
   -0.2598    3.4806    2.4054 H   0  0  0  0  0  0  0  0  0  0  0  0
   -0.4486    3.7020    0.6489 H   0  0  0  0  0  0  0  0  0  0  0  0
  5  6  2  0  0  0  0
  5  7  1  0  0  0  0
  2  3  1  0  0  0  0
  2  4  1  0  0  0  0
  2  5  1  0  0  0  0
  1  2  1  0  0  0  0
 26 27  2  0  0  0  0
 26 28  1  0  0  0  0
 24 25  1  0  0  0  0
 22 23  1  0  0  0  0
 22 24  2  0  0  0  0
 20 21  1  0  0  0  0
 19 20  1  0  0  0  0
 19 22  1  0  0  0  0
 17 18  1  0  0  0  0
 17 19  2  0  0  0  0
 15 16  1  0  0  0  0
 15 17  1  0  0  0  0
 14 15  2  0  0  0  0
 14 24  1  0  0  0  0
 11 12  1  0  0  0  0
 11 13  1  0  0  0  0
 11 14  1  0  0  0  0
  9 10  1  0  0  0  0
  9 11  1  0  0  0  0
  9 26  1  0  0  0  0
  7  8  1  0  0  0  0
  7  9  1  0  0  0  0
 30 31  1  0  0  0  0
 30 32  1  0  0  0  0
 30 33  1  0  0  0  0
 28 29  1  0  0  0  0
 28 30  1  0  0  0  0
M  END
$$$$
default_name
  -OEChem-02102213163D

 33 33  0     1  0  0  0  0  0999 V2000
   -4.0702   -3.8485    1.4554 H   0  0  0  0  0  0  0  0  0  0  0  0
   -4.0012   -2.9605    0.8284 C   0  0  0  0  0  0  0  0  0  0  0  0
   -4.7652   -2.2435    1.1234 H   0  0  0  0  0  0  0  0  0  0  0  0
   -4.1352   -3.2385   -0.2156 H   0  0  0  0  0  0  0  0  0  0  0  0
   -2.6362   -2.3395    1.0094 C   0  0  0  0  0  0  0  0  0  0  0  0
   -1.8292   -2.8395    1.7814 O   0  0  0  0  0  0  0  0  0  0  0  0
   -2.3832   -1.2445    0.2964 N   0  0  0  0  0  0  0  0  0  0  0  0
   -3.1102   -0.8685   -0.2946 H   0  0  0  0  0  0  0  0  0  0  0  0
   -1.1292   -0.4875    0.3524 C   0  0  1  0  0  0  0  0  0  0  0  0
   -0.5898   -0.7762    1.2552 H   0  0  0  0  0  0  0  0  0  0  0  0
   -0.2608   -0.8470   -0.8656 C   0  0  0  0  0  0  0  0  0  0  0  0
    0.3666   -1.7028   -0.6132 H   0  0  0  0  0  0  0  0  0  0  0  0
   -0.9123   -1.1503   -1.6869 H   0  0  0  0  0  0  0  0  0  0  0  0
    0.6429    0.2784   -1.3309 C   0  0  0  0  0  0  0  0  0  0  0  0
    1.7088    0.0156   -2.2147 C   0  0  0  0  0  0  0  0  0  0  0  0
    1.9018   -0.9970   -2.5440 H   0  0  0  0  0  0  0  0  0  0  0  0
    2.5204    1.0704   -2.6758 C   0  0  0  0  0  0  0  0  0  0  0  0
    3.3367    0.8653   -3.3513 H   0  0  0  0  0  0  0  0  0  0  0  0
    2.2624    2.3930   -2.2542 C   0  0  0  0  0  0  0  0  0  0  0  0
    3.0375    3.4175   -2.6955 O   0  0  0  0  0  0  0  0  0  0  0  0
    3.7820    3.1096   -3.2141 H   0  0  0  0  0  0  0  0  0  0  0  0
    1.1923    2.6547   -1.3737 C   0  0  0  0  0  0  0  0  0  0  0  0
    1.0078    3.6696   -1.0550 H   0  0  0  0  0  0  0  0  0  0  0  0
    0.3858    1.5977   -0.9109 C   0  0  0  0  0  0  0  0  0  0  0  0
   -0.4304    1.7984   -0.2271 H   0  0  0  0  0  0  0  0  0  0  0  0
   -1.4018    1.0238    0.4329 C   0  0  0  0  0  0  0  0  0  0  0  0
   -2.2416    1.5423   -0.3033 O   0  0  0  0  0  0  0  0  0  0  0  0
   -0.6927    1.7304    1.3223 N   0  0  0  0  0  0  0  0  0  0  0  0
    0.0178    1.2410    1.8469 H   0  0  0  0  0  0  0  0  0  0  0  0
   -0.8259    3.1712    1.5254 C   0  0  0  0  0  0  0  0  0  0  0  0
   -1.8769    3.4302    1.6645 H   0  0  0  0  0  0  0  0  0  0  0  0
   -0.2598    3.4806    2.4054 H   0  0  0  0  0  0  0  0  0  0  0  0
   -0.4486    3.7020    0.6489 H   0  0  0  0  0  0  0  0  0  0  0  0
  5  6  2  0  0  0  0
  5  7  1  0  0  0  0
  2  3  1  0  0  0  0
  2  4  1  0  0  0  0
  2  5  1  0  0  0  0
  1  2  1  0  0  0  0
 26 27  2  0  0  0  0
 26 28  1  0  0  0  0
 24 25  1  0  0  0  0
 22 23  1  0  0  0  0
 22 24  2  0  0  0  0
 20 21  1  0  0  0  0
 19 20  1  0  0  0  0
 19 22  1  0  0  0  0
 17 18  1  0  0  0  0
 17 19  2  0  0  0  0
 15 16  1  0  0  0  0
 15 17  1  0  0  0  0
 14 15  2  0  0  0  0
 14 24  1  0  0  0  0
 11 12  1  0  0  0  0
 11 13  1  0  0  0  0
 11 14  1  0  0  0  0
  9 10  1  0  0  0  0
  9 11  1  0  0  0  0
  9 26  1  0  0  0  0
  7  8  1  0  0  0  0
  7  9  1  0  0  0  0
 30 31  1  0  0  0  0
 30 32  1  0  0  0  0
 30 33  1  0  0  0  0
 28 29  1  0  0  0  0
 28 30  1  0  0  0  0
M  END
$$$$
default_name
  -OEChem-02102213163D

 33 33  0     1  0  0  0  0  0999 V2000
   -4.0702   -3.8485    1.4554 H   0  0  0  0  0  0  0  0  0  0  0  0
   -4.0012   -2.9605    0.8284 C   0  0  0  0  0  0  0  0  0  0  0  0
   -4.7652   -2.2435    1.1234 H   0  0  0  0  0  0  0  0  0  0  0  0
   -4.1352   -3.2385   -0.2156 H   0  0  0  0  0  0  0  0  0  0  0  0
   -2.6362   -2.3395    1.0094 C   0  0  0  0  0  0  0  0  0  0  0  0
   -1.8292   -2.8395    1.7814 O   0  0  0  0  0  0  0  0  0  0  0  0
   -2.3832   -1.2445    0.2964 N   0  0  0  0  0  0  0  0  0  0  0  0
   -3.1102   -0.8685   -0.2946 H   0  0  0  0  0  0  0  0  0  0  0  0
   -1.1292   -0.4875    0.3524 C   0  0  1  0  0  0  0  0  0  0  0  0
   -0.5898   -0.7762    1.2552 H   0  0  0  0  0  0  0  0  0  0  0  0
   -0.2608   -0.8470   -0.8656 C   0  0  0  0  0  0  0  0  0  0  0  0
    0.1614   -1.8419   -0.7184 H   0  0  0  0  0  0  0  0  0  0  0  0
   -0.8957   -0.8893   -1.7521 H   0  0  0  0  0  0  0  0  0  0  0  0
    0.8827    0.1179   -1.1125 C   0  0  0  0  0  0  0  0  0  0  0  0
    1.7631   -0.0843   -2.1943 C   0  0  0  0  0  0  0  0  0  0  0  0
    1.6410   -0.9456   -2.8379 H   0  0  0  0  0  0  0  0  0  0  0  0
    2.7991    0.8368   -2.4436 C   0  0  0  0  0  0  0  0  0  0  0  0
    3.4724    0.6780   -3.2719 H   0  0  0  0  0  0  0  0  0  0  0  0
    2.9524    1.9661   -1.6100 C   0  0  0  0  0  0  0  0  0  0  0  0
    3.9464    2.8618   -1.8438 O   0  0  0  0  0  0  0  0  0  0  0  0
    4.5342    2.5744   -2.5437 H   0  0  0  0  0  0  0  0  0  0  0  0
    2.0674    2.1695   -0.5310 C   0  0  0  0  0  0  0  0  0  0  0  0
    2.1976    3.0345    0.1019 H   0  0  0  0  0  0  0  0  0  0  0  0
    1.0358    1.2446   -0.2816 C   0  0  0  0  0  0  0  0  0  0  0  0
    0.3620    1.3966    0.5532 H   0  0  0  0  0  0  0  0  0  0  0  0
   -1.4018    1.0238    0.4329 C   0  0  0  0  0  0  0  0  0  0  0  0
   -2.2416    1.5423   -0.3033 O   0  0  0  0  0  0  0  0  0  0  0  0
   -0.6927    1.7304    1.3223 N   0  0  0  0  0  0  0  0  0  0  0  0
    0.0178    1.2410    1.8469 H   0  0  0  0  0  0  0  0  0  0  0  0
   -0.8259    3.1712    1.5254 C   0  0  0  0  0  0  0  0  0  0  0  0
   -1.8769    3.4302    1.6645 H   0  0  0  0  0  0  0  0  0  0  0  0
   -0.2598    3.4806    2.4054 H   0  0  0  0  0  0  0  0  0  0  0  0
   -0.4486    3.7020    0.6489 H   0  0  0  0  0  0  0  0  0  0  0  0
  5  6  2  0  0  0  0
  5  7  1  0  0  0  0
  2  3  1  0  0  0  0
  2  4  1  0  0  0  0
  2  5  1  0  0  0  0
  1  2  1  0  0  0  0
 26 27  2  0  0  0  0
 26 28  1  0  0  0  0
 24 25  1  0  0  0  0
 22 23  1  0  0  0  0
 22 24  2  0  0  0  0
 20 21  1  0  0  0  0
 19 20  1  0  0  0  0
 19 22  1  0  0  0  0
 17 18  1  0  0  0  0
 17 19  2  0  0  0  0
 15 16  1  0  0  0  0
 15 17  1  0  0  0  0
 14 15  2  0  0  0  0
 14 24  1  0  0  0  0
 11 12  1  0  0  0  0
 11 13  1  0  0  0  0
 11 14  1  0  0  0  0
  9 10  1  0  0  0  0
  9 11  1  0  0  0  0
  9 26  1  0  0  0  0
  7  8  1  0  0  0  0
  7  9  1  0  0  0  0
 30 31  1  0  0  0  0
 30 32  1  0  0  0  0
 30 33  1  0  0  0  0
 28 29  1  0  0  0  0
 28 30  1  0  0  0  0
M  END
$$$$
default_name
  -OEChem-02102213163D

 33 33  0     1  0  0  0  0  0999 V2000
   -4.0702   -3.8485    1.4554 H   0  0  0  0  0  0  0  0  0  0  0  0
   -4.0012   -2.9605    0.8284 C   0  0  0  0  0  0  0  0  0  0  0  0
   -4.7652   -2.2435    1.1234 H   0  0  0  0  0  0  0  0  0  0  0  0
   -4.1352   -3.2385   -0.2156 H   0  0  0  0  0  0  0  0  0  0  0  0
   -2.6362   -2.3395    1.0094 C   0  0  0  0  0  0  0  0  0  0  0  0
   -1.8292   -2.8395    1.7814 O   0  0  0  0  0  0  0  0  0  0  0  0
   -2.3832   -1.2445    0.2964 N   0  0  0  0  0  0  0  0  0  0  0  0
   -3.1102   -0.8685   -0.2946 H   0  0  0  0  0  0  0  0  0  0  0  0
   -1.1292   -0.4875    0.3524 C   0  0  1  0  0  0  0  0  0  0  0  0
   -0.5898   -0.7762    1.2552 H   0  0  0  0  0  0  0  0  0  0  0  0
   -0.2608   -0.8470   -0.8656 C   0  0  0  0  0  0  0  0  0  0  0  0
    0.1614   -1.8419   -0.7184 H   0  0  0  0  0  0  0  0  0  0  0  0
   -0.8957   -0.8893   -1.7521 H   0  0  0  0  0  0  0  0  0  0  0  0
    0.8827    0.1179   -1.1125 C   0  0  0  0  0  0  0  0  0  0  0  0
    1.5647    0.1120   -2.3458 C   0  0  0  0  0  0  0  0  0  0  0  0
    1.2907   -0.6008   -3.1126 H   0  0  0  0  0  0  0  0  0  0  0  0
    2.5993    1.0373   -2.5853 C   0  0  0  0  0  0  0  0  0  0  0  0
    3.1205    1.0289   -3.5302 H   0  0  0  0  0  0  0  0  0  0  0  0
    2.9502    1.9741   -1.5888 C   0  0  0  0  0  0  0  0  0  0  0  0
    3.9445    2.8725   -1.8111 O   0  0  0  0  0  0  0  0  0  0  0  0
    4.3946    2.7147   -2.6421 H   0  0  0  0  0  0  0  0  0  0  0  0
    2.2633    1.9818   -0.3571 C   0  0  0  0  0  0  0  0  0  0  0  0
    2.5438    2.7001    0.3985 H   0  0  0  0  0  0  0  0  0  0  0  0
    1.2328    1.0527   -0.1191 C   0  0  0  0  0  0  0  0  0  0  0  0
    0.7118    1.0531    0.8309 H   0  0  0  0  0  0  0  0  0  0  0  0
   -1.4018    1.0238    0.4329 C   0  0  0  0  0  0  0  0  0  0  0  0
   -2.2416    1.5423   -0.3033 O   0  0  0  0  0  0  0  0  0  0  0  0
   -0.6927    1.7304    1.3223 N   0  0  0  0  0  0  0  0  0  0  0  0
    0.0178    1.2410    1.8469 H   0  0  0  0  0  0  0  0  0  0  0  0
   -0.8259    3.1712    1.5254 C   0  0  0  0  0  0  0  0  0  0  0  0
   -1.8769    3.4302    1.6645 H   0  0  0  0  0  0  0  0  0  0  0  0
   -0.2598    3.4806    2.4054 H   0  0  0  0  0  0  0  0  0  0  0  0
   -0.4486    3.7020    0.6489 H   0  0  0  0  0  0  0  0  0  0  0  0
  5  6  2  0  0  0  0
  5  7  1  0  0  0  0
  2  3  1  0  0  0  0
  2  4  1  0  0  0  0
  2  5  1  0  0  0  0
  1  2  1  0  0  0  0
 26 27  2  0  0  0  0
 26 28  1  0  0  0  0
 24 25  1  0  0  0  0
 22 23  1  0  0  0  0
 22 24  2  0  0  0  0
 20 21  1  0  0  0  0
 19 20  1  0  0  0  0
 19 22  1  0  0  0  0
 17 18  1  0  0  0  0
 17 19  2  0  0  0  0
 15 16  1  0  0  0  0
 15 17  1  0  0  0  0
 14 15  2  0  0  0  0
 14 24  1  0  0  0  0
 11 12  1  0  0  0  0
 11 13  1  0  0  0  0
 11 14  1  0  0  0  0
  9 10  1  0  0  0  0
  9 11  1  0  0  0  0
  9 26  1  0  0  0  0
  7  8  1  0  0  0  0
  7  9  1  0  0  0  0
 30 31  1  0  0  0  0
 30 32  1  0  0  0  0
 30 33  1  0  0  0  0
 28 29  1  0  0  0  0
 28 30  1  0  0  0  0
M  END
$$$$
default_name
  -OEChem-02102213163D

 33 33  0     1  0  0  0  0  0999 V2000
   -4.0702   -3.8485    1.4554 H   0  0  0  0  0  0  0  0  0  0  0  0
   -4.0012   -2.9605    0.8284 C   0  0  0  0  0  0  0  0  0  0  0  0
   -4.7652   -2.2435    1.1234 H   0  0  0  0  0  0  0  0  0  0  0  0
   -4.1352   -3.2385   -0.2156 H   0  0  0  0  0  0  0  0  0  0  0  0
   -2.6362   -2.3395    1.0094 C   0  0  0  0  0  0  0  0  0  0  0  0
   -1.8292   -2.8395    1.7814 O   0  0  0  0  0  0  0  0  0  0  0  0
   -2.3832   -1.2445    0.2964 N   0  0  0  0  0  0  0  0  0  0  0  0
   -3.1102   -0.8685   -0.2946 H   0  0  0  0  0  0  0  0  0  0  0  0
   -1.1292   -0.4875    0.3524 C   0  0  1  0  0  0  0  0  0  0  0  0
   -0.5898   -0.7762    1.2552 H   0  0  0  0  0  0  0  0  0  0  0  0
   -0.2608   -0.8470   -0.8656 C   0  0  0  0  0  0  0  0  0  0  0  0
    0.1614   -1.8419   -0.7184 H   0  0  0  0  0  0  0  0  0  0  0  0
   -0.8957   -0.8893   -1.7521 H   0  0  0  0  0  0  0  0  0  0  0  0
    0.8827    0.1179   -1.1125 C   0  0  0  0  0  0  0  0  0  0  0  0
    1.3564    0.3396   -2.4212 C   0  0  0  0  0  0  0  0  0  0  0  0
    0.9216   -0.1993   -3.2528 H   0  0  0  0  0  0  0  0  0  0  0  0
    2.3915    1.2670   -2.6501 C   0  0  0  0  0  0  0  0  0  0  0  0
    2.7529    1.4330   -3.6533 H   0  0  0  0  0  0  0  0  0  0  0  0
    2.9520    1.9778   -1.5665 C   0  0  0  0  0  0  0  0  0  0  0  0
    3.9485    2.8764   -1.7771 O   0  0  0  0  0  0  0  0  0  0  0  0
    4.2494    2.8754   -2.6868 H   0  0  0  0  0  0  0  0  0  0  0  0
    2.4733    1.7583   -0.2582 C   0  0  0  0  0  0  0  0  0  0  0  0
    2.9129    2.3046    0.5627 H   0  0  0  0  0  0  0  0  0  0  0  0
    1.4418    0.8273   -0.0321 C   0  0  0  0  0  0  0  0  0  0  0  0
    1.0809    0.6524    0.9745 H   0  0  0  0  0  0  0  0  0  0  0  0
   -1.4018    1.0238    0.4329 C   0  0  0  0  0  0  0  0  0  0  0  0
   -2.2416    1.5423   -0.3033 O   0  0  0  0  0  0  0  0  0  0  0  0
   -0.6927    1.7304    1.3223 N   0  0  0  0  0  0  0  0  0  0  0  0
    0.0178    1.2410    1.8469 H   0  0  0  0  0  0  0  0  0  0  0  0
   -0.8259    3.1712    1.5254 C   0  0  0  0  0  0  0  0  0  0  0  0
   -1.8769    3.4302    1.6645 H   0  0  0  0  0  0  0  0  0  0  0  0
   -0.2598    3.4806    2.4054 H   0  0  0  0  0  0  0  0  0  0  0  0
   -0.4486    3.7020    0.6489 H   0  0  0  0  0  0  0  0  0  0  0  0
  5  6  2  0  0  0  0
  5  7  1  0  0  0  0
  2  3  1  0  0  0  0
  2  4  1  0  0  0  0
  2  5  1  0  0  0  0
  1  2  1  0  0  0  0
 26 27  2  0  0  0  0
 26 28  1  0  0  0  0
 24 25  1  0  0  0  0
 22 23  1  0  0  0  0
 22 24  2  0  0  0  0
 20 21  1  0  0  0  0
 19 20  1  0  0  0  0
 19 22  1  0  0  0  0
 17 18  1  0  0  0  0
 17 19  2  0  0  0  0
 15 16  1  0  0  0  0
 15 17  1  0  0  0  0
 14 15  2  0  0  0  0
 14 24  1  0  0  0  0
 11 12  1  0  0  0  0
 11 13  1  0  0  0  0
 11 14  1  0  0  0  0
  9 10  1  0  0  0  0
  9 11  1  0  0  0  0
  9 26  1  0  0  0  0
  7  8  1  0  0  0  0
  7  9  1  0  0  0  0
 30 31  1  0  0  0  0
 30 32  1  0  0  0  0
 30 33  1  0  0  0  0
 28 29  1  0  0  0  0
 28 30  1  0  0  0  0
M  END
$$$$
default_name
  -OEChem-02102213163D

 33 33  0     1  0  0  0  0  0999 V2000
   -4.0702   -3.8485    1.4554 H   0  0  0  0  0  0  0  0  0  0  0  0
   -4.0012   -2.9605    0.8284 C   0  0  0  0  0  0  0  0  0  0  0  0
   -4.7652   -2.2435    1.1234 H   0  0  0  0  0  0  0  0  0  0  0  0
   -4.1352   -3.2385   -0.2156 H   0  0  0  0  0  0  0  0  0  0  0  0
   -2.6362   -2.3395    1.0094 C   0  0  0  0  0  0  0  0  0  0  0  0
   -1.8292   -2.8395    1.7814 O   0  0  0  0  0  0  0  0  0  0  0  0
   -2.3832   -1.2445    0.2964 N   0  0  0  0  0  0  0  0  0  0  0  0
   -3.1102   -0.8685   -0.2946 H   0  0  0  0  0  0  0  0  0  0  0  0
   -1.1292   -0.4875    0.3524 C   0  0  1  0  0  0  0  0  0  0  0  0
   -0.5898   -0.7762    1.2552 H   0  0  0  0  0  0  0  0  0  0  0  0
   -0.2608   -0.8470   -0.8656 C   0  0  0  0  0  0  0  0  0  0  0  0
    0.1614   -1.8419   -0.7184 H   0  0  0  0  0  0  0  0  0  0  0  0
   -0.8957   -0.8893   -1.7521 H   0  0  0  0  0  0  0  0  0  0  0  0
    0.8827    0.1179   -1.1125 C   0  0  0  0  0  0  0  0  0  0  0  0
    1.1524    0.5829   -2.4153 C   0  0  0  0  0  0  0  0  0  0  0  0
    0.5590    0.2314   -3.2492 H   0  0  0  0  0  0  0  0  0  0  0  0
    2.1898    1.5103   -2.6337 C   0  0  0  0  0  0  0  0  0  0  0  0
    2.3945    1.8630   -3.6329 H   0  0  0  0  0  0  0  0  0  0  0  0
    2.9575    1.9768   -1.5444 C   0  0  0  0  0  0  0  0  0  0  0  0
    3.9582    2.8734   -1.7442 O   0  0  0  0  0  0  0  0  0  0  0  0
    4.1085    3.0454   -2.6746 H   0  0  0  0  0  0  0  0  0  0  0  0
    2.6830    1.5142   -0.2408 C   0  0  0  0  0  0  0  0  0  0  0  0
    3.2799    1.8750    0.5834 H   0  0  0  0  0  0  0  0  0  0  0  0
    1.6485    0.5838   -0.0264 C   0  0  0  0  0  0  0  0  0  0  0  0
    1.4442    0.2218    0.9743 H   0  0  0  0  0  0  0  0  0  0  0  0
   -1.4018    1.0238    0.4329 C   0  0  0  0  0  0  0  0  0  0  0  0
   -2.2416    1.5423   -0.3033 O   0  0  0  0  0  0  0  0  0  0  0  0
   -0.6927    1.7304    1.3223 N   0  0  0  0  0  0  0  0  0  0  0  0
    0.0178    1.2410    1.8469 H   0  0  0  0  0  0  0  0  0  0  0  0
   -0.8259    3.1712    1.5254 C   0  0  0  0  0  0  0  0  0  0  0  0
   -1.8769    3.4302    1.6645 H   0  0  0  0  0  0  0  0  0  0  0  0
   -0.2598    3.4806    2.4054 H   0  0  0  0  0  0  0  0  0  0  0  0
   -0.4486    3.7020    0.6489 H   0  0  0  0  0  0  0  0  0  0  0  0
  5  6  2  0  0  0  0
  5  7  1  0  0  0  0
  2  3  1  0  0  0  0
  2  4  1  0  0  0  0
  2  5  1  0  0  0  0
  1  2  1  0  0  0  0
 26 27  2  0  0  0  0
 26 28  1  0  0  0  0
 24 25  1  0  0  0  0
 22 23  1  0  0  0  0
 22 24  2  0  0  0  0
 20 21  1  0  0  0  0
 19 20  1  0  0  0  0
 19 22  1  0  0  0  0
 17 18  1  0  0  0  0
 17 19  2  0  0  0  0
 15 16  1  0  0  0  0
 15 17  1  0  0  0  0
 14 15  2  0  0  0  0
 14 24  1  0  0  0  0
 11 12  1  0  0  0  0
 11 13  1  0  0  0  0
 11 14  1  0  0  0  0
  9 10  1  0  0  0  0
  9 11  1  0  0  0  0
  9 26  1  0  0  0  0
  7  8  1  0  0  0  0
  7  9  1  0  0  0  0
 30 31  1  0  0  0  0
 30 32  1  0  0  0  0
 30 33  1  0  0  0  0
 28 29  1  0  0  0  0
 28 30  1  0  0  0  0
M  END
$$$$
default_name
  -OEChem-02102213163D

 33 33  0     1  0  0  0  0  0999 V2000
   -4.0702   -3.8485    1.4554 H   0  0  0  0  0  0  0  0  0  0  0  0
   -4.0012   -2.9605    0.8284 C   0  0  0  0  0  0  0  0  0  0  0  0
   -4.7652   -2.2435    1.1234 H   0  0  0  0  0  0  0  0  0  0  0  0
   -4.1352   -3.2385   -0.2156 H   0  0  0  0  0  0  0  0  0  0  0  0
   -2.6362   -2.3395    1.0094 C   0  0  0  0  0  0  0  0  0  0  0  0
   -1.8292   -2.8395    1.7814 O   0  0  0  0  0  0  0  0  0  0  0  0
   -2.3832   -1.2445    0.2964 N   0  0  0  0  0  0  0  0  0  0  0  0
   -3.1102   -0.8685   -0.2946 H   0  0  0  0  0  0  0  0  0  0  0  0
   -1.1292   -0.4875    0.3524 C   0  0  1  0  0  0  0  0  0  0  0  0
   -0.5898   -0.7762    1.2552 H   0  0  0  0  0  0  0  0  0  0  0  0
   -0.2608   -0.8470   -0.8656 C   0  0  0  0  0  0  0  0  0  0  0  0
    0.1614   -1.8419   -0.7184 H   0  0  0  0  0  0  0  0  0  0  0  0
   -0.8957   -0.8893   -1.7521 H   0  0  0  0  0  0  0  0  0  0  0  0
    0.8827    0.1179   -1.1125 C   0  0  0  0  0  0  0  0  0  0  0  0
    0.9665    0.8254   -2.3286 C   0  0  0  0  0  0  0  0  0  0  0  0
    0.2274    0.6620   -3.1019 H   0  0  0  0  0  0  0  0  0  0  0  0
    2.0079    1.7506   -2.5372 C   0  0  0  0  0  0  0  0  0  0  0  0
    2.0699    2.2894   -3.4701 H   0  0  0  0  0  0  0  0  0  0  0  0
    2.9664    1.9714   -1.5242 C   0  0  0  0  0  0  0  0  0  0  0  0
    3.9728    2.8637   -1.7145 O   0  0  0  0  0  0  0  0  0  0  0  0
    3.9817    3.2132   -2.6066 H   0  0  0  0  0  0  0  0  0  0  0  0
    2.8782    1.2662   -0.3061 C   0  0  0  0  0  0  0  0  0  0  0  0
    3.6196    1.4406    0.4590 H   0  0  0  0  0  0  0  0  0  0  0  0
    1.8388    0.3388   -0.1024 C   0  0  0  0  0  0  0  0  0  0  0  0
    1.7770   -0.2094    0.8301 H   0  0  0  0  0  0  0  0  0  0  0  0
   -1.4018    1.0238    0.4329 C   0  0  0  0  0  0  0  0  0  0  0  0
   -2.2416    1.5423   -0.3033 O   0  0  0  0  0  0  0  0  0  0  0  0
   -0.6927    1.7304    1.3223 N   0  0  0  0  0  0  0  0  0  0  0  0
    0.0178    1.2410    1.8469 H   0  0  0  0  0  0  0  0  0  0  0  0
   -0.8259    3.1712    1.5254 C   0  0  0  0  0  0  0  0  0  0  0  0
   -1.8769    3.4302    1.6645 H   0  0  0  0  0  0  0  0  0  0  0  0
   -0.2598    3.4806    2.4054 H   0  0  0  0  0  0  0  0  0  0  0  0
   -0.4486    3.7020    0.6489 H   0  0  0  0  0  0  0  0  0  0  0  0
  5  6  2  0  0  0  0
  5  7  1  0  0  0  0
  2  3  1  0  0  0  0
  2  4  1  0  0  0  0
  2  5  1  0  0  0  0
  1  2  1  0  0  0  0
 26 27  2  0  0  0  0
 26 28  1  0  0  0  0
 24 25  1  0  0  0  0
 22 23  1  0  0  0  0
 22 24  2  0  0  0  0
 20 21  1  0  0  0  0
 19 20  1  0  0  0  0
 19 22  1  0  0  0  0
 17 18  1  0  0  0  0
 17 19  2  0  0  0  0
 15 16  1  0  0  0  0
 15 17  1  0  0  0  0
 14 15  2  0  0  0  0
 14 24  1  0  0  0  0
 11 12  1  0  0  0  0
 11 13  1  0  0  0  0
 11 14  1  0  0  0  0
  9 10  1  0  0  0  0
  9 11  1  0  0  0  0
  9 26  1  0  0  0  0
  7  8  1  0  0  0  0
  7  9  1  0  0  0  0
 30 31  1  0  0  0  0
 30 32  1  0  0  0  0
 30 33  1  0  0  0  0
 28 29  1  0  0  0  0
 28 30  1  0  0  0  0
M  END
$$$$
default_name
  -OEChem-02102213163D

 33 33  0     1  0  0  0  0  0999 V2000
   -4.0702   -3.8485    1.4554 H   0  0  0  0  0  0  0  0  0  0  0  0
   -4.0012   -2.9605    0.8284 C   0  0  0  0  0  0  0  0  0  0  0  0
   -4.7652   -2.2435    1.1234 H   0  0  0  0  0  0  0  0  0  0  0  0
   -4.1352   -3.2385   -0.2156 H   0  0  0  0  0  0  0  0  0  0  0  0
   -2.6362   -2.3395    1.0094 C   0  0  0  0  0  0  0  0  0  0  0  0
   -1.8292   -2.8395    1.7814 O   0  0  0  0  0  0  0  0  0  0  0  0
   -2.3832   -1.2445    0.2964 N   0  0  0  0  0  0  0  0  0  0  0  0
   -3.1102   -0.8685   -0.2946 H   0  0  0  0  0  0  0  0  0  0  0  0
   -1.1292   -0.4875    0.3524 C   0  0  1  0  0  0  0  0  0  0  0  0
   -0.5898   -0.7762    1.2552 H   0  0  0  0  0  0  0  0  0  0  0  0
   -0.2608   -0.8470   -0.8656 C   0  0  0  0  0  0  0  0  0  0  0  0
    0.1614   -1.8419   -0.7184 H   0  0  0  0  0  0  0  0  0  0  0  0
   -0.8957   -0.8893   -1.7521 H   0  0  0  0  0  0  0  0  0  0  0  0
    0.8827    0.1179   -1.1125 C   0  0  0  0  0  0  0  0  0  0  0  0
    0.8115    1.0505   -2.1668 C   0  0  0  0  0  0  0  0  0  0  0  0
   -0.0504    1.0631   -2.8210 H   0  0  0  0  0  0  0  0  0  0  0  0
    1.8582    1.9715   -2.3670 C   0  0  0  0  0  0  0  0  0  0  0  0
    1.8011    2.6831   -3.1763 H   0  0  0  0  0  0  0  0  0  0  0  0
    2.9781    1.9619   -1.5073 C   0  0  0  0  0  0  0  0  0  0  0  0
    3.9914    2.8479   -1.6902 O   0  0  0  0  0  0  0  0  0  0  0  0
    3.8774    3.3673   -2.4872 H   0  0  0  0  0  0  0  0  0  0  0  0
    3.0454    1.0312   -0.4498 C   0  0  0  0  0  0  0  0  0  0  0  0
    3.9090    1.0309    0.1982 H   0  0  0  0  0  0  0  0  0  0  0  0
    1.9998    0.1089   -0.2551 C   0  0  0  0  0  0  0  0  0  0  0  0
    2.0565   -0.6119    0.5519 H   0  0  0  0  0  0  0  0  0  0  0  0
   -1.4018    1.0238    0.4329 C   0  0  0  0  0  0  0  0  0  0  0  0
   -2.2416    1.5423   -0.3033 O   0  0  0  0  0  0  0  0  0  0  0  0
   -0.6927    1.7304    1.3223 N   0  0  0  0  0  0  0  0  0  0  0  0
    0.0178    1.2410    1.8469 H   0  0  0  0  0  0  0  0  0  0  0  0
   -0.8259    3.1712    1.5254 C   0  0  0  0  0  0  0  0  0  0  0  0
   -1.8769    3.4302    1.6645 H   0  0  0  0  0  0  0  0  0  0  0  0
   -0.2598    3.4806    2.4054 H   0  0  0  0  0  0  0  0  0  0  0  0
   -0.4486    3.7020    0.6489 H   0  0  0  0  0  0  0  0  0  0  0  0
  5  6  2  0  0  0  0
  5  7  1  0  0  0  0
  2  3  1  0  0  0  0
  2  4  1  0  0  0  0
  2  5  1  0  0  0  0
  1  2  1  0  0  0  0
 26 27  2  0  0  0  0
 26 28  1  0  0  0  0
 24 25  1  0  0  0  0
 22 23  1  0  0  0  0
 22 24  2  0  0  0  0
 20 21  1  0  0  0  0
 19 20  1  0  0  0  0
 19 22  1  0  0  0  0
 17 18  1  0  0  0  0
 17 19  2  0  0  0  0
 15 16  1  0  0  0  0
 15 17  1  0  0  0  0
 14 15  2  0  0  0  0
 14 24  1  0  0  0  0
 11 12  1  0  0  0  0
 11 13  1  0  0  0  0
 11 14  1  0  0  0  0
  9 10  1  0  0  0  0
  9 11  1  0  0  0  0
  9 26  1  0  0  0  0
  7  8  1  0  0  0  0
  7  9  1  0  0  0  0
 30 31  1  0  0  0  0
 30 32  1  0  0  0  0
 30 33  1  0  0  0  0
 28 29  1  0  0  0  0
 28 30  1  0  0  0  0
M  END
$$$$
default_name
  -OEChem-02102213163D

 33 33  0     1  0  0  0  0  0999 V2000
   -4.0702   -3.8485    1.4554 H   0  0  0  0  0  0  0  0  0  0  0  0
   -4.0012   -2.9605    0.8284 C   0  0  0  0  0  0  0  0  0  0  0  0
   -4.7652   -2.2435    1.1234 H   0  0  0  0  0  0  0  0  0  0  0  0
   -4.1352   -3.2385   -0.2156 H   0  0  0  0  0  0  0  0  0  0  0  0
   -2.6362   -2.3395    1.0094 C   0  0  0  0  0  0  0  0  0  0  0  0
   -1.8292   -2.8395    1.7814 O   0  0  0  0  0  0  0  0  0  0  0  0
   -2.3832   -1.2445    0.2964 N   0  0  0  0  0  0  0  0  0  0  0  0
   -3.1102   -0.8685   -0.2946 H   0  0  0  0  0  0  0  0  0  0  0  0
   -1.1292   -0.4875    0.3524 C   0  0  1  0  0  0  0  0  0  0  0  0
   -0.5898   -0.7762    1.2552 H   0  0  0  0  0  0  0  0  0  0  0  0
   -0.2608   -0.8470   -0.8656 C   0  0  0  0  0  0  0  0  0  0  0  0
    0.1614   -1.8419   -0.7184 H   0  0  0  0  0  0  0  0  0  0  0  0
   -0.8957   -0.8893   -1.7521 H   0  0  0  0  0  0  0  0  0  0  0  0
    0.8827    0.1179   -1.1125 C   0  0  0  0  0  0  0  0  0  0  0  0
    0.6979    1.2429   -1.9411 C   0  0  0  0  0  0  0  0  0  0  0  0
   -0.2556    1.4075   -2.4257 H   0  0  0  0  0  0  0  0  0  0  0  0
    1.7509    2.1580   -2.1350 C   0  0  0  0  0  0  0  0  0  0  0  0
    1.6064    3.0175   -2.7713 H   0  0  0  0  0  0  0  0  0  0  0  0
    2.9919    1.9488   -1.4947 C   0  0  0  0  0  0  0  0  0  0  0  0
    4.0127    2.8271   -1.6728 O   0  0  0  0  0  0  0  0  0  0  0  0
    3.8028    3.4973   -2.3246 H   0  0  0  0  0  0  0  0  0  0  0  0
    3.1735    0.8252   -0.6620 C   0  0  0  0  0  0  0  0  0  0  0  0
    4.1283    0.6738   -0.1814 H   0  0  0  0  0  0  0  0  0  0  0  0
    2.1204   -0.0901   -0.4739 C   0  0  0  0  0  0  0  0  0  0  0  0
    2.2637   -0.9581    0.1586 H   0  0  0  0  0  0  0  0  0  0  0  0
   -1.4018    1.0238    0.4329 C   0  0  0  0  0  0  0  0  0  0  0  0
   -2.2416    1.5423   -0.3033 O   0  0  0  0  0  0  0  0  0  0  0  0
   -0.6927    1.7304    1.3223 N   0  0  0  0  0  0  0  0  0  0  0  0
    0.0178    1.2410    1.8469 H   0  0  0  0  0  0  0  0  0  0  0  0
   -0.8259    3.1712    1.5254 C   0  0  0  0  0  0  0  0  0  0  0  0
   -1.8769    3.4302    1.6645 H   0  0  0  0  0  0  0  0  0  0  0  0
   -0.2598    3.4806    2.4054 H   0  0  0  0  0  0  0  0  0  0  0  0
   -0.4486    3.7020    0.6489 H   0  0  0  0  0  0  0  0  0  0  0  0
  5  6  2  0  0  0  0
  5  7  1  0  0  0  0
  2  3  1  0  0  0  0
  2  4  1  0  0  0  0
  2  5  1  0  0  0  0
  1  2  1  0  0  0  0
 26 27  2  0  0  0  0
 26 28  1  0  0  0  0
 24 25  1  0  0  0  0
 22 23  1  0  0  0  0
 22 24  2  0  0  0  0
 20 21  1  0  0  0  0
 19 20  1  0  0  0  0
 19 22  1  0  0  0  0
 17 18  1  0  0  0  0
 17 19  2  0  0  0  0
 15 16  1  0  0  0  0
 15 17  1  0  0  0  0
 14 15  2  0  0  0  0
 14 24  1  0  0  0  0
 11 12  1  0  0  0  0
 11 13  1  0  0  0  0
 11 14  1  0  0  0  0
  9 10  1  0  0  0  0
  9 11  1  0  0  0  0
  9 26  1  0  0  0  0
  7  8  1  0  0  0  0
  7  9  1  0  0  0  0
 30 31  1  0  0  0  0
 30 32  1  0  0  0  0
 30 33  1  0  0  0  0
 28 29  1  0  0  0  0
 28 30  1  0  0  0  0
M  END
$$$$
default_name
  -OEChem-02102213163D

 33 33  0     1  0  0  0  0  0999 V2000
   -4.0702   -3.8485    1.4554 H   0  0  0  0  0  0  0  0  0  0  0  0
   -4.0012   -2.9605    0.8284 C   0  0  0  0  0  0  0  0  0  0  0  0
   -4.7652   -2.2435    1.1234 H   0  0  0  0  0  0  0  0  0  0  0  0
   -4.1352   -3.2385   -0.2156 H   0  0  0  0  0  0  0  0  0  0  0  0
   -2.6362   -2.3395    1.0094 C   0  0  0  0  0  0  0  0  0  0  0  0
   -1.8292   -2.8395    1.7814 O   0  0  0  0  0  0  0  0  0  0  0  0
   -2.3832   -1.2445    0.2964 N   0  0  0  0  0  0  0  0  0  0  0  0
   -3.1102   -0.8685   -0.2946 H   0  0  0  0  0  0  0  0  0  0  0  0
   -1.1292   -0.4875    0.3524 C   0  0  1  0  0  0  0  0  0  0  0  0
   -0.5898   -0.7762    1.2552 H   0  0  0  0  0  0  0  0  0  0  0  0
   -0.2608   -0.8470   -0.8656 C   0  0  0  0  0  0  0  0  0  0  0  0
    0.1614   -1.8419   -0.7184 H   0  0  0  0  0  0  0  0  0  0  0  0
   -0.8957   -0.8893   -1.7521 H   0  0  0  0  0  0  0  0  0  0  0  0
    0.8827    0.1179   -1.1125 C   0  0  0  0  0  0  0  0  0  0  0  0
    0.6334    1.3895   -1.6668 C   0  0  0  0  0  0  0  0  0  0  0  0
   -0.3742    1.6716   -1.9428 H   0  0  0  0  0  0  0  0  0  0  0  0
    1.6934    2.2974   -1.8567 C   0  0  0  0  0  0  0  0  0  0  0  0
    1.4992    3.2696   -2.2829 H   0  0  0  0  0  0  0  0  0  0  0  0
    3.0066    1.9332   -1.4873 C   0  0  0  0  0  0  0  0  0  0  0  0
    4.0352    2.8027   -1.6636 O   0  0  0  0  0  0  0  0  0  0  0  0
    3.7631    3.5942   -2.1299 H   0  0  0  0  0  0  0  0  0  0  0  0
    3.2535    0.6622   -0.9282 C   0  0  0  0  0  0  0  0  0  0  0  0
    4.2625    0.3938   -0.6538 H   0  0  0  0  0  0  0  0  0  0  0  0
    2.1926   -0.2447   -0.7439 C   0  0  0  0  0  0  0  0  0  0  0  0
    2.3844   -1.2245   -0.3229 H   0  0  0  0  0  0  0  0  0  0  0  0
   -1.4018    1.0238    0.4329 C   0  0  0  0  0  0  0  0  0  0  0  0
   -2.2416    1.5423   -0.3033 O   0  0  0  0  0  0  0  0  0  0  0  0
   -0.6927    1.7304    1.3223 N   0  0  0  0  0  0  0  0  0  0  0  0
    0.0178    1.2410    1.8469 H   0  0  0  0  0  0  0  0  0  0  0  0
   -0.8259    3.1712    1.5254 C   0  0  0  0  0  0  0  0  0  0  0  0
   -1.8769    3.4302    1.6645 H   0  0  0  0  0  0  0  0  0  0  0  0
   -0.2598    3.4806    2.4054 H   0  0  0  0  0  0  0  0  0  0  0  0
   -0.4486    3.7020    0.6489 H   0  0  0  0  0  0  0  0  0  0  0  0
  5  6  2  0  0  0  0
  5  7  1  0  0  0  0
  2  3  1  0  0  0  0
  2  4  1  0  0  0  0
  2  5  1  0  0  0  0
  1  2  1  0  0  0  0
 26 27  2  0  0  0  0
 26 28  1  0  0  0  0
 24 25  1  0  0  0  0
 22 23  1  0  0  0  0
 22 24  2  0  0  0  0
 20 21  1  0  0  0  0
 19 20  1  0  0  0  0
 19 22  1  0  0  0  0
 17 18  1  0  0  0  0
 17 19  2  0  0  0  0
 15 16  1  0  0  0  0
 15 17  1  0  0  0  0
 14 15  2  0  0  0  0
 14 24  1  0  0  0  0
 11 12  1  0  0  0  0
 11 13  1  0  0  0  0
 11 14  1  0  0  0  0
  9 10  1  0  0  0  0
  9 11  1  0  0  0  0
  9 26  1  0  0  0  0
  7  8  1  0  0  0  0
  7  9  1  0  0  0  0
 30 31  1  0  0  0  0
 30 32  1  0  0  0  0
 30 33  1  0  0  0  0
 28 29  1  0  0  0  0
 28 30  1  0  0  0  0
M  END
$$$$
default_name
  -OEChem-02102213163D

 33 33  0     1  0  0  0  0  0999 V2000
   -4.0702   -3.8485    1.4554 H   0  0  0  0  0  0  0  0  0  0  0  0
   -4.0012   -2.9605    0.8284 C   0  0  0  0  0  0  0  0  0  0  0  0
   -4.7652   -2.2435    1.1234 H   0  0  0  0  0  0  0  0  0  0  0  0
   -4.1352   -3.2385   -0.2156 H   0  0  0  0  0  0  0  0  0  0  0  0
   -2.6362   -2.3395    1.0094 C   0  0  0  0  0  0  0  0  0  0  0  0
   -1.8292   -2.8395    1.7814 O   0  0  0  0  0  0  0  0  0  0  0  0
   -2.3832   -1.2445    0.2964 N   0  0  0  0  0  0  0  0  0  0  0  0
   -3.1102   -0.8685   -0.2946 H   0  0  0  0  0  0  0  0  0  0  0  0
   -1.1292   -0.4875    0.3524 C   0  0  1  0  0  0  0  0  0  0  0  0
   -0.5898   -0.7762    1.2552 H   0  0  0  0  0  0  0  0  0  0  0  0
   -0.2608   -0.8470   -0.8656 C   0  0  0  0  0  0  0  0  0  0  0  0
    0.1614   -1.8419   -0.7184 H   0  0  0  0  0  0  0  0  0  0  0  0
   -0.8957   -0.8893   -1.7521 H   0  0  0  0  0  0  0  0  0  0  0  0
    0.8827    0.1179   -1.1125 C   0  0  0  0  0  0  0  0  0  0  0  0
    0.6225    1.4803   -1.3627 C   0  0  0  0  0  0  0  0  0  0  0  0
   -0.3981    1.8375   -1.4052 H   0  0  0  0  0  0  0  0  0  0  0  0
    1.6896    2.3801   -1.5513 C   0  0  0  0  0  0  0  0  0  0  0  0
    1.4866    3.4223   -1.7442 H   0  0  0  0  0  0  0  0  0  0  0  0
    3.0215    1.9161   -1.4856 C   0  0  0  0  0  0  0  0  0  0  0  0
    4.0575    2.7764   -1.6632 O   0  0  0  0  0  0  0  0  0  0  0  0
    3.7608    3.6515   -1.9164 H   0  0  0  0  0  0  0  0  0  0  0  0
    3.2801    0.5534   -1.2304 C   0  0  0  0  0  0  0  0  0  0  0  0
    4.3026    0.2099   -1.1869 H   0  0  0  0  0  0  0  0  0  0  0  0
    2.2113   -0.3444   -1.0469 C   0  0  0  0  0  0  0  0  0  0  0  0
    2.4106   -1.3929   -0.8600 H   0  0  0  0  0  0  0  0  0  0  0  0
   -1.4018    1.0238    0.4329 C   0  0  0  0  0  0  0  0  0  0  0  0
   -2.2416    1.5423   -0.3033 O   0  0  0  0  0  0  0  0  0  0  0  0
   -0.6927    1.7304    1.3223 N   0  0  0  0  0  0  0  0  0  0  0  0
    0.0178    1.2410    1.8469 H   0  0  0  0  0  0  0  0  0  0  0  0
   -0.8259    3.1712    1.5254 C   0  0  0  0  0  0  0  0  0  0  0  0
   -1.8769    3.4302    1.6645 H   0  0  0  0  0  0  0  0  0  0  0  0
   -0.2598    3.4806    2.4054 H   0  0  0  0  0  0  0  0  0  0  0  0
   -0.4486    3.7020    0.6489 H   0  0  0  0  0  0  0  0  0  0  0  0
  5  6  2  0  0  0  0
  5  7  1  0  0  0  0
  2  3  1  0  0  0  0
  2  4  1  0  0  0  0
  2  5  1  0  0  0  0
  1  2  1  0  0  0  0
 26 27  2  0  0  0  0
 26 28  1  0  0  0  0
 24 25  1  0  0  0  0
 22 23  1  0  0  0  0
 22 24  2  0  0  0  0
 20 21  1  0  0  0  0
 19 20  1  0  0  0  0
 19 22  1  0  0  0  0
 17 18  1  0  0  0  0
 17 19  2  0  0  0  0
 15 16  1  0  0  0  0
 15 17  1  0  0  0  0
 14 15  2  0  0  0  0
 14 24  1  0  0  0  0
 11 12  1  0  0  0  0
 11 13  1  0  0  0  0
 11 14  1  0  0  0  0
  9 10  1  0  0  0  0
  9 11  1  0  0  0  0
  9 26  1  0  0  0  0
  7  8  1  0  0  0  0
  7  9  1  0  0  0  0
 30 31  1  0  0  0  0
 30 32  1  0  0  0  0
 30 33  1  0  0  0  0
 28 29  1  0  0  0  0
 28 30  1  0  0  0  0
M  END
$$$$
default_name
  -OEChem-02102213163D

 33 33  0     1  0  0  0  0  0999 V2000
   -4.0702   -3.8485    1.4554 H   0  0  0  0  0  0  0  0  0  0  0  0
   -4.0012   -2.9605    0.8284 C   0  0  0  0  0  0  0  0  0  0  0  0
   -4.7652   -2.2435    1.1234 H   0  0  0  0  0  0  0  0  0  0  0  0
   -4.1352   -3.2385   -0.2156 H   0  0  0  0  0  0  0  0  0  0  0  0
   -2.6362   -2.3395    1.0094 C   0  0  0  0  0  0  0  0  0  0  0  0
   -1.8292   -2.8395    1.7814 O   0  0  0  0  0  0  0  0  0  0  0  0
   -2.3832   -1.2445    0.2964 N   0  0  0  0  0  0  0  0  0  0  0  0
   -3.1102   -0.8685   -0.2946 H   0  0  0  0  0  0  0  0  0  0  0  0
   -1.1292   -0.4875    0.3524 C   0  0  1  0  0  0  0  0  0  0  0  0
   -0.5898   -0.7762    1.2552 H   0  0  0  0  0  0  0  0  0  0  0  0
   -0.2608   -0.8470   -0.8656 C   0  0  0  0  0  0  0  0  0  0  0  0
    0.1614   -1.8419   -0.7184 H   0  0  0  0  0  0  0  0  0  0  0  0
   -0.8957   -0.8893   -1.7521 H   0  0  0  0  0  0  0  0  0  0  0  0
    0.8827    0.1179   -1.1125 C   0  0  0  0  0  0  0  0  0  0  0  0
    0.6659    1.5091   -1.0494 C   0  0  0  0  0  0  0  0  0  0  0  0
   -0.3256    1.8939   -0.8497 H   0  0  0  0  0  0  0  0  0  0  0  0
    1.7396    2.4006   -1.2395 C   0  0  0  0  0  0  0  0  0  0  0  0
    1.5697    3.4652   -1.1920 H   0  0  0  0  0  0  0  0  0  0  0  0
    3.0353    1.8986   -1.4898 C   0  0  0  0  0  0  0  0  0  0  0  0
    4.0780    2.7500   -1.6716 O   0  0  0  0  0  0  0  0  0  0  0  0
    3.7962    3.6653   -1.6985 H   0  0  0  0  0  0  0  0  0  0  0  0
    3.2514    0.5061   -1.5478 C   0  0  0  0  0  0  0  0  0  0  0  0
    4.2458    0.1345   -1.7443 H   0  0  0  0  0  0  0  0  0  0  0  0
    2.1752   -0.3824   -1.3620 C   0  0  0  0  0  0  0  0  0  0  0  0
    2.3403   -1.4519   -1.4159 H   0  0  0  0  0  0  0  0  0  0  0  0
   -1.4018    1.0238    0.4329 C   0  0  0  0  0  0  0  0  0  0  0  0
   -2.2416    1.5423   -0.3033 O   0  0  0  0  0  0  0  0  0  0  0  0
   -0.6927    1.7304    1.3223 N   0  0  0  0  0  0  0  0  0  0  0  0
    0.0178    1.2410    1.8469 H   0  0  0  0  0  0  0  0  0  0  0  0
   -0.8259    3.1712    1.5254 C   0  0  0  0  0  0  0  0  0  0  0  0
   -1.8769    3.4302    1.6645 H   0  0  0  0  0  0  0  0  0  0  0  0
   -0.2598    3.4806    2.4054 H   0  0  0  0  0  0  0  0  0  0  0  0
   -0.4486    3.7020    0.6489 H   0  0  0  0  0  0  0  0  0  0  0  0
  5  6  2  0  0  0  0
  5  7  1  0  0  0  0
  2  3  1  0  0  0  0
  2  4  1  0  0  0  0
  2  5  1  0  0  0  0
  1  2  1  0  0  0  0
 26 27  2  0  0  0  0
 26 28  1  0  0  0  0
 24 25  1  0  0  0  0
 22 23  1  0  0  0  0
 22 24  2  0  0  0  0
 20 21  1  0  0  0  0
 19 20  1  0  0  0  0
 19 22  1  0  0  0  0
 17 18  1  0  0  0  0
 17 19  2  0  0  0  0
 15 16  1  0  0  0  0
 15 17  1  0  0  0  0
 14 15  2  0  0  0  0
 14 24  1  0  0  0  0
 11 12  1  0  0  0  0
 11 13  1  0  0  0  0
 11 14  1  0  0  0  0
  9 10  1  0  0  0  0
  9 11  1  0  0  0  0
  9 26  1  0  0  0  0
  7  8  1  0  0  0  0
  7  9  1  0  0  0  0
 30 31  1  0  0  0  0
 30 32  1  0  0  0  0
 30 33  1  0  0  0  0
 28 29  1  0  0  0  0
 28 30  1  0  0  0  0
M  END
$$$$
default_name
  -OEChem-02102213163D

 33 33  0     1  0  0  0  0  0999 V2000
   -4.0702   -3.8485    1.4554 H   0  0  0  0  0  0  0  0  0  0  0  0
   -4.0012   -2.9605    0.8284 C   0  0  0  0  0  0  0  0  0  0  0  0
   -4.7652   -2.2435    1.1234 H   0  0  0  0  0  0  0  0  0  0  0  0
   -4.1352   -3.2385   -0.2156 H   0  0  0  0  0  0  0  0  0  0  0  0
   -2.6362   -2.3395    1.0094 C   0  0  0  0  0  0  0  0  0  0  0  0
   -1.8292   -2.8395    1.7814 O   0  0  0  0  0  0  0  0  0  0  0  0
   -2.3832   -1.2445    0.2964 N   0  0  0  0  0  0  0  0  0  0  0  0
   -3.1102   -0.8685   -0.2946 H   0  0  0  0  0  0  0  0  0  0  0  0
   -1.1292   -0.4875    0.3524 C   0  0  1  0  0  0  0  0  0  0  0  0
   -0.5898   -0.7762    1.2552 H   0  0  0  0  0  0  0  0  0  0  0  0
   -0.2608   -0.8470   -0.8656 C   0  0  0  0  0  0  0  0  0  0  0  0
    0.1614   -1.8419   -0.7184 H   0  0  0  0  0  0  0  0  0  0  0  0
   -0.8957   -0.8893   -1.7521 H   0  0  0  0  0  0  0  0  0  0  0  0
    0.8827    0.1179   -1.1125 C   0  0  0  0  0  0  0  0  0  0  0  0
    0.7606    1.4739   -0.7483 C   0  0  0  0  0  0  0  0  0  0  0  0
   -0.1618    1.8368   -0.3140 H   0  0  0  0  0  0  0  0  0  0  0  0
    1.8402    2.3574   -0.9425 C   0  0  0  0  0  0  0  0  0  0  0  0
    1.7427    3.3954   -0.6639 H   0  0  0  0  0  0  0  0  0  0  0  0
    3.0473    1.8819   -1.4996 C   0  0  0  0  0  0  0  0  0  0  0  0
    4.0953    2.7253   -1.6882 O   0  0  0  0  0  0  0  0  0  0  0  0
    3.8669    3.6347   -1.4913 H   0  0  0  0  0  0  0  0  0  0  0  0
    3.1694    0.5236   -1.8590 C   0  0  0  0  0  0  0  0  0  0  0  0
    4.0959    0.1729   -2.2881 H   0  0  0  0  0  0  0  0  0  0  0  0
    2.0869   -0.3560   -1.6679 C   0  0  0  0  0  0  0  0  0  0  0  0
    2.1783   -1.3974   -1.9528 H   0  0  0  0  0  0  0  0  0  0  0  0
   -1.4018    1.0238    0.4329 C   0  0  0  0  0  0  0  0  0  0  0  0
   -2.2416    1.5423   -0.3033 O   0  0  0  0  0  0  0  0  0  0  0  0
   -0.6927    1.7304    1.3223 N   0  0  0  0  0  0  0  0  0  0  0  0
    0.0178    1.2410    1.8469 H   0  0  0  0  0  0  0  0  0  0  0  0
   -0.8259    3.1712    1.5254 C   0  0  0  0  0  0  0  0  0  0  0  0
   -1.8769    3.4302    1.6645 H   0  0  0  0  0  0  0  0  0  0  0  0
   -0.2598    3.4806    2.4054 H   0  0  0  0  0  0  0  0  0  0  0  0
   -0.4486    3.7020    0.6489 H   0  0  0  0  0  0  0  0  0  0  0  0
  5  6  2  0  0  0  0
  5  7  1  0  0  0  0
  2  3  1  0  0  0  0
  2  4  1  0  0  0  0
  2  5  1  0  0  0  0
  1  2  1  0  0  0  0
 26 27  2  0  0  0  0
 26 28  1  0  0  0  0
 24 25  1  0  0  0  0
 22 23  1  0  0  0  0
 22 24  2  0  0  0  0
 20 21  1  0  0  0  0
 19 20  1  0  0  0  0
 19 22  1  0  0  0  0
 17 18  1  0  0  0  0
 17 19  2  0  0  0  0
 15 16  1  0  0  0  0
 15 17  1  0  0  0  0
 14 15  2  0  0  0  0
 14 24  1  0  0  0  0
 11 12  1  0  0  0  0
 11 13  1  0  0  0  0
 11 14  1  0  0  0  0
  9 10  1  0  0  0  0
  9 11  1  0  0  0  0
  9 26  1  0  0  0  0
  7  8  1  0  0  0  0
  7  9  1  0  0  0  0
 30 31  1  0  0  0  0
 30 32  1  0  0  0  0
 30 33  1  0  0  0  0
 28 29  1  0  0  0  0
 28 30  1  0  0  0  0
M  END
$$$$
default_name
  -OEChem-02102213163D

 33 33  0     1  0  0  0  0  0999 V2000
   -4.0702   -3.8485    1.4554 H   0  0  0  0  0  0  0  0  0  0  0  0
   -4.0012   -2.9605    0.8284 C   0  0  0  0  0  0  0  0  0  0  0  0
   -4.7652   -2.2435    1.1234 H   0  0  0  0  0  0  0  0  0  0  0  0
   -4.1352   -3.2385   -0.2156 H   0  0  0  0  0  0  0  0  0  0  0  0
   -2.6362   -2.3395    1.0094 C   0  0  0  0  0  0  0  0  0  0  0  0
   -1.8292   -2.8395    1.7814 O   0  0  0  0  0  0  0  0  0  0  0  0
   -2.3832   -1.2445    0.2964 N   0  0  0  0  0  0  0  0  0  0  0  0
   -3.1102   -0.8685   -0.2946 H   0  0  0  0  0  0  0  0  0  0  0  0
   -1.1292   -0.4875    0.3524 C   0  0  1  0  0  0  0  0  0  0  0  0
   -0.5898   -0.7762    1.2552 H   0  0  0  0  0  0  0  0  0  0  0  0
   -0.2608   -0.8470   -0.8656 C   0  0  0  0  0  0  0  0  0  0  0  0
    0.1614   -1.8419   -0.7184 H   0  0  0  0  0  0  0  0  0  0  0  0
   -0.8957   -0.8893   -1.7521 H   0  0  0  0  0  0  0  0  0  0  0  0
    0.8827    0.1179   -1.1125 C   0  0  0  0  0  0  0  0  0  0  0  0
    0.9002    1.3772   -0.4799 C   0  0  0  0  0  0  0  0  0  0  0  0
    0.0823    1.6702    0.1653 H   0  0  0  0  0  0  0  0  0  0  0  0
    1.9844    2.2535   -0.6807 C   0  0  0  0  0  0  0  0  0  0  0  0
    1.9938    3.2176   -0.1959 H   0  0  0  0  0  0  0  0  0  0  0  0
    3.0566    1.8672   -1.5143 C   0  0  0  0  0  0  0  0  0  0  0  0
    4.1082    2.7039   -1.7120 O   0  0  0  0  0  0  0  0  0  0  0  0
    3.9680    3.5616   -1.3087 H   0  0  0  0  0  0  0  0  0  0  0  0
    3.0397    0.6047   -2.1426 C   0  0  0  0  0  0  0  0  0  0  0  0
    3.8632    0.3225   -2.7812 H   0  0  0  0  0  0  0  0  0  0  0  0
    1.9524   -0.2671   -1.9436 C   0  0  0  0  0  0  0  0  0  0  0  0
    1.9358   -1.2331   -2.4341 H   0  0  0  0  0  0  0  0  0  0  0  0
   -1.4018    1.0238    0.4329 C   0  0  0  0  0  0  0  0  0  0  0  0
   -2.2416    1.5423   -0.3033 O   0  0  0  0  0  0  0  0  0  0  0  0
   -0.6927    1.7304    1.3223 N   0  0  0  0  0  0  0  0  0  0  0  0
    0.0178    1.2410    1.8469 H   0  0  0  0  0  0  0  0  0  0  0  0
   -0.8259    3.1712    1.5254 C   0  0  0  0  0  0  0  0  0  0  0  0
   -1.8769    3.4302    1.6645 H   0  0  0  0  0  0  0  0  0  0  0  0
   -0.2598    3.4806    2.4054 H   0  0  0  0  0  0  0  0  0  0  0  0
   -0.4486    3.7020    0.6489 H   0  0  0  0  0  0  0  0  0  0  0  0
  5  6  2  0  0  0  0
  5  7  1  0  0  0  0
  2  3  1  0  0  0  0
  2  4  1  0  0  0  0
  2  5  1  0  0  0  0
  1  2  1  0  0  0  0
 26 27  2  0  0  0  0
 26 28  1  0  0  0  0
 24 25  1  0  0  0  0
 22 23  1  0  0  0  0
 22 24  2  0  0  0  0
 20 21  1  0  0  0  0
 19 20  1  0  0  0  0
 19 22  1  0  0  0  0
 17 18  1  0  0  0  0
 17 19  2  0  0  0  0
 15 16  1  0  0  0  0
 15 17  1  0  0  0  0
 14 15  2  0  0  0  0
 14 24  1  0  0  0  0
 11 12  1  0  0  0  0
 11 13  1  0  0  0  0
 11 14  1  0  0  0  0
  9 10  1  0  0  0  0
  9 11  1  0  0  0  0
  9 26  1  0  0  0  0
  7  8  1  0  0  0  0
  7  9  1  0  0  0  0
 30 31  1  0  0  0  0
 30 32  1  0  0  0  0
 30 33  1  0  0  0  0
 28 29  1  0  0  0  0
 28 30  1  0  0  0  0
M  END
$$$$
default_name
  -OEChem-02102213163D

 33 33  0     1  0  0  0  0  0999 V2000
   -4.0702   -3.8485    1.4554 H   0  0  0  0  0  0  0  0  0  0  0  0
   -4.0012   -2.9605    0.8284 C   0  0  0  0  0  0  0  0  0  0  0  0
   -4.7652   -2.2435    1.1234 H   0  0  0  0  0  0  0  0  0  0  0  0
   -4.1352   -3.2385   -0.2156 H   0  0  0  0  0  0  0  0  0  0  0  0
   -2.6362   -2.3395    1.0094 C   0  0  0  0  0  0  0  0  0  0  0  0
   -1.8292   -2.8395    1.7814 O   0  0  0  0  0  0  0  0  0  0  0  0
   -2.3832   -1.2445    0.2964 N   0  0  0  0  0  0  0  0  0  0  0  0
   -3.1102   -0.8685   -0.2946 H   0  0  0  0  0  0  0  0  0  0  0  0
   -1.1292   -0.4875    0.3524 C   0  0  1  0  0  0  0  0  0  0  0  0
   -0.5898   -0.7762    1.2552 H   0  0  0  0  0  0  0  0  0  0  0  0
   -0.2608   -0.8470   -0.8656 C   0  0  0  0  0  0  0  0  0  0  0  0
    0.1614   -1.8419   -0.7184 H   0  0  0  0  0  0  0  0  0  0  0  0
   -0.8957   -0.8893   -1.7521 H   0  0  0  0  0  0  0  0  0  0  0  0
    0.8827    0.1179   -1.1125 C   0  0  0  0  0  0  0  0  0  0  0  0
    1.0752    1.2255   -0.2625 C   0  0  0  0  0  0  0  0  0  0  0  0
    0.3899    1.4055    0.5555 H   0  0  0  0  0  0  0  0  0  0  0  0
    2.1625    2.0960   -0.4718 C   0  0  0  0  0  0  0  0  0  0  0  0
    2.3059    2.9440    0.1801 H   0  0  0  0  0  0  0  0  0  0  0  0
    3.0625    1.8554   -1.5328 C   0  0  0  0  0  0  0  0  0  0  0  0
    4.1158    2.6873   -1.7412 O   0  0  0  0  0  0  0  0  0  0  0  0
    4.0926    3.4511   -1.1633 H   0  0  0  0  0  0  0  0  0  0  0  0
    2.8712    0.7439   -2.3794 C   0  0  0  0  0  0  0  0  0  0  0  0
    3.5636    0.5730   -3.1900 H   0  0  0  0  0  0  0  0  0  0  0  0
    1.7808   -0.1218   -2.1705 C   0  0  0  0  0  0  0  0  0  0  0  0
    1.6291   -0.9703   -2.8270 H   0  0  0  0  0  0  0  0  0  0  0  0
   -1.4018    1.0238    0.4329 C   0  0  0  0  0  0  0  0  0  0  0  0
   -2.2416    1.5423   -0.3033 O   0  0  0  0  0  0  0  0  0  0  0  0
   -0.6927    1.7304    1.3223 N   0  0  0  0  0  0  0  0  0  0  0  0
    0.0178    1.2410    1.8469 H   0  0  0  0  0  0  0  0  0  0  0  0
   -0.8259    3.1712    1.5254 C   0  0  0  0  0  0  0  0  0  0  0  0
   -1.8769    3.4302    1.6645 H   0  0  0  0  0  0  0  0  0  0  0  0
   -0.2598    3.4806    2.4054 H   0  0  0  0  0  0  0  0  0  0  0  0
   -0.4486    3.7020    0.6489 H   0  0  0  0  0  0  0  0  0  0  0  0
  5  6  2  0  0  0  0
  5  7  1  0  0  0  0
  2  3  1  0  0  0  0
  2  4  1  0  0  0  0
  2  5  1  0  0  0  0
  1  2  1  0  0  0  0
 26 27  2  0  0  0  0
 26 28  1  0  0  0  0
 24 25  1  0  0  0  0
 22 23  1  0  0  0  0
 22 24  2  0  0  0  0
 20 21  1  0  0  0  0
 19 20  1  0  0  0  0
 19 22  1  0  0  0  0
 17 18  1  0  0  0  0
 17 19  2  0  0  0  0
 15 16  1  0  0  0  0
 15 17  1  0  0  0  0
 14 15  2  0  0  0  0
 14 24  1  0  0  0  0
 11 12  1  0  0  0  0
 11 13  1  0  0  0  0
 11 14  1  0  0  0  0
  9 10  1  0  0  0  0
  9 11  1  0  0  0  0
  9 26  1  0  0  0  0
  7  8  1  0  0  0  0
  7  9  1  0  0  0  0
 30 31  1  0  0  0  0
 30 32  1  0  0  0  0
 30 33  1  0  0  0  0
 28 29  1  0  0  0  0
 28 30  1  0  0  0  0
M  END
$$$$
default_name
  -OEChem-02102213163D

 33 33  0     1  0  0  0  0  0999 V2000
   -4.0702   -3.8485    1.4554 H   0  0  0  0  0  0  0  0  0  0  0  0
   -4.0012   -2.9605    0.8284 C   0  0  0  0  0  0  0  0  0  0  0  0
   -4.7652   -2.2435    1.1234 H   0  0  0  0  0  0  0  0  0  0  0  0
   -4.1352   -3.2385   -0.2156 H   0  0  0  0  0  0  0  0  0  0  0  0
   -2.6362   -2.3395    1.0094 C   0  0  0  0  0  0  0  0  0  0  0  0
   -1.8292   -2.8395    1.7814 O   0  0  0  0  0  0  0  0  0  0  0  0
   -2.3832   -1.2445    0.2964 N   0  0  0  0  0  0  0  0  0  0  0  0
   -3.1102   -0.8685   -0.2946 H   0  0  0  0  0  0  0  0  0  0  0  0
   -1.1292   -0.4875    0.3524 C   0  0  1  0  0  0  0  0  0  0  0  0
   -0.5898   -0.7762    1.2552 H   0  0  0  0  0  0  0  0  0  0  0  0
   -0.2608   -0.8470   -0.8656 C   0  0  0  0  0  0  0  0  0  0  0  0
    0.1614   -1.8419   -0.7184 H   0  0  0  0  0  0  0  0  0  0  0  0
   -0.8957   -0.8893   -1.7521 H   0  0  0  0  0  0  0  0  0  0  0  0
    0.8827    0.1179   -1.1125 C   0  0  0  0  0  0  0  0  0  0  0  0
    1.2735    1.0292   -0.1110 C   0  0  0  0  0  0  0  0  0  0  0  0
    0.7402    1.0607    0.8301 H   0  0  0  0  0  0  0  0  0  0  0  0
    2.3622    1.8955   -0.3301 C   0  0  0  0  0  0  0  0  0  0  0  0
    2.6578    2.5931    0.4385 H   0  0  0  0  0  0  0  0  0  0  0  0
    3.0646    1.8474   -1.5540 C   0  0  0  0  0  0  0  0  0  0  0  0
    4.1177    2.6767   -1.7739 O   0  0  0  0  0  0  0  0  0  0  0  0
    4.2322    3.3108   -1.0649 H   0  0  0  0  0  0  0  0  0  0  0  0
    2.6752    0.9316   -2.5533 C   0  0  0  0  0  0  0  0  0  0  0  0
    3.2174    0.9074   -3.4866 H   0  0  0  0  0  0  0  0  0  0  0  0
    1.5837    0.0701   -2.3330 C   0  0  0  0  0  0  0  0  0  0  0  0
    1.2793   -0.6268   -3.1047 H   0  0  0  0  0  0  0  0  0  0  0  0
   -1.4018    1.0238    0.4329 C   0  0  0  0  0  0  0  0  0  0  0  0
   -2.2416    1.5423   -0.3033 O   0  0  0  0  0  0  0  0  0  0  0  0
   -0.6927    1.7304    1.3223 N   0  0  0  0  0  0  0  0  0  0  0  0
    0.0178    1.2410    1.8469 H   0  0  0  0  0  0  0  0  0  0  0  0
   -0.8259    3.1712    1.5254 C   0  0  0  0  0  0  0  0  0  0  0  0
   -1.8769    3.4302    1.6645 H   0  0  0  0  0  0  0  0  0  0  0  0
   -0.2598    3.4806    2.4054 H   0  0  0  0  0  0  0  0  0  0  0  0
   -0.4486    3.7020    0.6489 H   0  0  0  0  0  0  0  0  0  0  0  0
  5  6  2  0  0  0  0
  5  7  1  0  0  0  0
  2  3  1  0  0  0  0
  2  4  1  0  0  0  0
  2  5  1  0  0  0  0
  1  2  1  0  0  0  0
 26 27  2  0  0  0  0
 26 28  1  0  0  0  0
 24 25  1  0  0  0  0
 22 23  1  0  0  0  0
 22 24  2  0  0  0  0
 20 21  1  0  0  0  0
 19 20  1  0  0  0  0
 19 22  1  0  0  0  0
 17 18  1  0  0  0  0
 17 19  2  0  0  0  0
 15 16  1  0  0  0  0
 15 17  1  0  0  0  0
 14 15  2  0  0  0  0
 14 24  1  0  0  0  0
 11 12  1  0  0  0  0
 11 13  1  0  0  0  0
 11 14  1  0  0  0  0
  9 10  1  0  0  0  0
  9 11  1  0  0  0  0
  9 26  1  0  0  0  0
  7  8  1  0  0  0  0
  7  9  1  0  0  0  0
 30 31  1  0  0  0  0
 30 32  1  0  0  0  0
 30 33  1  0  0  0  0
 28 29  1  0  0  0  0
 28 30  1  0  0  0  0
M  END
$$$$
default_name
  -OEChem-02102213163D

 33 33  0     1  0  0  0  0  0999 V2000
   -4.0702   -3.8485    1.4554 H   0  0  0  0  0  0  0  0  0  0  0  0
   -4.0012   -2.9605    0.8284 C   0  0  0  0  0  0  0  0  0  0  0  0
   -4.7652   -2.2435    1.1234 H   0  0  0  0  0  0  0  0  0  0  0  0
   -4.1352   -3.2385   -0.2156 H   0  0  0  0  0  0  0  0  0  0  0  0
   -2.6362   -2.3395    1.0094 C   0  0  0  0  0  0  0  0  0  0  0  0
   -1.8292   -2.8395    1.7814 O   0  0  0  0  0  0  0  0  0  0  0  0
   -2.3832   -1.2445    0.2964 N   0  0  0  0  0  0  0  0  0  0  0  0
   -3.1102   -0.8685   -0.2946 H   0  0  0  0  0  0  0  0  0  0  0  0
   -1.1292   -0.4875    0.3524 C   0  0  1  0  0  0  0  0  0  0  0  0
   -0.5898   -0.7762    1.2552 H   0  0  0  0  0  0  0  0  0  0  0  0
   -0.2608   -0.8470   -0.8656 C   0  0  0  0  0  0  0  0  0  0  0  0
    0.1614   -1.8419   -0.7184 H   0  0  0  0  0  0  0  0  0  0  0  0
   -0.8957   -0.8893   -1.7521 H   0  0  0  0  0  0  0  0  0  0  0  0
    0.8827    0.1179   -1.1125 C   0  0  0  0  0  0  0  0  0  0  0  0
    1.4819    0.8016   -0.0356 C   0  0  0  0  0  0  0  0  0  0  0  0
    1.1093    0.6592    0.9704 H   0  0  0  0  0  0  0  0  0  0  0  0
    2.5700    1.6658   -0.2652 C   0  0  0  0  0  0  0  0  0  0  0  0
    3.0254    2.1889    0.5616 H   0  0  0  0  0  0  0  0  0  0  0  0
    3.0629    1.8438   -1.5764 C   0  0  0  0  0  0  0  0  0  0  0  0
    4.1137    2.6728   -1.8079 O   0  0  0  0  0  0  0  0  0  0  0  0
    4.3774    3.1502   -1.0202 H   0  0  0  0  0  0  0  0  0  0  0  0
    2.4652    1.1551   -2.6522 C   0  0  0  0  0  0  0  0  0  0  0  0
    2.8482    1.3028   -3.6508 H   0  0  0  0  0  0  0  0  0  0  0  0
    1.3748    0.2955   -2.4200 C   0  0  0  0  0  0  0  0  0  0  0  0
    0.9102   -0.2261   -3.2483 H   0  0  0  0  0  0  0  0  0  0  0  0
   -1.4018    1.0238    0.4329 C   0  0  0  0  0  0  0  0  0  0  0  0
   -2.2416    1.5423   -0.3033 O   0  0  0  0  0  0  0  0  0  0  0  0
   -0.6927    1.7304    1.3223 N   0  0  0  0  0  0  0  0  0  0  0  0
    0.0178    1.2410    1.8469 H   0  0  0  0  0  0  0  0  0  0  0  0
   -0.8259    3.1712    1.5254 C   0  0  0  0  0  0  0  0  0  0  0  0
   -1.8769    3.4302    1.6645 H   0  0  0  0  0  0  0  0  0  0  0  0
   -0.2598    3.4806    2.4054 H   0  0  0  0  0  0  0  0  0  0  0  0
   -0.4486    3.7020    0.6489 H   0  0  0  0  0  0  0  0  0  0  0  0
  5  6  2  0  0  0  0
  5  7  1  0  0  0  0
  2  3  1  0  0  0  0
  2  4  1  0  0  0  0
  2  5  1  0  0  0  0
  1  2  1  0  0  0  0
 26 27  2  0  0  0  0
 26 28  1  0  0  0  0
 24 25  1  0  0  0  0
 22 23  1  0  0  0  0
 22 24  2  0  0  0  0
 20 21  1  0  0  0  0
 19 20  1  0  0  0  0
 19 22  1  0  0  0  0
 17 18  1  0  0  0  0
 17 19  2  0  0  0  0
 15 16  1  0  0  0  0
 15 17  1  0  0  0  0
 14 15  2  0  0  0  0
 14 24  1  0  0  0  0
 11 12  1  0  0  0  0
 11 13  1  0  0  0  0
 11 14  1  0  0  0  0
  9 10  1  0  0  0  0
  9 11  1  0  0  0  0
  9 26  1  0  0  0  0
  7  8  1  0  0  0  0
  7  9  1  0  0  0  0
 30 31  1  0  0  0  0
 30 32  1  0  0  0  0
 30 33  1  0  0  0  0
 28 29  1  0  0  0  0
 28 30  1  0  0  0  0
M  END
$$$$
default_name
  -OEChem-02102213163D

 33 33  0     1  0  0  0  0  0999 V2000
   -4.0702   -3.8485    1.4554 H   0  0  0  0  0  0  0  0  0  0  0  0
   -4.0012   -2.9605    0.8284 C   0  0  0  0  0  0  0  0  0  0  0  0
   -4.7652   -2.2435    1.1234 H   0  0  0  0  0  0  0  0  0  0  0  0
   -4.1352   -3.2385   -0.2156 H   0  0  0  0  0  0  0  0  0  0  0  0
   -2.6362   -2.3395    1.0094 C   0  0  0  0  0  0  0  0  0  0  0  0
   -1.8292   -2.8395    1.7814 O   0  0  0  0  0  0  0  0  0  0  0  0
   -2.3832   -1.2445    0.2964 N   0  0  0  0  0  0  0  0  0  0  0  0
   -3.1102   -0.8685   -0.2946 H   0  0  0  0  0  0  0  0  0  0  0  0
   -1.1292   -0.4875    0.3524 C   0  0  1  0  0  0  0  0  0  0  0  0
   -0.5898   -0.7762    1.2552 H   0  0  0  0  0  0  0  0  0  0  0  0
   -0.2608   -0.8470   -0.8656 C   0  0  0  0  0  0  0  0  0  0  0  0
    0.1614   -1.8419   -0.7184 H   0  0  0  0  0  0  0  0  0  0  0  0
   -0.8957   -0.8893   -1.7521 H   0  0  0  0  0  0  0  0  0  0  0  0
    0.8827    0.1179   -1.1125 C   0  0  0  0  0  0  0  0  0  0  0  0
    1.6859    0.5583   -0.0414 C   0  0  0  0  0  0  0  0  0  0  0  0
    1.4719    0.2285    0.9668 H   0  0  0  0  0  0  0  0  0  0  0  0
    2.7718    1.4225   -0.2817 C   0  0  0  0  0  0  0  0  0  0  0  0
    3.3838    1.7590    0.5411 H   0  0  0  0  0  0  0  0  0  0  0  0
    3.0573    1.8447   -1.5984 C   0  0  0  0  0  0  0  0  0  0  0  0
    4.1041    2.6758   -1.8409 O   0  0  0  0  0  0  0  0  0  0  0  0
    4.5183    2.9802   -1.0323 H   0  0  0  0  0  0  0  0  0  0  0  0
    2.2555    1.3992   -2.6696 C   0  0  0  0  0  0  0  0  0  0  0  0
    2.4813    1.7324   -3.6714 H   0  0  0  0  0  0  0  0  0  0  0  0
    1.1681    0.5390   -2.4257 C   0  0  0  0  0  0  0  0  0  0  0  0
    0.5469    0.2045   -3.2481 H   0  0  0  0  0  0  0  0  0  0  0  0
   -1.4018    1.0238    0.4329 C   0  0  0  0  0  0  0  0  0  0  0  0
   -2.2416    1.5423   -0.3033 O   0  0  0  0  0  0  0  0  0  0  0  0
   -0.6927    1.7304    1.3223 N   0  0  0  0  0  0  0  0  0  0  0  0
    0.0178    1.2410    1.8469 H   0  0  0  0  0  0  0  0  0  0  0  0
   -0.8259    3.1712    1.5254 C   0  0  0  0  0  0  0  0  0  0  0  0
   -1.8769    3.4302    1.6645 H   0  0  0  0  0  0  0  0  0  0  0  0
   -0.2598    3.4806    2.4054 H   0  0  0  0  0  0  0  0  0  0  0  0
   -0.4486    3.7020    0.6489 H   0  0  0  0  0  0  0  0  0  0  0  0
  5  6  2  0  0  0  0
  5  7  1  0  0  0  0
  2  3  1  0  0  0  0
  2  4  1  0  0  0  0
  2  5  1  0  0  0  0
  1  2  1  0  0  0  0
 26 27  2  0  0  0  0
 26 28  1  0  0  0  0
 24 25  1  0  0  0  0
 22 23  1  0  0  0  0
 22 24  2  0  0  0  0
 20 21  1  0  0  0  0
 19 20  1  0  0  0  0
 19 22  1  0  0  0  0
 17 18  1  0  0  0  0
 17 19  2  0  0  0  0
 15 16  1  0  0  0  0
 15 17  1  0  0  0  0
 14 15  2  0  0  0  0
 14 24  1  0  0  0  0
 11 12  1  0  0  0  0
 11 13  1  0  0  0  0
 11 14  1  0  0  0  0
  9 10  1  0  0  0  0
  9 11  1  0  0  0  0
  9 26  1  0  0  0  0
  7  8  1  0  0  0  0
  7  9  1  0  0  0  0
 30 31  1  0  0  0  0
 30 32  1  0  0  0  0
 30 33  1  0  0  0  0
 28 29  1  0  0  0  0
 28 30  1  0  0  0  0
M  END
$$$$
default_name
  -OEChem-02102213163D

 33 33  0     1  0  0  0  0  0999 V2000
   -4.0702   -3.8485    1.4554 H   0  0  0  0  0  0  0  0  0  0  0  0
   -4.0012   -2.9605    0.8284 C   0  0  0  0  0  0  0  0  0  0  0  0
   -4.7652   -2.2435    1.1234 H   0  0  0  0  0  0  0  0  0  0  0  0
   -4.1352   -3.2385   -0.2156 H   0  0  0  0  0  0  0  0  0  0  0  0
   -2.6362   -2.3395    1.0094 C   0  0  0  0  0  0  0  0  0  0  0  0
   -1.8292   -2.8395    1.7814 O   0  0  0  0  0  0  0  0  0  0  0  0
   -2.3832   -1.2445    0.2964 N   0  0  0  0  0  0  0  0  0  0  0  0
   -3.1102   -0.8685   -0.2946 H   0  0  0  0  0  0  0  0  0  0  0  0
   -1.1292   -0.4875    0.3524 C   0  0  1  0  0  0  0  0  0  0  0  0
   -0.5898   -0.7762    1.2552 H   0  0  0  0  0  0  0  0  0  0  0  0
   -0.2608   -0.8470   -0.8656 C   0  0  0  0  0  0  0  0  0  0  0  0
    0.1614   -1.8419   -0.7184 H   0  0  0  0  0  0  0  0  0  0  0  0
   -0.8957   -0.8893   -1.7521 H   0  0  0  0  0  0  0  0  0  0  0  0
    0.8827    0.1179   -1.1125 C   0  0  0  0  0  0  0  0  0  0  0  0
    1.8718    0.3158   -0.1282 C   0  0  0  0  0  0  0  0  0  0  0  0
    1.8035   -0.2021    0.8195 H   0  0  0  0  0  0  0  0  0  0  0  0
    2.9537    1.1823   -0.3782 C   0  0  0  0  0  0  0  0  0  0  0  0
    3.7084    1.3326    0.3784 H   0  0  0  0  0  0  0  0  0  0  0  0
    3.0484    1.8501   -1.6186 C   0  0  0  0  0  0  0  0  0  0  0  0
    4.0894    2.6855   -1.8705 O   0  0  0  0  0  0  0  0  0  0  0  0
    4.6451    2.8124   -1.1004 H   0  0  0  0  0  0  0  0  0  0  0  0
    2.0604    1.6472   -2.6043 C   0  0  0  0  0  0  0  0  0  0  0  0
    2.1415    2.1669   -3.5471 H   0  0  0  0  0  0  0  0  0  0  0  0
    0.9777    0.7840   -2.3497 C   0  0  0  0  0  0  0  0  0  0  0  0
    0.2141    0.6358   -3.1039 H   0  0  0  0  0  0  0  0  0  0  0  0
   -1.4018    1.0238    0.4329 C   0  0  0  0  0  0  0  0  0  0  0  0
   -2.2416    1.5423   -0.3033 O   0  0  0  0  0  0  0  0  0  0  0  0
   -0.6927    1.7304    1.3223 N   0  0  0  0  0  0  0  0  0  0  0  0
    0.0178    1.2410    1.8469 H   0  0  0  0  0  0  0  0  0  0  0  0
   -0.8259    3.1712    1.5254 C   0  0  0  0  0  0  0  0  0  0  0  0
   -1.8769    3.4302    1.6645 H   0  0  0  0  0  0  0  0  0  0  0  0
   -0.2598    3.4806    2.4054 H   0  0  0  0  0  0  0  0  0  0  0  0
   -0.4486    3.7020    0.6489 H   0  0  0  0  0  0  0  0  0  0  0  0
  5  6  2  0  0  0  0
  5  7  1  0  0  0  0
  2  3  1  0  0  0  0
  2  4  1  0  0  0  0
  2  5  1  0  0  0  0
  1  2  1  0  0  0  0
 26 27  2  0  0  0  0
 26 28  1  0  0  0  0
 24 25  1  0  0  0  0
 22 23  1  0  0  0  0
 22 24  2  0  0  0  0
 20 21  1  0  0  0  0
 19 20  1  0  0  0  0
 19 22  1  0  0  0  0
 17 18  1  0  0  0  0
 17 19  2  0  0  0  0
 15 16  1  0  0  0  0
 15 17  1  0  0  0  0
 14 15  2  0  0  0  0
 14 24  1  0  0  0  0
 11 12  1  0  0  0  0
 11 13  1  0  0  0  0
 11 14  1  0  0  0  0
  9 10  1  0  0  0  0
  9 11  1  0  0  0  0
  9 26  1  0  0  0  0
  7  8  1  0  0  0  0
  7  9  1  0  0  0  0
 30 31  1  0  0  0  0
 30 32  1  0  0  0  0
 30 33  1  0  0  0  0
 28 29  1  0  0  0  0
 28 30  1  0  0  0  0
M  END
$$$$
default_name
  -OEChem-02102213163D

 33 33  0     1  0  0  0  0  0999 V2000
   -4.0702   -3.8485    1.4554 H   0  0  0  0  0  0  0  0  0  0  0  0
   -4.0012   -2.9605    0.8284 C   0  0  0  0  0  0  0  0  0  0  0  0
   -4.7652   -2.2435    1.1234 H   0  0  0  0  0  0  0  0  0  0  0  0
   -4.1352   -3.2385   -0.2156 H   0  0  0  0  0  0  0  0  0  0  0  0
   -2.6362   -2.3395    1.0094 C   0  0  0  0  0  0  0  0  0  0  0  0
   -1.8292   -2.8395    1.7814 O   0  0  0  0  0  0  0  0  0  0  0  0
   -2.3832   -1.2445    0.2964 N   0  0  0  0  0  0  0  0  0  0  0  0
   -3.1102   -0.8685   -0.2946 H   0  0  0  0  0  0  0  0  0  0  0  0
   -1.1292   -0.4875    0.3524 C   0  0  1  0  0  0  0  0  0  0  0  0
   -0.5898   -0.7762    1.2552 H   0  0  0  0  0  0  0  0  0  0  0  0
   -0.2608   -0.8470   -0.8656 C   0  0  0  0  0  0  0  0  0  0  0  0
    0.1614   -1.8419   -0.7184 H   0  0  0  0  0  0  0  0  0  0  0  0
   -0.8957   -0.8893   -1.7521 H   0  0  0  0  0  0  0  0  0  0  0  0
    0.8827    0.1179   -1.1125 C   0  0  0  0  0  0  0  0  0  0  0  0
    2.0268    0.0907   -0.2900 C   0  0  0  0  0  0  0  0  0  0  0  0
    2.0813   -0.6032    0.5386 H   0  0  0  0  0  0  0  0  0  0  0  0
    3.1034    0.9613   -0.5483 C   0  0  0  0  0  0  0  0  0  0  0  0
    3.9772    0.9388    0.0845 H   0  0  0  0  0  0  0  0  0  0  0  0
    3.0367    1.8597   -1.6356 C   0  0  0  0  0  0  0  0  0  0  0  0
    4.0709    2.7013   -1.8949 O   0  0  0  0  0  0  0  0  0  0  0  0
    4.7494    2.6583   -1.2198 H   0  0  0  0  0  0  0  0  0  0  0  0
    1.8931    1.8822   -2.4606 C   0  0  0  0  0  0  0  0  0  0  0  0
    1.8521    2.5766   -3.2862 H   0  0  0  0  0  0  0  0  0  0  0  0
    0.8167    1.0139   -2.1970 C   0  0  0  0  0  0  0  0  0  0  0  0
   -0.0654    1.0382   -2.8257 H   0  0  0  0  0  0  0  0  0  0  0  0
   -1.4018    1.0238    0.4329 C   0  0  0  0  0  0  0  0  0  0  0  0
   -2.2416    1.5423   -0.3033 O   0  0  0  0  0  0  0  0  0  0  0  0
   -0.6927    1.7304    1.3223 N   0  0  0  0  0  0  0  0  0  0  0  0
    0.0178    1.2410    1.8469 H   0  0  0  0  0  0  0  0  0  0  0  0
   -0.8259    3.1712    1.5254 C   0  0  0  0  0  0  0  0  0  0  0  0
   -1.8769    3.4302    1.6645 H   0  0  0  0  0  0  0  0  0  0  0  0
   -0.2598    3.4806    2.4054 H   0  0  0  0  0  0  0  0  0  0  0  0
   -0.4486    3.7020    0.6489 H   0  0  0  0  0  0  0  0  0  0  0  0
  5  6  2  0  0  0  0
  5  7  1  0  0  0  0
  2  3  1  0  0  0  0
  2  4  1  0  0  0  0
  2  5  1  0  0  0  0
  1  2  1  0  0  0  0
 26 27  2  0  0  0  0
 26 28  1  0  0  0  0
 24 25  1  0  0  0  0
 22 23  1  0  0  0  0
 22 24  2  0  0  0  0
 20 21  1  0  0  0  0
 19 20  1  0  0  0  0
 19 22  1  0  0  0  0
 17 18  1  0  0  0  0
 17 19  2  0  0  0  0
 15 16  1  0  0  0  0
 15 17  1  0  0  0  0
 14 15  2  0  0  0  0
 14 24  1  0  0  0  0
 11 12  1  0  0  0  0
 11 13  1  0  0  0  0
 11 14  1  0  0  0  0
  9 10  1  0  0  0  0
  9 11  1  0  0  0  0
  9 26  1  0  0  0  0
  7  8  1  0  0  0  0
  7  9  1  0  0  0  0
 30 31  1  0  0  0  0
 30 32  1  0  0  0  0
 30 33  1  0  0  0  0
 28 29  1  0  0  0  0
 28 30  1  0  0  0  0
M  END
$$$$
default_name
  -OEChem-02102213163D

 33 33  0     1  0  0  0  0  0999 V2000
   -4.0702   -3.8485    1.4554 H   0  0  0  0  0  0  0  0  0  0  0  0
   -4.0012   -2.9605    0.8284 C   0  0  0  0  0  0  0  0  0  0  0  0
   -4.7652   -2.2435    1.1234 H   0  0  0  0  0  0  0  0  0  0  0  0
   -4.1352   -3.2385   -0.2156 H   0  0  0  0  0  0  0  0  0  0  0  0
   -2.6362   -2.3395    1.0094 C   0  0  0  0  0  0  0  0  0  0  0  0
   -1.8292   -2.8395    1.7814 O   0  0  0  0  0  0  0  0  0  0  0  0
   -2.3832   -1.2445    0.2964 N   0  0  0  0  0  0  0  0  0  0  0  0
   -3.1102   -0.8685   -0.2946 H   0  0  0  0  0  0  0  0  0  0  0  0
   -1.1292   -0.4875    0.3524 C   0  0  1  0  0  0  0  0  0  0  0  0
   -0.5898   -0.7762    1.2552 H   0  0  0  0  0  0  0  0  0  0  0  0
   -0.2608   -0.8470   -0.8656 C   0  0  0  0  0  0  0  0  0  0  0  0
    0.1614   -1.8419   -0.7184 H   0  0  0  0  0  0  0  0  0  0  0  0
   -0.8957   -0.8893   -1.7521 H   0  0  0  0  0  0  0  0  0  0  0  0
    0.8827    0.1179   -1.1125 C   0  0  0  0  0  0  0  0  0  0  0  0
    2.1404   -0.1017   -0.5157 C   0  0  0  0  0  0  0  0  0  0  0  0
    2.2865   -0.9476    0.1433 H   0  0  0  0  0  0  0  0  0  0  0  0
    3.2106    0.7748   -0.7804 C   0  0  0  0  0  0  0  0  0  0  0  0
    4.1719    0.6045   -0.3204 H   0  0  0  0  0  0  0  0  0  0  0  0
    3.0230    1.8727   -1.6482 C   0  0  0  0  0  0  0  0  0  0  0  0
    4.0496    2.7221   -1.9122 O   0  0  0  0  0  0  0  0  0  0  0  0
    4.8240    2.5283   -1.3824 H   0  0  0  0  0  0  0  0  0  0  0  0
    1.7651    2.0882   -2.2484 C   0  0  0  0  0  0  0  0  0  0  0  0
    1.6329    2.9336   -2.9067 H   0  0  0  0  0  0  0  0  0  0  0  0
    0.6961    1.2129   -1.9782 C   0  0  0  0  0  0  0  0  0  0  0  0
   -0.2726    1.3844   -2.4325 H   0  0  0  0  0  0  0  0  0  0  0  0
   -1.4018    1.0238    0.4329 C   0  0  0  0  0  0  0  0  0  0  0  0
   -2.2416    1.5423   -0.3033 O   0  0  0  0  0  0  0  0  0  0  0  0
   -0.6927    1.7304    1.3223 N   0  0  0  0  0  0  0  0  0  0  0  0
    0.0178    1.2410    1.8469 H   0  0  0  0  0  0  0  0  0  0  0  0
   -0.8259    3.1712    1.5254 C   0  0  0  0  0  0  0  0  0  0  0  0
   -1.8769    3.4302    1.6645 H   0  0  0  0  0  0  0  0  0  0  0  0
   -0.2598    3.4806    2.4054 H   0  0  0  0  0  0  0  0  0  0  0  0
   -0.4486    3.7020    0.6489 H   0  0  0  0  0  0  0  0  0  0  0  0
  5  6  2  0  0  0  0
  5  7  1  0  0  0  0
  2  3  1  0  0  0  0
  2  4  1  0  0  0  0
  2  5  1  0  0  0  0
  1  2  1  0  0  0  0
 26 27  2  0  0  0  0
 26 28  1  0  0  0  0
 24 25  1  0  0  0  0
 22 23  1  0  0  0  0
 22 24  2  0  0  0  0
 20 21  1  0  0  0  0
 19 20  1  0  0  0  0
 19 22  1  0  0  0  0
 17 18  1  0  0  0  0
 17 19  2  0  0  0  0
 15 16  1  0  0  0  0
 15 17  1  0  0  0  0
 14 15  2  0  0  0  0
 14 24  1  0  0  0  0
 11 12  1  0  0  0  0
 11 13  1  0  0  0  0
 11 14  1  0  0  0  0
  9 10  1  0  0  0  0
  9 11  1  0  0  0  0
  9 26  1  0  0  0  0
  7  8  1  0  0  0  0
  7  9  1  0  0  0  0
 30 31  1  0  0  0  0
 30 32  1  0  0  0  0
 30 33  1  0  0  0  0
 28 29  1  0  0  0  0
 28 30  1  0  0  0  0
M  END
$$$$
default_name
  -OEChem-02102213163D

 33 33  0     1  0  0  0  0  0999 V2000
   -4.0702   -3.8485    1.4554 H   0  0  0  0  0  0  0  0  0  0  0  0
   -4.0012   -2.9605    0.8284 C   0  0  0  0  0  0  0  0  0  0  0  0
   -4.7652   -2.2435    1.1234 H   0  0  0  0  0  0  0  0  0  0  0  0
   -4.1352   -3.2385   -0.2156 H   0  0  0  0  0  0  0  0  0  0  0  0
   -2.6362   -2.3395    1.0094 C   0  0  0  0  0  0  0  0  0  0  0  0
   -1.8292   -2.8395    1.7814 O   0  0  0  0  0  0  0  0  0  0  0  0
   -2.3832   -1.2445    0.2964 N   0  0  0  0  0  0  0  0  0  0  0  0
   -3.1102   -0.8685   -0.2946 H   0  0  0  0  0  0  0  0  0  0  0  0
   -1.1292   -0.4875    0.3524 C   0  0  1  0  0  0  0  0  0  0  0  0
   -0.5898   -0.7762    1.2552 H   0  0  0  0  0  0  0  0  0  0  0  0
   -0.2608   -0.8470   -0.8656 C   0  0  0  0  0  0  0  0  0  0  0  0
    0.1614   -1.8419   -0.7184 H   0  0  0  0  0  0  0  0  0  0  0  0
   -0.8957   -0.8893   -1.7521 H   0  0  0  0  0  0  0  0  0  0  0  0
    0.8827    0.1179   -1.1125 C   0  0  0  0  0  0  0  0  0  0  0  0
    2.2048   -0.2483   -0.7900 C   0  0  0  0  0  0  0  0  0  0  0  0
    2.4051   -1.2118   -0.3397 H   0  0  0  0  0  0  0  0  0  0  0  0
    3.2681    0.6354   -1.0587 C   0  0  0  0  0  0  0  0  0  0  0  0
    4.2791    0.3523   -0.8089 H   0  0  0  0  0  0  0  0  0  0  0  0
    3.0082    1.8883   -1.6556 C   0  0  0  0  0  0  0  0  0  0  0  0
    4.0270    2.7465   -1.9214 O   0  0  0  0  0  0  0  0  0  0  0  0
    4.8637    2.4313   -1.5771 H   0  0  0  0  0  0  0  0  0  0  0  0
    1.6851    2.2512   -1.9822 C   0  0  0  0  0  0  0  0  0  0  0  0
    1.4986    3.2137   -2.4343 H   0  0  0  0  0  0  0  0  0  0  0  0
    0.6239    1.3675   -1.7082 C   0  0  0  0  0  0  0  0  0  0  0  0
   -0.3933    1.6508   -1.9509 H   0  0  0  0  0  0  0  0  0  0  0  0
   -1.4018    1.0238    0.4329 C   0  0  0  0  0  0  0  0  0  0  0  0
   -2.2416    1.5423   -0.3033 O   0  0  0  0  0  0  0  0  0  0  0  0
   -0.6927    1.7304    1.3223 N   0  0  0  0  0  0  0  0  0  0  0  0
    0.0178    1.2410    1.8469 H   0  0  0  0  0  0  0  0  0  0  0  0
   -0.8259    3.1712    1.5254 C   0  0  0  0  0  0  0  0  0  0  0  0
   -1.8769    3.4302    1.6645 H   0  0  0  0  0  0  0  0  0  0  0  0
   -0.2598    3.4806    2.4054 H   0  0  0  0  0  0  0  0  0  0  0  0
   -0.4486    3.7020    0.6489 H   0  0  0  0  0  0  0  0  0  0  0  0
  5  6  2  0  0  0  0
  5  7  1  0  0  0  0
  2  3  1  0  0  0  0
  2  4  1  0  0  0  0
  2  5  1  0  0  0  0
  1  2  1  0  0  0  0
 26 27  2  0  0  0  0
 26 28  1  0  0  0  0
 24 25  1  0  0  0  0
 22 23  1  0  0  0  0
 22 24  2  0  0  0  0
 20 21  1  0  0  0  0
 19 20  1  0  0  0  0
 19 22  1  0  0  0  0
 17 18  1  0  0  0  0
 17 19  2  0  0  0  0
 15 16  1  0  0  0  0
 15 17  1  0  0  0  0
 14 15  2  0  0  0  0
 14 24  1  0  0  0  0
 11 12  1  0  0  0  0
 11 13  1  0  0  0  0
 11 14  1  0  0  0  0
  9 10  1  0  0  0  0
  9 11  1  0  0  0  0
  9 26  1  0  0  0  0
  7  8  1  0  0  0  0
  7  9  1  0  0  0  0
 30 31  1  0  0  0  0
 30 32  1  0  0  0  0
 30 33  1  0  0  0  0
 28 29  1  0  0  0  0
 28 30  1  0  0  0  0
M  END
$$$$
default_name
  -OEChem-02102213163D

 33 33  0     1  0  0  0  0  0999 V2000
   -4.0702   -3.8485    1.4554 H   0  0  0  0  0  0  0  0  0  0  0  0
   -4.0012   -2.9605    0.8284 C   0  0  0  0  0  0  0  0  0  0  0  0
   -4.7652   -2.2435    1.1234 H   0  0  0  0  0  0  0  0  0  0  0  0
   -4.1352   -3.2385   -0.2156 H   0  0  0  0  0  0  0  0  0  0  0  0
   -2.6362   -2.3395    1.0094 C   0  0  0  0  0  0  0  0  0  0  0  0
   -1.8292   -2.8395    1.7814 O   0  0  0  0  0  0  0  0  0  0  0  0
   -2.3832   -1.2445    0.2964 N   0  0  0  0  0  0  0  0  0  0  0  0
   -3.1102   -0.8685   -0.2946 H   0  0  0  0  0  0  0  0  0  0  0  0
   -1.1292   -0.4875    0.3524 C   0  0  1  0  0  0  0  0  0  0  0  0
   -0.5898   -0.7762    1.2552 H   0  0  0  0  0  0  0  0  0  0  0  0
   -0.2608   -0.8470   -0.8656 C   0  0  0  0  0  0  0  0  0  0  0  0
    0.1614   -1.8419   -0.7184 H   0  0  0  0  0  0  0  0  0  0  0  0
   -0.8957   -0.8893   -1.7521 H   0  0  0  0  0  0  0  0  0  0  0  0
    0.8827    0.1179   -1.1125 C   0  0  0  0  0  0  0  0  0  0  0  0
    2.2158   -0.3391   -1.0941 C   0  0  0  0  0  0  0  0  0  0  0  0
    2.4290   -1.3776   -0.8772 H   0  0  0  0  0  0  0  0  0  0  0  0
    3.2720    0.5527   -1.3641 C   0  0  0  0  0  0  0  0  0  0  0  0
    4.2916    0.1996   -1.3476 H   0  0  0  0  0  0  0  0  0  0  0  0
    2.9934    1.9055   -1.6572 C   0  0  0  0  0  0  0  0  0  0  0  0
    4.0047    2.7728   -1.9219 O   0  0  0  0  0  0  0  0  0  0  0  0
    4.8660    2.3740   -1.7906 H   0  0  0  0  0  0  0  0  0  0  0  0
    1.6585    2.3600   -1.6800 C   0  0  0  0  0  0  0  0  0  0  0  0
    1.4585    3.3976   -1.9012 H   0  0  0  0  0  0  0  0  0  0  0  0
    0.6052    1.4672   -1.4052 C   0  0  0  0  0  0  0  0  0  0  0  0
   -0.4195    1.8192   -1.4139 H   0  0  0  0  0  0  0  0  0  0  0  0
   -1.4018    1.0238    0.4329 C   0  0  0  0  0  0  0  0  0  0  0  0
   -2.2416    1.5423   -0.3033 O   0  0  0  0  0  0  0  0  0  0  0  0
   -0.6927    1.7304    1.3223 N   0  0  0  0  0  0  0  0  0  0  0  0
    0.0178    1.2410    1.8469 H   0  0  0  0  0  0  0  0  0  0  0  0
   -0.8259    3.1712    1.5254 C   0  0  0  0  0  0  0  0  0  0  0  0
   -1.8769    3.4302    1.6645 H   0  0  0  0  0  0  0  0  0  0  0  0
   -0.2598    3.4806    2.4054 H   0  0  0  0  0  0  0  0  0  0  0  0
   -0.4486    3.7020    0.6489 H   0  0  0  0  0  0  0  0  0  0  0  0
  5  6  2  0  0  0  0
  5  7  1  0  0  0  0
  2  3  1  0  0  0  0
  2  4  1  0  0  0  0
  2  5  1  0  0  0  0
  1  2  1  0  0  0  0
 26 27  2  0  0  0  0
 26 28  1  0  0  0  0
 24 25  1  0  0  0  0
 22 23  1  0  0  0  0
 22 24  2  0  0  0  0
 20 21  1  0  0  0  0
 19 20  1  0  0  0  0
 19 22  1  0  0  0  0
 17 18  1  0  0  0  0
 17 19  2  0  0  0  0
 15 16  1  0  0  0  0
 15 17  1  0  0  0  0
 14 15  2  0  0  0  0
 14 24  1  0  0  0  0
 11 12  1  0  0  0  0
 11 13  1  0  0  0  0
 11 14  1  0  0  0  0
  9 10  1  0  0  0  0
  9 11  1  0  0  0  0
  9 26  1  0  0  0  0
  7  8  1  0  0  0  0
  7  9  1  0  0  0  0
 30 31  1  0  0  0  0
 30 32  1  0  0  0  0
 30 33  1  0  0  0  0
 28 29  1  0  0  0  0
 28 30  1  0  0  0  0
M  END
$$$$
default_name
  -OEChem-02102213163D

 33 33  0     1  0  0  0  0  0999 V2000
   -4.0702   -3.8485    1.4554 H   0  0  0  0  0  0  0  0  0  0  0  0
   -4.0012   -2.9605    0.8284 C   0  0  0  0  0  0  0  0  0  0  0  0
   -4.7652   -2.2435    1.1234 H   0  0  0  0  0  0  0  0  0  0  0  0
   -4.1352   -3.2385   -0.2156 H   0  0  0  0  0  0  0  0  0  0  0  0
   -2.6362   -2.3395    1.0094 C   0  0  0  0  0  0  0  0  0  0  0  0
   -1.8292   -2.8395    1.7814 O   0  0  0  0  0  0  0  0  0  0  0  0
   -2.3832   -1.2445    0.2964 N   0  0  0  0  0  0  0  0  0  0  0  0
   -3.1102   -0.8685   -0.2946 H   0  0  0  0  0  0  0  0  0  0  0  0
   -1.1292   -0.4875    0.3524 C   0  0  1  0  0  0  0  0  0  0  0  0
   -0.5898   -0.7762    1.2552 H   0  0  0  0  0  0  0  0  0  0  0  0
   -0.2608   -0.8470   -0.8656 C   0  0  0  0  0  0  0  0  0  0  0  0
    0.1614   -1.8419   -0.7184 H   0  0  0  0  0  0  0  0  0  0  0  0
   -0.8957   -0.8893   -1.7521 H   0  0  0  0  0  0  0  0  0  0  0  0
    0.8827    0.1179   -1.1125 C   0  0  0  0  0  0  0  0  0  0  0  0
    2.1724   -0.3679   -1.4074 C   0  0  0  0  0  0  0  0  0  0  0  0
    2.3565   -1.4340   -1.4327 H   0  0  0  0  0  0  0  0  0  0  0  0
    3.2219    0.5322   -1.6759 C   0  0  0  0  0  0  0  0  0  0  0  0
    4.2086    0.1567   -1.8998 H   0  0  0  0  0  0  0  0  0  0  0  0
    2.9795    1.9230   -1.6530 C   0  0  0  0  0  0  0  0  0  0  0  0
    3.9843    2.7992   -1.9135 O   0  0  0  0  0  0  0  0  0  0  0  0
    4.8306    2.3602   -2.0084 H   0  0  0  0  0  0  0  0  0  0  0  0
    1.6872    2.4073   -1.3626 C   0  0  0  0  0  0  0  0  0  0  0  0
    1.5153    3.4730   -1.3437 H   0  0  0  0  0  0  0  0  0  0  0  0
    0.6413    1.5052   -1.0901 C   0  0  0  0  0  0  0  0  0  0  0  0
   -0.3492    1.8782   -0.8579 H   0  0  0  0  0  0  0  0  0  0  0  0
   -1.4018    1.0238    0.4329 C   0  0  0  0  0  0  0  0  0  0  0  0
   -2.2416    1.5423   -0.3033 O   0  0  0  0  0  0  0  0  0  0  0  0
   -0.6927    1.7304    1.3223 N   0  0  0  0  0  0  0  0  0  0  0  0
    0.0178    1.2410    1.8469 H   0  0  0  0  0  0  0  0  0  0  0  0
   -0.8259    3.1712    1.5254 C   0  0  0  0  0  0  0  0  0  0  0  0
   -1.8769    3.4302    1.6645 H   0  0  0  0  0  0  0  0  0  0  0  0
   -0.2598    3.4806    2.4054 H   0  0  0  0  0  0  0  0  0  0  0  0
   -0.4486    3.7020    0.6489 H   0  0  0  0  0  0  0  0  0  0  0  0
  5  6  2  0  0  0  0
  5  7  1  0  0  0  0
  2  3  1  0  0  0  0
  2  4  1  0  0  0  0
  2  5  1  0  0  0  0
  1  2  1  0  0  0  0
 26 27  2  0  0  0  0
 26 28  1  0  0  0  0
 24 25  1  0  0  0  0
 22 23  1  0  0  0  0
 22 24  2  0  0  0  0
 20 21  1  0  0  0  0
 19 20  1  0  0  0  0
 19 22  1  0  0  0  0
 17 18  1  0  0  0  0
 17 19  2  0  0  0  0
 15 16  1  0  0  0  0
 15 17  1  0  0  0  0
 14 15  2  0  0  0  0
 14 24  1  0  0  0  0
 11 12  1  0  0  0  0
 11 13  1  0  0  0  0
 11 14  1  0  0  0  0
  9 10  1  0  0  0  0
  9 11  1  0  0  0  0
  9 26  1  0  0  0  0
  7  8  1  0  0  0  0
  7  9  1  0  0  0  0
 30 31  1  0  0  0  0
 30 32  1  0  0  0  0
 30 33  1  0  0  0  0
 28 29  1  0  0  0  0
 28 30  1  0  0  0  0
M  END
$$$$
default_name
  -OEChem-02102213163D

 33 33  0     1  0  0  0  0  0999 V2000
   -4.0702   -3.8485    1.4554 H   0  0  0  0  0  0  0  0  0  0  0  0
   -4.0012   -2.9605    0.8284 C   0  0  0  0  0  0  0  0  0  0  0  0
   -4.7652   -2.2435    1.1234 H   0  0  0  0  0  0  0  0  0  0  0  0
   -4.1352   -3.2385   -0.2156 H   0  0  0  0  0  0  0  0  0  0  0  0
   -2.6362   -2.3395    1.0094 C   0  0  0  0  0  0  0  0  0  0  0  0
   -1.8292   -2.8395    1.7814 O   0  0  0  0  0  0  0  0  0  0  0  0
   -2.3832   -1.2445    0.2964 N   0  0  0  0  0  0  0  0  0  0  0  0
   -3.1102   -0.8685   -0.2946 H   0  0  0  0  0  0  0  0  0  0  0  0
   -1.1292   -0.4875    0.3524 C   0  0  1  0  0  0  0  0  0  0  0  0
   -0.5898   -0.7762    1.2552 H   0  0  0  0  0  0  0  0  0  0  0  0
   -0.2608   -0.8470   -0.8656 C   0  0  0  0  0  0  0  0  0  0  0  0
    0.1614   -1.8419   -0.7184 H   0  0  0  0  0  0  0  0  0  0  0  0
   -0.8957   -0.8893   -1.7521 H   0  0  0  0  0  0  0  0  0  0  0  0
    0.8827    0.1179   -1.1125 C   0  0  0  0  0  0  0  0  0  0  0  0
    2.0777   -0.3327   -1.7085 C   0  0  0  0  0  0  0  0  0  0  0  0
    2.1927   -1.3769   -1.9684 H   0  0  0  0  0  0  0  0  0  0  0  0
    3.1214    0.5754   -1.9729 C   0  0  0  0  0  0  0  0  0  0  0  0
    4.0356    0.2265   -2.4279 H   0  0  0  0  0  0  0  0  0  0  0  0
    2.9675    1.9397   -1.6432 C   0  0  0  0  0  0  0  0  0  0  0  0
    3.9670    2.8239   -1.8968 O   0  0  0  0  0  0  0  0  0  0  0  0
    4.7599    2.3909   -2.2157 H   0  0  0  0  0  0  0  0  0  0  0  0
    1.7692    2.3898   -1.0514 C   0  0  0  0  0  0  0  0  0  0  0  0
    1.6652    3.4345   -0.7999 H   0  0  0  0  0  0  0  0  0  0  0  0
    0.7296    1.4788   -0.7842 C   0  0  0  0  0  0  0  0  0  0  0  0
   -0.1872    1.8237   -0.3210 H   0  0  0  0  0  0  0  0  0  0  0  0
   -1.4018    1.0238    0.4329 C   0  0  0  0  0  0  0  0  0  0  0  0
   -2.2416    1.5423   -0.3033 O   0  0  0  0  0  0  0  0  0  0  0  0
   -0.6927    1.7304    1.3223 N   0  0  0  0  0  0  0  0  0  0  0  0
    0.0178    1.2410    1.8469 H   0  0  0  0  0  0  0  0  0  0  0  0
   -0.8259    3.1712    1.5254 C   0  0  0  0  0  0  0  0  0  0  0  0
   -1.8769    3.4302    1.6645 H   0  0  0  0  0  0  0  0  0  0  0  0
   -0.2598    3.4806    2.4054 H   0  0  0  0  0  0  0  0  0  0  0  0
   -0.4486    3.7020    0.6489 H   0  0  0  0  0  0  0  0  0  0  0  0
  5  6  2  0  0  0  0
  5  7  1  0  0  0  0
  2  3  1  0  0  0  0
  2  4  1  0  0  0  0
  2  5  1  0  0  0  0
  1  2  1  0  0  0  0
 26 27  2  0  0  0  0
 26 28  1  0  0  0  0
 24 25  1  0  0  0  0
 22 23  1  0  0  0  0
 22 24  2  0  0  0  0
 20 21  1  0  0  0  0
 19 20  1  0  0  0  0
 19 22  1  0  0  0  0
 17 18  1  0  0  0  0
 17 19  2  0  0  0  0
 15 16  1  0  0  0  0
 15 17  1  0  0  0  0
 14 15  2  0  0  0  0
 14 24  1  0  0  0  0
 11 12  1  0  0  0  0
 11 13  1  0  0  0  0
 11 14  1  0  0  0  0
  9 10  1  0  0  0  0
  9 11  1  0  0  0  0
  9 26  1  0  0  0  0
  7  8  1  0  0  0  0
  7  9  1  0  0  0  0
 30 31  1  0  0  0  0
 30 32  1  0  0  0  0
 30 33  1  0  0  0  0
 28 29  1  0  0  0  0
 28 30  1  0  0  0  0
M  END
$$$$
default_name
  -OEChem-02102213163D

 33 33  0     1  0  0  0  0  0999 V2000
   -4.0702   -3.8485    1.4554 H   0  0  0  0  0  0  0  0  0  0  0  0
   -4.0012   -2.9605    0.8284 C   0  0  0  0  0  0  0  0  0  0  0  0
   -4.7652   -2.2435    1.1234 H   0  0  0  0  0  0  0  0  0  0  0  0
   -4.1352   -3.2385   -0.2156 H   0  0  0  0  0  0  0  0  0  0  0  0
   -2.6362   -2.3395    1.0094 C   0  0  0  0  0  0  0  0  0  0  0  0
   -1.8292   -2.8395    1.7814 O   0  0  0  0  0  0  0  0  0  0  0  0
   -2.3832   -1.2445    0.2964 N   0  0  0  0  0  0  0  0  0  0  0  0
   -3.1102   -0.8685   -0.2946 H   0  0  0  0  0  0  0  0  0  0  0  0
   -1.1292   -0.4875    0.3524 C   0  0  1  0  0  0  0  0  0  0  0  0
   -0.5898   -0.7762    1.2552 H   0  0  0  0  0  0  0  0  0  0  0  0
   -0.2608   -0.8470   -0.8656 C   0  0  0  0  0  0  0  0  0  0  0  0
    0.1614   -1.8419   -0.7184 H   0  0  0  0  0  0  0  0  0  0  0  0
   -0.8957   -0.8893   -1.7521 H   0  0  0  0  0  0  0  0  0  0  0  0
    0.8827    0.1179   -1.1125 C   0  0  0  0  0  0  0  0  0  0  0  0
    1.9381   -0.2360   -1.9769 C   0  0  0  0  0  0  0  0  0  0  0  0
    1.9486   -1.2103   -2.4477 H   0  0  0  0  0  0  0  0  0  0  0  0
    2.9771    0.6793   -2.2347 C   0  0  0  0  0  0  0  0  0  0  0  0
    3.7845    0.4043   -2.8959 H   0  0  0  0  0  0  0  0  0  0  0  0
    2.9583    1.9544   -1.6286 C   0  0  0  0  0  0  0  0  0  0  0  0
    3.9541    2.8453   -1.8731 O   0  0  0  0  0  0  0  0  0  0  0  0
    4.6589    2.4639   -2.3982 H   0  0  0  0  0  0  0  0  0  0  0  0
    1.8988    2.3087   -0.7678 C   0  0  0  0  0  0  0  0  0  0  0  0
    1.8979    3.2850   -0.3069 H   0  0  0  0  0  0  0  0  0  0  0  0
    0.8641    1.3899   -0.5085 C   0  0  0  0  0  0  0  0  0  0  0  0
    0.0553    1.6594    0.1603 H   0  0  0  0  0  0  0  0  0  0  0  0
   -1.4018    1.0238    0.4329 C   0  0  0  0  0  0  0  0  0  0  0  0
   -2.2416    1.5423   -0.3033 O   0  0  0  0  0  0  0  0  0  0  0  0
   -0.6927    1.7304    1.3223 N   0  0  0  0  0  0  0  0  0  0  0  0
    0.0178    1.2410    1.8469 H   0  0  0  0  0  0  0  0  0  0  0  0
   -0.8259    3.1712    1.5254 C   0  0  0  0  0  0  0  0  0  0  0  0
   -1.8769    3.4302    1.6645 H   0  0  0  0  0  0  0  0  0  0  0  0
   -0.2598    3.4806    2.4054 H   0  0  0  0  0  0  0  0  0  0  0  0
   -0.4486    3.7020    0.6489 H   0  0  0  0  0  0  0  0  0  0  0  0
  5  6  2  0  0  0  0
  5  7  1  0  0  0  0
  2  3  1  0  0  0  0
  2  4  1  0  0  0  0
  2  5  1  0  0  0  0
  1  2  1  0  0  0  0
 26 27  2  0  0  0  0
 26 28  1  0  0  0  0
 24 25  1  0  0  0  0
 22 23  1  0  0  0  0
 22 24  2  0  0  0  0
 20 21  1  0  0  0  0
 19 20  1  0  0  0  0
 19 22  1  0  0  0  0
 17 18  1  0  0  0  0
 17 19  2  0  0  0  0
 15 16  1  0  0  0  0
 15 17  1  0  0  0  0
 14 15  2  0  0  0  0
 14 24  1  0  0  0  0
 11 12  1  0  0  0  0
 11 13  1  0  0  0  0
 11 14  1  0  0  0  0
  9 10  1  0  0  0  0
  9 11  1  0  0  0  0
  9 26  1  0  0  0  0
  7  8  1  0  0  0  0
  7  9  1  0  0  0  0
 30 31  1  0  0  0  0
 30 32  1  0  0  0  0
 30 33  1  0  0  0  0
 28 29  1  0  0  0  0
 28 30  1  0  0  0  0
M  END
$$$$
